MODEL        1
REMARK 921   NORMALIZED FREE ENERGY PREDICTED BY IDOCK:   -7.63 KCAL/MOL
REMARK 922        TOTAL FREE ENERGY PREDICTED BY IDOCK:  -14.31 KCAL/MOL
REMARK 923 INTER-LIGAND FREE ENERGY PREDICTED BY IDOCK:  -12.54 KCAL/MOL
REMARK 924 INTRA-LIGAND FREE ENERGY PREDICTED BY IDOCK:   -1.77 KCAL/MOL
REMARK 927      BINDING AFFINITY PREDICTED BY RF-SCORE:    0.00 PKD
ROOT
HETATM    1  C   UNL     1      -9.763  19.117  68.910  1.00  0.00    -0.474 C  
HETATM    2  C   UNL     1     -10.451  18.795  67.582  1.00  0.00    -0.495 C  
HETATM    3  C   UNL     1     -11.156  20.074  67.089  1.00  0.00     0.062 C  
HETATM    4  C   UNL     1      -9.481  18.295  66.493  1.00  0.00    -0.310 C  
ENDROOT
BRANCH   4   5
HETATM    5  N   UNL     1      -8.676  17.038  66.799  1.00  0.00    -0.230 N  
BRANCH   5   6
HETATM    6  C   UNL     1      -9.176  15.815  65.993  1.00  0.00    -0.344 C  
BRANCH   6   7
HETATM    7  C   UNL     1     -10.730  15.627  65.892  1.00  0.00    -0.329 C  
HETATM    8  H   UNL     1     -12.029  15.408  64.448  1.00  0.00     0.000 HD 
HETATM    9  O   UNL     1     -11.087  15.521  64.509  1.00  0.00    -0.376 OA 
BRANCH   7  10
HETATM   10  C   UNL     1     -11.271  14.413  66.735  1.00  0.00    -0.337 C  
BRANCH  10  11
HETATM   11  N   UNL     1     -12.135  14.826  67.859  1.00  0.00    -0.580 N  
HETATM   12  O   UNL     1     -10.407  15.576  69.165  1.00  0.00    -0.212 OA 
HETATM   13  H   UNL     1     -13.145  14.704  67.786  1.00  0.00     0.000 HD 
HETATM   14  C   UNL     1     -11.600  15.372  68.999  1.00  0.00    -0.347 C  
BRANCH  14  15
HETATM   15  O   UNL     1     -12.560  15.633  69.933  1.00  0.00    -0.286 OA 
BRANCH  15  16
HETATM   16  C   UNL     1     -12.306  15.023  71.213  1.00  0.00    -0.323 C  
HETATM   17  C   UNL     1     -12.115  16.055  72.305  1.00  0.00    -0.617 C  
HETATM   18  O   UNL     1     -13.532  14.386  73.176  1.00  0.00    -0.625 OA 
HETATM   19  C   UNL     1     -12.479  15.280  73.552  1.00  0.00    -0.548 C  
HETATM   20  C   UNL     1     -13.486  14.214  71.750  1.00  0.00    -0.390 C  
ENDBRANCH  15  16
ENDBRANCH  14  15
ENDBRANCH  10  11
BRANCH  10  21
HETATM   21  C   UNL     1     -11.876  13.228  65.936  1.00  0.00    -0.436 C  
BRANCH  21  22
HETATM   22  C   UNL     1     -10.981  12.163  65.334  1.00  0.00    -0.346 A  
HETATM   23  C   UNL     1      -9.845  10.020  65.536  1.00  0.00    -0.373 A  
HETATM   24  C   UNL     1     -10.514  11.100  66.120  1.00  0.00    -0.307 A  
HETATM   25  C   UNL     1      -9.618   9.991  64.162  1.00  0.00    -0.274 A  
HETATM   26  C   UNL     1     -10.730  12.128  63.952  1.00  0.00    -0.456 A  
HETATM   27  C   UNL     1     -10.053  11.049  63.371  1.00  0.00    -0.424 A  
ENDBRANCH  21  22
ENDBRANCH  10  21
ENDBRANCH   7  10
ENDBRANCH   6   7
ENDBRANCH   5   6
BRANCH   5  28
HETATM   28  S   UNL     1      -6.961  17.320  66.509  1.00  0.00    -0.284 S  
HETATM   29  O   UNL     1      -6.229  16.102  66.765  1.00  0.00    -0.303 OA 
HETATM   30  O   UNL     1      -6.884  17.975  65.216  1.00  0.00    -0.420 OA 
BRANCH  28  31
HETATM   31  C   UNL     1      -6.445  18.486  67.739  1.00  0.00    -0.209 A  
HETATM   32  N   UNL     1      -5.159  21.258  70.627  1.00  0.00    -0.585 NA 
HETATM   33  H2  UNL     1      -4.166  21.071  70.759  1.00  0.00     0.000 HD 
HETATM   34  H1  UNL     1      -5.280  22.259  70.474  1.00  0.00     0.000 HD 
HETATM   35  C   UNL     1      -5.898  18.034  68.941  1.00  0.00    -0.201 A  
HETATM   36  C   UNL     1      -5.497  18.964  69.909  1.00  0.00    -0.229 A  
HETATM   37  C   UNL     1      -6.532  19.861  67.481  1.00  0.00    -0.236 A  
HETATM   38  C   UNL     1      -6.121  20.778  68.454  1.00  0.00    -0.379 A  
HETATM   39  C   UNL     1      -5.662  20.339  69.699  1.00  0.00    -0.318 A  
ENDBRANCH  28  31
ENDBRANCH   5  28
ENDBRANCH   4   5
TORSDOF 11
ENDMDL
MODEL        2
REMARK 921   NORMALIZED FREE ENERGY PREDICTED BY IDOCK:   -7.22 KCAL/MOL
REMARK 922        TOTAL FREE ENERGY PREDICTED BY IDOCK:  -13.63 KCAL/MOL
REMARK 923 INTER-LIGAND FREE ENERGY PREDICTED BY IDOCK:  -11.71 KCAL/MOL
REMARK 924 INTRA-LIGAND FREE ENERGY PREDICTED BY IDOCK:   -1.92 KCAL/MOL
REMARK 927      BINDING AFFINITY PREDICTED BY RF-SCORE:    0.00 PKD
ROOT
HETATM    1  C   UNL     1     -10.983   9.249  70.260  1.00  0.00    -0.286 C  
HETATM    2  C   UNL     1      -9.524   9.676  70.428  1.00  0.00    -0.280 C  
HETATM    3  C   UNL     1      -8.827   8.643  71.337  1.00  0.00    -0.276 C  
HETATM    4  C   UNL     1      -8.757   9.781  69.095  1.00  0.00    -0.155 C  
ENDROOT
BRANCH   4   5
HETATM    5  N   UNL     1      -9.301  10.749  68.051  1.00  0.00    -0.147 N  
BRANCH   5   6
HETATM    6  C   UNL     1      -8.313  11.904  67.756  1.00  0.00    -0.149 C  
BRANCH   6   7
HETATM    7  C   UNL     1      -8.416  13.170  68.676  1.00  0.00     0.029 C  
HETATM    8  H   UNL     1      -7.160  14.450  69.452  1.00  0.00     0.000 HD 
HETATM    9  O   UNL     1      -7.097  13.683  68.895  1.00  0.00    -0.108 OA 
BRANCH   7  10
HETATM   10  C   UNL     1      -9.391  14.272  68.117  1.00  0.00    -0.206 C  
BRANCH  10  11
HETATM   11  N   UNL     1     -10.137  14.979  69.177  1.00  0.00    -0.240 N  
HETATM   12  O   UNL     1     -12.201  14.563  68.270  1.00  0.00    -0.233 OA 
HETATM   13  H   UNL     1      -9.626  15.409  69.949  1.00  0.00     0.000 HD 
HETATM   14  C   UNL     1     -11.507  15.066  69.141  1.00  0.00    -0.301 C  
BRANCH  14  15
HETATM   15  O   UNL     1     -11.994  15.804  70.180  1.00  0.00    -0.353 OA 
BRANCH  15  16
HETATM   16  C   UNL     1     -11.902  15.142  71.456  1.00  0.00    -0.377 C  
HETATM   17  C   UNL     1     -12.010  16.118  72.610  1.00  0.00    -0.653 C  
HETATM   18  O   UNL     1     -13.375  14.272  73.140  1.00  0.00    -0.643 OA 
HETATM   19  C   UNL     1     -12.501  15.236  73.737  1.00  0.00    -0.615 C  
HETATM   20  C   UNL     1     -13.067  14.195  71.738  1.00  0.00    -0.357 C  
ENDBRANCH  15  16
ENDBRANCH  14  15
ENDBRANCH  10  11
BRANCH  10  21
HETATM   21  C   UNL     1      -8.803  15.251  67.064  1.00  0.00    -0.261 C  
BRANCH  21  22
HETATM   22  C   UNL     1      -9.175  16.720  67.082  1.00  0.00    -0.233 A  
HETATM   23  C   UNL     1      -8.573  19.028  67.569  1.00  0.00    -0.311 A  
HETATM   24  C   UNL     1      -8.338  17.656  67.704  1.00  0.00    -0.226 A  
HETATM   25  C   UNL     1      -9.657  19.486  66.822  1.00  0.00    -0.447 A  
HETATM   26  C   UNL     1     -10.273  17.197  66.346  1.00  0.00    -0.331 A  
HETATM   27  C   UNL     1     -10.512  18.570  66.218  1.00  0.00    -0.441 A  
ENDBRANCH  21  22
ENDBRANCH  10  21
ENDBRANCH   7  10
ENDBRANCH   6   7
ENDBRANCH   5   6
BRANCH   5  28
HETATM   28  S   UNL     1      -9.719   9.889  66.572  1.00  0.00    -0.218 S  
HETATM   29  O   UNL     1      -8.508   9.508  65.885  1.00  0.00    -0.120 OA 
HETATM   30  O   UNL     1     -10.697   8.890  66.962  1.00  0.00    -0.248 OA 
BRANCH  28  31
HETATM   31  C   UNL     1     -10.537  11.071  65.536  1.00  0.00    -0.200 A  
HETATM   32  N   UNL     1     -12.425  13.917  63.085  1.00  0.00    -1.079 NA 
HETATM   33  H2  UNL     1     -12.158  14.824  63.467  1.00  0.00     0.000 HD 
HETATM   34  H1  UNL     1     -12.254  13.930  62.079  1.00  0.00     0.000 HD 
HETATM   35  C   UNL     1     -11.446  11.973  66.092  1.00  0.00    -0.401 A  
HETATM   36  C   UNL     1     -12.091  12.901  65.263  1.00  0.00    -0.496 A  
HETATM   37  C   UNL     1     -10.228  11.138  64.170  1.00  0.00    -0.405 A  
HETATM   38  C   UNL     1     -10.874  12.074  63.357  1.00  0.00    -0.471 A  
HETATM   39  C   UNL     1     -11.857  12.918  63.883  1.00  0.00    -0.473 A  
ENDBRANCH  28  31
ENDBRANCH   5  28
ENDBRANCH   4   5
TORSDOF 11
ENDMDL
MODEL        3
REMARK 921   NORMALIZED FREE ENERGY PREDICTED BY IDOCK:   -7.10 KCAL/MOL
REMARK 922        TOTAL FREE ENERGY PREDICTED BY IDOCK:  -13.44 KCAL/MOL
REMARK 923 INTER-LIGAND FREE ENERGY PREDICTED BY IDOCK:  -12.19 KCAL/MOL
REMARK 924 INTRA-LIGAND FREE ENERGY PREDICTED BY IDOCK:   -1.24 KCAL/MOL
REMARK 927      BINDING AFFINITY PREDICTED BY RF-SCORE:    0.00 PKD
ROOT
HETATM    1  C   UNL     1     -13.986  15.048  71.125  1.00  0.00    -0.451 C  
HETATM    2  C   UNL     1     -12.493  15.272  70.884  1.00  0.00    -0.446 C  
HETATM    3  C   UNL     1     -11.855  15.705  72.219  1.00  0.00    -0.578 C  
HETATM    4  C   UNL     1     -11.762  14.023  70.352  1.00  0.00    -0.222 C  
ENDROOT
BRANCH   4   5
HETATM    5  N   UNL     1     -12.258  13.432  69.037  1.00  0.00    -0.239 N  
BRANCH   5   6
HETATM    6  C   UNL     1     -12.243  14.471  67.889  1.00  0.00    -0.109 C  
BRANCH   6   7
HETATM    7  C   UNL     1     -12.106  13.906  66.432  1.00  0.00    -0.455 C  
HETATM    8  H   UNL     1     -13.282  13.711  64.883  1.00  0.00     0.000 HD 
HETATM    9  O   UNL     1     -13.365  14.053  65.766  1.00  0.00    -0.543 OA 
BRANCH   7  10
HETATM   10  C   UNL     1     -10.928  14.556  65.616  1.00  0.00    -0.323 C  
BRANCH  10  11
HETATM   11  N   UNL     1     -10.774  16.003  65.873  1.00  0.00    -0.309 N  
HETATM   12  O   UNL     1     -11.611  16.650  63.839  1.00  0.00    -1.204 OA 
HETATM   13  H   UNL     1     -10.397  16.316  66.768  1.00  0.00     0.000 HD 
HETATM   14  C   UNL     1     -11.131  16.931  64.927  1.00  0.00     0.036 C  
BRANCH  14  15
HETATM   15  O   UNL     1     -10.859  18.203  65.340  1.00  0.00    -0.556 OA 
BRANCH  15  16
HETATM   16  C   UNL     1     -10.047  18.267  66.528  1.00  0.00    -0.385 C  
HETATM   17  C   UNL     1      -8.677  18.849  66.249  1.00  0.00    -0.260 C  
HETATM   18  O   UNL     1      -9.465  19.863  68.224  1.00  0.00    -0.343 OA 
HETATM   19  C   UNL     1      -8.268  19.383  67.604  1.00  0.00    -0.294 C  
HETATM   20  C   UNL     1     -10.586  19.229  67.585  1.00  0.00    -0.447 C  
ENDBRANCH  15  16
ENDBRANCH  14  15
ENDBRANCH  10  11
BRANCH  10  21
HETATM   21  C   UNL     1      -9.568  13.810  65.644  1.00  0.00    -0.041 C  
BRANCH  21  22
HETATM   22  C   UNL     1      -9.425  12.438  65.015  1.00  0.00     0.182 A  
HETATM   23  C   UNL     1      -8.829  10.087  65.228  1.00  0.00    -0.205 A  
HETATM   24  C   UNL     1      -8.803  11.397  65.718  1.00  0.00    -0.115 A  
HETATM   25  C   UNL     1      -9.464   9.799  64.021  1.00  0.00    -0.131 A  
HETATM   26  C   UNL     1     -10.048  12.135  63.793  1.00  0.00    -0.404 A  
HETATM   27  C   UNL     1     -10.067  10.825  63.300  1.00  0.00    -0.314 A  
ENDBRANCH  21  22
ENDBRANCH  10  21
ENDBRANCH   7  10
ENDBRANCH   6   7
ENDBRANCH   5   6
BRANCH   5  28
HETATM   28  S   UNL     1     -11.313  12.010  68.607  1.00  0.00    -0.304 S  
HETATM   29  O   UNL     1     -11.852  11.427  67.401  1.00  0.00    -0.609 OA 
HETATM   30  O   UNL     1      -9.924  12.426  68.673  1.00  0.00    -0.196 OA 
BRANCH  28  31
HETATM   31  C   UNL     1     -11.588  10.833  69.902  1.00  0.00    -0.331 A  
HETATM   32  N   UNL     1     -12.230   8.088  73.022  1.00  0.00    -0.645 NA 
HETATM   33  H2  UNL     1     -11.617   8.390  73.779  1.00  0.00     0.000 HD 
HETATM   34  H1  UNL     1     -13.165   7.946  73.403  1.00  0.00     0.000 HD 
HETATM   35  C   UNL     1     -10.524  10.069  70.386  1.00  0.00    -0.304 A  
HETATM   36  C   UNL     1     -10.752   9.138  71.408  1.00  0.00    -0.414 A  
HETATM   37  C   UNL     1     -12.859  10.710  70.480  1.00  0.00    -0.356 A  
HETATM   38  C   UNL     1     -13.070   9.781  71.504  1.00  0.00    -0.506 A  
HETATM   39  C   UNL     1     -12.036   8.942  71.931  1.00  0.00    -0.371 A  
ENDBRANCH  28  31
ENDBRANCH   5  28
ENDBRANCH   4   5
TORSDOF 11
ENDMDL
MODEL        4
REMARK 921   NORMALIZED FREE ENERGY PREDICTED BY IDOCK:   -7.03 KCAL/MOL
REMARK 922        TOTAL FREE ENERGY PREDICTED BY IDOCK:  -13.33 KCAL/MOL
REMARK 923 INTER-LIGAND FREE ENERGY PREDICTED BY IDOCK:  -11.59 KCAL/MOL
REMARK 924 INTRA-LIGAND FREE ENERGY PREDICTED BY IDOCK:   -1.73 KCAL/MOL
REMARK 927      BINDING AFFINITY PREDICTED BY RF-SCORE:    0.00 PKD
ROOT
HETATM    1  C   UNL     1      -7.612   9.944  69.824  1.00  0.00    -0.151 C  
HETATM    2  C   UNL     1      -7.139  11.014  68.839  1.00  0.00    -0.098 C  
HETATM    3  C   UNL     1      -5.872  10.487  68.136  1.00  0.00    -0.043 C  
HETATM    4  C   UNL     1      -8.194  11.382  67.778  1.00  0.00    -0.125 C  
ENDROOT
BRANCH   4   5
HETATM    5  N   UNL     1      -9.531  11.916  68.279  1.00  0.00    -0.194 N  
BRANCH   5   6
HETATM    6  C   UNL     1      -9.843  13.325  67.720  1.00  0.00    -0.224 C  
BRANCH   6   7
HETATM    7  C   UNL     1      -9.353  14.545  68.577  1.00  0.00    -0.203 C  
HETATM    8  H   UNL     1      -7.901  15.849  68.465  1.00  0.00     0.000 HD 
HETATM    9  O   UNL     1      -8.198  15.110  67.946  1.00  0.00    -0.137 OA 
BRANCH   7  10
HETATM   10  C   UNL     1     -10.472  15.622  68.830  1.00  0.00    -0.225 C  
BRANCH  10  11
HETATM   11  N   UNL     1     -10.574  16.619  67.745  1.00  0.00    -0.336 N  
HETATM   12  O   UNL     1     -10.193  18.424  69.106  1.00  0.00    -0.326 OA 
HETATM   13  H   UNL     1     -10.752  16.306  66.790  1.00  0.00     0.000 HD 
HETATM   14  C   UNL     1     -10.431  17.960  68.000  1.00  0.00    -0.382 C  
BRANCH  14  15
HETATM   15  O   UNL     1     -10.614  18.711  66.877  1.00  0.00    -0.397 OA 
BRANCH  15  16
HETATM   16  C   UNL     1      -9.395  19.260  66.339  1.00  0.00    -0.360 C  
HETATM   17  C   UNL     1      -8.917  20.461  67.130  1.00  0.00    -0.453 C  
HETATM   18  O   UNL     1      -7.031  19.108  66.726  1.00  0.00    -0.198 OA 
HETATM   19  C   UNL     1      -7.434  20.477  66.831  1.00  0.00    -0.285 C  
HETATM   20  C   UNL     1      -8.199  18.317  66.450  1.00  0.00    -0.251 C  
ENDBRANCH  15  16
ENDBRANCH  14  15
ENDBRANCH  10  11
BRANCH  10  21
HETATM   21  C   UNL     1     -11.863  15.090  69.266  1.00  0.00    -0.344 C  
BRANCH  21  22
HETATM   22  C   UNL     1     -12.429  15.432  70.630  1.00  0.00    -0.478 A  
HETATM   23  C   UNL     1     -14.185  15.170  72.296  1.00  0.00    -0.613 A  
HETATM   24  C   UNL     1     -13.722  15.023  70.985  1.00  0.00    -0.417 A  
HETATM   25  C   UNL     1     -13.369  15.742  73.271  1.00  0.00    -0.649 A  
HETATM   26  C   UNL     1     -11.624  16.021  71.620  1.00  0.00    -0.538 A  
HETATM   27  C   UNL     1     -12.091  16.175  72.930  1.00  0.00    -0.643 A  
ENDBRANCH  21  22
ENDBRANCH  10  21
ENDBRANCH   7  10
ENDBRANCH   6   7
ENDBRANCH   5   6
BRANCH   5  28
HETATM   28  S   UNL     1     -10.828  10.788  67.892  1.00  0.00    -0.286 S  
HETATM   29  O   UNL     1     -11.843  11.475  67.128  1.00  0.00    -0.595 OA 
HETATM   30  O   UNL     1     -10.175   9.605  67.364  1.00  0.00    -0.197 OA 
BRANCH  28  31
HETATM   31  C   UNL     1     -11.571  10.351  69.440  1.00  0.00    -0.202 A  
HETATM   32  N   UNL     1     -13.377   9.271  73.080  1.00  0.00    -0.762 NA 
HETATM   33  H2  UNL     1     -14.355   9.091  72.855  1.00  0.00     0.000 HD 
HETATM   34  H1  UNL     1     -13.021   8.484  73.621  1.00  0.00     0.000 HD 
HETATM   35  C   UNL     1     -12.632  11.108  69.941  1.00  0.00    -0.171 A  
HETATM   36  C   UNL     1     -13.211  10.757  71.168  1.00  0.00    -0.266 A  
HETATM   37  C   UNL     1     -11.134   9.214  70.131  1.00  0.00    -0.248 A  
HETATM   38  C   UNL     1     -11.725   8.871  71.351  1.00  0.00    -0.385 A  
HETATM   39  C   UNL     1     -12.722   9.676  71.911  1.00  0.00    -0.411 A  
ENDBRANCH  28  31
ENDBRANCH   5  28
ENDBRANCH   4   5
TORSDOF 11
ENDMDL
MODEL        5
REMARK 921   NORMALIZED FREE ENERGY PREDICTED BY IDOCK:   -7.03 KCAL/MOL
REMARK 922        TOTAL FREE ENERGY PREDICTED BY IDOCK:  -13.32 KCAL/MOL
REMARK 923 INTER-LIGAND FREE ENERGY PREDICTED BY IDOCK:  -11.35 KCAL/MOL
REMARK 924 INTRA-LIGAND FREE ENERGY PREDICTED BY IDOCK:   -1.98 KCAL/MOL
REMARK 927      BINDING AFFINITY PREDICTED BY RF-SCORE:    0.00 PKD
ROOT
HETATM    1  C   UNL     1      -7.611   9.674  70.349  1.00  0.00    -0.176 C  
HETATM    2  C   UNL     1      -7.034  10.111  69.001  1.00  0.00    -0.058 C  
HETATM    3  C   UNL     1      -5.967   9.079  68.584  1.00  0.00    -0.045 C  
HETATM    4  C   UNL     1      -8.093  10.226  67.887  1.00  0.00    -0.102 C  
ENDROOT
BRANCH   4   5
HETATM    5  N   UNL     1      -9.246  11.196  68.119  1.00  0.00    -0.159 N  
BRANCH   5   6
HETATM    6  C   UNL     1      -9.068  12.513  67.327  1.00  0.00    -0.189 C  
BRANCH   6   7
HETATM    7  C   UNL     1      -8.705  13.792  68.160  1.00  0.00    -0.183 C  
HETATM    8  H   UNL     1      -7.076  14.796  68.556  1.00  0.00     0.000 HD 
HETATM    9  O   UNL     1      -7.296  14.022  68.051  1.00  0.00    -0.109 OA 
BRANCH   7  10
HETATM   10  C   UNL     1      -9.542  15.062  67.755  1.00  0.00    -0.203 C  
BRANCH  10  11
HETATM   11  N   UNL     1     -10.400  15.564  68.848  1.00  0.00    -0.213 N  
HETATM   12  O   UNL     1     -12.191  14.236  68.312  1.00  0.00    -0.292 OA 
HETATM   13  H   UNL     1     -10.035  16.269  69.488  1.00  0.00     0.000 HD 
HETATM   14  C   UNL     1     -11.680  15.095  69.015  1.00  0.00    -0.335 C  
BRANCH  14  15
HETATM   15  O   UNL     1     -12.318  15.725  70.043  1.00  0.00    -0.354 OA 
BRANCH  15  16
HETATM   16  C   UNL     1     -12.042  15.153  71.336  1.00  0.00    -0.338 C  
HETATM   17  C   UNL     1     -12.134  16.183  72.443  1.00  0.00    -0.630 C  
HETATM   18  O   UNL     1     -13.256  14.255  73.201  1.00  0.00    -0.616 OA 
HETATM   19  C   UNL     1     -12.427  15.329  73.657  1.00  0.00    -0.589 C  
HETATM   20  C   UNL     1     -13.076  14.121  71.781  1.00  0.00    -0.357 C  
ENDBRANCH  15  16
ENDBRANCH  14  15
ENDBRANCH  10  11
BRANCH  10  21
HETATM   21  C   UNL     1      -8.771  16.206  67.045  1.00  0.00    -0.228 C  
BRANCH  21  22
HETATM   22  C   UNL     1      -9.259  17.638  67.132  1.00  0.00    -0.245 A  
HETATM   23  C   UNL     1      -8.894  19.937  67.845  1.00  0.00    -0.365 A  
HETATM   24  C   UNL     1      -8.564  18.579  67.904  1.00  0.00    -0.304 A  
HETATM   25  C   UNL     1      -9.934  20.374  67.026  1.00  0.00    -0.568 A  
HETATM   26  C   UNL     1     -10.315  18.092  66.323  1.00  0.00    -0.407 A  
HETATM   27  C   UNL     1     -10.649  19.450  66.272  1.00  0.00    -0.569 A  
ENDBRANCH  21  22
ENDBRANCH  10  21
ENDBRANCH   7  10
ENDBRANCH   6   7
ENDBRANCH   5   6
BRANCH   5  28
HETATM   28  S   UNL     1     -10.782  10.430  67.725  1.00  0.00    -0.300 S  
HETATM   29  O   UNL     1     -11.661  11.408  67.127  1.00  0.00    -0.556 OA 
HETATM   30  O   UNL     1     -10.442   9.208  67.019  1.00  0.00    -0.260 OA 
BRANCH  28  31
HETATM   31  C   UNL     1     -11.512   9.976  69.274  1.00  0.00    -0.055 A  
HETATM   32  N   UNL     1     -13.196   8.931  72.982  1.00  0.00    -0.855 NA 
HETATM   33  H2  UNL     1     -12.407   8.829  73.619  1.00  0.00     0.000 HD 
HETATM   34  H1  UNL     1     -13.890   9.533  73.423  1.00  0.00     0.000 HD 
HETATM   35  C   UNL     1     -11.161   8.769  69.881  1.00  0.00    -0.129 A  
HETATM   36  C   UNL     1     -11.747   8.416  71.104  1.00  0.00    -0.315 A  
HETATM   37  C   UNL     1     -12.397  10.852  69.916  1.00  0.00    -0.354 A  
HETATM   38  C   UNL     1     -12.969  10.490  71.139  1.00  0.00    -0.506 A  
HETATM   39  C   UNL     1     -12.700   9.243  71.711  1.00  0.00    -0.381 A  
ENDBRANCH  28  31
ENDBRANCH   5  28
ENDBRANCH   4   5
TORSDOF 11
ENDMDL
MODEL        6
REMARK 921   NORMALIZED FREE ENERGY PREDICTED BY IDOCK:   -7.01 KCAL/MOL
REMARK 922        TOTAL FREE ENERGY PREDICTED BY IDOCK:  -13.29 KCAL/MOL
REMARK 923 INTER-LIGAND FREE ENERGY PREDICTED BY IDOCK:  -11.36 KCAL/MOL
REMARK 924 INTRA-LIGAND FREE ENERGY PREDICTED BY IDOCK:   -1.93 KCAL/MOL
REMARK 927      BINDING AFFINITY PREDICTED BY RF-SCORE:    0.00 PKD
ROOT
HETATM    1  C   UNL     1      -6.407  10.831  70.114  1.00  0.00    -0.147 C  
HETATM    2  C   UNL     1      -6.884   9.948  68.961  1.00  0.00    -0.054 C  
HETATM    3  C   UNL     1      -6.128   8.606  69.043  1.00  0.00    -0.043 C  
HETATM    4  C   UNL     1      -8.402   9.679  68.980  1.00  0.00    -0.122 C  
ENDROOT
BRANCH   4   5
HETATM    5  N   UNL     1      -9.326  10.890  68.917  1.00  0.00    -0.180 N  
BRANCH   5   6
HETATM    6  C   UNL     1      -8.993  11.816  67.722  1.00  0.00    -0.173 C  
BRANCH   6   7
HETATM    7  C   UNL     1      -8.652  13.309  68.062  1.00  0.00    -0.178 C  
HETATM    8  H   UNL     1      -7.110  14.487  67.829  1.00  0.00     0.000 HD 
HETATM    9  O   UNL     1      -7.317  13.583  67.623  1.00  0.00    -0.146 OA 
BRANCH   7  10
HETATM   10  C   UNL     1      -9.688  14.337  67.474  1.00  0.00    -0.223 C  
BRANCH  10  11
HETATM   11  N   UNL     1      -9.587  15.677  68.087  1.00  0.00    -0.196 N  
HETATM   12  O   UNL     1     -11.847  15.928  68.373  1.00  0.00    -0.322 OA 
HETATM   13  H   UNL     1      -8.668  16.098  68.222  1.00  0.00     0.000 HD 
HETATM   14  C   UNL     1     -10.710  16.364  68.476  1.00  0.00    -0.320 C  
BRANCH  14  15
HETATM   15  O   UNL     1     -10.403  17.599  68.965  1.00  0.00    -0.360 OA 
BRANCH  15  16
HETATM   16  C   UNL     1      -9.741  18.453  68.013  1.00  0.00    -0.316 C  
HETATM   17  C   UNL     1     -10.554  18.629  66.747  1.00  0.00    -0.422 C  
HETATM   18  O   UNL     1      -9.755  20.761  67.352  1.00  0.00    -0.465 OA 
HETATM   19  C   UNL     1     -10.040  19.947  66.211  1.00  0.00    -0.502 C  
HETATM   20  C   UNL     1      -9.587  19.896  68.489  1.00  0.00    -0.279 C  
ENDBRANCH  15  16
ENDBRANCH  14  15
ENDBRANCH  10  11
BRANCH  10  21
HETATM   21  C   UNL     1      -9.796  14.408  65.927  1.00  0.00    -0.336 C  
BRANCH  21  22
HETATM   22  C   UNL     1     -10.706  13.461  65.171  1.00  0.00    -0.339 A  
HETATM   23  C   UNL     1     -12.950  12.811  64.484  1.00  0.00    -0.210 A  
HETATM   24  C   UNL     1     -12.098  13.551  65.311  1.00  0.00    -0.439 A  
HETATM   25  C   UNL     1     -12.425  11.959  63.515  1.00  0.00    -0.609 A  
HETATM   26  C   UNL     1     -10.192  12.584  64.200  1.00  0.00    -0.376 A  
HETATM   27  C   UNL     1     -11.045  11.839  63.379  1.00  0.00    -0.448 A  
ENDBRANCH  21  22
ENDBRANCH  10  21
ENDBRANCH   7  10
ENDBRANCH   6   7
ENDBRANCH   5   6
BRANCH   5  28
HETATM   28  S   UNL     1     -11.010  10.377  68.862  1.00  0.00    -0.255 S  
HETATM   29  O   UNL     1     -11.553  10.667  67.556  1.00  0.00    -0.482 OA 
HETATM   30  O   UNL     1     -11.025   9.024  69.388  1.00  0.00    -0.182 OA 
BRANCH  28  31
HETATM   31  C   UNL     1     -11.873  11.415  70.010  1.00  0.00    -0.359 A  
HETATM   32  N   UNL     1     -13.978  13.866  72.699  1.00  0.00    -0.713 NA 
HETATM   33  H2  UNL     1     -14.697  14.326  72.141  1.00  0.00     0.000 HD 
HETATM   34  H1  UNL     1     -14.420  13.467  73.527  1.00  0.00     0.000 HD 
HETATM   35  C   UNL     1     -11.923  12.794  69.799  1.00  0.00    -0.362 A  
HETATM   36  C   UNL     1     -12.604  13.607  70.715  1.00  0.00    -0.397 A  
HETATM   37  C   UNL     1     -12.553  10.846  71.095  1.00  0.00    -0.532 A  
HETATM   38  C   UNL     1     -13.234  11.669  71.997  1.00  0.00    -0.443 A  
HETATM   39  C   UNL     1     -13.211  13.059  71.851  1.00  0.00    -0.430 A  
ENDBRANCH  28  31
ENDBRANCH   5  28
ENDBRANCH   4   5
TORSDOF 11
ENDMDL
MODEL        7
REMARK 921   NORMALIZED FREE ENERGY PREDICTED BY IDOCK:   -6.98 KCAL/MOL
REMARK 922        TOTAL FREE ENERGY PREDICTED BY IDOCK:  -13.24 KCAL/MOL
REMARK 923 INTER-LIGAND FREE ENERGY PREDICTED BY IDOCK:  -11.01 KCAL/MOL
REMARK 924 INTRA-LIGAND FREE ENERGY PREDICTED BY IDOCK:   -2.23 KCAL/MOL
REMARK 927      BINDING AFFINITY PREDICTED BY RF-SCORE:    0.00 PKD
ROOT
HETATM    1  C   UNL     1     -11.617   5.234  72.357  1.00  0.00    -0.097 C  
HETATM    2  C   UNL     1     -10.719   6.022  73.312  1.00  0.00    -0.284 C  
HETATM    3  C   UNL     1     -10.289   5.076  74.451  1.00  0.00    -0.321 C  
HETATM    4  C   UNL     1      -9.464   6.606  72.634  1.00  0.00    -0.142 C  
ENDROOT
BRANCH   4   5
HETATM    5  N   UNL     1      -9.682   7.563  71.468  1.00  0.00    -0.166 N  
BRANCH   5   6
HETATM    6  C   UNL     1     -10.430   8.848  71.901  1.00  0.00    -0.345 C  
BRANCH   6   7
HETATM    7  C   UNL     1     -11.858   9.070  71.288  1.00  0.00    -0.312 C  
HETATM    8  H   UNL     1     -13.699   8.784  71.875  1.00  0.00     0.000 HD 
HETATM    9  O   UNL     1     -12.835   8.649  72.246  1.00  0.00    -0.360 OA 
BRANCH   7  10
HETATM   10  C   UNL     1     -12.107  10.546  70.802  1.00  0.00    -0.370 C  
BRANCH  10  11
HETATM   11  N   UNL     1     -12.357  10.644  69.350  1.00  0.00    -0.535 N  
HETATM   12  O   UNL     1     -10.227  11.316  68.833  1.00  0.00    -0.200 OA 
HETATM   13  H   UNL     1     -13.280  10.412  68.983  1.00  0.00     0.000 HD 
HETATM   14  C   UNL     1     -11.366  11.042  68.486  1.00  0.00    -0.287 C  
BRANCH  14  15
HETATM   15  O   UNL     1     -11.817  11.119  67.201  1.00  0.00    -0.466 OA 
BRANCH  15  16
HETATM   16  C   UNL     1     -11.192  12.160  66.427  1.00  0.00    -0.331 C  
HETATM   17  C   UNL     1     -11.229  11.863  64.942  1.00  0.00    -0.350 C  
HETATM   18  O   UNL     1     -11.833  14.125  65.207  1.00  0.00    -0.340 OA 
HETATM   19  C   UNL     1     -11.122  13.244  64.332  1.00  0.00    -0.384 C  
HETATM   20  C   UNL     1     -11.926  13.498  66.497  1.00  0.00    -0.413 C  
ENDBRANCH  15  16
ENDBRANCH  14  15
ENDBRANCH  10  11
BRANCH  10  21
HETATM   21  C   UNL     1     -13.116  11.389  71.627  1.00  0.00    -0.498 C  
BRANCH  21  22
HETATM   22  C   UNL     1     -13.027  12.902  71.645  1.00  0.00    -0.410 A  
HETATM   23  C   UNL     1     -12.171  14.963  70.673  1.00  0.00    -0.379 A  
HETATM   24  C   UNL     1     -12.133  13.571  70.798  1.00  0.00    -0.351 A  
HETATM   25  C   UNL     1     -13.093  15.711  71.403  1.00  0.00    -0.559 A  
HETATM   26  C   UNL     1     -13.940  13.671  72.387  1.00  0.00    -0.651 A  
HETATM   27  C   UNL     1     -13.972  15.064  72.266  1.00  0.00    -0.611 A  
ENDBRANCH  21  22
ENDBRANCH  10  21
ENDBRANCH   7  10
ENDBRANCH   6   7
ENDBRANCH   5   6
BRANCH   5  28
HETATM   28  S   UNL     1      -8.147   7.961  70.702  1.00  0.00    -0.104 S  
HETATM   29  O   UNL     1      -7.662   9.215  71.231  1.00  0.00    -0.266 OA 
HETATM   30  O   UNL     1      -7.340   6.757  70.791  1.00  0.00    -0.075 OA 
BRANCH  28  31
HETATM   31  C   UNL     1      -8.514   8.243  68.992  1.00  0.00    -0.131 A  
HETATM   32  N   UNL     1      -9.353   8.853  64.918  1.00  0.00    -0.407 NA 
HETATM   33  H2  UNL     1      -8.561   8.454  64.415  1.00  0.00     0.000 HD 
HETATM   34  H1  UNL     1     -10.212   8.490  64.506  1.00  0.00     0.000 HD 
HETATM   35  C   UNL     1      -7.638   8.995  68.208  1.00  0.00    -0.091 A  
HETATM   36  C   UNL     1      -7.939   9.217  66.857  1.00  0.00    -0.105 A  
HETATM   37  C   UNL     1      -9.651   7.663  68.414  1.00  0.00    -0.155 A  
HETATM   38  C   UNL     1      -9.935   7.886  67.064  1.00  0.00    -0.322 A  
HETATM   39  C   UNL     1      -9.118   8.717  66.291  1.00  0.00    -0.193 A  
ENDBRANCH  28  31
ENDBRANCH   5  28
ENDBRANCH   4   5
TORSDOF 11
ENDMDL
MODEL        8
REMARK 921   NORMALIZED FREE ENERGY PREDICTED BY IDOCK:   -6.94 KCAL/MOL
REMARK 922        TOTAL FREE ENERGY PREDICTED BY IDOCK:  -13.17 KCAL/MOL
REMARK 923 INTER-LIGAND FREE ENERGY PREDICTED BY IDOCK:  -12.17 KCAL/MOL
REMARK 924 INTRA-LIGAND FREE ENERGY PREDICTED BY IDOCK:   -1.00 KCAL/MOL
REMARK 927      BINDING AFFINITY PREDICTED BY RF-SCORE:    0.00 PKD
ROOT
HETATM    1  C   UNL     1     -11.502   8.918  70.692  1.00  0.00    -0.280 C  
HETATM    2  C   UNL     1     -10.107   9.543  70.747  1.00  0.00    -0.352 C  
HETATM    3  C   UNL     1      -9.222   8.654  71.644  1.00  0.00    -0.326 C  
HETATM    4  C   UNL     1      -9.444   9.689  69.363  1.00  0.00    -0.192 C  
ENDROOT
BRANCH   4   5
HETATM    5  N   UNL     1     -10.177  10.529  68.323  1.00  0.00    -0.157 N  
BRANCH   5   6
HETATM    6  C   UNL     1      -9.909  12.043  68.504  1.00  0.00    -0.172 C  
BRANCH   6   7
HETATM    7  C   UNL     1     -11.161  12.952  68.765  1.00  0.00    -0.279 C  
HETATM    8  H   UNL     1     -12.639  12.975  70.043  1.00  0.00     0.000 HD 
HETATM    9  O   UNL     1     -11.881  12.425  69.885  1.00  0.00    -0.322 OA 
BRANCH   7  10
HETATM   10  C   UNL     1     -10.801  14.472  68.958  1.00  0.00    -0.254 C  
BRANCH  10  11
HETATM   11  N   UNL     1      -9.874  14.983  67.929  1.00  0.00    -0.216 N  
HETATM   12  O   UNL     1      -8.207  15.504  69.415  1.00  0.00    -0.239 OA 
HETATM   13  H   UNL     1     -10.156  14.972  66.949  1.00  0.00     0.000 HD 
HETATM   14  C   UNL     1      -8.638  15.473  68.272  1.00  0.00    -0.161 C  
BRANCH  14  15
HETATM   15  O   UNL     1      -7.962  15.945  67.185  1.00  0.00    -0.169 OA 
BRANCH  15  16
HETATM   16  C   UNL     1      -7.820  17.378  67.165  1.00  0.00    -0.202 C  
HETATM   17  C   UNL     1      -6.822  17.835  66.121  1.00  0.00    -0.329 C  
HETATM   18  O   UNL     1      -8.694  19.256  65.952  1.00  0.00    -0.443 OA 
HETATM   19  C   UNL     1      -7.267  19.254  65.846  1.00  0.00    -0.282 C  
HETATM   20  C   UNL     1      -9.086  18.112  66.731  1.00  0.00    -0.282 C  
ENDBRANCH  15  16
ENDBRANCH  14  15
ENDBRANCH  10  11
BRANCH  10  21
HETATM   21  C   UNL     1     -11.988  15.440  69.209  1.00  0.00    -0.335 C  
BRANCH  21  22
HETATM   22  C   UNL     1     -12.527  15.658  70.609  1.00  0.00    -0.463 A  
HETATM   23  C   UNL     1     -14.239  15.230  72.285  1.00  0.00    -0.642 A  
HETATM   24  C   UNL     1     -13.806  15.201  70.956  1.00  0.00    -0.423 A  
HETATM   25  C   UNL     1     -13.408  15.730  73.286  1.00  0.00    -0.649 A  
HETATM   26  C   UNL     1     -11.707  16.174  71.627  1.00  0.00    -0.558 A  
HETATM   27  C   UNL     1     -12.145  16.209  72.955  1.00  0.00    -0.636 A  
ENDBRANCH  21  22
ENDBRANCH  10  21
ENDBRANCH   7  10
ENDBRANCH   6   7
ENDBRANCH   5   6
BRANCH   5  28
HETATM   28  S   UNL     1      -9.748  10.006  66.697  1.00  0.00    -0.205 S  
HETATM   29  O   UNL     1      -8.324  10.154  66.510  1.00  0.00    -0.121 OA 
HETATM   30  O   UNL     1     -10.391   8.717  66.517  1.00  0.00    -0.279 OA 
BRANCH  28  31
HETATM   31  C   UNL     1     -10.524  11.157  65.596  1.00  0.00    -0.248 A  
HETATM   32  N   UNL     1     -12.403  13.839  62.959  1.00  0.00    -1.030 NA 
HETATM   33  H2  UNL     1     -12.629  13.290  62.129  1.00  0.00     0.000 HD 
HETATM   34  H1  UNL     1     -13.239  14.347  63.246  1.00  0.00     0.000 HD 
HETATM   35  C   UNL     1      -9.970  11.397  64.337  1.00  0.00    -0.321 A  
HETATM   36  C   UNL     1     -10.588  12.312  63.474  1.00  0.00    -0.488 A  
HETATM   37  C   UNL     1     -11.722  11.782  65.965  1.00  0.00    -0.100 A  
HETATM   38  C   UNL     1     -12.332  12.688  65.091  1.00  0.00    -0.547 A  
HETATM   39  C   UNL     1     -11.736  13.010  63.868  1.00  0.00    -0.468 A  
ENDBRANCH  28  31
ENDBRANCH   5  28
ENDBRANCH   4   5
TORSDOF 11
ENDMDL
MODEL        9
REMARK 921   NORMALIZED FREE ENERGY PREDICTED BY IDOCK:   -6.90 KCAL/MOL
REMARK 922        TOTAL FREE ENERGY PREDICTED BY IDOCK:  -13.12 KCAL/MOL
REMARK 923 INTER-LIGAND FREE ENERGY PREDICTED BY IDOCK:  -12.12 KCAL/MOL
REMARK 924 INTRA-LIGAND FREE ENERGY PREDICTED BY IDOCK:   -0.99 KCAL/MOL
REMARK 927      BINDING AFFINITY PREDICTED BY RF-SCORE:    0.00 PKD
ROOT
HETATM    1  C   UNL     1      -8.294  11.186  65.996  1.00  0.00    -0.115 C  
HETATM    2  C   UNL     1      -7.632  11.203  67.375  1.00  0.00    -0.113 C  
HETATM    3  C   UNL     1      -6.209  11.776  67.213  1.00  0.00    -0.130 C  
HETATM    4  C   UNL     1      -8.402  12.038  68.416  1.00  0.00    -0.151 C  
ENDROOT
BRANCH   4   5
HETATM    5  N   UNL     1      -9.842  11.633  68.710  1.00  0.00    -0.163 N  
BRANCH   5   6
HETATM    6  C   UNL     1     -10.825  12.159  67.637  1.00  0.00    -0.233 C  
BRANCH   6   7
HETATM    7  C   UNL     1     -10.714  13.679  67.265  1.00  0.00    -0.279 C  
HETATM    8  H   UNL     1     -11.657  14.909  66.075  1.00  0.00     0.000 HD 
HETATM    9  O   UNL     1     -11.725  13.988  66.299  1.00  0.00    -0.354 OA 
BRANCH   7  10
HETATM   10  C   UNL     1     -10.780  14.635  68.514  1.00  0.00    -0.247 C  
BRANCH  10  11
HETATM   11  N   UNL     1     -10.106  15.930  68.290  1.00  0.00    -0.221 N  
HETATM   12  O   UNL     1      -8.309  15.446  69.628  1.00  0.00    -0.244 OA 
HETATM   13  H   UNL     1     -10.537  16.620  67.675  1.00  0.00     0.000 HD 
HETATM   14  C   UNL     1      -8.908  16.219  68.896  1.00  0.00    -0.253 C  
BRANCH  14  15
HETATM   15  O   UNL     1      -8.485  17.482  68.602  1.00  0.00    -0.276 OA 
BRANCH  15  16
HETATM   16  C   UNL     1      -9.204  18.098  67.517  1.00  0.00    -0.257 C  
HETATM   17  C   UNL     1      -9.942  19.344  67.962  1.00  0.00    -0.488 C  
HETATM   18  O   UNL     1      -8.886  19.862  65.921  1.00  0.00    -0.335 OA 
HETATM   19  C   UNL     1     -10.078  20.120  66.670  1.00  0.00    -0.454 C  
HETATM   20  C   UNL     1      -8.299  18.647  66.416  1.00  0.00    -0.276 C  
ENDBRANCH  15  16
ENDBRANCH  14  15
ENDBRANCH  10  11
BRANCH  10  21
HETATM   21  C   UNL     1     -12.169  14.808  69.184  1.00  0.00    -0.208 C  
BRANCH  21  22
HETATM   22  C   UNL     1     -12.293  14.912  70.691  1.00  0.00    -0.406 A  
HETATM   23  C   UNL     1     -12.060  16.225  72.728  1.00  0.00    -0.637 A  
HETATM   24  C   UNL     1     -11.790  16.030  71.369  1.00  0.00    -0.531 A  
HETATM   25  C   UNL     1     -12.824  15.297  73.434  1.00  0.00    -0.667 A  
HETATM   26  C   UNL     1     -13.049  13.977  71.420  1.00  0.00    -0.423 A  
HETATM   27  C   UNL     1     -13.311  14.169  72.781  1.00  0.00    -0.618 A  
ENDBRANCH  21  22
ENDBRANCH  10  21
ENDBRANCH   7  10
ENDBRANCH   6   7
ENDBRANCH   5   6
BRANCH   5  28
HETATM   28  S   UNL     1      -9.968   9.884  68.871  1.00  0.00    -0.192 S  
HETATM   29  O   UNL     1     -10.524   9.333  67.657  1.00  0.00    -0.238 OA 
HETATM   30  O   UNL     1      -8.676   9.441  69.362  1.00  0.00    -0.139 OA 
BRANCH  28  31
HETATM   31  C   UNL     1     -11.161   9.597  70.148  1.00  0.00    -0.269 A  
HETATM   32  N   UNL     1     -13.959   8.959  73.220  1.00  0.00    -1.217 NA 
HETATM   33  H2  UNL     1     -13.430   9.028  74.088  1.00  0.00     0.000 HD 
HETATM   34  H1  UNL     1     -14.786   9.551  73.299  1.00  0.00     0.000 HD 
HETATM   35  C   UNL     1     -10.988   8.533  71.035  1.00  0.00    -0.296 A  
HETATM   36  C   UNL     1     -11.940   8.311  72.040  1.00  0.00    -0.405 A  
HETATM   37  C   UNL     1     -12.245  10.471  70.304  1.00  0.00    -0.393 A  
HETATM   38  C   UNL     1     -13.184  10.241  71.315  1.00  0.00    -0.447 A  
HETATM   39  C   UNL     1     -13.074   9.124  72.149  1.00  0.00    -0.446 A  
ENDBRANCH  28  31
ENDBRANCH   5  28
ENDBRANCH   4   5
TORSDOF 11
ENDMDL
MODEL       10
REMARK 921   NORMALIZED FREE ENERGY PREDICTED BY IDOCK:   -6.89 KCAL/MOL
REMARK 922        TOTAL FREE ENERGY PREDICTED BY IDOCK:  -13.09 KCAL/MOL
REMARK 923 INTER-LIGAND FREE ENERGY PREDICTED BY IDOCK:  -11.82 KCAL/MOL
REMARK 924 INTRA-LIGAND FREE ENERGY PREDICTED BY IDOCK:   -1.27 KCAL/MOL
REMARK 927      BINDING AFFINITY PREDICTED BY RF-SCORE:    0.00 PKD
ROOT
HETATM    1  C   UNL     1     -11.074   6.530  67.379  1.00  0.00    -0.411 C  
HETATM    2  C   UNL     1     -10.213   7.432  68.265  1.00  0.00    -0.213 C  
HETATM    3  C   UNL     1      -9.190   6.542  68.999  1.00  0.00    -0.130 C  
HETATM    4  C   UNL     1      -9.464   8.528  67.481  1.00  0.00    -0.149 C  
ENDROOT
BRANCH   4   5
HETATM    5  N   UNL     1     -10.307   9.509  66.675  1.00  0.00    -0.233 N  
BRANCH   5   6
HETATM    6  C   UNL     1     -11.023  10.542  67.579  1.00  0.00    -0.303 C  
BRANCH   6   7
HETATM    7  C   UNL     1     -10.312  10.908  68.929  1.00  0.00    -0.204 C  
HETATM    8  H   UNL     1      -8.930  12.168  69.493  1.00  0.00     0.000 HD 
HETATM    9  O   UNL     1      -9.360  11.947  68.675  1.00  0.00    -0.165 OA 
BRANCH   7  10
HETATM   10  C   UNL     1     -11.314  11.294  70.079  1.00  0.00    -0.208 C  
BRANCH  10  11
HETATM   11  N   UNL     1     -11.926  12.625  69.892  1.00  0.00    -0.341 N  
HETATM   12  O   UNL     1     -13.040  12.608  71.896  1.00  0.00    -0.407 OA 
HETATM   13  H   UNL     1     -11.725  13.155  69.044  1.00  0.00     0.000 HD 
HETATM   14  C   UNL     1     -12.761  13.160  70.842  1.00  0.00    -0.233 C  
BRANCH  14  15
HETATM   15  O   UNL     1     -13.262  14.368  70.453  1.00  0.00    -0.200 OA 
BRANCH  15  16
HETATM   16  C   UNL     1     -12.986  15.436  71.378  1.00  0.00    -0.461 C  
HETATM   17  C   UNL     1     -13.947  15.434  72.549  1.00  0.00    -0.640 C  
HETATM   18  O   UNL     1     -11.788  15.773  73.431  1.00  0.00    -0.414 OA 
HETATM   19  C   UNL     1     -13.155  16.152  73.620  1.00  0.00    -0.446 C  
HETATM   20  C   UNL     1     -11.636  15.304  72.081  1.00  0.00    -0.444 C  
ENDBRANCH  15  16
ENDBRANCH  14  15
ENDBRANCH  10  11
BRANCH  10  21
HETATM   21  C   UNL     1     -12.361  10.220  70.479  1.00  0.00    -0.371 C  
BRANCH  21  22
HETATM   22  C   UNL     1     -11.946   8.987  71.256  1.00  0.00    -0.374 A  
HETATM   23  C   UNL     1     -12.273   6.633  71.782  1.00  0.00    -0.400 A  
HETATM   24  C   UNL     1     -12.735   7.829  71.224  1.00  0.00    -0.277 A  
HETATM   25  C   UNL     1     -11.023   6.578  72.395  1.00  0.00    -0.279 A  
HETATM   26  C   UNL     1     -10.695   8.920  71.892  1.00  0.00    -0.426 A  
HETATM   27  C   UNL     1     -10.237   7.725  72.457  1.00  0.00    -0.320 A  
ENDBRANCH  21  22
ENDBRANCH  10  21
ENDBRANCH   7  10
ENDBRANCH   6   7
ENDBRANCH   5   6
BRANCH   5  28
HETATM   28  S   UNL     1      -9.319  10.318  65.462  1.00  0.00    -0.220 S  
HETATM   29  O   UNL     1      -8.143  10.867  66.095  1.00  0.00    -0.161 OA 
HETATM   30  O   UNL     1      -9.198   9.377  64.363  1.00  0.00    -0.202 OA 
BRANCH  28  31
HETATM   31  C   UNL     1     -10.276  11.696  64.893  1.00  0.00    -0.270 A  
HETATM   32  N   UNL     1     -12.590  14.956  63.595  1.00  0.00    -0.899 NA 
HETATM   33  H2  UNL     1     -13.553  14.715  63.826  1.00  0.00     0.000 HD 
HETATM   34  H1  UNL     1     -12.402  15.897  63.943  1.00  0.00     0.000 HD 
HETATM   35  C   UNL     1     -11.275  11.502  63.938  1.00  0.00    -0.439 A  
HETATM   36  C   UNL     1     -12.024  12.599  63.490  1.00  0.00    -0.630 A  
HETATM   37  C   UNL     1     -10.069  12.968  65.444  1.00  0.00    -0.265 A  
HETATM   38  C   UNL     1     -10.829  14.052  64.993  1.00  0.00    -0.401 A  
HETATM   39  C   UNL     1     -11.766  13.889  63.968  1.00  0.00    -0.288 A  
ENDBRANCH  28  31
ENDBRANCH   5  28
ENDBRANCH   4   5
TORSDOF 11
ENDMDL
MODEL       11
REMARK 921   NORMALIZED FREE ENERGY PREDICTED BY IDOCK:   -6.88 KCAL/MOL
REMARK 922        TOTAL FREE ENERGY PREDICTED BY IDOCK:  -13.08 KCAL/MOL
REMARK 923 INTER-LIGAND FREE ENERGY PREDICTED BY IDOCK:  -11.14 KCAL/MOL
REMARK 924 INTRA-LIGAND FREE ENERGY PREDICTED BY IDOCK:   -1.94 KCAL/MOL
REMARK 927      BINDING AFFINITY PREDICTED BY RF-SCORE:    0.00 PKD
ROOT
HETATM    1  C   UNL     1     -11.720  15.510  72.525  1.00  0.00    -0.569 C  
HETATM    2  C   UNL     1     -12.878  14.770  71.852  1.00  0.00    -0.395 C  
HETATM    3  C   UNL     1     -14.191  15.463  72.269  1.00  0.00    -0.639 C  
HETATM    4  C   UNL     1     -12.781  14.746  70.314  1.00  0.00    -0.276 C  
ENDROOT
BRANCH   4   5
HETATM    5  N   UNL     1     -11.538  14.108  69.703  1.00  0.00    -0.277 N  
BRANCH   5   6
HETATM    6  C   UNL     1     -11.842  12.725  69.077  1.00  0.00    -0.297 C  
BRANCH   6   7
HETATM    7  C   UNL     1     -11.466  11.467  69.935  1.00  0.00    -0.273 C  
HETATM    8  H   UNL     1     -12.376  10.333  71.240  1.00  0.00     0.000 HD 
HETATM    9  O   UNL     1     -12.604  11.095  70.720  1.00  0.00    -0.347 OA 
BRANCH   7  10
HETATM   10  C   UNL     1     -10.923  10.264  69.077  1.00  0.00    -0.232 C  
BRANCH  10  11
HETATM   11  N   UNL     1     -11.377   8.948  69.571  1.00  0.00    -0.423 N  
HETATM   12  O   UNL     1      -9.276   8.214  70.121  1.00  0.00    -0.153 OA 
HETATM   13  H   UNL     1     -12.372   8.724  69.558  1.00  0.00     0.000 HD 
HETATM   14  C   UNL     1     -10.481   8.023  70.047  1.00  0.00    -0.228 C  
BRANCH  14  15
HETATM   15  O   UNL     1     -11.097   6.859  70.400  1.00  0.00    -0.264 OA 
BRANCH  15  16
HETATM   16  C   UNL     1     -11.071   5.852  69.371  1.00  0.00    -0.299 C  
HETATM   17  C   UNL     1     -10.911   6.456  67.991  1.00  0.00    -0.396 C  
HETATM   18  O   UNL     1      -9.450   4.611  68.108  1.00  0.00    -0.132 OA 
HETATM   19  C   UNL     1     -10.309   5.313  67.204  1.00  0.00    -0.216 C  
HETATM   20  C   UNL     1      -9.859   4.926  69.450  1.00  0.00    -0.211 C  
ENDBRANCH  15  16
ENDBRANCH  14  15
ENDBRANCH  10  11
BRANCH  10  21
HETATM   21  C   UNL     1     -11.063  10.390  67.536  1.00  0.00    -0.336 C  
BRANCH  21  22
HETATM   22  C   UNL     1      -9.834  10.460  66.652  1.00  0.00    -0.251 A  
HETATM   23  C   UNL     1      -7.421  10.703  66.431  1.00  0.00    -0.138 A  
HETATM   24  C   UNL     1      -8.589  10.813  67.192  1.00  0.00    -0.128 A  
HETATM   25  C   UNL     1      -7.480  10.253  65.113  1.00  0.00    -0.130 A  
HETATM   26  C   UNL     1      -9.878  10.024  65.317  1.00  0.00    -0.388 A  
HETATM   27  C   UNL     1      -8.710   9.921  64.554  1.00  0.00    -0.219 A  
ENDBRANCH  21  22
ENDBRANCH  10  21
ENDBRANCH   7  10
ENDBRANCH   6   7
ENDBRANCH   5   6
BRANCH   5  28
HETATM   28  S   UNL     1     -10.812  15.188  68.516  1.00  0.00    -0.259 S  
HETATM   29  O   UNL     1     -11.527  16.443  68.514  1.00  0.00    -0.351 OA 
HETATM   30  O   UNL     1      -9.384  15.148  68.772  1.00  0.00    -0.184 OA 
BRANCH  28  31
HETATM   31  C   UNL     1     -11.101  14.440  66.937  1.00  0.00    -0.323 A  
HETATM   32  N   UNL     1     -11.787  12.726  63.159  1.00  0.00    -0.815 NA 
HETATM   33  H2  UNL     1     -12.372  13.395  62.660  1.00  0.00     0.000 HD 
HETATM   34  H1  UNL     1     -11.005  12.470  62.557  1.00  0.00     0.000 HD 
HETATM   35  C   UNL     1     -12.406  14.167  66.524  1.00  0.00    -0.405 A  
HETATM   36  C   UNL     1     -12.625  13.571  65.275  1.00  0.00    -0.517 A  
HETATM   37  C   UNL     1     -10.025  14.176  66.079  1.00  0.00    -0.340 A  
HETATM   38  C   UNL     1     -10.258  13.587  64.832  1.00  0.00    -0.351 A  
HETATM   39  C   UNL     1     -11.552  13.220  64.447  1.00  0.00    -0.382 A  
ENDBRANCH  28  31
ENDBRANCH   5  28
ENDBRANCH   4   5
TORSDOF 11
ENDMDL
MODEL       12
REMARK 921   NORMALIZED FREE ENERGY PREDICTED BY IDOCK:   -6.85 KCAL/MOL
REMARK 922        TOTAL FREE ENERGY PREDICTED BY IDOCK:  -13.02 KCAL/MOL
REMARK 923 INTER-LIGAND FREE ENERGY PREDICTED BY IDOCK:  -11.01 KCAL/MOL
REMARK 924 INTRA-LIGAND FREE ENERGY PREDICTED BY IDOCK:   -2.01 KCAL/MOL
REMARK 927      BINDING AFFINITY PREDICTED BY RF-SCORE:    0.00 PKD
ROOT
HETATM    1  C   UNL     1     -10.201  13.917  64.946  1.00  0.00    -0.378 C  
HETATM    2  C   UNL     1     -11.262  13.603  66.001  1.00  0.00    -0.302 C  
HETATM    3  C   UNL     1     -12.647  13.716  65.331  1.00  0.00    -0.533 C  
HETATM    4  C   UNL     1     -11.112  12.202  66.625  1.00  0.00    -0.306 C  
ENDROOT
BRANCH   4   5
HETATM    5  N   UNL     1      -9.796  11.889  67.329  1.00  0.00    -0.186 N  
BRANCH   5   6
HETATM    6  C   UNL     1      -9.564  12.798  68.560  1.00  0.00    -0.110 C  
BRANCH   6   7
HETATM    7  C   UNL     1      -8.440  13.885  68.429  1.00  0.00    -0.159 C  
HETATM    8  H   UNL     1      -6.990  14.263  67.175  1.00  0.00     0.000 HD 
HETATM    9  O   UNL     1      -7.670  13.605  67.254  1.00  0.00    -0.154 OA 
BRANCH   7  10
HETATM   10  C   UNL     1      -8.990  15.359  68.437  1.00  0.00    -0.189 C  
BRANCH  10  11
HETATM   11  N   UNL     1      -9.775  15.679  69.647  1.00  0.00    -0.284 N  
HETATM   12  O   UNL     1     -11.761  15.922  68.528  1.00  0.00    -0.383 OA 
HETATM   13  H   UNL     1      -9.311  15.701  70.555  1.00  0.00     0.000 HD 
HETATM   14  C   UNL     1     -11.119  15.948  69.567  1.00  0.00    -0.315 C  
BRANCH  14  15
HETATM   15  O   UNL     1     -11.642  16.272  70.785  1.00  0.00    -0.377 OA 
BRANCH  15  16
HETATM   16  C   UNL     1     -12.825  15.524  71.127  1.00  0.00    -0.489 C  
HETATM   17  C   UNL     1     -12.543  14.039  71.241  1.00  0.00    -0.444 C  
HETATM   18  O   UNL     1     -13.883  14.631  73.087  1.00  0.00    -0.464 OA 
HETATM   19  C   UNL     1     -13.653  13.569  72.156  1.00  0.00    -0.557 C  
HETATM   20  C   UNL     1     -13.372  15.846  72.515  1.00  0.00    -0.427 C  
ENDBRANCH  15  16
ENDBRANCH  14  15
ENDBRANCH  10  11
BRANCH  10  21
HETATM   21  C   UNL     1      -7.977  16.481  68.084  1.00  0.00    -0.163 C  
BRANCH  21  22
HETATM   22  C   UNL     1      -8.459  17.869  67.711  1.00  0.00    -0.242 A  
HETATM   23  C   UNL     1      -8.061  20.268  67.607  1.00  0.00    -0.313 A  
HETATM   24  C   UNL     1      -7.730  19.001  68.099  1.00  0.00    -0.326 A  
HETATM   25  C   UNL     1      -9.134  20.426  66.733  1.00  0.00    -0.371 A  
HETATM   26  C   UNL     1      -9.548  18.046  66.841  1.00  0.00    -0.295 A  
HETATM   27  C   UNL     1      -9.883  19.315  66.356  1.00  0.00    -0.455 A  
ENDBRANCH  21  22
ENDBRANCH  10  21
ENDBRANCH   7  10
ENDBRANCH   6   7
ENDBRANCH   5   6
BRANCH   5  28
HETATM   28  S   UNL     1      -9.731  10.189  67.785  1.00  0.00    -0.156 S  
HETATM   29  O   UNL     1     -10.344   9.394  66.747  1.00  0.00    -0.251 OA 
HETATM   30  O   UNL     1      -8.360   9.945  68.195  1.00  0.00    -0.109 OA 
BRANCH  28  31
HETATM   31  C   UNL     1     -10.761  10.029  69.218  1.00  0.00    -0.224 A  
HETATM   32  N   UNL     1     -13.227   9.590  72.595  1.00  0.00    -0.550 NA 
HETATM   33  H2  UNL     1     -14.044   9.076  72.268  1.00  0.00     0.000 HD 
HETATM   34  H1  UNL     1     -12.875   9.135  73.437  1.00  0.00     0.000 HD 
HETATM   35  C   UNL     1     -12.053  10.558  69.208  1.00  0.00    -0.120 A  
HETATM   36  C   UNL     1     -12.859  10.431  70.348  1.00  0.00    -0.249 A  
HETATM   37  C   UNL     1     -10.301   9.323  70.337  1.00  0.00    -0.291 A  
HETATM   38  C   UNL     1     -11.118   9.198  71.465  1.00  0.00    -0.436 A  
HETATM   39  C   UNL     1     -12.377   9.805  71.504  1.00  0.00    -0.405 A  
ENDBRANCH  28  31
ENDBRANCH   5  28
ENDBRANCH   4   5
TORSDOF 11
ENDMDL
MODEL       13
REMARK 921   NORMALIZED FREE ENERGY PREDICTED BY IDOCK:   -6.83 KCAL/MOL
REMARK 922        TOTAL FREE ENERGY PREDICTED BY IDOCK:  -12.99 KCAL/MOL
REMARK 923 INTER-LIGAND FREE ENERGY PREDICTED BY IDOCK:  -11.64 KCAL/MOL
REMARK 924 INTRA-LIGAND FREE ENERGY PREDICTED BY IDOCK:   -1.35 KCAL/MOL
REMARK 927      BINDING AFFINITY PREDICTED BY RF-SCORE:    0.00 PKD
ROOT
HETATM    1  C   UNL     1      -8.770  17.900  68.408  1.00  0.00    -0.296 C  
HETATM    2  C   UNL     1     -10.296  17.855  68.311  1.00  0.00    -0.389 C  
HETATM    3  C   UNL     1     -10.767  19.150  67.619  1.00  0.00    -0.514 C  
HETATM    4  C   UNL     1     -10.825  16.638  67.528  1.00  0.00    -0.221 C  
ENDROOT
BRANCH   4   5
HETATM    5  N   UNL     1     -10.454  15.256  68.052  1.00  0.00    -0.244 N  
BRANCH   5   6
HETATM    6  C   UNL     1     -11.702  14.388  68.343  1.00  0.00    -0.332 C  
BRANCH   6   7
HETATM    7  C   UNL     1     -11.887  13.895  69.821  1.00  0.00    -0.329 C  
HETATM    8  H   UNL     1     -13.114  14.286  71.290  1.00  0.00     0.000 HD 
HETATM    9  O   UNL     1     -13.003  14.585  70.395  1.00  0.00    -0.326 OA 
BRANCH   7  10
HETATM   10  C   UNL     1     -12.032  12.333  69.946  1.00  0.00    -0.306 C  
BRANCH  10  11
HETATM   11  N   UNL     1     -10.841  11.600  69.473  1.00  0.00    -0.454 N  
HETATM   12  O   UNL     1     -11.898  10.656  67.671  1.00  0.00    -0.411 OA 
HETATM   13  H   UNL     1      -9.962  11.687  69.984  1.00  0.00     0.000 HD 
HETATM   14  C   UNL     1     -10.897  10.802  68.357  1.00  0.00    -0.232 C  
BRANCH  14  15
HETATM   15  O   UNL     1      -9.709  10.174  68.124  1.00  0.00    -0.138 OA 
BRANCH  15  16
HETATM   16  C   UNL     1      -9.843   8.773  67.819  1.00  0.00    -0.174 C  
HETATM   17  C   UNL     1      -9.577   8.483  66.356  1.00  0.00    -0.314 C  
HETATM   18  O   UNL     1      -8.439   6.838  67.601  1.00  0.00    -0.121 OA 
HETATM   19  C   UNL     1      -9.166   7.027  66.383  1.00  0.00    -0.149 C  
HETATM   20  C   UNL     1      -8.799   7.895  68.506  1.00  0.00    -0.134 C  
ENDBRANCH  15  16
ENDBRANCH  14  15
ENDBRANCH  10  11
BRANCH  10  21
HETATM   21  C   UNL     1     -12.552  11.790  71.304  1.00  0.00    -0.401 C  
BRANCH  21  22
HETATM   22  C   UNL     1     -12.643  10.298  71.557  1.00  0.00    -0.544 A  
HETATM   23  C   UNL     1     -13.975   8.262  71.629  1.00  0.00    -0.461 A  
HETATM   24  C   UNL     1     -13.889   9.657  71.582  1.00  0.00    -0.239 A  
HETATM   25  C   UNL     1     -12.819   7.486  71.668  1.00  0.00    -0.392 A  
HETATM   26  C   UNL     1     -11.486   9.502  71.612  1.00  0.00    -0.433 A  
HETATM   27  C   UNL     1     -11.574   8.107  71.668  1.00  0.00    -0.325 A  
ENDBRANCH  21  22
ENDBRANCH  10  21
ENDBRANCH   7  10
ENDBRANCH   6   7
ENDBRANCH   5   6
BRANCH   5  28
HETATM   28  S   UNL     1      -9.373  14.440  66.926  1.00  0.00    -0.266 S  
HETATM   29  O   UNL     1      -8.619  15.428  66.190  1.00  0.00    -0.222 OA 
HETATM   30  O   UNL     1      -8.696  13.417  67.702  1.00  0.00    -0.173 OA 
BRANCH  28  31
HETATM   31  C   UNL     1     -10.419  13.626  65.750  1.00  0.00    -0.293 A  
HETATM   32  N   UNL     1     -12.857  11.708  62.912  1.00  0.00    -0.827 NA 
HETATM   33  H2  UNL     1     -12.743  12.242  62.051  1.00  0.00     0.000 HD 
HETATM   34  H1  UNL     1     -12.724  10.720  62.698  1.00  0.00     0.000 HD 
HETATM   35  C   UNL     1     -11.455  14.330  65.135  1.00  0.00    -0.351 A  
HETATM   36  C   UNL     1     -12.280  13.677  64.210  1.00  0.00    -0.445 A  
HETATM   37  C   UNL     1     -10.170  12.293  65.396  1.00  0.00    -0.297 A  
HETATM   38  C   UNL     1     -10.997  11.655  64.466  1.00  0.00    -0.376 A  
HETATM   39  C   UNL     1     -12.097  12.320  63.915  1.00  0.00    -0.506 A  
ENDBRANCH  28  31
ENDBRANCH   5  28
ENDBRANCH   4   5
TORSDOF 11
ENDMDL
MODEL       14
REMARK 921   NORMALIZED FREE ENERGY PREDICTED BY IDOCK:   -6.83 KCAL/MOL
REMARK 922        TOTAL FREE ENERGY PREDICTED BY IDOCK:  -12.98 KCAL/MOL
REMARK 923 INTER-LIGAND FREE ENERGY PREDICTED BY IDOCK:  -11.17 KCAL/MOL
REMARK 924 INTRA-LIGAND FREE ENERGY PREDICTED BY IDOCK:   -1.81 KCAL/MOL
REMARK 927      BINDING AFFINITY PREDICTED BY RF-SCORE:    0.00 PKD
ROOT
HETATM    1  C   UNL     1      -8.280   4.828  66.468  1.00  0.00    -0.107 C  
HETATM    2  C   UNL     1      -9.697   5.348  66.226  1.00  0.00    -0.181 C  
HETATM    3  C   UNL     1     -10.492   4.245  65.499  1.00  0.00    -0.177 C  
HETATM    4  C   UNL     1     -10.437   5.739  67.521  1.00  0.00    -0.245 C  
ENDROOT
BRANCH   4   5
HETATM    5  N   UNL     1      -9.799   6.815  68.391  1.00  0.00    -0.134 N  
BRANCH   5   6
HETATM    6  C   UNL     1     -10.537   8.172  68.276  1.00  0.00    -0.098 C  
BRANCH   6   7
HETATM    7  C   UNL     1      -9.673   9.463  68.498  1.00  0.00    -0.149 C  
HETATM    8  H   UNL     1      -7.938  10.116  67.881  1.00  0.00     0.000 HD 
HETATM    9  O   UNL     1      -8.461   9.334  67.747  1.00  0.00    -0.116 OA 
BRANCH   7  10
HETATM   10  C   UNL     1     -10.440  10.794  68.157  1.00  0.00    -0.185 C  
BRANCH  10  11
HETATM   11  N   UNL     1     -10.743  11.610  69.350  1.00  0.00    -0.436 N  
HETATM   12  O   UNL     1     -12.840  10.734  69.654  1.00  0.00    -0.193 OA 
HETATM   13  H   UNL     1     -10.043  12.263  69.702  1.00  0.00     0.000 HD 
HETATM   14  C   UNL     1     -11.953  11.504  69.991  1.00  0.00    -0.357 C  
BRANCH  14  15
HETATM   15  O   UNL     1     -12.051  12.380  71.032  1.00  0.00    -0.222 OA 
BRANCH  15  16
HETATM   16  C   UNL     1     -13.047  13.403  70.837  1.00  0.00    -0.041 C  
HETATM   17  C   UNL     1     -13.807  13.704  72.113  1.00  0.00    -0.642 C  
HETATM   18  O   UNL     1     -13.267  15.776  71.128  1.00  0.00    -0.526 OA 
HETATM   19  C   UNL     1     -14.295  15.116  71.874  1.00  0.00    -0.596 C  
HETATM   20  C   UNL     1     -12.459  14.771  70.494  1.00  0.00    -0.352 C  
ENDBRANCH  15  16
ENDBRANCH  14  15
ENDBRANCH  10  11
BRANCH  10  21
HETATM   21  C   UNL     1      -9.866  11.648  66.995  1.00  0.00    -0.211 C  
BRANCH  21  22
HETATM   22  C   UNL     1     -10.701  11.937  65.763  1.00  0.00    -0.327 A  
HETATM   23  C   UNL     1     -12.670  12.956  64.757  1.00  0.00    -0.442 A  
HETATM   24  C   UNL     1     -11.971  12.516  65.886  1.00  0.00    -0.472 A  
HETATM   25  C   UNL     1     -12.117  12.810  63.486  1.00  0.00    -0.642 A  
HETATM   26  C   UNL     1     -10.164  11.782  64.473  1.00  0.00    -0.327 A  
HETATM   27  C   UNL     1     -10.867  12.215  63.344  1.00  0.00    -0.474 A  
ENDBRANCH  21  22
ENDBRANCH  10  21
ENDBRANCH   7  10
ENDBRANCH   6   7
ENDBRANCH   5   6
BRANCH   5  28
HETATM   28  S   UNL     1      -9.723   6.284  70.069  1.00  0.00    -0.170 S  
HETATM   29  O   UNL     1      -9.999   4.868  70.133  1.00  0.00    -0.216 OA 
HETATM   30  O   UNL     1      -8.481   6.822  70.595  1.00  0.00    -0.134 OA 
BRANCH  28  31
HETATM   31  C   UNL     1     -11.060   7.098  70.899  1.00  0.00    -0.263 A  
HETATM   32  N   UNL     1     -14.223   8.989  72.922  1.00  0.00    -1.127 NA 
HETATM   33  H2  UNL     1     -14.651   8.263  73.496  1.00  0.00     0.000 HD 
HETATM   34  H1  UNL     1     -14.049   9.803  73.510  1.00  0.00     0.000 HD 
HETATM   35  C   UNL     1     -12.368   6.643  70.722  1.00  0.00    -0.218 A  
HETATM   36  C   UNL     1     -13.420   7.296  71.379  1.00  0.00    -0.400 A  
HETATM   37  C   UNL     1     -10.799   8.159  71.776  1.00  0.00    -0.317 A  
HETATM   38  C   UNL     1     -11.857   8.797  72.430  1.00  0.00    -0.356 A  
HETATM   39  C   UNL     1     -13.180   8.414  72.187  1.00  0.00    -0.318 A  
ENDBRANCH  28  31
ENDBRANCH   5  28
ENDBRANCH   4   5
TORSDOF 11
ENDMDL
MODEL       15
REMARK 921   NORMALIZED FREE ENERGY PREDICTED BY IDOCK:   -6.79 KCAL/MOL
REMARK 922        TOTAL FREE ENERGY PREDICTED BY IDOCK:  -12.93 KCAL/MOL
REMARK 923 INTER-LIGAND FREE ENERGY PREDICTED BY IDOCK:  -10.70 KCAL/MOL
REMARK 924 INTRA-LIGAND FREE ENERGY PREDICTED BY IDOCK:   -2.23 KCAL/MOL
REMARK 927      BINDING AFFINITY PREDICTED BY RF-SCORE:    0.00 PKD
ROOT
HETATM    1  C   UNL     1     -11.546  15.319  72.065  1.00  0.00    -0.529 C  
HETATM    2  C   UNL     1     -12.714  14.486  71.537  1.00  0.00    -0.409 C  
HETATM    3  C   UNL     1     -14.022  15.227  71.883  1.00  0.00    -0.644 C  
HETATM    4  C   UNL     1     -12.656  14.240  70.017  1.00  0.00    -0.225 C  
ENDROOT
BRANCH   4   5
HETATM    5  N   UNL     1     -11.424  13.525  69.473  1.00  0.00    -0.272 N  
BRANCH   5   6
HETATM    6  C   UNL     1     -11.749  12.088  68.994  1.00  0.00    -0.325 C  
BRANCH   6   7
HETATM    7  C   UNL     1     -11.688  10.956  70.077  1.00  0.00    -0.345 C  
HETATM    8  H   UNL     1     -12.987   9.969  71.154  1.00  0.00     0.000 HD 
HETATM    9  O   UNL     1     -13.024  10.655  70.498  1.00  0.00    -0.323 OA 
BRANCH   7  10
HETATM   10  C   UNL     1     -10.919   9.670  69.596  1.00  0.00    -0.229 C  
BRANCH  10  11
HETATM   11  N   UNL     1     -11.467   8.420  70.162  1.00  0.00    -0.460 N  
HETATM   12  O   UNL     1     -10.269   8.550  72.112  1.00  0.00    -0.286 OA 
HETATM   13  H   UNL     1     -12.153   7.887  69.628  1.00  0.00     0.000 HD 
HETATM   14  C   UNL     1     -11.067   7.966  71.394  1.00  0.00    -0.243 C  
BRANCH  14  15
HETATM   15  O   UNL     1     -11.649   6.772  71.706  1.00  0.00    -0.267 OA 
BRANCH  15  16
HETATM   16  C   UNL     1     -10.745   5.824  72.304  1.00  0.00    -0.234 C  
HETATM   17  C   UNL     1     -11.460   4.872  73.241  1.00  0.00    -0.359 C  
HETATM   18  O   UNL     1      -9.991   3.576  71.932  1.00  0.00    -0.166 OA 
HETATM   19  C   UNL     1     -10.538   3.673  73.251  1.00  0.00    -0.188 C  
HETATM   20  C   UNL     1     -10.115   4.861  71.300  1.00  0.00    -0.199 C  
ENDBRANCH  15  16
ENDBRANCH  14  15
ENDBRANCH  10  11
BRANCH  10  21
HETATM   21  C   UNL     1     -10.646   9.552  68.073  1.00  0.00    -0.282 C  
BRANCH  21  22
HETATM   22  C   UNL     1      -9.266   9.829  67.510  1.00  0.00    -0.145 A  
HETATM   23  C   UNL     1      -7.706   9.733  65.644  1.00  0.00    -0.115 A  
HETATM   24  C   UNL     1      -8.901   9.333  66.251  1.00  0.00    -0.172 A  
HETATM   25  C   UNL     1      -6.851  10.623  66.291  1.00  0.00    -0.133 A  
HETATM   26  C   UNL     1      -8.385  10.712  68.157  1.00  0.00    -0.121 A  
HETATM   27  C   UNL     1      -7.187  11.106  67.552  1.00  0.00    -0.101 A  
ENDBRANCH  21  22
ENDBRANCH  10  21
ENDBRANCH   7  10
ENDBRANCH   6   7
ENDBRANCH   5   6
BRANCH   5  28
HETATM   28  S   UNL     1     -10.688  14.465  68.178  1.00  0.00    -0.240 S  
HETATM   29  O   UNL     1     -11.335  15.754  68.099  1.00  0.00    -0.350 OA 
HETATM   30  O   UNL     1      -9.255  14.365  68.387  1.00  0.00    -0.185 OA 
BRANCH  28  31
HETATM   31  C   UNL     1     -11.077  13.612  66.675  1.00  0.00    -0.306 A  
HETATM   32  N   UNL     1     -11.981  11.642  63.072  1.00  0.00    -0.902 NA 
HETATM   33  H2  UNL     1     -12.311  12.370  62.440  1.00  0.00     0.000 HD 
HETATM   34  H1  UNL     1     -11.270  11.094  62.589  1.00  0.00     0.000 HD 
HETATM   35  C   UNL     1     -12.375  13.661  66.162  1.00  0.00    -0.476 A  
HETATM   36  C   UNL     1     -12.674  12.979  64.975  1.00  0.00    -0.475 A  
HETATM   37  C   UNL     1     -10.071  12.937  65.971  1.00  0.00    -0.290 A  
HETATM   38  C   UNL     1     -10.382  12.267  64.784  1.00  0.00    -0.320 A  
HETATM   39  C   UNL     1     -11.698  12.228  64.311  1.00  0.00    -0.381 A  
ENDBRANCH  28  31
ENDBRANCH   5  28
ENDBRANCH   4   5
TORSDOF 11
ENDMDL
MODEL       16
REMARK 921   NORMALIZED FREE ENERGY PREDICTED BY IDOCK:   -6.79 KCAL/MOL
REMARK 922        TOTAL FREE ENERGY PREDICTED BY IDOCK:  -12.93 KCAL/MOL
REMARK 923 INTER-LIGAND FREE ENERGY PREDICTED BY IDOCK:  -11.43 KCAL/MOL
REMARK 924 INTRA-LIGAND FREE ENERGY PREDICTED BY IDOCK:   -1.50 KCAL/MOL
REMARK 927      BINDING AFFINITY PREDICTED BY RF-SCORE:    0.00 PKD
ROOT
HETATM    1  C   UNL     1     -13.390  14.722  70.760  1.00  0.00    -0.302 C  
HETATM    2  C   UNL     1     -12.203  15.252  69.955  1.00  0.00    -0.385 C  
HETATM    3  C   UNL     1     -11.325  16.096  70.901  1.00  0.00    -0.394 C  
HETATM    4  C   UNL     1     -11.344  14.139  69.322  1.00  0.00    -0.281 C  
ENDROOT
BRANCH   4   5
HETATM    5  N   UNL     1     -12.039  13.184  68.358  1.00  0.00    -0.267 N  
BRANCH   5   6
HETATM    6  C   UNL     1     -12.108  13.755  66.921  1.00  0.00    -0.413 C  
BRANCH   6   7
HETATM    7  C   UNL     1     -10.747  13.890  66.152  1.00  0.00    -0.283 C  
HETATM    8  H   UNL     1     -10.190  13.938  64.279  1.00  0.00     0.000 HD 
HETATM    9  O   UNL     1     -11.014  13.856  64.745  1.00  0.00    -0.361 OA 
BRANCH   7  10
HETATM   10  C   UNL     1      -9.918  15.162  66.564  1.00  0.00    -0.266 C  
BRANCH  10  11
HETATM   11  N   UNL     1      -8.458  14.944  66.517  1.00  0.00    -0.431 N  
HETATM   12  O   UNL     1      -8.215  14.781  68.790  1.00  0.00    -0.151 OA 
HETATM   13  H   UNL     1      -7.985  14.913  65.614  1.00  0.00     0.000 HD 
HETATM   14  C   UNL     1      -7.729  14.782  67.669  1.00  0.00    -0.182 C  
BRANCH  14  15
HETATM   15  O   UNL     1      -6.397  14.649  67.409  1.00  0.00    -0.323 OA 
BRANCH  15  16
HETATM   16  C   UNL     1      -5.620  15.813  67.750  1.00  0.00    -0.137 C  
HETATM   17  C   UNL     1      -6.282  17.093  67.284  1.00  0.00    -0.191 C  
HETATM   18  O   UNL     1      -5.528  17.469  69.484  1.00  0.00    -0.181 OA 
HETATM   19  C   UNL     1      -5.692  18.123  68.222  1.00  0.00    -0.166 C  
HETATM   20  C   UNL     1      -5.502  16.051  69.254  1.00  0.00    -0.113 C  
ENDBRANCH  15  16
ENDBRANCH  14  15
ENDBRANCH  10  11
BRANCH  10  21
HETATM   21  C   UNL     1     -10.330  16.505  65.903  1.00  0.00    -0.365 C  
BRANCH  21  22
HETATM   22  C   UNL     1     -10.223  17.809  66.668  1.00  0.00    -0.361 A  
HETATM   23  C   UNL     1      -9.695  18.992  68.729  1.00  0.00    -0.473 A  
HETATM   24  C   UNL     1      -9.978  17.804  68.048  1.00  0.00    -0.333 A  
HETATM   25  C   UNL     1      -9.667  20.206  68.045  1.00  0.00    -0.464 A  
HETATM   26  C   UNL     1     -10.208  19.042  65.996  1.00  0.00    -0.462 A  
HETATM   27  C   UNL     1      -9.932  20.231  66.680  1.00  0.00    -0.561 A  
ENDBRANCH  21  22
ENDBRANCH  10  21
ENDBRANCH   7  10
ENDBRANCH   6   7
ENDBRANCH   5   6
BRANCH   5  28
HETATM   28  S   UNL     1     -11.245  11.612  68.370  1.00  0.00    -0.277 S  
HETATM   29  O   UNL     1     -11.673  10.854  67.218  1.00  0.00    -0.458 OA 
HETATM   30  O   UNL     1      -9.838  11.885  68.597  1.00  0.00    -0.197 OA 
BRANCH  28  31
HETATM   31  C   UNL     1     -11.869  10.762  69.794  1.00  0.00    -0.335 A  
HETATM   32  N   UNL     1     -13.395   8.713  73.133  1.00  0.00    -0.780 NA 
HETATM   33  H2  UNL     1     -14.394   8.611  72.955  1.00  0.00     0.000 HD 
HETATM   34  H1  UNL     1     -13.021   7.802  73.397  1.00  0.00     0.000 HD 
HETATM   35  C   UNL     1     -12.858  11.355  70.580  1.00  0.00    -0.123 A  
HETATM   36  C   UNL     1     -13.342  10.677  71.707  1.00  0.00    -0.437 A  
HETATM   37  C   UNL     1     -11.412   9.472  70.096  1.00  0.00    -0.205 A  
HETATM   38  C   UNL     1     -11.909   8.804  71.220  1.00  0.00    -0.358 A  
HETATM   39  C   UNL     1     -12.829   9.426  72.070  1.00  0.00    -0.414 A  
ENDBRANCH  28  31
ENDBRANCH   5  28
ENDBRANCH   4   5
TORSDOF 11
ENDMDL
MODEL       17
REMARK 921   NORMALIZED FREE ENERGY PREDICTED BY IDOCK:   -6.79 KCAL/MOL
REMARK 922        TOTAL FREE ENERGY PREDICTED BY IDOCK:  -12.93 KCAL/MOL
REMARK 923 INTER-LIGAND FREE ENERGY PREDICTED BY IDOCK:  -10.66 KCAL/MOL
REMARK 924 INTRA-LIGAND FREE ENERGY PREDICTED BY IDOCK:   -2.27 KCAL/MOL
REMARK 927      BINDING AFFINITY PREDICTED BY RF-SCORE:    0.00 PKD
ROOT
HETATM    1  C   UNL     1     -10.405  15.340  64.976  1.00  0.00    -0.375 C  
HETATM    2  C   UNL     1      -9.293  15.442  66.021  1.00  0.00    -0.364 C  
HETATM    3  C   UNL     1      -8.853  16.917  66.105  1.00  0.00    -0.279 C  
HETATM    4  C   UNL     1      -9.719  14.957  67.420  1.00  0.00    -0.217 C  
ENDROOT
BRANCH   4   5
HETATM    5  N   UNL     1     -10.201  13.516  67.542  1.00  0.00    -0.232 N  
BRANCH   5   6
HETATM    6  C   UNL     1      -9.362  12.704  68.559  1.00  0.00    -0.080 C  
BRANCH   6   7
HETATM    7  C   UNL     1      -8.631  11.430  68.009  1.00  0.00    -0.147 C  
HETATM    8  H   UNL     1      -6.925  10.535  68.340  1.00  0.00     0.000 HD 
HETATM    9  O   UNL     1      -7.368  11.307  68.673  1.00  0.00    -0.094 OA 
BRANCH   7  10
HETATM   10  C   UNL     1      -9.489  10.116  68.128  1.00  0.00    -0.142 C  
BRANCH  10  11
HETATM   11  N   UNL     1     -10.336  10.084  69.337  1.00  0.00    -0.211 N  
HETATM   12  O   UNL     1      -8.777   9.016  70.635  1.00  0.00    -0.173 OA 
HETATM   13  H   UNL     1     -11.269  10.494  69.307  1.00  0.00     0.000 HD 
HETATM   14  C   UNL     1      -9.886   9.510  70.501  1.00  0.00    -0.269 C  
BRANCH  14  15
HETATM   15  O   UNL     1     -10.838   9.536  71.477  1.00  0.00    -0.355 OA 
BRANCH  15  16
HETATM   16  C   UNL     1     -12.107   8.989  71.067  1.00  0.00    -0.251 C  
HETATM   17  C   UNL     1     -12.281   7.556  71.525  1.00  0.00    -0.359 C  
HETATM   18  O   UNL     1     -14.306   8.672  71.974  1.00  0.00    -0.434 OA 
HETATM   19  C   UNL     1     -13.786   7.406  71.558  1.00  0.00    -0.374 C  
HETATM   20  C   UNL     1     -13.307   9.673  71.719  1.00  0.00    -0.419 C  
ENDBRANCH  15  16
ENDBRANCH  14  15
ENDBRANCH  10  11
BRANCH  10  21
HETATM   21  C   UNL     1     -10.266   9.676  66.858  1.00  0.00    -0.304 C  
BRANCH  21  22
HETATM   22  C   UNL     1      -9.915  10.249  65.499  1.00  0.00    -0.364 A  
HETATM   23  C   UNL     1      -8.766  10.028  63.365  1.00  0.00    -0.226 A  
HETATM   24  C   UNL     1      -8.963   9.618  64.687  1.00  0.00    -0.274 A  
HETATM   25  C   UNL     1      -9.506  11.084  62.837  1.00  0.00    -0.378 A  
HETATM   26  C   UNL     1     -10.642  11.323  64.958  1.00  0.00    -0.353 A  
HETATM   27  C   UNL     1     -10.438  11.737  63.637  1.00  0.00    -0.490 A  
ENDBRANCH  21  22
ENDBRANCH  10  21
ENDBRANCH   7  10
ENDBRANCH   6   7
ENDBRANCH   5   6
BRANCH   5  28
HETATM   28  S   UNL     1     -11.910  13.473  67.966  1.00  0.00    -0.350 S  
HETATM   29  O   UNL     1     -12.637  14.376  67.104  1.00  0.00    -0.091 OA 
HETATM   30  O   UNL     1     -12.263  12.066  68.031  1.00  0.00    -0.454 OA 
BRANCH  28  31
HETATM   31  C   UNL     1     -12.023  14.137  69.604  1.00  0.00    -0.336 A  
HETATM   32  N   UNL     1     -12.357  15.724  73.483  1.00  0.00    -0.491 NA 
HETATM   33  H2  UNL     1     -13.060  16.460  73.415  1.00  0.00     0.000 HD 
HETATM   34  H1  UNL     1     -12.596  15.122  74.270  1.00  0.00     0.000 HD 
HETATM   35  C   UNL     1     -11.752  15.487  69.828  1.00  0.00    -0.362 A  
HETATM   36  C   UNL     1     -11.839  16.003  71.128  1.00  0.00    -0.465 A  
HETATM   37  C   UNL     1     -12.441  13.320  70.664  1.00  0.00    -0.373 A  
HETATM   38  C   UNL     1     -12.530  13.850  71.955  1.00  0.00    -0.198 A  
HETATM   39  C   UNL     1     -12.168  15.176  72.209  1.00  0.00    -0.376 A  
ENDBRANCH  28  31
ENDBRANCH   5  28
ENDBRANCH   4   5
TORSDOF 11
ENDMDL
MODEL       18
REMARK 921   NORMALIZED FREE ENERGY PREDICTED BY IDOCK:   -6.77 KCAL/MOL
REMARK 922        TOTAL FREE ENERGY PREDICTED BY IDOCK:  -12.89 KCAL/MOL
REMARK 923 INTER-LIGAND FREE ENERGY PREDICTED BY IDOCK:  -10.90 KCAL/MOL
REMARK 924 INTRA-LIGAND FREE ENERGY PREDICTED BY IDOCK:   -1.99 KCAL/MOL
REMARK 927      BINDING AFFINITY PREDICTED BY RF-SCORE:    0.00 PKD
ROOT
HETATM    1  C   UNL     1     -13.551  14.450  71.214  1.00  0.00    -0.389 C  
HETATM    2  C   UNL     1     -12.333  15.144  70.601  1.00  0.00    -0.420 C  
HETATM    3  C   UNL     1     -11.530  15.796  71.744  1.00  0.00    -0.484 C  
HETATM    4  C   UNL     1     -11.414  14.189  69.814  1.00  0.00    -0.250 C  
ENDROOT
BRANCH   4   5
HETATM    5  N   UNL     1     -12.032  13.434  68.642  1.00  0.00    -0.351 N  
BRANCH   5   6
HETATM    6  C   UNL     1     -12.078  14.294  67.355  1.00  0.00    -0.336 C  
BRANCH   6   7
HETATM    7  C   UNL     1     -10.784  14.300  66.467  1.00  0.00    -0.297 C  
HETATM    8  H   UNL     1     -10.389  14.451  64.559  1.00  0.00     0.000 HD 
HETATM    9  O   UNL     1     -11.173  14.447  65.097  1.00  0.00    -0.326 OA 
BRANCH   7  10
HETATM   10  C   UNL     1      -9.733  15.388  66.901  1.00  0.00    -0.231 C  
BRANCH  10  11
HETATM   11  N   UNL     1      -8.470  14.807  67.402  1.00  0.00    -0.188 N  
HETATM   12  O   UNL     1      -8.179  16.371  69.052  1.00  0.00    -0.229 OA 
HETATM   13  H   UNL     1      -8.095  13.967  66.961  1.00  0.00     0.000 HD 
HETATM   14  C   UNL     1      -7.794  15.380  68.450  1.00  0.00    -0.129 C  
BRANCH  14  15
HETATM   15  O   UNL     1      -6.629  14.724  68.719  1.00  0.00    -0.083 OA 
BRANCH  15  16
HETATM   16  C   UNL     1      -6.770  13.660  69.680  1.00  0.00     0.011 C  
HETATM   17  C   UNL     1      -6.176  12.359  69.177  1.00  0.00    -0.090 C  
HETATM   18  O   UNL     1      -5.475  12.617  71.411  1.00  0.00    -0.343 OA 
HETATM   19  C   UNL     1      -5.873  11.622  70.463  1.00  0.00    -0.128 C  
HETATM   20  C   UNL     1      -5.978  13.888  70.966  1.00  0.00    -0.152 C  
ENDBRANCH  15  16
ENDBRANCH  14  15
ENDBRANCH  10  11
BRANCH  10  21
HETATM   21  C   UNL     1      -9.486  16.553  65.906  1.00  0.00    -0.254 C  
BRANCH  21  22
HETATM   22  C   UNL     1      -9.545  17.994  66.372  1.00  0.00    -0.301 A  
HETATM   23  C   UNL     1     -10.526  19.691  67.815  1.00  0.00    -0.573 A  
HETATM   24  C   UNL     1     -10.565  18.420  67.234  1.00  0.00    -0.435 A  
HETATM   25  C   UNL     1      -9.476  20.563  67.532  1.00  0.00    -0.520 A  
HETATM   26  C   UNL     1      -8.501  18.890  66.084  1.00  0.00    -0.198 A  
HETATM   27  C   UNL     1      -8.468  20.165  66.660  1.00  0.00    -0.343 A  
ENDBRANCH  21  22
ENDBRANCH  10  21
ENDBRANCH   7  10
ENDBRANCH   6   7
ENDBRANCH   5   6
BRANCH   5  28
HETATM   28  S   UNL     1     -11.168  11.926  68.357  1.00  0.00    -0.285 S  
HETATM   29  O   UNL     1     -11.704  11.286  67.179  1.00  0.00    -0.533 OA 
HETATM   30  O   UNL     1      -9.758  12.259  68.444  1.00  0.00    -0.213 OA 
BRANCH  28  31
HETATM   31  C   UNL     1     -11.562  10.874  69.727  1.00  0.00    -0.322 A  
HETATM   32  N   UNL     1     -12.510   8.326  72.933  1.00  0.00    -0.650 NA 
HETATM   33  H2  UNL     1     -13.259   7.725  72.590  1.00  0.00     0.000 HD 
HETATM   34  H1  UNL     1     -11.793   7.736  73.357  1.00  0.00     0.000 HD 
HETATM   35  C   UNL     1     -12.854  10.872  70.254  1.00  0.00    -0.209 A  
HETATM   36  C   UNL     1     -13.155  10.039  71.340  1.00  0.00    -0.512 A  
HETATM   37  C   UNL     1     -10.593  10.002  70.242  1.00  0.00    -0.354 A  
HETATM   38  C   UNL     1     -10.909   9.171  71.322  1.00  0.00    -0.402 A  
HETATM   39  C   UNL     1     -12.171   9.230  71.921  1.00  0.00    -0.378 A  
ENDBRANCH  28  31
ENDBRANCH   5  28
ENDBRANCH   4   5
TORSDOF 11
ENDMDL
MODEL       19
REMARK 921   NORMALIZED FREE ENERGY PREDICTED BY IDOCK:   -6.75 KCAL/MOL
REMARK 922        TOTAL FREE ENERGY PREDICTED BY IDOCK:  -12.86 KCAL/MOL
REMARK 923 INTER-LIGAND FREE ENERGY PREDICTED BY IDOCK:  -11.59 KCAL/MOL
REMARK 924 INTRA-LIGAND FREE ENERGY PREDICTED BY IDOCK:   -1.27 KCAL/MOL
REMARK 927      BINDING AFFINITY PREDICTED BY RF-SCORE:    0.00 PKD
ROOT
HETATM    1  C   UNL     1      -7.998   9.674  70.197  1.00  0.00    -0.189 C  
HETATM    2  C   UNL     1      -7.213  10.608  69.275  1.00  0.00    -0.113 C  
HETATM    3  C   UNL     1      -5.983   9.839  68.753  1.00  0.00    -0.038 C  
HETATM    4  C   UNL     1      -8.037  11.124  68.078  1.00  0.00    -0.123 C  
ENDROOT
BRANCH   4   5
HETATM    5  N   UNL     1      -9.307  11.906  68.391  1.00  0.00    -0.200 N  
BRANCH   5   6
HETATM    6  C   UNL     1      -9.276  13.332  67.791  1.00  0.00    -0.209 C  
BRANCH   6   7
HETATM    7  C   UNL     1      -8.657  14.460  68.690  1.00  0.00    -0.161 C  
HETATM    8  H   UNL     1      -7.265  15.815  68.484  1.00  0.00     0.000 HD 
HETATM    9  O   UNL     1      -7.640  15.133  67.940  1.00  0.00    -0.119 OA 
BRANCH   7  10
HETATM   10  C   UNL     1      -9.727  15.462  69.262  1.00  0.00    -0.268 C  
BRANCH  10  11
HETATM   11  N   UNL     1      -9.670  16.795  68.630  1.00  0.00    -0.249 N  
HETATM   12  O   UNL     1     -10.708  16.135  66.695  1.00  0.00    -0.306 OA 
HETATM   13  H   UNL     1      -9.252  17.574  69.139  1.00  0.00     0.000 HD 
HETATM   14  C   UNL     1     -10.170  17.002  67.368  1.00  0.00    -0.314 C  
BRANCH  14  15
HETATM   15  O   UNL     1      -9.970  18.284  66.949  1.00  0.00    -0.315 OA 
BRANCH  15  16
HETATM   16  C   UNL     1      -8.667  18.805  67.273  1.00  0.00    -0.274 C  
HETATM   17  C   UNL     1      -7.746  18.819  66.070  1.00  0.00    -0.228 C  
HETATM   18  O   UNL     1      -7.484  20.891  67.161  1.00  0.00    -0.339 OA 
HETATM   19  C   UNL     1      -6.752  19.899  66.435  1.00  0.00    -0.209 C  
HETATM   20  C   UNL     1      -8.679  20.278  67.675  1.00  0.00    -0.267 C  
ENDBRANCH  15  16
ENDBRANCH  14  15
ENDBRANCH  10  11
BRANCH  10  21
HETATM   21  C   UNL     1     -11.182  14.933  69.381  1.00  0.00    -0.302 C  
BRANCH  21  22
HETATM   22  C   UNL     1     -11.932  15.021  70.695  1.00  0.00    -0.370 A  
HETATM   23  C   UNL     1     -13.319  13.959  72.391  1.00  0.00    -0.629 A  
HETATM   24  C   UNL     1     -12.769  13.974  71.105  1.00  0.00    -0.436 A  
HETATM   25  C   UNL     1     -13.054  14.998  73.282  1.00  0.00    -0.607 A  
HETATM   26  C   UNL     1     -11.687  16.068  71.598  1.00  0.00    -0.583 A  
HETATM   27  C   UNL     1     -12.244  16.057  72.882  1.00  0.00    -0.621 A  
ENDBRANCH  21  22
ENDBRANCH  10  21
ENDBRANCH   7  10
ENDBRANCH   6   7
ENDBRANCH   5   6
BRANCH   5  28
HETATM   28  S   UNL     1     -10.726  11.023  67.833  1.00  0.00    -0.239 S  
HETATM   29  O   UNL     1     -10.334   9.687  67.448  1.00  0.00    -0.215 OA 
HETATM   30  O   UNL     1     -11.743  11.234  68.847  1.00  0.00    -0.289 OA 
BRANCH  28  31
HETATM   31  C   UNL     1     -11.257  11.839  66.354  1.00  0.00    -0.323 A  
HETATM   32  N   UNL     1     -12.464  13.818  62.846  1.00  0.00    -0.876 NA 
HETATM   33  H2  UNL     1     -12.166  14.786  62.964  1.00  0.00     0.000 HD 
HETATM   34  H1  UNL     1     -12.148  13.493  61.933  1.00  0.00     0.000 HD 
HETATM   35  C   UNL     1     -12.142  12.916  66.433  1.00  0.00    -0.400 A  
HETATM   36  C   UNL     1     -12.561  13.553  65.257  1.00  0.00    -0.517 A  
HETATM   37  C   UNL     1     -10.745  11.442  65.111  1.00  0.00    -0.332 A  
HETATM   38  C   UNL     1     -11.166  12.091  63.946  1.00  0.00    -0.490 A  
HETATM   39  C   UNL     1     -12.125  13.107  64.003  1.00  0.00    -0.446 A  
ENDBRANCH  28  31
ENDBRANCH   5  28
ENDBRANCH   4   5
TORSDOF 11
ENDMDL
MODEL       20
REMARK 921   NORMALIZED FREE ENERGY PREDICTED BY IDOCK:   -6.75 KCAL/MOL
REMARK 922        TOTAL FREE ENERGY PREDICTED BY IDOCK:  -12.86 KCAL/MOL
REMARK 923 INTER-LIGAND FREE ENERGY PREDICTED BY IDOCK:  -11.37 KCAL/MOL
REMARK 924 INTRA-LIGAND FREE ENERGY PREDICTED BY IDOCK:   -1.49 KCAL/MOL
REMARK 927      BINDING AFFINITY PREDICTED BY RF-SCORE:    0.00 PKD
ROOT
HETATM    1  C   UNL     1      -9.985  19.744  68.785  1.00  0.00    -0.510 C  
HETATM    2  C   UNL     1     -10.401  18.822  67.638  1.00  0.00    -0.476 C  
HETATM    3  C   UNL     1     -10.888  19.703  66.471  1.00  0.00    -0.454 C  
HETATM    4  C   UNL     1      -9.264  17.905  67.144  1.00  0.00    -0.258 C  
ENDROOT
BRANCH   4   5
HETATM    5  N   UNL     1      -8.637  16.960  68.162  1.00  0.00    -0.214 N  
BRANCH   5   6
HETATM    6  C   UNL     1      -8.921  15.475  67.830  1.00  0.00    -0.173 C  
BRANCH   6   7
HETATM    7  C   UNL     1     -10.192  15.179  66.960  1.00  0.00    -0.262 C  
HETATM    8  H   UNL     1     -10.549  14.786  65.079  1.00  0.00     0.000 HD 
HETATM    9  O   UNL     1      -9.779  14.965  65.606  1.00  0.00    -0.335 OA 
BRANCH   7  10
HETATM   10  C   UNL     1     -11.061  13.985  67.507  1.00  0.00    -0.298 C  
BRANCH  10  11
HETATM   11  N   UNL     1     -12.067  14.408  68.501  1.00  0.00    -0.562 N  
HETATM   12  O   UNL     1     -11.525  12.785  70.026  1.00  0.00    -0.162 OA 
HETATM   13  H   UNL     1     -12.665  15.210  68.300  1.00  0.00     0.000 HD 
HETATM   14  C   UNL     1     -12.211  13.739  69.691  1.00  0.00    -0.305 C  
BRANCH  14  15
HETATM   15  O   UNL     1     -13.229  14.253  70.440  1.00  0.00    -0.169 OA 
BRANCH  15  16
HETATM   16  C   UNL     1     -12.845  14.595  71.786  1.00  0.00    -0.332 C  
HETATM   17  C   UNL     1     -11.851  15.737  71.819  1.00  0.00    -0.549 C  
HETATM   18  O   UNL     1     -13.459  16.176  73.484  1.00  0.00    -0.638 OA 
HETATM   19  C   UNL     1     -12.062  16.312  73.203  1.00  0.00    -0.509 C  
HETATM   20  C   UNL     1     -13.992  15.154  72.625  1.00  0.00    -0.424 C  
ENDBRANCH  15  16
ENDBRANCH  14  15
ENDBRANCH  10  11
BRANCH  10  21
HETATM   21  C   UNL     1     -11.654  13.016  66.449  1.00  0.00    -0.413 C  
BRANCH  21  22
HETATM   22  C   UNL     1     -11.069  11.632  66.254  1.00  0.00    -0.345 A  
HETATM   23  C   UNL     1      -9.817  10.060  64.879  1.00  0.00    -0.352 A  
HETATM   24  C   UNL     1     -10.522  11.260  65.018  1.00  0.00    -0.359 A  
HETATM   25  C   UNL     1      -9.661   9.205  65.968  1.00  0.00    -0.342 A  
HETATM   26  C   UNL     1     -10.916  10.752  67.339  1.00  0.00    -0.361 A  
HETATM   27  C   UNL     1     -10.218   9.548  67.197  1.00  0.00    -0.305 A  
ENDBRANCH  21  22
ENDBRANCH  10  21
ENDBRANCH   7  10
ENDBRANCH   6   7
ENDBRANCH   5   6
BRANCH   5  28
HETATM   28  S   UNL     1      -6.906  17.253  68.291  1.00  0.00    -0.190 S  
HETATM   29  O   UNL     1      -6.622  17.882  69.560  1.00  0.00    -0.234 OA 
HETATM   30  O   UNL     1      -6.267  16.003  67.924  1.00  0.00    -0.109 OA 
BRANCH  28  31
HETATM   31  C   UNL     1      -6.520  18.447  67.040  1.00  0.00    -0.182 A  
HETATM   32  N   UNL     1      -5.670  21.286  64.058  1.00  0.00    -0.227 NA 
HETATM   33  H2  UNL     1      -6.395  21.163  63.351  1.00  0.00     0.000 HD 
HETATM   34  H1  UNL     1      -5.612  22.278  64.288  1.00  0.00     0.000 HD 
HETATM   35  C   UNL     1      -6.262  18.027  65.734  1.00  0.00    -0.277 A  
HETATM   36  C   UNL     1      -5.953  18.977  64.751  1.00  0.00    -0.316 A  
HETATM   37  C   UNL     1      -6.531  19.814  67.347  1.00  0.00    -0.219 A  
HETATM   38  C   UNL     1      -6.228  20.752  66.356  1.00  0.00    -0.296 A  
HETATM   39  C   UNL     1      -5.873  20.339  65.068  1.00  0.00    -0.214 A  
ENDBRANCH  28  31
ENDBRANCH   5  28
ENDBRANCH   4   5
TORSDOF 11
ENDMDL
MODEL       21
REMARK 921   NORMALIZED FREE ENERGY PREDICTED BY IDOCK:   -6.74 KCAL/MOL
REMARK 922        TOTAL FREE ENERGY PREDICTED BY IDOCK:  -12.84 KCAL/MOL
REMARK 923 INTER-LIGAND FREE ENERGY PREDICTED BY IDOCK:  -10.98 KCAL/MOL
REMARK 924 INTRA-LIGAND FREE ENERGY PREDICTED BY IDOCK:   -1.87 KCAL/MOL
REMARK 927      BINDING AFFINITY PREDICTED BY RF-SCORE:    0.00 PKD
ROOT
HETATM    1  C   UNL     1      -6.975  11.339  69.198  1.00  0.00    -0.114 C  
HETATM    2  C   UNL     1      -7.309  12.584  68.376  1.00  0.00    -0.114 C  
HETATM    3  C   UNL     1      -5.993  13.338  68.096  1.00  0.00    -0.108 C  
HETATM    4  C   UNL     1      -8.009  12.268  67.039  1.00  0.00    -0.123 C  
ENDROOT
BRANCH   4   5
HETATM    5  N   UNL     1      -9.330  11.511  67.106  1.00  0.00    -0.170 N  
BRANCH   5   6
HETATM    6  C   UNL     1     -10.512  12.352  66.563  1.00  0.00    -0.230 C  
BRANCH   6   7
HETATM    7  C   UNL     1     -11.771  12.476  67.491  1.00  0.00    -0.374 C  
HETATM    8  H   UNL     1     -12.884  11.244  68.521  1.00  0.00     0.000 HD 
HETATM    9  O   UNL     1     -12.122  11.169  67.959  1.00  0.00    -0.635 OA 
BRANCH   7  10
HETATM   10  C   UNL     1     -11.578  13.494  68.675  1.00  0.00    -0.330 C  
BRANCH  10  11
HETATM   11  N   UNL     1     -11.865  14.891  68.291  1.00  0.00    -0.482 N  
HETATM   12  O   UNL     1      -9.673  15.437  67.900  1.00  0.00    -0.207 OA 
HETATM   13  H   UNL     1     -12.830  15.222  68.285  1.00  0.00     0.000 HD 
HETATM   14  C   UNL     1     -10.853  15.751  67.943  1.00  0.00    -0.314 C  
BRANCH  14  15
HETATM   15  O   UNL     1     -11.324  17.004  67.677  1.00  0.00    -0.035 OA 
BRANCH  15  16
HETATM   16  C   UNL     1     -10.288  17.989  67.504  1.00  0.00    -0.385 C  
HETATM   17  C   UNL     1     -10.654  19.019  66.455  1.00  0.00    -0.492 C  
HETATM   18  O   UNL     1      -9.755  20.195  68.288  1.00  0.00    -0.333 OA 
HETATM   19  C   UNL     1      -9.810  20.208  66.858  1.00  0.00    -0.454 C  
HETATM   20  C   UNL     1     -10.064  18.864  68.736  1.00  0.00    -0.355 C  
ENDBRANCH  15  16
ENDBRANCH  14  15
ENDBRANCH  10  11
BRANCH  10  21
HETATM   21  C   UNL     1     -12.231  13.115  70.031  1.00  0.00    -0.323 C  
BRANCH  21  22
HETATM   22  C   UNL     1     -12.588  14.185  71.044  1.00  0.00    -0.439 A  
HETATM   23  C   UNL     1     -14.212  15.171  72.566  1.00  0.00    -0.445 A  
HETATM   24  C   UNL     1     -13.906  14.316  71.502  1.00  0.00    -0.428 A  
HETATM   25  C   UNL     1     -13.209  15.919  73.179  1.00  0.00    -0.692 A  
HETATM   26  C   UNL     1     -11.590  14.958  71.661  1.00  0.00    -0.347 A  
HETATM   27  C   UNL     1     -11.899  15.818  72.721  1.00  0.00    -0.584 A  
ENDBRANCH  21  22
ENDBRANCH  10  21
ENDBRANCH   7  10
ENDBRANCH   6   7
ENDBRANCH   5   6
BRANCH   5  28
HETATM   28  S   UNL     1      -9.205   9.979  66.245  1.00  0.00    -0.169 S  
HETATM   29  O   UNL     1     -10.137   9.976  65.142  1.00  0.00    -0.325 OA 
HETATM   30  O   UNL     1      -7.787   9.771  66.019  1.00  0.00    -0.104 OA 
BRANCH  28  31
HETATM   31  C   UNL     1      -9.762   8.737  67.379  1.00  0.00    -0.174 A  
HETATM   32  N   UNL     1     -11.146   5.815  70.067  1.00  0.00    -0.328 NA 
HETATM   33  H2  UNL     1     -11.867   6.276  70.621  1.00  0.00     0.000 HD 
HETATM   34  H1  UNL     1     -11.520   4.931  69.724  1.00  0.00     0.000 HD 
HETATM   35  C   UNL     1      -9.659   8.954  68.754  1.00  0.00    -0.159 A  
HETATM   36  C   UNL     1     -10.098   7.963  69.643  1.00  0.00    -0.197 A  
HETATM   37  C   UNL     1     -10.358   7.564  66.897  1.00  0.00    -0.379 A  
HETATM   38  C   UNL     1     -10.798   6.587  67.796  1.00  0.00    -0.395 A  
HETATM   39  C   UNL     1     -10.613   6.750  69.172  1.00  0.00    -0.232 A  
ENDBRANCH  28  31
ENDBRANCH   5  28
ENDBRANCH   4   5
TORSDOF 11
ENDMDL
MODEL       22
REMARK 921   NORMALIZED FREE ENERGY PREDICTED BY IDOCK:   -6.71 KCAL/MOL
REMARK 922        TOTAL FREE ENERGY PREDICTED BY IDOCK:  -12.80 KCAL/MOL
REMARK 923 INTER-LIGAND FREE ENERGY PREDICTED BY IDOCK:  -10.62 KCAL/MOL
REMARK 924 INTRA-LIGAND FREE ENERGY PREDICTED BY IDOCK:   -2.18 KCAL/MOL
REMARK 927      BINDING AFFINITY PREDICTED BY RF-SCORE:    0.00 PKD
ROOT
HETATM    1  C   UNL     1      -8.128   7.380  67.942  1.00  0.00    -0.119 C  
HETATM    2  C   UNL     1      -9.286   8.378  67.965  1.00  0.00    -0.146 C  
HETATM    3  C   UNL     1      -9.939   8.384  66.568  1.00  0.00    -0.335 C  
HETATM    4  C   UNL     1     -10.357   8.053  69.026  1.00  0.00    -0.218 C  
ENDROOT
BRANCH   4   5
HETATM    5  N   UNL     1      -9.902   7.989  70.479  1.00  0.00    -0.182 N  
BRANCH   5   6
HETATM    6  C   UNL     1     -10.373   9.219  71.292  1.00  0.00    -0.327 C  
BRANCH   6   7
HETATM    7  C   UNL     1     -11.903   9.560  71.228  1.00  0.00    -0.373 C  
HETATM    8  H   UNL     1     -13.381   9.635  72.504  1.00  0.00     0.000 HD 
HETATM    9  O   UNL     1     -12.455   9.428  72.543  1.00  0.00    -0.250 OA 
BRANCH   7  10
HETATM   10  C   UNL     1     -12.204  10.972  70.601  1.00  0.00    -0.385 C  
BRANCH  10  11
HETATM   11  N   UNL     1     -12.468  10.917  69.149  1.00  0.00    -0.331 N  
HETATM   12  O   UNL     1     -10.475  11.881  68.555  1.00  0.00    -0.213 OA 
HETATM   13  H   UNL     1     -13.343  10.514  68.813  1.00  0.00     0.000 HD 
HETATM   14  C   UNL     1     -11.556  11.402  68.245  1.00  0.00    -0.306 C  
BRANCH  14  15
HETATM   15  O   UNL     1     -12.015  11.307  66.964  1.00  0.00    -0.401 OA 
BRANCH  15  16
HETATM   16  C   UNL     1     -11.657  12.429  66.134  1.00  0.00    -0.396 C  
HETATM   17  C   UNL     1     -11.754  12.098  64.659  1.00  0.00    -0.400 C  
HETATM   18  O   UNL     1     -12.747  14.214  64.956  1.00  0.00    -0.631 OA 
HETATM   19  C   UNL     1     -11.955  13.460  64.033  1.00  0.00    -0.464 C  
HETATM   20  C   UNL     1     -12.619  13.609  66.254  1.00  0.00    -0.291 C  
ENDBRANCH  15  16
ENDBRANCH  14  15
ENDBRANCH  10  11
BRANCH  10  21
HETATM   21  C   UNL     1     -13.234  11.860  71.350  1.00  0.00    -0.181 C  
BRANCH  21  22
HETATM   22  C   UNL     1     -12.968  13.336  71.569  1.00  0.00    -0.426 A  
HETATM   23  C   UNL     1     -13.281  15.345  72.907  1.00  0.00    -0.622 A  
HETATM   24  C   UNL     1     -13.648  14.038  72.574  1.00  0.00    -0.670 A  
HETATM   25  C   UNL     1     -12.239  15.978  72.231  1.00  0.00    -0.604 A  
HETATM   26  C   UNL     1     -11.931  13.993  70.886  1.00  0.00    -0.343 A  
HETATM   27  C   UNL     1     -11.570  15.304  71.214  1.00  0.00    -0.430 A  
ENDBRANCH  21  22
ENDBRANCH  10  21
ENDBRANCH   7  10
ENDBRANCH   6   7
ENDBRANCH   5   6
BRANCH   5  28
HETATM   28  S   UNL     1     -10.452   6.494  71.231  1.00  0.00    -0.220 S  
HETATM   29  O   UNL     1     -10.189   6.550  72.650  1.00  0.00    -0.180 OA 
HETATM   30  O   UNL     1     -11.798   6.277  70.734  1.00  0.00    -0.307 OA 
BRANCH  28  31
HETATM   31  C   UNL     1      -9.419   5.211  70.577  1.00  0.00    -0.169 A  
HETATM   32  N   UNL     1      -7.000   2.123  69.066  1.00  0.00    -0.039 NA 
HETATM   33  H2  UNL     1      -6.858   1.483  69.846  1.00  0.00     0.000 HD 
HETATM   34  H1  UNL     1      -7.298   1.581  68.255  1.00  0.00     0.000 HD 
HETATM   35  C   UNL     1      -8.173   4.960  71.153  1.00  0.00    -0.109 A  
HETATM   36  C   UNL     1      -7.361   3.947  70.626  1.00  0.00    -0.041 A  
HETATM   37  C   UNL     1      -9.877   4.413  69.521  1.00  0.00    -0.258 A  
HETATM   38  C   UNL     1      -9.060   3.400  69.010  1.00  0.00    -0.205 A  
HETATM   39  C   UNL     1      -7.771   3.201  69.514  1.00  0.00    -0.046 A  
ENDBRANCH  28  31
ENDBRANCH   5  28
ENDBRANCH   4   5
TORSDOF 11
ENDMDL
MODEL       23
REMARK 921   NORMALIZED FREE ENERGY PREDICTED BY IDOCK:   -6.69 KCAL/MOL
REMARK 922        TOTAL FREE ENERGY PREDICTED BY IDOCK:  -12.76 KCAL/MOL
REMARK 923 INTER-LIGAND FREE ENERGY PREDICTED BY IDOCK:  -10.85 KCAL/MOL
REMARK 924 INTRA-LIGAND FREE ENERGY PREDICTED BY IDOCK:   -1.91 KCAL/MOL
REMARK 927      BINDING AFFINITY PREDICTED BY RF-SCORE:    0.00 PKD
ROOT
HETATM    1  C   UNL     1      -8.383  14.419  69.114  1.00  0.00     0.056 C  
HETATM    2  C   UNL     1      -7.492  13.471  68.310  1.00  0.00    -0.122 C  
HETATM    3  C   UNL     1      -6.054  13.596  68.853  1.00  0.00    -0.088 C  
HETATM    4  C   UNL     1      -7.938  11.998  68.384  1.00  0.00    -0.152 C  
ENDROOT
BRANCH   4   5
HETATM    5  N   UNL     1      -9.346  11.670  67.900  1.00  0.00    -0.169 N  
BRANCH   5   6
HETATM    6  C   UNL     1      -9.596  12.167  66.456  1.00  0.00    -0.228 C  
BRANCH   6   7
HETATM    7  C   UNL     1     -10.876  13.045  66.226  1.00  0.00    -0.278 C  
HETATM    8  H   UNL     1     -12.784  12.708  65.969  1.00  0.00     0.000 HD 
HETATM    9  O   UNL     1     -12.009  12.176  66.108  1.00  0.00    -0.593 OA 
BRANCH   7  10
HETATM   10  C   UNL     1     -11.089  14.143  67.332  1.00  0.00    -0.306 C  
BRANCH  10  11
HETATM   11  N   UNL     1     -11.117  15.516  66.789  1.00  0.00    -0.261 N  
HETATM   12  O   UNL     1      -8.973  15.446  65.979  1.00  0.00    -0.310 OA 
HETATM   13  H   UNL     1     -11.964  16.076  66.883  1.00  0.00     0.000 HD 
HETATM   14  C   UNL     1     -10.020  16.050  66.158  1.00  0.00    -0.325 C  
BRANCH  14  15
HETATM   15  O   UNL     1     -10.234  17.343  65.781  1.00  0.00    -0.555 OA 
BRANCH  15  16
HETATM   16  C   UNL     1     -10.493  18.235  66.882  1.00  0.00    -0.373 C  
HETATM   17  C   UNL     1      -9.354  18.249  67.880  1.00  0.00    -0.284 C  
HETATM   18  O   UNL     1      -9.988  20.491  67.527  1.00  0.00    -0.425 OA 
HETATM   19  C   UNL     1      -9.521  19.599  68.544  1.00  0.00    -0.358 C  
HETATM   20  C   UNL     1     -10.571  19.704  66.474  1.00  0.00    -0.482 C  
ENDBRANCH  15  16
ENDBRANCH  14  15
ENDBRANCH  10  11
BRANCH  10  21
HETATM   21  C   UNL     1     -12.235  13.894  68.349  1.00  0.00    -0.194 C  
BRANCH  21  22
HETATM   22  C   UNL     1     -12.293  14.662  69.654  1.00  0.00    -0.270 A  
HETATM   23  C   UNL     1     -12.899  14.747  72.010  1.00  0.00    -0.399 A  
HETATM   24  C   UNL     1     -12.992  14.143  70.753  1.00  0.00    -0.337 A  
HETATM   25  C   UNL     1     -12.119  15.888  72.187  1.00  0.00    -0.596 A  
HETATM   26  C   UNL     1     -11.523  15.822  69.845  1.00  0.00    -0.347 A  
HETATM   27  C   UNL     1     -11.437  16.430  71.102  1.00  0.00    -0.252 A  
ENDBRANCH  21  22
ENDBRANCH  10  21
ENDBRANCH   7  10
ENDBRANCH   6   7
ENDBRANCH   5   6
BRANCH   5  28
HETATM   28  S   UNL     1      -9.654   9.941  68.030  1.00  0.00    -0.139 S  
HETATM   29  O   UNL     1     -10.338   9.489  66.840  1.00  0.00    -0.240 OA 
HETATM   30  O   UNL     1      -8.392   9.346  68.431  1.00  0.00    -0.116 OA 
BRANCH  28  31
HETATM   31  C   UNL     1     -10.795   9.748  69.371  1.00  0.00    -0.232 A  
HETATM   32  N   UNL     1     -13.459   9.325  72.596  1.00  0.00    -0.670 NA 
HETATM   33  H2  UNL     1     -12.871   9.253  73.426  1.00  0.00     0.000 HD 
HETATM   34  H1  UNL     1     -14.177  10.028  72.771  1.00  0.00     0.000 HD 
HETATM   35  C   UNL     1     -10.734   8.611  70.178  1.00  0.00    -0.244 A  
HETATM   36  C   UNL     1     -11.643   8.465  71.235  1.00  0.00    -0.326 A  
HETATM   37  C   UNL     1     -11.718  10.763  69.658  1.00  0.00    -0.395 A  
HETATM   38  C   UNL     1     -12.615  10.607  70.719  1.00  0.00    -0.479 A  
HETATM   39  C   UNL     1     -12.628   9.430  71.475  1.00  0.00    -0.362 A  
ENDBRANCH  28  31
ENDBRANCH   5  28
ENDBRANCH   4   5
TORSDOF 11
ENDMDL
MODEL       24
REMARK 921   NORMALIZED FREE ENERGY PREDICTED BY IDOCK:   -6.68 KCAL/MOL
REMARK 922        TOTAL FREE ENERGY PREDICTED BY IDOCK:  -12.75 KCAL/MOL
REMARK 923 INTER-LIGAND FREE ENERGY PREDICTED BY IDOCK:  -11.69 KCAL/MOL
REMARK 924 INTRA-LIGAND FREE ENERGY PREDICTED BY IDOCK:   -1.06 KCAL/MOL
REMARK 927      BINDING AFFINITY PREDICTED BY RF-SCORE:    0.00 PKD
ROOT
HETATM    1  C   UNL     1      -7.368  14.172  69.002  1.00  0.00    -0.102 C  
HETATM    2  C   UNL     1      -7.168  13.464  67.662  1.00  0.00    -0.167 C  
HETATM    3  C   UNL     1      -5.754  12.850  67.654  1.00  0.00    -0.130 C  
HETATM    4  C   UNL     1      -8.205  12.356  67.392  1.00  0.00    -0.180 C  
ENDROOT
BRANCH   4   5
HETATM    5  N   UNL     1      -9.674  12.764  67.372  1.00  0.00    -0.194 N  
BRANCH   5   6
HETATM    6  C   UNL     1      -9.950  13.897  66.353  1.00  0.00    -0.297 C  
BRANCH   6   7
HETATM    7  C   UNL     1     -10.928  15.033  66.813  1.00  0.00    -0.323 C  
HETATM    8  H   UNL     1     -12.848  15.373  66.682  1.00  0.00     0.000 HD 
HETATM    9  O   UNL     1     -12.256  14.685  66.404  1.00  0.00    -0.300 OA 
BRANCH   7  10
HETATM   10  C   UNL     1     -10.849  15.343  68.354  1.00  0.00    -0.268 C  
BRANCH  10  11
HETATM   11  N   UNL     1     -10.940  16.784  68.661  1.00  0.00    -0.328 N  
HETATM   12  O   UNL     1      -8.673  17.107  68.749  1.00  0.00    -0.268 OA 
HETATM   13  H   UNL     1     -11.858  17.223  68.738  1.00  0.00     0.000 HD 
HETATM   14  C   UNL     1      -9.810  17.542  68.845  1.00  0.00    -0.289 C  
BRANCH  14  15
HETATM   15  O   UNL     1     -10.114  18.831  69.173  1.00  0.00    -0.359 OA 
BRANCH  15  16
HETATM   16  C   UNL     1      -9.868  19.774  68.112  1.00  0.00    -0.424 C  
HETATM   17  C   UNL     1      -8.435  19.715  67.623  1.00  0.00    -0.358 C  
HETATM   18  O   UNL     1      -9.811  19.807  65.713  1.00  0.00    -0.366 OA 
HETATM   19  C   UNL     1      -8.550  20.259  66.216  1.00  0.00    -0.118 C  
HETATM   20  C   UNL     1     -10.647  19.474  66.834  1.00  0.00    -0.490 C  
ENDBRANCH  15  16
ENDBRANCH  14  15
ENDBRANCH  10  11
BRANCH  10  21
HETATM   21  C   UNL     1     -11.752  14.488  69.282  1.00  0.00    -0.350 C  
BRANCH  21  22
HETATM   22  C   UNL     1     -12.297  15.063  70.574  1.00  0.00    -0.411 A  
HETATM   23  C   UNL     1     -14.170  15.405  72.091  1.00  0.00    -0.660 A  
HETATM   24  C   UNL     1     -13.675  15.049  70.832  1.00  0.00    -0.319 A  
HETATM   25  C   UNL     1     -13.299  15.794  73.106  1.00  0.00    -0.685 A  
HETATM   26  C   UNL     1     -11.432  15.473  71.604  1.00  0.00    -0.496 A  
HETATM   27  C   UNL     1     -11.931  15.836  72.860  1.00  0.00    -0.599 A  
ENDBRANCH  21  22
ENDBRANCH  10  21
ENDBRANCH   7  10
ENDBRANCH   6   7
ENDBRANCH   5   6
BRANCH   5  28
HETATM   28  S   UNL     1     -10.697  11.368  67.048  1.00  0.00    -0.274 S  
HETATM   29  O   UNL     1     -12.022  11.820  66.693  1.00  0.00    -0.561 OA 
HETATM   30  O   UNL     1      -9.935  10.524  66.145  1.00  0.00    -0.210 OA 
BRANCH  28  31
HETATM   31  C   UNL     1     -10.853  10.510  68.590  1.00  0.00    -0.237 A  
HETATM   32  N   UNL     1     -11.173   8.512  72.276  1.00  0.00    -0.362 NA 
HETATM   33  H2  UNL     1     -10.227   8.487  72.653  1.00  0.00     0.000 HD 
HETATM   34  H1  UNL     1     -11.800   8.861  73.001  1.00  0.00     0.000 HD 
HETATM   35  C   UNL     1     -10.138   9.330  68.805  1.00  0.00    -0.210 A  
HETATM   36  C   UNL     1     -10.272   8.656  70.027  1.00  0.00    -0.201 A  
HETATM   37  C   UNL     1     -11.647  11.045  69.613  1.00  0.00    -0.390 A  
HETATM   38  C   UNL     1     -11.765  10.366  70.830  1.00  0.00    -0.464 A  
HETATM   39  C   UNL     1     -11.131   9.134  71.023  1.00  0.00    -0.305 A  
ENDBRANCH  28  31
ENDBRANCH   5  28
ENDBRANCH   4   5
TORSDOF 11
ENDMDL
MODEL       25
REMARK 921   NORMALIZED FREE ENERGY PREDICTED BY IDOCK:   -6.66 KCAL/MOL
REMARK 922        TOTAL FREE ENERGY PREDICTED BY IDOCK:  -12.71 KCAL/MOL
REMARK 923 INTER-LIGAND FREE ENERGY PREDICTED BY IDOCK:  -11.08 KCAL/MOL
REMARK 924 INTRA-LIGAND FREE ENERGY PREDICTED BY IDOCK:   -1.63 KCAL/MOL
REMARK 927      BINDING AFFINITY PREDICTED BY RF-SCORE:    0.00 PKD
ROOT
HETATM    1  C   UNL     1     -11.406   6.810  70.475  1.00  0.00    -0.394 C  
HETATM    2  C   UNL     1     -11.495   8.322  70.683  1.00  0.00    -0.236 C  
HETATM    3  C   UNL     1     -11.467   8.597  72.200  1.00  0.00    -0.443 C  
HETATM    4  C   UNL     1     -10.354   9.104  70.003  1.00  0.00    -0.207 C  
ENDROOT
BRANCH   4   5
HETATM    5  N   UNL     1     -10.208   8.953  68.493  1.00  0.00    -0.193 N  
BRANCH   5   6
HETATM    6  C   UNL     1     -10.382  10.301  67.753  1.00  0.00    -0.204 C  
BRANCH   6   7
HETATM    7  C   UNL     1      -9.987  11.596  68.547  1.00  0.00    -0.194 C  
HETATM    8  H   UNL     1      -8.617  12.980  68.386  1.00  0.00     0.000 HD 
HETATM    9  O   UNL     1      -8.856  12.196  67.905  1.00  0.00    -0.161 OA 
BRANCH   7  10
HETATM   10  C   UNL     1     -11.176  12.612  68.718  1.00  0.00    -0.280 C  
BRANCH  10  11
HETATM   11  N   UNL     1     -11.974  12.784  67.487  1.00  0.00    -0.341 N  
HETATM   12  O   UNL     1     -11.331  14.957  67.143  1.00  0.00    -0.337 OA 
HETATM   13  H   UNL     1     -12.529  12.003  67.136  1.00  0.00     0.000 HD 
HETATM   14  C   UNL     1     -11.981  13.978  66.809  1.00  0.00    -0.444 C  
BRANCH  14  15
HETATM   15  O   UNL     1     -12.821  13.944  65.735  1.00  0.00    -0.501 OA 
BRANCH  15  16
HETATM   16  C   UNL     1     -12.192  13.499  64.518  1.00  0.00    -0.398 C  
HETATM   17  C   UNL     1     -10.703  13.279  64.698  1.00  0.00    -0.415 C  
HETATM   18  O   UNL     1     -11.530  11.435  63.487  1.00  0.00    -0.355 OA 
HETATM   19  C   UNL     1     -10.387  12.288  63.599  1.00  0.00    -0.432 C  
HETATM   20  C   UNL     1     -12.658  12.119  64.058  1.00  0.00    -0.403 C  
ENDBRANCH  15  16
ENDBRANCH  14  15
ENDBRANCH  10  11
BRANCH  10  21
HETATM   21  C   UNL     1     -12.070  12.431  69.974  1.00  0.00    -0.335 C  
BRANCH  21  22
HETATM   22  C   UNL     1     -12.464  13.625  70.821  1.00  0.00    -0.432 A  
HETATM   23  C   UNL     1     -13.642  14.527  72.751  1.00  0.00    -0.533 A  
HETATM   24  C   UNL     1     -13.408  13.485  71.848  1.00  0.00    -0.529 A  
HETATM   25  C   UNL     1     -12.948  15.729  72.635  1.00  0.00    -0.569 A  
HETATM   26  C   UNL     1     -11.783  14.849  70.707  1.00  0.00    -0.364 A  
HETATM   27  C   UNL     1     -12.024  15.893  71.607  1.00  0.00    -0.553 A  
ENDBRANCH  21  22
ENDBRANCH  10  21
ENDBRANCH   7  10
ENDBRANCH   6   7
ENDBRANCH   5   6
BRANCH   5  28
HETATM   28  S   UNL     1      -8.658   8.216  68.096  1.00  0.00    -0.129 S  
HETATM   29  O   UNL     1      -7.939   9.081  67.190  1.00  0.00    -0.101 OA 
HETATM   30  O   UNL     1      -8.075   7.821  69.365  1.00  0.00    -0.122 OA 
BRANCH  28  31
HETATM   31  C   UNL     1      -9.038   6.741  67.191  1.00  0.00    -0.126 A  
HETATM   32  N   UNL     1      -9.947   3.207  65.103  1.00  0.00    -0.381 NA 
HETATM   33  H2  UNL     1      -9.575   2.450  65.676  1.00  0.00     0.000 HD 
HETATM   34  H1  UNL     1     -10.912   2.982  64.861  1.00  0.00     0.000 HD 
HETATM   35  C   UNL     1      -8.008   5.894  66.778  1.00  0.00    -0.102 A  
HETATM   36  C   UNL     1      -8.318   4.731  66.059  1.00  0.00    -0.112 A  
HETATM   37  C   UNL     1     -10.373   6.395  66.942  1.00  0.00    -0.306 A  
HETATM   38  C   UNL     1     -10.668   5.229  66.229  1.00  0.00    -0.260 A  
HETATM   39  C   UNL     1      -9.642   4.422  65.726  1.00  0.00    -0.188 A  
ENDBRANCH  28  31
ENDBRANCH   5  28
ENDBRANCH   4   5
TORSDOF 11
ENDMDL
MODEL       26
REMARK 921   NORMALIZED FREE ENERGY PREDICTED BY IDOCK:   -6.65 KCAL/MOL
REMARK 922        TOTAL FREE ENERGY PREDICTED BY IDOCK:  -12.70 KCAL/MOL
REMARK 923 INTER-LIGAND FREE ENERGY PREDICTED BY IDOCK:  -10.55 KCAL/MOL
REMARK 924 INTRA-LIGAND FREE ENERGY PREDICTED BY IDOCK:   -2.15 KCAL/MOL
REMARK 927      BINDING AFFINITY PREDICTED BY RF-SCORE:    0.00 PKD
ROOT
HETATM    1  C   UNL     1     -13.298   6.721  71.416  1.00  0.00    -0.150 C  
HETATM    2  C   UNL     1     -13.204   8.246  71.487  1.00  0.00    -0.308 C  
HETATM    3  C   UNL     1     -14.399   8.759  72.316  1.00  0.00    -0.468 C  
HETATM    4  C   UNL     1     -11.893   8.752  72.119  1.00  0.00    -0.366 C  
ENDROOT
BRANCH   4   5
HETATM    5  N   UNL     1     -10.589   8.339  71.446  1.00  0.00    -0.215 N  
BRANCH   5   6
HETATM    6  C   UNL     1      -9.801   9.556  70.904  1.00  0.00    -0.209 C  
BRANCH   6   7
HETATM    7  C   UNL     1      -9.820   9.772  69.350  1.00  0.00    -0.205 C  
HETATM    8  H   UNL     1     -10.250   8.683  67.786  1.00  0.00     0.000 HD 
HETATM    9  O   UNL     1     -10.239   8.552  68.726  1.00  0.00    -0.193 OA 
BRANCH   7  10
HETATM   10  C   UNL     1     -10.699  10.996  68.899  1.00  0.00    -0.211 C  
BRANCH  10  11
HETATM   11  N   UNL     1     -10.870  11.079  67.434  1.00  0.00    -0.256 N  
HETATM   12  O   UNL     1      -8.812  12.013  67.053  1.00  0.00    -0.183 OA 
HETATM   13  H   UNL     1     -11.733  10.740  67.010  1.00  0.00     0.000 HD 
HETATM   14  C   UNL     1      -9.885  11.605  66.635  1.00  0.00    -0.200 C  
BRANCH  14  15
HETATM   15  O   UNL     1     -10.262  11.641  65.325  1.00  0.00    -0.249 OA 
BRANCH  15  16
HETATM   16  C   UNL     1     -11.431  12.445  65.079  1.00  0.00    -0.332 C  
HETATM   17  C   UNL     1     -11.121  13.927  65.132  1.00  0.00    -0.334 C  
HETATM   18  O   UNL     1     -12.480  13.577  63.240  1.00  0.00    -0.763 OA 
HETATM   19  C   UNL     1     -12.225  14.521  64.285  1.00  0.00    -0.415 C  
HETATM   20  C   UNL     1     -11.991  12.294  63.665  1.00  0.00    -0.543 C  
ENDBRANCH  15  16
ENDBRANCH  14  15
ENDBRANCH  10  11
BRANCH  10  21
HETATM   21  C   UNL     1     -12.037  11.209  69.657  1.00  0.00    -0.406 C  
BRANCH  21  22
HETATM   22  C   UNL     1     -12.269  12.461  70.480  1.00  0.00    -0.382 A  
HETATM   23  C   UNL     1     -12.345  14.890  70.624  1.00  0.00    -0.406 A  
HETATM   24  C   UNL     1     -11.966  13.723  69.952  1.00  0.00    -0.412 A  
HETATM   25  C   UNL     1     -13.020  14.813  71.841  1.00  0.00    -0.405 A  
HETATM   26  C   UNL     1     -12.936  12.400  71.715  1.00  0.00    -0.422 A  
HETATM   27  C   UNL     1     -13.308  13.568  72.390  1.00  0.00    -0.641 A  
ENDBRANCH  21  22
ENDBRANCH  10  21
ENDBRANCH   7  10
ENDBRANCH   6   7
ENDBRANCH   5   6
BRANCH   5  28
HETATM   28  S   UNL     1      -9.597   7.393  72.553  1.00  0.00    -0.166 S  
HETATM   29  O   UNL     1      -8.250   7.912  72.546  1.00  0.00    -0.116 OA 
HETATM   30  O   UNL     1     -10.355   7.314  73.788  1.00  0.00    -0.360 OA 
BRANCH  28  31
HETATM   31  C   UNL     1      -9.514   5.764  71.862  1.00  0.00    -0.151 A  
HETATM   32  N   UNL     1      -9.383   1.888  70.239  1.00  0.00    -0.108 NA 
HETATM   33  H2  UNL     1     -10.024   1.334  70.807  1.00  0.00     0.000 HD 
HETATM   34  H1  UNL     1      -9.606   1.730  69.256  1.00  0.00     0.000 HD 
HETATM   35  C   UNL     1      -9.110   4.691  72.658  1.00  0.00    -0.140 A  
HETATM   36  C   UNL     1      -9.044   3.406  72.102  1.00  0.00    -0.149 A  
HETATM   37  C   UNL     1      -9.909   5.544  70.536  1.00  0.00    -0.254 A  
HETATM   38  C   UNL     1      -9.844   4.255  69.996  1.00  0.00    -0.275 A  
HETATM   39  C   UNL     1      -9.350   3.189  70.753  1.00  0.00    -0.153 A  
ENDBRANCH  28  31
ENDBRANCH   5  28
ENDBRANCH   4   5
TORSDOF 11
ENDMDL
MODEL       27
REMARK 921   NORMALIZED FREE ENERGY PREDICTED BY IDOCK:   -6.64 KCAL/MOL
REMARK 922        TOTAL FREE ENERGY PREDICTED BY IDOCK:  -12.69 KCAL/MOL
REMARK 923 INTER-LIGAND FREE ENERGY PREDICTED BY IDOCK:  -10.90 KCAL/MOL
REMARK 924 INTRA-LIGAND FREE ENERGY PREDICTED BY IDOCK:   -1.78 KCAL/MOL
REMARK 927      BINDING AFFINITY PREDICTED BY RF-SCORE:    0.00 PKD
ROOT
HETATM    1  C   UNL     1      -8.335   7.173  68.535  1.00  0.00    -0.125 C  
HETATM    2  C   UNL     1      -9.621   7.872  68.095  1.00  0.00    -0.163 C  
HETATM    3  C   UNL     1     -10.017   7.314  66.713  1.00  0.00    -0.287 C  
HETATM    4  C   UNL     1     -10.793   7.678  69.077  1.00  0.00    -0.040 C  
ENDROOT
BRANCH   4   5
HETATM    5  N   UNL     1     -10.590   8.160  70.509  1.00  0.00    -0.216 N  
BRANCH   5   6
HETATM    6  C   UNL     1     -10.715   9.698  70.630  1.00  0.00    -0.322 C  
BRANCH   6   7
HETATM    7  C   UNL     1     -11.918  10.367  69.876  1.00  0.00    -0.215 C  
HETATM    8  H   UNL     1     -13.688  11.034  70.367  1.00  0.00     0.000 HD 
HETATM    9  O   UNL     1     -12.960  10.629  70.823  1.00  0.00    -0.364 OA 
BRANCH   7  10
HETATM   10  C   UNL     1     -11.513  11.659  69.074  1.00  0.00    -0.294 C  
BRANCH  10  11
HETATM   11  N   UNL     1     -11.233  12.819  69.944  1.00  0.00    -0.483 N  
HETATM   12  O   UNL     1     -12.384  14.316  68.646  1.00  0.00    -0.231 OA 
HETATM   13  H   UNL     1     -10.683  12.687  70.794  1.00  0.00     0.000 HD 
HETATM   14  C   UNL     1     -11.701  14.070  69.628  1.00  0.00    -0.311 C  
BRANCH  14  15
HETATM   15  O   UNL     1     -11.287  15.007  70.529  1.00  0.00    -0.267 OA 
BRANCH  15  16
HETATM   16  C   UNL     1     -11.861  14.846  71.840  1.00  0.00    -0.344 C  
HETATM   17  C   UNL     1     -11.933  16.159  72.593  1.00  0.00    -0.653 C  
HETATM   18  O   UNL     1     -14.000  15.071  72.907  1.00  0.00    -0.451 OA 
HETATM   19  C   UNL     1     -13.052  15.906  73.580  1.00  0.00    -0.565 C  
HETATM   20  C   UNL     1     -13.327  14.417  71.818  1.00  0.00    -0.366 C  
ENDBRANCH  15  16
ENDBRANCH  14  15
ENDBRANCH  10  11
BRANCH  10  21
HETATM   21  C   UNL     1     -10.435  11.483  67.971  1.00  0.00    -0.214 C  
BRANCH  21  22
HETATM   22  C   UNL     1     -10.822  11.483  66.505  1.00  0.00    -0.335 A  
HETATM   23  C   UNL     1     -12.120  12.437  64.680  1.00  0.00    -0.487 A  
HETATM   24  C   UNL     1     -11.875  12.288  66.049  1.00  0.00    -0.409 A  
HETATM   25  C   UNL     1     -11.328  11.772  63.746  1.00  0.00    -0.524 A  
HETATM   26  C   UNL     1     -10.042  10.806  65.552  1.00  0.00    -0.335 A  
HETATM   27  C   UNL     1     -10.294  10.950  64.183  1.00  0.00    -0.432 A  
ENDBRANCH  21  22
ENDBRANCH  10  21
ENDBRANCH   7  10
ENDBRANCH   6   7
ENDBRANCH   5   6
BRANCH   5  28
HETATM   28  S   UNL     1     -11.717   7.353  71.595  1.00  0.00    -0.293 S  
HETATM   29  O   UNL     1     -11.827   8.114  72.818  1.00  0.00    -0.389 OA 
HETATM   30  O   UNL     1     -12.892   7.060  70.795  1.00  0.00    -0.246 OA 
BRANCH  28  31
HETATM   31  C   UNL     1     -10.958   5.811  72.027  1.00  0.00    -0.260 A  
HETATM   32  N   UNL     1      -9.193   2.123  73.004  1.00  0.00    -0.069 NA 
HETATM   33  H2  UNL     1      -9.917   1.424  72.840  1.00  0.00     0.000 HD 
HETATM   34  H1  UNL     1      -8.339   1.817  72.537  1.00  0.00     0.000 HD 
HETATM   35  C   UNL     1     -11.512   5.022  73.036  1.00  0.00    -0.344 A  
HETATM   36  C   UNL     1     -10.902   3.806  73.374  1.00  0.00    -0.315 A  
HETATM   37  C   UNL     1      -9.837   5.359  71.318  1.00  0.00    -0.235 A  
HETATM   38  C   UNL     1      -9.243   4.141  71.661  1.00  0.00    -0.186 A  
HETATM   39  C   UNL     1      -9.730   3.386  72.733  1.00  0.00    -0.133 A  
ENDBRANCH  28  31
ENDBRANCH   5  28
ENDBRANCH   4   5
TORSDOF 11
ENDMDL
MODEL       28
REMARK 921   NORMALIZED FREE ENERGY PREDICTED BY IDOCK:   -6.63 KCAL/MOL
REMARK 922        TOTAL FREE ENERGY PREDICTED BY IDOCK:  -12.66 KCAL/MOL
REMARK 923 INTER-LIGAND FREE ENERGY PREDICTED BY IDOCK:   -9.46 KCAL/MOL
REMARK 924 INTRA-LIGAND FREE ENERGY PREDICTED BY IDOCK:   -3.20 KCAL/MOL
REMARK 927      BINDING AFFINITY PREDICTED BY RF-SCORE:    0.00 PKD
ROOT
HETATM    1  C   UNL     1      -6.544   9.436  68.911  1.00  0.00    -0.047 C  
HETATM    2  C   UNL     1      -7.232  10.436  67.980  1.00  0.00    -0.084 C  
HETATM    3  C   UNL     1      -6.141  11.141  67.149  1.00  0.00    -0.082 C  
HETATM    4  C   UNL     1      -8.255   9.786  67.028  1.00  0.00    -0.117 C  
ENDROOT
BRANCH   4   5
HETATM    5  N   UNL     1      -9.414   9.025  67.663  1.00  0.00    -0.139 N  
BRANCH   5   6
HETATM    6  C   UNL     1     -10.779   9.694  67.372  1.00  0.00    -0.241 C  
BRANCH   6   7
HETATM    7  C   UNL     1     -10.944  11.186  67.827  1.00  0.00    -0.262 C  
HETATM    8  H   UNL     1     -12.058  12.702  67.299  1.00  0.00     0.000 HD 
HETATM    9  O   UNL     1     -11.958  11.798  67.023  1.00  0.00    -0.610 OA 
BRANCH   7  10
HETATM   10  C   UNL     1     -11.236  11.342  69.365  1.00  0.00    -0.268 C  
BRANCH  10  11
HETATM   11  N   UNL     1     -11.929  12.603  69.699  1.00  0.00    -0.309 N  
HETATM   12  O   UNL     1     -10.167  13.950  69.117  1.00  0.00    -0.117 OA 
HETATM   13  H   UNL     1     -12.887  12.572  70.047  1.00  0.00     0.000 HD 
HETATM   14  C   UNL     1     -11.303  13.816  69.548  1.00  0.00    -0.224 C  
BRANCH  14  15
HETATM   15  O   UNL     1     -12.093  14.847  69.962  1.00  0.00    -0.302 OA 
BRANCH  15  16
HETATM   16  C   UNL     1     -12.591  14.695  71.305  1.00  0.00    -0.333 C  
HETATM   17  C   UNL     1     -11.884  15.616  72.279  1.00  0.00    -0.578 C  
HETATM   18  O   UNL     1     -14.187  15.742  72.760  1.00  0.00    -0.539 OA 
HETATM   19  C   UNL     1     -12.902  15.757  73.389  1.00  0.00    -0.564 C  
HETATM   20  C   UNL     1     -14.047  15.124  71.470  1.00  0.00    -0.540 C  
ENDBRANCH  15  16
ENDBRANCH  14  15
ENDBRANCH  10  11
BRANCH  10  21
HETATM   21  C   UNL     1     -11.871  10.120  70.080  1.00  0.00    -0.299 C  
BRANCH  21  22
HETATM   22  C   UNL     1     -11.115   9.379  71.165  1.00  0.00    -0.432 A  
HETATM   23  C   UNL     1     -11.109   7.761  72.984  1.00  0.00    -0.419 A  
HETATM   24  C   UNL     1     -11.804   8.590  72.098  1.00  0.00    -0.448 A  
HETATM   25  C   UNL     1      -9.717   7.717  72.963  1.00  0.00    -0.301 A  
HETATM   26  C   UNL     1      -9.711   9.337  71.168  1.00  0.00    -0.327 A  
HETATM   27  C   UNL     1      -9.017   8.512  72.060  1.00  0.00    -0.301 A  
ENDBRANCH  21  22
ENDBRANCH  10  21
ENDBRANCH   7  10
ENDBRANCH   6   7
ENDBRANCH   5   6
BRANCH   5  28
HETATM   28  S   UNL     1      -9.412   7.346  67.133  1.00  0.00    -0.158 S  
HETATM   29  O   UNL     1     -10.635   7.073  66.414  1.00  0.00    -0.038 OA 
HETATM   30  O   UNL     1      -8.120   7.134  66.506  1.00  0.00    -0.108 OA 
BRANCH  28  31
HETATM   31  C   UNL     1      -9.465   6.368  68.609  1.00  0.00    -0.122 A  
HETATM   32  N   UNL     1      -9.595   4.105  72.150  1.00  0.00    -0.140 NA 
HETATM   33  H2  UNL     1      -9.105   4.664  72.847  1.00  0.00     0.000 HD 
HETATM   34  H1  UNL     1     -10.488   3.810  72.543  1.00  0.00     0.000 HD 
HETATM   35  C   UNL     1      -8.277   5.970  69.223  1.00  0.00    -0.115 A  
HETATM   36  C   UNL     1      -8.329   5.193  70.388  1.00  0.00    -0.105 A  
HETATM   37  C   UNL     1     -10.698   6.045  69.191  1.00  0.00    -0.399 A  
HETATM   38  C   UNL     1     -10.735   5.274  70.358  1.00  0.00    -0.216 A  
HETATM   39  C   UNL     1      -9.555   4.788  70.929  1.00  0.00    -0.177 A  
ENDBRANCH  28  31
ENDBRANCH   5  28
ENDBRANCH   4   5
TORSDOF 11
ENDMDL
MODEL       29
REMARK 921   NORMALIZED FREE ENERGY PREDICTED BY IDOCK:   -6.61 KCAL/MOL
REMARK 922        TOTAL FREE ENERGY PREDICTED BY IDOCK:  -12.63 KCAL/MOL
REMARK 923 INTER-LIGAND FREE ENERGY PREDICTED BY IDOCK:  -10.21 KCAL/MOL
REMARK 924 INTRA-LIGAND FREE ENERGY PREDICTED BY IDOCK:   -2.42 KCAL/MOL
REMARK 927      BINDING AFFINITY PREDICTED BY RF-SCORE:    0.00 PKD
ROOT
HETATM    1  C   UNL     1     -12.411  12.673  65.436  1.00  0.00    -0.499 C  
HETATM    2  C   UNL     1     -10.949  12.351  65.122  1.00  0.00    -0.339 C  
HETATM    3  C   UNL     1     -10.740  12.517  63.604  1.00  0.00    -0.469 C  
HETATM    4  C   UNL     1      -9.947  13.249  65.875  1.00  0.00    -0.272 C  
ENDROOT
BRANCH   4   5
HETATM    5  N   UNL     1     -10.004  13.234  67.398  1.00  0.00    -0.230 N  
BRANCH   5   6
HETATM    6  C   UNL     1      -8.705  12.670  68.024  1.00  0.00    -0.190 C  
BRANCH   6   7
HETATM    7  C   UNL     1      -8.051  11.441  67.299  1.00  0.00    -0.148 C  
HETATM    8  H   UNL     1      -6.251  10.697  67.142  1.00  0.00     0.000 HD 
HETATM    9  O   UNL     1      -6.647  11.440  67.581  1.00  0.00    -0.066 OA 
BRANCH   7  10
HETATM   10  C   UNL     1      -8.726  10.067  67.664  1.00  0.00    -0.121 C  
BRANCH  10  11
HETATM   11  N   UNL     1      -9.518  10.123  68.909  1.00  0.00    -0.172 N  
HETATM   12  O   UNL     1      -8.237   8.580  70.021  1.00  0.00    -0.113 OA 
HETATM   13  H   UNL     1     -10.320  10.751  68.966  1.00  0.00     0.000 HD 
HETATM   14  C   UNL     1      -9.192   9.342  69.991  1.00  0.00    -0.220 C  
BRANCH  14  15
HETATM   15  O   UNL     1     -10.078   9.503  71.015  1.00  0.00    -0.286 OA 
BRANCH  15  16
HETATM   16  C   UNL     1     -11.373   8.928  70.759  1.00  0.00    -0.278 C  
HETATM   17  C   UNL     1     -11.407   7.446  71.071  1.00  0.00    -0.298 C  
HETATM   18  O   UNL     1     -13.372   8.384  71.972  1.00  0.00    -0.335 OA 
HETATM   19  C   UNL     1     -12.877   7.203  71.333  1.00  0.00    -0.384 C  
HETATM   20  C   UNL     1     -12.473   9.465  71.673  1.00  0.00    -0.378 C  
ENDBRANCH  15  16
ENDBRANCH  14  15
ENDBRANCH  10  11
BRANCH  10  21
HETATM   21  C   UNL     1      -9.484   9.340  66.521  1.00  0.00    -0.259 C  
BRANCH  21  22
HETATM   22  C   UNL     1      -9.614   7.830  66.519  1.00  0.00    -0.270 A  
HETATM   23  C   UNL     1      -8.617   5.640  66.146  1.00  0.00    -0.132 A  
HETATM   24  C   UNL     1      -8.592   7.030  65.989  1.00  0.00    -0.154 A  
HETATM   25  C   UNL     1      -9.670   5.027  66.822  1.00  0.00    -0.188 A  
HETATM   26  C   UNL     1     -10.677   7.195  67.183  1.00  0.00    -0.422 A  
HETATM   27  C   UNL     1     -10.704   5.804  67.333  1.00  0.00    -0.332 A  
ENDBRANCH  21  22
ENDBRANCH  10  21
ENDBRANCH   7  10
ENDBRANCH   6   7
ENDBRANCH   5   6
BRANCH   5  28
HETATM   28  S   UNL     1     -10.348  14.846  68.017  1.00  0.00    -0.247 S  
HETATM   29  O   UNL     1      -9.128  15.433  68.520  1.00  0.00    -0.183 OA 
HETATM   30  O   UNL     1     -11.118  15.509  66.980  1.00  0.00    -0.312 OA 
BRANCH  28  31
HETATM   31  C   UNL     1     -11.410  14.614  69.416  1.00  0.00    -0.284 A  
HETATM   32  N   UNL     1     -13.984  14.065  72.695  1.00  0.00    -0.682 NA 
HETATM   33  H2  UNL     1     -14.825  14.597  72.472  1.00  0.00     0.000 HD 
HETATM   34  H1  UNL     1     -14.263  13.128  72.983  1.00  0.00     0.000 HD 
HETATM   35  C   UNL     1     -11.844  15.718  70.151  1.00  0.00    -0.369 A  
HETATM   36  C   UNL     1     -12.680  15.524  71.259  1.00  0.00    -0.526 A  
HETATM   37  C   UNL     1     -11.860  13.329  69.749  1.00  0.00    -0.394 A  
HETATM   38  C   UNL     1     -12.700  13.151  70.853  1.00  0.00    -0.313 A  
HETATM   39  C   UNL     1     -13.064  14.237  71.655  1.00  0.00    -0.346 A  
ENDBRANCH  28  31
ENDBRANCH   5  28
ENDBRANCH   4   5
TORSDOF 11
ENDMDL
MODEL       30
REMARK 921   NORMALIZED FREE ENERGY PREDICTED BY IDOCK:   -6.61 KCAL/MOL
REMARK 922        TOTAL FREE ENERGY PREDICTED BY IDOCK:  -12.62 KCAL/MOL
REMARK 923 INTER-LIGAND FREE ENERGY PREDICTED BY IDOCK:  -10.77 KCAL/MOL
REMARK 924 INTRA-LIGAND FREE ENERGY PREDICTED BY IDOCK:   -1.85 KCAL/MOL
REMARK 927      BINDING AFFINITY PREDICTED BY RF-SCORE:    0.00 PKD
ROOT
HETATM    1  C   UNL     1     -13.054   8.592  71.376  1.00  0.00    -0.255 C  
HETATM    2  C   UNL     1     -12.607   9.959  70.856  1.00  0.00    -0.392 C  
HETATM    3  C   UNL     1     -13.071  11.028  71.865  1.00  0.00    -0.525 C  
HETATM    4  C   UNL     1     -11.082  10.072  70.660  1.00  0.00    -0.335 C  
ENDROOT
BRANCH   4   5
HETATM    5  N   UNL     1     -10.427   9.085  69.700  1.00  0.00    -0.218 N  
BRANCH   5   6
HETATM    6  C   UNL     1     -10.086   9.736  68.338  1.00  0.00    -0.166 C  
BRANCH   6   7
HETATM    7  C   UNL     1      -9.410  11.151  68.384  1.00  0.00    -0.185 C  
HETATM    8  H   UNL     1      -8.039  12.089  67.353  1.00  0.00     0.000 HD 
HETATM    9  O   UNL     1      -8.449  11.232  67.325  1.00  0.00    -0.137 OA 
BRANCH   7  10
HETATM   10  C   UNL     1     -10.440  12.339  68.336  1.00  0.00    -0.233 C  
BRANCH  10  11
HETATM   11  N   UNL     1      -9.823  13.627  67.960  1.00  0.00    -0.236 N  
HETATM   12  O   UNL     1     -11.085  14.875  69.411  1.00  0.00    -0.256 OA 
HETATM   13  H   UNL     1      -9.086  13.644  67.256  1.00  0.00     0.000 HD 
HETATM   14  C   UNL     1     -10.227  14.803  68.544  1.00  0.00    -0.232 C  
BRANCH  14  15
HETATM   15  O   UNL     1      -9.574  15.878  68.019  1.00  0.00    -0.209 OA 
BRANCH  15  16
HETATM   16  C   UNL     1     -10.452  16.905  67.519  1.00  0.00    -0.328 C  
HETATM   17  C   UNL     1     -10.033  18.285  67.983  1.00  0.00    -0.362 C  
HETATM   18  O   UNL     1     -10.546  18.456  65.689  1.00  0.00    -0.622 OA 
HETATM   19  C   UNL     1     -10.633  19.180  66.921  1.00  0.00    -0.448 C  
HETATM   20  C   UNL     1     -10.409  17.059  66.000  1.00  0.00    -0.315 C  
ENDBRANCH  15  16
ENDBRANCH  14  15
ENDBRANCH  10  11
BRANCH  10  21
HETATM   21  C   UNL     1     -11.765  12.080  67.570  1.00  0.00    -0.351 C  
BRANCH  21  22
HETATM   22  C   UNL     1     -11.876  12.389  66.090  1.00  0.00    -0.442 A  
HETATM   23  C   UNL     1     -12.487  13.936  64.313  1.00  0.00    -0.305 A  
HETATM   24  C   UNL     1     -12.537  13.546  65.655  1.00  0.00    -0.512 A  
HETATM   25  C   UNL     1     -11.789  13.169  63.382  1.00  0.00    -0.490 A  
HETATM   26  C   UNL     1     -11.191  11.617  65.137  1.00  0.00    -0.262 A  
HETATM   27  C   UNL     1     -11.149  12.004  63.793  1.00  0.00    -0.510 A  
ENDBRANCH  21  22
ENDBRANCH  10  21
ENDBRANCH   7  10
ENDBRANCH   6   7
ENDBRANCH   5   6
BRANCH   5  28
HETATM   28  S   UNL     1      -8.990   8.376  70.432  1.00  0.00    -0.153 S  
HETATM   29  O   UNL     1      -8.272   7.618  69.434  1.00  0.00    -0.125 OA 
HETATM   30  O   UNL     1      -8.341   9.458  71.151  1.00  0.00    -0.310 OA 
BRANCH  28  31
HETATM   31  C   UNL     1      -9.578   7.208  71.627  1.00  0.00    -0.155 A  
HETATM   32  N   UNL     1     -10.910   4.423  74.481  1.00  0.00    -0.277 NA 
HETATM   33  H2  UNL     1     -10.194   3.697  74.506  1.00  0.00     0.000 HD 
HETATM   34  H1  UNL     1     -11.106   4.715  75.438  1.00  0.00     0.000 HD 
HETATM   35  C   UNL     1      -9.807   5.884  71.251  1.00  0.00    -0.215 A  
HETATM   36  C   UNL     1     -10.277   4.968  72.202  1.00  0.00    -0.259 A  
HETATM   37  C   UNL     1      -9.757   7.599  72.961  1.00  0.00    -0.301 A  
HETATM   38  C   UNL     1     -10.220   6.673  73.901  1.00  0.00    -0.379 A  
HETATM   39  C   UNL     1     -10.545   5.369  73.516  1.00  0.00    -0.270 A  
ENDBRANCH  28  31
ENDBRANCH   5  28
ENDBRANCH   4   5
TORSDOF 11
ENDMDL
MODEL       31
REMARK 921   NORMALIZED FREE ENERGY PREDICTED BY IDOCK:   -6.60 KCAL/MOL
REMARK 922        TOTAL FREE ENERGY PREDICTED BY IDOCK:  -12.61 KCAL/MOL
REMARK 923 INTER-LIGAND FREE ENERGY PREDICTED BY IDOCK:  -11.03 KCAL/MOL
REMARK 924 INTRA-LIGAND FREE ENERGY PREDICTED BY IDOCK:   -1.58 KCAL/MOL
REMARK 927      BINDING AFFINITY PREDICTED BY RF-SCORE:    0.00 PKD
ROOT
HETATM    1  C   UNL     1      -6.736   9.268  66.709  1.00  0.00    -0.076 C  
HETATM    2  C   UNL     1      -8.200   9.522  66.347  1.00  0.00    -0.115 C  
HETATM    3  C   UNL     1      -8.545   8.651  65.123  1.00  0.00    -0.200 C  
HETATM    4  C   UNL     1      -9.180   9.203  67.493  1.00  0.00    -0.128 C  
ENDROOT
BRANCH   4   5
HETATM    5  N   UNL     1      -8.993   9.961  68.803  1.00  0.00    -0.134 N  
BRANCH   5   6
HETATM    6  C   UNL     1     -10.210  10.857  69.136  1.00  0.00    -0.195 C  
BRANCH   6   7
HETATM    7  C   UNL     1     -10.637  11.898  68.042  1.00  0.00    -0.207 C  
HETATM    8  H   UNL     1     -12.170  12.142  66.855  1.00  0.00     0.000 HD 
HETATM    9  O   UNL     1     -11.912  11.511  67.518  1.00  0.00    -0.629 OA 
BRANCH   7  10
HETATM   10  C   UNL     1     -10.640  13.384  68.560  1.00  0.00    -0.253 C  
BRANCH  10  11
HETATM   11  N   UNL     1      -9.974  14.323  67.633  1.00  0.00    -0.224 N  
HETATM   12  O   UNL     1      -8.643  15.270  69.241  1.00  0.00    -0.219 OA 
HETATM   13  H   UNL     1     -10.226  14.315  66.645  1.00  0.00     0.000 HD 
HETATM   14  C   UNL     1      -9.023  15.205  68.082  1.00  0.00    -0.174 C  
BRANCH  14  15
HETATM   15  O   UNL     1      -8.575  16.017  67.081  1.00  0.00    -0.174 OA 
BRANCH  15  16
HETATM   16  C   UNL     1      -8.986  17.391  67.220  1.00  0.00    -0.236 C  
HETATM   17  C   UNL     1      -7.951  18.350  66.668  1.00  0.00    -0.278 C  
HETATM   18  O   UNL     1     -10.052  19.090  65.902  1.00  0.00    -0.484 OA 
HETATM   19  C   UNL     1      -8.781  19.573  66.346  1.00  0.00    -0.361 C  
HETATM   20  C   UNL     1     -10.217  17.748  66.389  1.00  0.00    -0.365 C  
ENDBRANCH  15  16
ENDBRANCH  14  15
ENDBRANCH  10  11
BRANCH  10  21
HETATM   21  C   UNL     1     -11.994  13.937  69.080  1.00  0.00    -0.402 C  
BRANCH  21  22
HETATM   22  C   UNL     1     -12.211  14.187  70.559  1.00  0.00    -0.431 A  
HETATM   23  C   UNL     1     -11.863  15.585  72.522  1.00  0.00    -0.572 A  
HETATM   24  C   UNL     1     -11.535  15.229  71.209  1.00  0.00    -0.431 A  
HETATM   25  C   UNL     1     -12.861  14.896  73.210  1.00  0.00    -0.646 A  
HETATM   26  C   UNL     1     -13.203  13.492  71.271  1.00  0.00    -0.290 A  
HETATM   27  C   UNL     1     -13.525  13.844  72.587  1.00  0.00    -0.652 A  
ENDBRANCH  21  22
ENDBRANCH  10  21
ENDBRANCH   7  10
ENDBRANCH   6   7
ENDBRANCH   5   6
BRANCH   5  28
HETATM   28  S   UNL     1      -8.662   8.839  70.120  1.00  0.00    -0.161 S  
HETATM   29  O   UNL     1      -7.981   7.678  69.597  1.00  0.00    -0.118 OA 
HETATM   30  O   UNL     1      -8.065   9.638  71.174  1.00  0.00    -0.259 OA 
BRANCH  28  31
HETATM   31  C   UNL     1     -10.243   8.281  70.693  1.00  0.00    -0.193 A  
HETATM   32  N   UNL     1     -13.963   6.917  72.099  1.00  0.00    -0.556 NA 
HETATM   33  H2  UNL     1     -13.807   5.951  72.384  1.00  0.00     0.000 HD 
HETATM   34  H1  UNL     1     -14.441   7.404  72.857  1.00  0.00     0.000 HD 
HETATM   35  C   UNL     1     -10.857   7.186  70.083  1.00  0.00    -0.279 A  
HETATM   36  C   UNL     1     -12.110   6.755  70.540  1.00  0.00    -0.332 A  
HETATM   37  C   UNL     1     -10.849   8.901  71.794  1.00  0.00    -0.436 A  
HETATM   38  C   UNL     1     -12.095   8.455  72.244  1.00  0.00    -0.456 A  
HETATM   39  C   UNL     1     -12.765   7.422  71.581  1.00  0.00    -0.365 A  
ENDBRANCH  28  31
ENDBRANCH   5  28
ENDBRANCH   4   5
TORSDOF 11
ENDMDL
MODEL       32
REMARK 921   NORMALIZED FREE ENERGY PREDICTED BY IDOCK:   -6.58 KCAL/MOL
REMARK 922        TOTAL FREE ENERGY PREDICTED BY IDOCK:  -12.58 KCAL/MOL
REMARK 923 INTER-LIGAND FREE ENERGY PREDICTED BY IDOCK:  -11.00 KCAL/MOL
REMARK 924 INTRA-LIGAND FREE ENERGY PREDICTED BY IDOCK:   -1.58 KCAL/MOL
REMARK 927      BINDING AFFINITY PREDICTED BY RF-SCORE:    0.00 PKD
ROOT
HETATM    1  C   UNL     1     -11.192   9.033  70.403  1.00  0.00    -0.275 C  
HETATM    2  C   UNL     1      -9.750   9.543  70.384  1.00  0.00    -0.328 C  
HETATM    3  C   UNL     1      -8.925   8.675  71.356  1.00  0.00    -0.286 C  
HETATM    4  C   UNL     1      -9.101   9.499  68.986  1.00  0.00    -0.144 C  
ENDROOT
BRANCH   4   5
HETATM    5  N   UNL     1      -9.782  10.292  67.876  1.00  0.00    -0.145 N  
BRANCH   5   6
HETATM    6  C   UNL     1      -9.501  11.810  67.988  1.00  0.00    -0.188 C  
BRANCH   6   7
HETATM    7  C   UNL     1     -10.701  12.772  67.675  1.00  0.00    -0.219 C  
HETATM    8  H   UNL     1     -12.649  12.625  67.646  1.00  0.00     0.000 HD 
HETATM    9  O   UNL     1     -11.923  12.042  67.835  1.00  0.00    -0.526 OA 
BRANCH   7  10
HETATM   10  C   UNL     1     -10.685  14.091  68.533  1.00  0.00    -0.256 C  
BRANCH  10  11
HETATM   11  N   UNL     1      -9.956  15.198  67.881  1.00  0.00    -0.220 N  
HETATM   12  O   UNL     1      -8.530  15.551  69.641  1.00  0.00    -0.244 OA 
HETATM   13  H   UNL     1     -10.221  15.486  66.939  1.00  0.00     0.000 HD 
HETATM   14  C   UNL     1      -8.929  15.844  68.524  1.00  0.00    -0.199 C  
BRANCH  14  15
HETATM   15  O   UNL     1      -8.428  16.867  67.774  1.00  0.00    -0.191 OA 
BRANCH  15  16
HETATM   16  C   UNL     1      -9.440  17.722  67.208  1.00  0.00    -0.255 C  
HETATM   17  C   UNL     1     -10.215  18.466  68.276  1.00  0.00    -0.412 C  
HETATM   18  O   UNL     1      -9.704  20.025  66.584  1.00  0.00    -0.385 OA 
HETATM   19  C   UNL     1     -10.726  19.675  67.523  1.00  0.00    -0.406 C  
HETATM   20  C   UNL     1      -8.874  18.870  66.375  1.00  0.00    -0.306 C  
ENDBRANCH  15  16
ENDBRANCH  14  15
ENDBRANCH  10  11
BRANCH  10  21
HETATM   21  C   UNL     1     -12.045  14.553  69.122  1.00  0.00    -0.299 C  
BRANCH  21  22
HETATM   22  C   UNL     1     -12.218  14.736  70.617  1.00  0.00    -0.385 A  
HETATM   23  C   UNL     1     -12.004  16.139  72.595  1.00  0.00    -0.653 A  
HETATM   24  C   UNL     1     -11.695  15.867  71.259  1.00  0.00    -0.504 A  
HETATM   25  C   UNL     1     -12.829  15.278  73.316  1.00  0.00    -0.634 A  
HETATM   26  C   UNL     1     -13.035  13.869  71.362  1.00  0.00    -0.430 A  
HETATM   27  C   UNL     1     -13.338  14.138  72.701  1.00  0.00    -0.638 A  
ENDBRANCH  21  22
ENDBRANCH  10  21
ENDBRANCH   7  10
ENDBRANCH   6   7
ENDBRANCH   5   6
BRANCH   5  28
HETATM   28  S   UNL     1      -9.296   9.680  66.297  1.00  0.00    -0.202 S  
HETATM   29  O   UNL     1     -10.207  10.178  65.293  1.00  0.00    -0.304 OA 
HETATM   30  O   UNL     1      -7.871   9.936  66.198  1.00  0.00    -0.105 OA 
BRANCH  28  31
HETATM   31  C   UNL     1      -9.528   7.925  66.363  1.00  0.00    -0.192 A  
HETATM   32  N   UNL     1     -10.048   3.758  66.578  1.00  0.00    -0.341 NA 
HETATM   33  H2  UNL     1      -9.233   3.409  67.083  1.00  0.00     0.000 HD 
HETATM   34  H1  UNL     1     -10.885   3.362  67.005  1.00  0.00     0.000 HD 
HETATM   35  C   UNL     1      -8.575   7.076  65.798  1.00  0.00    -0.138 A  
HETATM   36  C   UNL     1      -8.769   5.689  65.851  1.00  0.00    -0.147 A  
HETATM   37  C   UNL     1     -10.637   7.388  67.031  1.00  0.00    -0.414 A  
HETATM   38  C   UNL     1     -10.815   6.002  67.081  1.00  0.00    -0.414 A  
HETATM   39  C   UNL     1      -9.918   5.145  66.437  1.00  0.00    -0.213 A  
ENDBRANCH  28  31
ENDBRANCH   5  28
ENDBRANCH   4   5
TORSDOF 11
ENDMDL
MODEL       33
REMARK 921   NORMALIZED FREE ENERGY PREDICTED BY IDOCK:   -6.56 KCAL/MOL
REMARK 922        TOTAL FREE ENERGY PREDICTED BY IDOCK:  -12.55 KCAL/MOL
REMARK 923 INTER-LIGAND FREE ENERGY PREDICTED BY IDOCK:  -10.82 KCAL/MOL
REMARK 924 INTRA-LIGAND FREE ENERGY PREDICTED BY IDOCK:   -1.73 KCAL/MOL
REMARK 927      BINDING AFFINITY PREDICTED BY RF-SCORE:    0.00 PKD
ROOT
HETATM    1  C   UNL     1     -12.334  13.456  70.675  1.00  0.00    -0.423 C  
HETATM    2  C   UNL     1     -12.292  14.936  70.292  1.00  0.00    -0.393 C  
HETATM    3  C   UNL     1     -12.540  15.765  71.568  1.00  0.00    -0.517 C  
HETATM    4  C   UNL     1     -10.956  15.368  69.656  1.00  0.00    -0.284 C  
ENDROOT
BRANCH   4   5
HETATM    5  N   UNL     1     -10.526  14.651  68.381  1.00  0.00    -0.237 N  
BRANCH   5   6
HETATM    6  C   UNL     1     -11.573  14.795  67.250  1.00  0.00    -0.369 C  
BRANCH   6   7
HETATM    7  C   UNL     1     -12.280  13.478  66.774  1.00  0.00    -0.340 C  
HETATM    8  H   UNL     1     -13.431  12.961  65.282  1.00  0.00     0.000 HD 
HETATM    9  O   UNL     1     -13.002  13.758  65.570  1.00  0.00    -0.651 OA 
BRANCH   7  10
HETATM   10  C   UNL     1     -11.294  12.265  66.602  1.00  0.00    -0.343 C  
BRANCH  10  11
HETATM   11  N   UNL     1     -11.616  11.125  67.484  1.00  0.00    -0.220 N  
HETATM   12  O   UNL     1      -9.836  11.461  68.890  1.00  0.00    -0.191 OA 
HETATM   13  H   UNL     1     -12.438  10.555  67.287  1.00  0.00     0.000 HD 
HETATM   14  C   UNL     1     -10.825  10.821  68.565  1.00  0.00    -0.228 C  
BRANCH  14  15
HETATM   15  O   UNL     1     -11.264   9.705  69.214  1.00  0.00    -0.168 OA 
BRANCH  15  16
HETATM   16  C   UNL     1     -11.630   9.937  70.588  1.00  0.00    -0.335 C  
HETATM   17  C   UNL     1     -13.131   9.892  70.790  1.00  0.00    -0.256 C  
HETATM   18  O   UNL     1     -12.163   8.658  72.548  1.00  0.00    -0.381 OA 
HETATM   19  C   UNL     1     -13.251   9.541  72.256  1.00  0.00    -0.421 C  
HETATM   20  C   UNL     1     -11.154   8.843  71.541  1.00  0.00    -0.326 C  
ENDBRANCH  15  16
ENDBRANCH  14  15
ENDBRANCH  10  11
BRANCH  10  21
HETATM   21  C   UNL     1     -10.996  11.812  65.147  1.00  0.00    -0.351 C  
BRANCH  21  22
HETATM   22  C   UNL     1      -9.723  11.058  64.817  1.00  0.00    -0.311 A  
HETATM   23  C   UNL     1      -7.566  10.176  65.522  1.00  0.00    -0.146 A  
HETATM   24  C   UNL     1      -8.665  11.015  65.735  1.00  0.00    -0.179 A  
HETATM   25  C   UNL     1      -7.500   9.379  64.381  1.00  0.00    -0.110 A  
HETATM   26  C   UNL     1      -9.634  10.261  63.663  1.00  0.00    -0.334 A  
HETATM   27  C   UNL     1      -8.530   9.429  63.447  1.00  0.00    -0.202 A  
ENDBRANCH  21  22
ENDBRANCH  10  21
ENDBRANCH   7  10
ENDBRANCH   6   7
ENDBRANCH   5   6
BRANCH   5  28
HETATM   28  S   UNL     1      -8.948  15.228  67.852  1.00  0.00    -0.171 S  
HETATM   29  O   UNL     1      -7.989  15.030  68.913  1.00  0.00    -0.147 OA 
HETATM   30  O   UNL     1      -8.736  14.644  66.541  1.00  0.00    -0.207 OA 
BRANCH  28  31
HETATM   31  C   UNL     1      -9.116  16.980  67.644  1.00  0.00    -0.229 A  
HETATM   32  N   UNL     1      -9.568  21.135  67.188  1.00  0.00    -0.592 NA 
HETATM   33  H2  UNL     1     -10.574  21.300  67.193  1.00  0.00     0.000 HD 
HETATM   34  H1  UNL     1      -9.134  21.779  67.849  1.00  0.00     0.000 HD 
HETATM   35  C   UNL     1      -9.820  17.486  66.550  1.00  0.00    -0.315 A  
HETATM   36  C   UNL     1      -9.944  18.873  66.391  1.00  0.00    -0.435 A  
HETATM   37  C   UNL     1      -8.592  17.854  68.606  1.00  0.00    -0.272 A  
HETATM   38  C   UNL     1      -8.728  19.235  68.438  1.00  0.00    -0.395 A  
HETATM   39  C   UNL     1      -9.347  19.757  67.298  1.00  0.00    -0.346 A  
ENDBRANCH  28  31
ENDBRANCH   5  28
ENDBRANCH   4   5
TORSDOF 11
ENDMDL
MODEL       34
REMARK 921   NORMALIZED FREE ENERGY PREDICTED BY IDOCK:   -6.56 KCAL/MOL
REMARK 922        TOTAL FREE ENERGY PREDICTED BY IDOCK:  -12.54 KCAL/MOL
REMARK 923 INTER-LIGAND FREE ENERGY PREDICTED BY IDOCK:  -10.25 KCAL/MOL
REMARK 924 INTRA-LIGAND FREE ENERGY PREDICTED BY IDOCK:   -2.30 KCAL/MOL
REMARK 927      BINDING AFFINITY PREDICTED BY RF-SCORE:    0.00 PKD
ROOT
HETATM    1  C   UNL     1      -7.792  12.079  68.640  1.00  0.00    -0.091 C  
HETATM    2  C   UNL     1      -6.809  10.954  68.314  1.00  0.00    -0.067 C  
HETATM    3  C   UNL     1      -5.383  11.539  68.354  1.00  0.00    -0.042 C  
HETATM    4  C   UNL     1      -6.897   9.761  69.286  1.00  0.00    -0.055 C  
ENDROOT
BRANCH   4   5
HETATM    5  N   UNL     1      -8.241   9.049  69.397  1.00  0.00    -0.114 N  
BRANCH   5   6
HETATM    6  C   UNL     1      -8.513   8.125  68.185  1.00  0.00    -0.126 C  
BRANCH   6   7
HETATM    7  C   UNL     1      -9.775   8.460  67.315  1.00  0.00    -0.184 C  
HETATM    8  H   UNL     1     -11.562   7.705  67.082  1.00  0.00     0.000 HD 
HETATM    9  O   UNL     1     -10.798   7.502  67.609  1.00  0.00    -0.208 OA 
BRANCH   7  10
HETATM   10  C   UNL     1     -10.283   9.939  67.493  1.00  0.00    -0.216 C  
BRANCH  10  11
HETATM   11  N   UNL     1     -10.598  10.602  66.212  1.00  0.00    -0.201 N  
HETATM   12  O   UNL     1      -8.429  10.623  65.469  1.00  0.00    -0.173 OA 
HETATM   13  H   UNL     1     -11.565  10.845  65.996  1.00  0.00     0.000 HD 
HETATM   14  C   UNL     1      -9.608  10.897  65.306  1.00  0.00    -0.229 C  
BRANCH  14  15
HETATM   15  O   UNL     1     -10.100  11.556  64.218  1.00  0.00    -0.253 OA 
BRANCH  15  16
HETATM   16  C   UNL     1     -11.195  12.441  64.520  1.00  0.00    -0.323 C  
HETATM   17  C   UNL     1     -10.729  13.867  64.735  1.00  0.00    -0.437 C  
HETATM   18  O   UNL     1     -12.644  13.968  63.366  1.00  0.00    -0.845 OA 
HETATM   19  C   UNL     1     -11.974  14.666  64.421  1.00  0.00    -0.437 C  
HETATM   20  C   UNL     1     -12.184  12.606  63.367  1.00  0.00    -0.517 C  
ENDBRANCH  15  16
ENDBRANCH  14  15
ENDBRANCH  10  11
BRANCH  10  21
HETATM   21  C   UNL     1     -11.389  10.170  68.558  1.00  0.00    -0.172 C  
BRANCH  21  22
HETATM   22  C   UNL     1     -11.575  11.533  69.196  1.00  0.00    -0.382 A  
HETATM   23  C   UNL     1     -11.685  13.955  68.971  1.00  0.00    -0.378 A  
HETATM   24  C   UNL     1     -11.341  12.701  68.456  1.00  0.00    -0.333 A  
HETATM   25  C   UNL     1     -12.253  14.063  70.239  1.00  0.00    -0.430 A  
HETATM   26  C   UNL     1     -12.134  11.660  70.478  1.00  0.00    -0.458 A  
HETATM   27  C   UNL     1     -12.471  12.916  70.996  1.00  0.00    -0.374 A  
ENDBRANCH  21  22
ENDBRANCH  10  21
ENDBRANCH   7  10
ENDBRANCH   6   7
ENDBRANCH   5   6
BRANCH   5  28
HETATM   28  S   UNL     1      -8.336   8.146  70.906  1.00  0.00    -0.129 S  
HETATM   29  O   UNL     1      -7.729   6.848  70.723  1.00  0.00    -0.090 OA 
HETATM   30  O   UNL     1      -7.856   9.051  71.935  1.00  0.00    -0.345 OA 
BRANCH  28  31
HETATM   31  C   UNL     1     -10.060   7.861  71.196  1.00  0.00    -0.184 A  
HETATM   32  N   UNL     1     -14.137   7.156  71.942  1.00  0.00    -0.572 NA 
HETATM   33  H2  UNL     1     -14.170   6.274  72.453  1.00  0.00     0.000 HD 
HETATM   34  H1  UNL     1     -14.698   7.842  72.447  1.00  0.00     0.000 HD 
HETATM   35  C   UNL     1     -10.666   6.705  70.703  1.00  0.00    -0.286 A  
HETATM   36  C   UNL     1     -12.032   6.490  70.933  1.00  0.00    -0.353 A  
HETATM   37  C   UNL     1     -10.800   8.767  71.968  1.00  0.00    -0.428 A  
HETATM   38  C   UNL     1     -12.161   8.536  72.195  1.00  0.00    -0.449 A  
HETATM   39  C   UNL     1     -12.802   7.432  71.626  1.00  0.00    -0.367 A  
ENDBRANCH  28  31
ENDBRANCH   5  28
ENDBRANCH   4   5
TORSDOF 11
ENDMDL
MODEL       35
REMARK 921   NORMALIZED FREE ENERGY PREDICTED BY IDOCK:   -6.55 KCAL/MOL
REMARK 922        TOTAL FREE ENERGY PREDICTED BY IDOCK:  -12.53 KCAL/MOL
REMARK 923 INTER-LIGAND FREE ENERGY PREDICTED BY IDOCK:  -11.15 KCAL/MOL
REMARK 924 INTRA-LIGAND FREE ENERGY PREDICTED BY IDOCK:   -1.38 KCAL/MOL
REMARK 927      BINDING AFFINITY PREDICTED BY RF-SCORE:    0.00 PKD
ROOT
HETATM    1  C   UNL     1     -13.170   8.673  71.622  1.00  0.00    -0.381 C  
HETATM    2  C   UNL     1     -12.834  10.066  71.088  1.00  0.00    -0.480 C  
HETATM    3  C   UNL     1     -13.254  11.098  72.154  1.00  0.00    -0.297 C  
HETATM    4  C   UNL     1     -11.341  10.254  70.757  1.00  0.00    -0.337 C  
ENDROOT
BRANCH   4   5
HETATM    5  N   UNL     1     -10.731   9.312  69.725  1.00  0.00    -0.227 N  
BRANCH   5   6
HETATM    6  C   UNL     1     -10.420  10.033  68.391  1.00  0.00    -0.205 C  
BRANCH   6   7
HETATM    7  C   UNL     1      -9.482  11.288  68.471  1.00  0.00    -0.191 C  
HETATM    8  H   UNL     1      -7.791  11.834  67.659  1.00  0.00     0.000 HD 
HETATM    9  O   UNL     1      -8.358  11.074  67.610  1.00  0.00    -0.115 OA 
BRANCH   7  10
HETATM   10  C   UNL     1     -10.220  12.642  68.153  1.00  0.00    -0.240 C  
BRANCH  10  11
HETATM   11  N   UNL     1     -10.302  13.546  69.317  1.00  0.00    -0.421 N  
HETATM   12  O   UNL     1     -11.931  14.879  68.411  1.00  0.00    -0.299 OA 
HETATM   13  H   UNL     1      -9.706  13.375  70.128  1.00  0.00     0.000 HD 
HETATM   14  C   UNL     1     -11.166  14.612  69.326  1.00  0.00    -0.282 C  
BRANCH  14  15
HETATM   15  O   UNL     1     -11.048  15.350  70.467  1.00  0.00    -0.294 OA 
BRANCH  15  16
HETATM   16  C   UNL     1     -12.309  15.782  71.014  1.00  0.00    -0.415 C  
HETATM   17  C   UNL     1     -13.340  14.672  71.004  1.00  0.00    -0.410 C  
HETATM   18  O   UNL     1     -13.475  15.719  73.111  1.00  0.00    -0.559 OA 
HETATM   19  C   UNL     1     -14.284  15.097  72.107  1.00  0.00    -0.559 C  
HETATM   20  C   UNL     1     -12.243  16.135  72.498  1.00  0.00    -0.520 C  
ENDBRANCH  15  16
ENDBRANCH  14  15
ENDBRANCH  10  11
BRANCH  10  21
HETATM   21  C   UNL     1      -9.779  13.387  66.864  1.00  0.00    -0.253 C  
BRANCH  21  22
HETATM   22  C   UNL     1     -10.522  13.182  65.559  1.00  0.00    -0.297 A  
HETATM   23  C   UNL     1     -11.061  11.764  63.655  1.00  0.00    -0.518 A  
HETATM   24  C   UNL     1     -10.258  12.060  64.761  1.00  0.00    -0.311 A  
HETATM   25  C   UNL     1     -12.132  12.591  63.321  1.00  0.00    -0.525 A  
HETATM   26  C   UNL     1     -11.595  14.015  65.200  1.00  0.00    -0.344 A  
HETATM   27  C   UNL     1     -12.393  13.722  64.089  1.00  0.00    -0.382 A  
ENDBRANCH  21  22
ENDBRANCH  10  21
ENDBRANCH   7  10
ENDBRANCH   6   7
ENDBRANCH   5   6
BRANCH   5  28
HETATM   28  S   UNL     1      -9.285   8.542  70.373  1.00  0.00    -0.168 S  
HETATM   29  O   UNL     1      -8.573   7.888  69.300  1.00  0.00    -0.135 OA 
HETATM   30  O   UNL     1      -8.634   9.553  71.187  1.00  0.00    -0.269 OA 
BRANCH  28  31
HETATM   31  C   UNL     1      -9.858   7.261  71.454  1.00  0.00    -0.186 A  
HETATM   32  N   UNL     1     -11.154   4.204  74.033  1.00  0.00    -0.173 NA 
HETATM   33  H2  UNL     1     -10.467   3.457  73.935  1.00  0.00     0.000 HD 
HETATM   34  H1  UNL     1     -11.290   4.388  75.027  1.00  0.00     0.000 HD 
HETATM   35  C   UNL     1     -10.157   5.999  70.939  1.00  0.00    -0.246 A  
HETATM   36  C   UNL     1     -10.615   4.993  71.802  1.00  0.00    -0.204 A  
HETATM   37  C   UNL     1      -9.955   7.498  72.832  1.00  0.00    -0.303 A  
HETATM   38  C   UNL     1     -10.406   6.483  73.682  1.00  0.00    -0.323 A  
HETATM   39  C   UNL     1     -10.801   5.245  73.166  1.00  0.00    -0.287 A  
ENDBRANCH  28  31
ENDBRANCH   5  28
ENDBRANCH   4   5
TORSDOF 11
ENDMDL
MODEL       36
REMARK 921   NORMALIZED FREE ENERGY PREDICTED BY IDOCK:   -6.55 KCAL/MOL
REMARK 922        TOTAL FREE ENERGY PREDICTED BY IDOCK:  -12.53 KCAL/MOL
REMARK 923 INTER-LIGAND FREE ENERGY PREDICTED BY IDOCK:  -10.32 KCAL/MOL
REMARK 924 INTRA-LIGAND FREE ENERGY PREDICTED BY IDOCK:   -2.20 KCAL/MOL
REMARK 927      BINDING AFFINITY PREDICTED BY RF-SCORE:    0.00 PKD
ROOT
HETATM    1  C   UNL     1     -12.777  13.397  65.510  1.00  0.00    -0.469 C  
HETATM    2  C   UNL     1     -11.525  12.573  65.209  1.00  0.00    -0.374 C  
HETATM    3  C   UNL     1     -11.294  12.598  63.685  1.00  0.00    -0.544 C  
HETATM    4  C   UNL     1     -10.261  13.092  65.924  1.00  0.00    -0.291 C  
ENDROOT
BRANCH   4   5
HETATM    5  N   UNL     1     -10.297  13.155  67.446  1.00  0.00    -0.237 N  
BRANCH   5   6
HETATM    6  C   UNL     1      -9.241  12.226  68.093  1.00  0.00    -0.197 C  
BRANCH   6   7
HETATM    7  C   UNL     1      -9.143  10.768  67.521  1.00  0.00    -0.139 C  
HETATM    8  H   UNL     1      -7.706   9.588  66.921  1.00  0.00     0.000 HD 
HETATM    9  O   UNL     1      -7.765  10.470  67.267  1.00  0.00    -0.104 OA 
BRANCH   7  10
HETATM   10  C   UNL     1      -9.819   9.687  68.443  1.00  0.00    -0.153 C  
BRANCH  10  11
HETATM   11  N   UNL     1      -9.203   8.350  68.318  1.00  0.00    -0.135 N  
HETATM   12  O   UNL     1     -10.917   7.464  67.080  1.00  0.00    -0.332 OA 
HETATM   13  H   UNL     1      -8.293   8.176  68.743  1.00  0.00     0.000 HD 
HETATM   14  C   UNL     1      -9.837   7.340  67.638  1.00  0.00    -0.151 C  
BRANCH  14  15
HETATM   15  O   UNL     1      -9.128   6.176  67.687  1.00  0.00    -0.113 OA 
BRANCH  15  16
HETATM   16  C   UNL     1      -8.875   5.705  69.025  1.00  0.00    -0.106 C  
HETATM   17  C   UNL     1     -10.127   5.155  69.678  1.00  0.00    -0.332 C  
HETATM   18  O   UNL     1      -8.386   3.637  70.141  1.00  0.00    -0.058 OA 
HETATM   19  C   UNL     1      -9.563   4.211  70.717  1.00  0.00    -0.190 C  
HETATM   20  C   UNL     1      -7.938   4.500  69.082  1.00  0.00    -0.069 C  
ENDBRANCH  15  16
ENDBRANCH  14  15
ENDBRANCH  10  11
BRANCH  10  21
HETATM   21  C   UNL     1     -10.055  10.085  69.924  1.00  0.00    -0.289 C  
BRANCH  21  22
HETATM   22  C   UNL     1     -11.309   9.647  70.654  1.00  0.00    -0.379 A  
HETATM   23  C   UNL     1     -12.544   7.921  71.848  1.00  0.00    -0.348 A  
HETATM   24  C   UNL     1     -11.485   8.304  71.018  1.00  0.00    -0.303 A  
HETATM   25  C   UNL     1     -13.452   8.870  72.314  1.00  0.00    -0.503 A  
HETATM   26  C   UNL     1     -12.242  10.589  71.119  1.00  0.00    -0.496 A  
HETATM   27  C   UNL     1     -13.305  10.203  71.943  1.00  0.00    -0.505 A  
ENDBRANCH  21  22
ENDBRANCH  10  21
ENDBRANCH   7  10
ENDBRANCH   6   7
ENDBRANCH   5   6
BRANCH   5  28
HETATM   28  S   UNL     1     -10.093  14.815  67.999  1.00  0.00    -0.221 S  
HETATM   29  O   UNL     1      -8.728  15.008  68.428  1.00  0.00    -0.163 OA 
HETATM   30  O   UNL     1     -10.668  15.648  66.959  1.00  0.00    -0.313 OA 
BRANCH  28  31
HETATM   31  C   UNL     1     -11.104  14.975  69.444  1.00  0.00    -0.278 A  
HETATM   32  N   UNL     1     -13.457  15.327  72.911  1.00  0.00    -0.499 NA 
HETATM   33  H2  UNL     1     -13.236  14.506  73.473  1.00  0.00     0.000 HD 
HETATM   34  H1  UNL     1     -13.384  16.153  73.505  1.00  0.00     0.000 HD 
HETATM   35  C   UNL     1     -12.033  13.981  69.757  1.00  0.00    -0.393 A  
HETATM   36  C   UNL     1     -12.832  14.119  70.900  1.00  0.00    -0.404 A  
HETATM   37  C   UNL     1     -10.932  16.070  70.302  1.00  0.00    -0.360 A  
HETATM   38  C   UNL     1     -11.732  16.191  71.443  1.00  0.00    -0.506 A  
HETATM   39  C   UNL     1     -12.731  15.252  71.716  1.00  0.00    -0.371 A  
ENDBRANCH  28  31
ENDBRANCH   5  28
ENDBRANCH   4   5
TORSDOF 11
ENDMDL
MODEL       37
REMARK 921   NORMALIZED FREE ENERGY PREDICTED BY IDOCK:   -6.52 KCAL/MOL
REMARK 922        TOTAL FREE ENERGY PREDICTED BY IDOCK:  -12.48 KCAL/MOL
REMARK 923 INTER-LIGAND FREE ENERGY PREDICTED BY IDOCK:  -10.29 KCAL/MOL
REMARK 924 INTRA-LIGAND FREE ENERGY PREDICTED BY IDOCK:   -2.19 KCAL/MOL
REMARK 927      BINDING AFFINITY PREDICTED BY RF-SCORE:    0.00 PKD
ROOT
HETATM    1  C   UNL     1      -7.794  12.052  68.845  1.00  0.00     0.042 C  
HETATM    2  C   UNL     1      -7.349  12.545  67.467  1.00  0.00    -0.151 C  
HETATM    3  C   UNL     1      -5.983  11.903  67.150  1.00  0.00    -0.152 C  
HETATM    4  C   UNL     1      -8.345  12.203  66.342  1.00  0.00     0.106 C  
ENDROOT
BRANCH   4   5
HETATM    5  N   UNL     1      -9.765  12.742  66.480  1.00  0.00    -0.251 N  
BRANCH   5   6
HETATM    6  C   UNL     1     -10.070  13.853  65.446  1.00  0.00    -0.305 C  
BRANCH   6   7
HETATM    7  C   UNL     1     -10.787  15.139  65.986  1.00  0.00    -0.335 C  
HETATM    8  H   UNL     1     -12.546  15.561  66.725  1.00  0.00     0.000 HD 
HETATM    9  O   UNL     1     -12.112  14.782  66.398  1.00  0.00    -0.264 OA 
BRANCH   7  10
HETATM   10  C   UNL     1      -9.990  15.866  67.132  1.00  0.00    -0.240 C  
BRANCH  10  11
HETATM   11  N   UNL     1     -10.298  15.339  68.477  1.00  0.00    -0.227 N  
HETATM   12  O   UNL     1     -10.630  17.402  69.420  1.00  0.00    -0.269 OA 
HETATM   13  H   UNL     1     -10.297  14.331  68.633  1.00  0.00     0.000 HD 
HETATM   14  C   UNL     1     -10.584  16.185  69.520  1.00  0.00    -0.306 C  
BRANCH  14  15
HETATM   15  O   UNL     1     -10.784  15.503  70.684  1.00  0.00    -0.325 OA 
BRANCH  15  16
HETATM   16  C   UNL     1     -12.116  15.637  71.215  1.00  0.00    -0.411 C  
HETATM   17  C   UNL     1     -12.773  14.292  71.445  1.00  0.00    -0.424 C  
HETATM   18  O   UNL     1     -13.212  15.607  73.350  1.00  0.00    -0.520 OA 
HETATM   19  C   UNL     1     -13.801  14.610  72.508  1.00  0.00    -0.458 C  
HETATM   20  C   UNL     1     -12.158  16.249  72.614  1.00  0.00    -0.534 C  
ENDBRANCH  15  16
ENDBRANCH  14  15
ENDBRANCH  10  11
BRANCH  10  21
HETATM   21  C   UNL     1      -8.465  16.048  66.910  1.00  0.00    -0.275 C  
BRANCH  21  22
HETATM   22  C   UNL     1      -7.780  17.351  67.271  1.00  0.00    -0.221 A  
HETATM   23  C   UNL     1      -7.384  19.708  66.808  1.00  0.00    -0.247 A  
HETATM   24  C   UNL     1      -7.850  18.452  66.406  1.00  0.00    -0.291 A  
HETATM   25  C   UNL     1      -6.827  19.880  68.074  1.00  0.00    -0.309 A  
HETATM   26  C   UNL     1      -7.201  17.537  68.537  1.00  0.00    -0.240 A  
HETATM   27  C   UNL     1      -6.728  18.792  68.935  1.00  0.00    -0.303 A  
ENDBRANCH  21  22
ENDBRANCH  10  21
ENDBRANCH   7  10
ENDBRANCH   6   7
ENDBRANCH   5   6
BRANCH   5  28
HETATM   28  S   UNL     1     -10.935  11.431  66.353  1.00  0.00    -0.221 S  
HETATM   29  O   UNL     1     -12.221  11.975  65.986  1.00  0.00    -0.546 OA 
HETATM   30  O   UNL     1     -10.299  10.414  65.536  1.00  0.00    -0.264 OA 
BRANCH  28  31
HETATM   31  C   UNL     1     -11.112  10.777  67.990  1.00  0.00    -0.299 A  
HETATM   32  N   UNL     1     -11.588   9.191  71.855  1.00  0.00    -0.370 NA 
HETATM   33  H2  UNL     1     -12.595   9.099  71.988  1.00  0.00     0.000 HD 
HETATM   34  H1  UNL     1     -11.148   8.307  72.110  1.00  0.00     0.000 HD 
HETATM   35  C   UNL     1     -11.833  11.490  68.950  1.00  0.00    -0.406 A  
HETATM   36  C   UNL     1     -11.964  10.967  70.243  1.00  0.00    -0.452 A  
HETATM   37  C   UNL     1     -10.580   9.520  68.304  1.00  0.00    -0.260 A  
HETATM   38  C   UNL     1     -10.724   9.007  69.597  1.00  0.00    -0.228 A  
HETATM   39  C   UNL     1     -11.360   9.754  70.594  1.00  0.00    -0.330 A  
ENDBRANCH  28  31
ENDBRANCH   5  28
ENDBRANCH   4   5
TORSDOF 11
ENDMDL
MODEL       38
REMARK 921   NORMALIZED FREE ENERGY PREDICTED BY IDOCK:   -6.51 KCAL/MOL
REMARK 922        TOTAL FREE ENERGY PREDICTED BY IDOCK:  -12.46 KCAL/MOL
REMARK 923 INTER-LIGAND FREE ENERGY PREDICTED BY IDOCK:  -10.26 KCAL/MOL
REMARK 924 INTRA-LIGAND FREE ENERGY PREDICTED BY IDOCK:   -2.21 KCAL/MOL
REMARK 927      BINDING AFFINITY PREDICTED BY RF-SCORE:    0.00 PKD
ROOT
HETATM    1  C   UNL     1     -12.806  13.749  65.597  1.00  0.00    -0.456 C  
HETATM    2  C   UNL     1     -11.812  12.769  64.973  1.00  0.00    -0.423 C  
HETATM    3  C   UNL     1     -11.849  12.962  63.443  1.00  0.00    -0.576 C  
HETATM    4  C   UNL     1     -10.367  12.956  65.475  1.00  0.00    -0.291 C  
ENDROOT
BRANCH   4   5
HETATM    5  N   UNL     1     -10.126  12.815  66.974  1.00  0.00    -0.237 N  
BRANCH   5   6
HETATM    6  C   UNL     1      -9.159  11.651  67.300  1.00  0.00    -0.167 C  
BRANCH   6   7
HETATM    7  C   UNL     1      -9.684  10.200  67.018  1.00  0.00    -0.180 C  
HETATM    8  H   UNL     1      -8.936   8.553  66.279  1.00  0.00     0.000 HD 
HETATM    9  O   UNL     1      -8.617   9.431  66.450  1.00  0.00    -0.130 OA 
BRANCH   7  10
HETATM   10  C   UNL     1     -10.304   9.501  68.284  1.00  0.00    -0.207 C  
BRANCH  10  11
HETATM   11  N   UNL     1      -9.772   8.143  68.517  1.00  0.00    -0.159 N  
HETATM   12  O   UNL     1     -11.154   7.131  66.993  1.00  0.00    -0.345 OA 
HETATM   13  H   UNL     1      -9.020   8.008  69.193  1.00  0.00     0.000 HD 
HETATM   14  C   UNL     1     -10.273   7.061  67.836  1.00  0.00    -0.183 C  
BRANCH  14  15
HETATM   15  O   UNL     1      -9.685   5.897  68.236  1.00  0.00    -0.121 OA 
BRANCH  15  16
HETATM   16  C   UNL     1      -9.420   5.835  69.650  1.00  0.00    -0.140 C  
HETATM   17  C   UNL     1     -10.560   5.190  70.413  1.00  0.00    -0.225 C  
HETATM   18  O   UNL     1      -8.561   4.267  71.252  1.00  0.00    -0.097 OA 
HETATM   19  C   UNL     1      -9.869   4.681  71.659  1.00  0.00    -0.187 C  
HETATM   20  C   UNL     1      -8.247   4.927  70.014  1.00  0.00    -0.073 C  
ENDBRANCH  15  16
ENDBRANCH  14  15
ENDBRANCH  10  11
BRANCH  10  21
HETATM   21  C   UNL     1     -10.352  10.341  69.589  1.00  0.00    -0.281 C  
BRANCH  21  22
HETATM   22  C   UNL     1     -11.292   9.966  70.717  1.00  0.00    -0.430 A  
HETATM   23  C   UNL     1     -13.487  10.132  71.758  1.00  0.00    -0.406 A  
HETATM   24  C   UNL     1     -12.539  10.595  70.839  1.00  0.00    -0.503 A  
HETATM   25  C   UNL     1     -13.198   9.044  72.579  1.00  0.00    -0.467 A  
HETATM   26  C   UNL     1     -11.009   8.881  71.563  1.00  0.00    -0.398 A  
HETATM   27  C   UNL     1     -11.955   8.424  72.487  1.00  0.00    -0.418 A  
ENDBRANCH  21  22
ENDBRANCH  10  21
ENDBRANCH   7  10
ENDBRANCH   6   7
ENDBRANCH   5   6
BRANCH   5  28
HETATM   28  S   UNL     1      -9.532  14.330  67.647  1.00  0.00    -0.217 S  
HETATM   29  O   UNL     1      -8.251  14.102  68.273  1.00  0.00    -0.133 OA 
HETATM   30  O   UNL     1      -9.676  15.313  66.589  1.00  0.00    -0.232 OA 
BRANCH  28  31
HETATM   31  C   UNL     1     -10.659  14.761  68.944  1.00  0.00    -0.250 A  
HETATM   32  N   UNL     1     -13.294  15.750  72.067  1.00  0.00    -0.441 NA 
HETATM   33  H2  UNL     1     -13.277  14.951  72.700  1.00  0.00     0.000 HD 
HETATM   34  H1  UNL     1     -13.152  16.598  72.615  1.00  0.00     0.000 HD 
HETATM   35  C   UNL     1     -11.768  13.953  69.199  1.00  0.00    -0.382 A  
HETATM   36  C   UNL     1     -12.657  14.305  70.224  1.00  0.00    -0.378 A  
HETATM   37  C   UNL     1     -10.405  15.879  69.750  1.00  0.00    -0.290 A  
HETATM   38  C   UNL     1     -11.296  16.214  70.775  1.00  0.00    -0.397 A  
HETATM   39  C   UNL     1     -12.462  15.469  70.978  1.00  0.00    -0.436 A  
ENDBRANCH  28  31
ENDBRANCH   5  28
ENDBRANCH   4   5
TORSDOF 11
ENDMDL
MODEL       39
REMARK 921   NORMALIZED FREE ENERGY PREDICTED BY IDOCK:   -6.50 KCAL/MOL
REMARK 922        TOTAL FREE ENERGY PREDICTED BY IDOCK:  -12.46 KCAL/MOL
REMARK 923 INTER-LIGAND FREE ENERGY PREDICTED BY IDOCK:  -10.86 KCAL/MOL
REMARK 924 INTRA-LIGAND FREE ENERGY PREDICTED BY IDOCK:   -1.60 KCAL/MOL
REMARK 927      BINDING AFFINITY PREDICTED BY RF-SCORE:    0.00 PKD
ROOT
HETATM    1  C   UNL     1     -11.797   6.916  70.576  1.00  0.00    -0.385 C  
HETATM    2  C   UNL     1     -11.460   8.394  70.774  1.00  0.00    -0.277 C  
HETATM    3  C   UNL     1     -10.973   8.582  72.225  1.00  0.00    -0.426 C  
HETATM    4  C   UNL     1     -10.381   8.913  69.804  1.00  0.00    -0.207 C  
ENDROOT
BRANCH   4   5
HETATM    5  N   UNL     1     -10.673   8.804  68.312  1.00  0.00    -0.127 N  
BRANCH   5   6
HETATM    6  C   UNL     1     -10.578  10.174  67.597  1.00  0.00    -0.265 C  
BRANCH   6   7
HETATM    7  C   UNL     1     -10.105  11.390  68.468  1.00  0.00    -0.206 C  
HETATM    8  H   UNL     1      -8.632  12.672  68.410  1.00  0.00     0.000 HD 
HETATM    9  O   UNL     1      -8.918  11.936  67.882  1.00  0.00    -0.165 OA 
BRANCH   7  10
HETATM   10  C   UNL     1     -11.218  12.484  68.672  1.00  0.00    -0.278 C  
BRANCH  10  11
HETATM   11  N   UNL     1     -11.988  12.764  67.444  1.00  0.00    -0.335 N  
HETATM   12  O   UNL     1     -11.189  14.899  67.199  1.00  0.00    -0.328 OA 
HETATM   13  H   UNL     1     -12.592  12.041  67.054  1.00  0.00     0.000 HD 
HETATM   14  C   UNL     1     -11.903  13.984  66.818  1.00  0.00    -0.424 C  
BRANCH  14  15
HETATM   15  O   UNL     1     -12.731  14.056  65.737  1.00  0.00    -0.516 OA 
BRANCH  15  16
HETATM   16  C   UNL     1     -12.136  13.576  64.516  1.00  0.00    -0.416 C  
HETATM   17  C   UNL     1     -10.658  13.285  64.682  1.00  0.00    -0.421 C  
HETATM   18  O   UNL     1     -11.586  11.478  63.487  1.00  0.00    -0.397 OA 
HETATM   19  C   UNL     1     -10.401  12.275  63.584  1.00  0.00    -0.432 C  
HETATM   20  C   UNL     1     -12.673  12.219  64.065  1.00  0.00    -0.352 C  
ENDBRANCH  15  16
ENDBRANCH  14  15
ENDBRANCH  10  11
BRANCH  10  21
HETATM   21  C   UNL     1     -12.137  12.318  69.913  1.00  0.00    -0.319 C  
BRANCH  21  22
HETATM   22  C   UNL     1     -12.455  13.502  70.804  1.00  0.00    -0.428 A  
HETATM   23  C   UNL     1     -13.322  14.369  72.907  1.00  0.00    -0.575 A  
HETATM   24  C   UNL     1     -13.182  13.323  71.989  1.00  0.00    -0.541 A  
HETATM   25  C   UNL     1     -12.752  15.614  72.648  1.00  0.00    -0.535 A  
HETATM   26  C   UNL     1     -11.899  14.768  70.550  1.00  0.00    -0.362 A  
HETATM   27  C   UNL     1     -12.047  15.815  71.465  1.00  0.00    -0.517 A  
ENDBRANCH  21  22
ENDBRANCH  10  21
ENDBRANCH   7  10
ENDBRANCH   6   7
ENDBRANCH   5   6
BRANCH   5  28
HETATM   28  S   UNL     1      -9.598   7.629  67.559  1.00  0.00    -0.151 S  
HETATM   29  O   UNL     1      -8.804   6.987  68.581  1.00  0.00    -0.129 OA 
HETATM   30  O   UNL     1     -10.435   6.846  66.669  1.00  0.00    -0.223 OA 
BRANCH  28  31
HETATM   31  C   UNL     1      -8.474   8.567  66.561  1.00  0.00    -0.115 A  
HETATM   32  N   UNL     1      -5.781  10.734  64.169  1.00  0.00    -0.371 NA 
HETATM   33  H2  UNL     1      -4.936  10.164  64.126  1.00  0.00     0.000 HD 
HETATM   34  H1  UNL     1      -6.034  11.005  63.219  1.00  0.00     0.000 HD 
HETATM   35  C   UNL     1      -7.245   8.967  67.087  1.00  0.00    -0.083 A  
HETATM   36  C   UNL     1      -6.364   9.713  66.292  1.00  0.00    -0.069 A  
HETATM   37  C   UNL     1      -8.794   8.856  65.228  1.00  0.00    -0.227 A  
HETATM   38  C   UNL     1      -7.903   9.595  64.443  1.00  0.00    -0.129 A  
HETATM   39  C   UNL     1      -6.711  10.084  64.987  1.00  0.00    -0.128 A  
ENDBRANCH  28  31
ENDBRANCH   5  28
ENDBRANCH   4   5
TORSDOF 11
ENDMDL
MODEL       40
REMARK 921   NORMALIZED FREE ENERGY PREDICTED BY IDOCK:   -6.50 KCAL/MOL
REMARK 922        TOTAL FREE ENERGY PREDICTED BY IDOCK:  -12.45 KCAL/MOL
REMARK 923 INTER-LIGAND FREE ENERGY PREDICTED BY IDOCK:  -10.79 KCAL/MOL
REMARK 924 INTRA-LIGAND FREE ENERGY PREDICTED BY IDOCK:   -1.66 KCAL/MOL
REMARK 927      BINDING AFFINITY PREDICTED BY RF-SCORE:    0.00 PKD
ROOT
HETATM    1  C   UNL     1     -10.773  18.865  67.720  1.00  0.00    -0.426 C  
HETATM    2  C   UNL     1     -10.197  18.856  66.303  1.00  0.00    -0.491 C  
HETATM    3  C   UNL     1     -10.253  20.297  65.757  1.00  0.00    -0.272 C  
HETATM    4  C   UNL     1      -8.746  18.341  66.233  1.00  0.00    -0.178 C  
ENDROOT
BRANCH   4   5
HETATM    5  N   UNL     1      -8.481  16.929  66.742  1.00  0.00    -0.214 N  
BRANCH   5   6
HETATM    6  C   UNL     1      -9.147  15.854  65.849  1.00  0.00    -0.269 C  
BRANCH   6   7
HETATM    7  C   UNL     1     -10.639  15.495  66.174  1.00  0.00    -0.315 C  
HETATM    8  H   UNL     1     -12.135  14.692  65.206  1.00  0.00     0.000 HD 
HETATM    9  O   UNL     1     -11.231  14.909  65.009  1.00  0.00    -0.365 OA 
BRANCH   7  10
HETATM   10  C   UNL     1     -10.801  14.578  67.442  1.00  0.00    -0.291 C  
BRANCH  10  11
HETATM   11  N   UNL     1     -11.483  15.255  68.564  1.00  0.00    -0.327 N  
HETATM   12  O   UNL     1      -9.554  15.698  69.722  1.00  0.00    -0.281 OA 
HETATM   13  H   UNL     1     -12.498  15.355  68.548  1.00  0.00     0.000 HD 
HETATM   14  C   UNL     1     -10.771  15.752  69.628  1.00  0.00    -0.292 C  
BRANCH  14  15
HETATM   15  O   UNL     1     -11.591  16.287  70.578  1.00  0.00    -0.343 OA 
BRANCH  15  16
HETATM   16  C   UNL     1     -11.832  15.413  71.697  1.00  0.00    -0.401 C  
HETATM   17  C   UNL     1     -12.045  16.184  72.984  1.00  0.00    -0.636 C  
HETATM   18  O   UNL     1     -13.701  14.510  72.903  1.00  0.00    -0.562 OA 
HETATM   19  C   UNL     1     -12.851  15.211  73.816  1.00  0.00    -0.421 C  
HETATM   20  C   UNL     1     -13.136  14.624  71.587  1.00  0.00    -0.346 C  
ENDBRANCH  15  16
ENDBRANCH  14  15
ENDBRANCH  10  11
BRANCH  10  21
HETATM   21  C   UNL     1     -11.353  13.148  67.201  1.00  0.00    -0.354 C  
BRANCH  21  22
HETATM   22  C   UNL     1     -10.617  11.934  67.733  1.00  0.00    -0.233 A  
HETATM   23  C   UNL     1     -10.538   9.531  68.110  1.00  0.00    -0.265 A  
HETATM   24  C   UNL     1     -11.257  10.689  67.797  1.00  0.00    -0.383 A  
HETATM   25  C   UNL     1      -9.172   9.601  68.378  1.00  0.00    -0.133 A  
HETATM   26  C   UNL     1      -9.243  11.991  68.021  1.00  0.00    -0.192 A  
HETATM   27  C   UNL     1      -8.527  10.833  68.342  1.00  0.00    -0.137 A  
ENDBRANCH  21  22
ENDBRANCH  10  21
ENDBRANCH   7  10
ENDBRANCH   6   7
ENDBRANCH   5   6
BRANCH   5  28
HETATM   28  S   UNL     1      -6.750  16.640  66.885  1.00  0.00    -0.197 S  
HETATM   29  O   UNL     1      -6.514  15.223  67.032  1.00  0.00    -0.250 OA 
HETATM   30  O   UNL     1      -6.137  17.385  65.800  1.00  0.00    -0.116 OA 
BRANCH  28  31
HETATM   31  C   UNL     1      -6.254  17.396  68.409  1.00  0.00    -0.169 A  
HETATM   32  N   UNL     1      -5.137  19.173  72.051  1.00  0.00    -0.765 NA 
HETATM   33  H2  UNL     1      -5.992  19.585  72.425  1.00  0.00     0.000 HD 
HETATM   34  H1  UNL     1      -4.700  18.618  72.786  1.00  0.00     0.000 HD 
HETATM   35  C   UNL     1      -6.433  18.767  68.596  1.00  0.00    -0.258 A  
HETATM   36  C   UNL     1      -6.033  19.357  69.803  1.00  0.00    -0.307 A  
HETATM   37  C   UNL     1      -5.737  16.608  69.446  1.00  0.00    -0.162 A  
HETATM   38  C   UNL     1      -5.349  17.208  70.648  1.00  0.00    -0.223 A  
HETATM   39  C   UNL     1      -5.433  18.594  70.812  1.00  0.00    -0.213 A  
ENDBRANCH  28  31
ENDBRANCH   5  28
ENDBRANCH   4   5
TORSDOF 11
ENDMDL
MODEL       41
REMARK 921   NORMALIZED FREE ENERGY PREDICTED BY IDOCK:   -6.49 KCAL/MOL
REMARK 922        TOTAL FREE ENERGY PREDICTED BY IDOCK:  -12.44 KCAL/MOL
REMARK 923 INTER-LIGAND FREE ENERGY PREDICTED BY IDOCK:  -10.97 KCAL/MOL
REMARK 924 INTRA-LIGAND FREE ENERGY PREDICTED BY IDOCK:   -1.46 KCAL/MOL
REMARK 927      BINDING AFFINITY PREDICTED BY RF-SCORE:    0.00 PKD
ROOT
HETATM    1  C   UNL     1     -14.357   7.096  71.479  1.00  0.00    -0.503 C  
HETATM    2  C   UNL     1     -13.617   8.435  71.469  1.00  0.00    -0.332 C  
HETATM    3  C   UNL     1     -14.098   9.253  72.684  1.00  0.00    -0.241 C  
HETATM    4  C   UNL     1     -12.084   8.290  71.527  1.00  0.00    -0.299 C  
ENDROOT
BRANCH   4   5
HETATM    5  N   UNL     1     -11.415   7.497  70.410  1.00  0.00    -0.241 N  
BRANCH   5   6
HETATM    6  C   UNL     1     -10.562   8.399  69.485  1.00  0.00    -0.213 C  
BRANCH   6   7
HETATM    7  C   UNL     1     -10.117   9.785  70.070  1.00  0.00    -0.257 C  
HETATM    8  H   UNL     1      -8.441  10.778  70.210  1.00  0.00     0.000 HD 
HETATM    9  O   UNL     1      -8.710   9.939  69.856  1.00  0.00    -0.205 OA 
BRANCH   7  10
HETATM   10  C   UNL     1     -10.937  10.999  69.495  1.00  0.00    -0.243 C  
BRANCH  10  11
HETATM   11  N   UNL     1     -11.130  10.928  68.032  1.00  0.00    -0.270 N  
HETATM   12  O   UNL     1      -9.334  12.263  67.535  1.00  0.00    -0.174 OA 
HETATM   13  H   UNL     1     -11.899  10.374  67.654  1.00  0.00     0.000 HD 
HETATM   14  C   UNL     1     -10.292  11.596  67.174  1.00  0.00    -0.217 C  
BRANCH  14  15
HETATM   15  O   UNL     1     -10.675  11.444  65.874  1.00  0.00    -0.264 OA 
BRANCH  15  16
HETATM   16  C   UNL     1     -11.688  12.379  65.454  1.00  0.00    -0.402 C  
HETATM   17  C   UNL     1     -11.195  13.811  65.509  1.00  0.00    -0.303 C  
HETATM   18  O   UNL     1     -12.336  13.553  63.463  1.00  0.00    -0.711 OA 
HETATM   19  C   UNL     1     -12.094  14.502  64.507  1.00  0.00    -0.484 C  
HETATM   20  C   UNL     1     -12.077  12.239  63.983  1.00  0.00    -0.471 C  
ENDBRANCH  15  16
ENDBRANCH  14  15
ENDBRANCH  10  11
BRANCH  10  21
HETATM   21  C   UNL     1     -12.247  11.369  70.240  1.00  0.00    -0.433 C  
BRANCH  21  22
HETATM   22  C   UNL     1     -12.452  12.763  70.800  1.00  0.00    -0.357 A  
HETATM   23  C   UNL     1     -12.364  15.177  70.496  1.00  0.00    -0.408 A  
HETATM   24  C   UNL     1     -12.019  13.887  70.082  1.00  0.00    -0.402 A  
HETATM   25  C   UNL     1     -13.134  15.366  71.642  1.00  0.00    -0.540 A  
HETATM   26  C   UNL     1     -13.213  12.971  71.962  1.00  0.00    -0.543 A  
HETATM   27  C   UNL     1     -13.551  14.263  72.380  1.00  0.00    -0.599 A  
ENDBRANCH  21  22
ENDBRANCH  10  21
ENDBRANCH   7  10
ENDBRANCH   6   7
ENDBRANCH   5   6
BRANCH   5  28
HETATM   28  S   UNL     1     -10.442   6.191  71.080  1.00  0.00    -0.239 S  
HETATM   29  O   UNL     1     -11.250   5.416  71.993  1.00  0.00    -0.196 OA 
HETATM   30  O   UNL     1      -9.796   5.560  69.944  1.00  0.00    -0.166 OA 
BRANCH  28  31
HETATM   31  C   UNL     1      -9.185   6.970  72.056  1.00  0.00    -0.138 A  
HETATM   32  N   UNL     1      -6.227   8.880  74.352  1.00  0.00    -0.235 NA 
HETATM   33  H2  UNL     1      -6.003   9.738  73.847  1.00  0.00     0.000 HD 
HETATM   34  H1  UNL     1      -6.402   9.118  75.328  1.00  0.00     0.000 HD 
HETATM   35  C   UNL     1      -7.934   7.233  71.496  1.00  0.00    -0.100 A  
HETATM   36  C   UNL     1      -6.944   7.846  72.276  1.00  0.00    -0.076 A  
HETATM   37  C   UNL     1      -9.466   7.374  73.368  1.00  0.00    -0.276 A  
HETATM   38  C   UNL     1      -8.471   7.991  74.133  1.00  0.00    -0.293 A  
HETATM   39  C   UNL     1      -7.184   8.173  73.616  1.00  0.00    -0.141 A  
ENDBRANCH  28  31
ENDBRANCH   5  28
ENDBRANCH   4   5
TORSDOF 11
ENDMDL
MODEL       42
REMARK 921   NORMALIZED FREE ENERGY PREDICTED BY IDOCK:   -6.49 KCAL/MOL
REMARK 922        TOTAL FREE ENERGY PREDICTED BY IDOCK:  -12.43 KCAL/MOL
REMARK 923 INTER-LIGAND FREE ENERGY PREDICTED BY IDOCK:  -10.41 KCAL/MOL
REMARK 924 INTRA-LIGAND FREE ENERGY PREDICTED BY IDOCK:   -2.02 KCAL/MOL
REMARK 927      BINDING AFFINITY PREDICTED BY RF-SCORE:    0.00 PKD
ROOT
HETATM    1  C   UNL     1     -12.839  13.686  65.354  1.00  0.00    -0.440 C  
HETATM    2  C   UNL     1     -11.618  12.770  65.252  1.00  0.00    -0.379 C  
HETATM    3  C   UNL     1     -11.106  12.819  63.798  1.00  0.00    -0.475 C  
HETATM    4  C   UNL     1     -10.475  13.163  66.207  1.00  0.00    -0.285 C  
ENDROOT
BRANCH   4   5
HETATM    5  N   UNL     1     -10.789  13.185  67.699  1.00  0.00    -0.250 N  
BRANCH   5   6
HETATM    6  C   UNL     1     -10.138  11.998  68.449  1.00  0.00    -0.210 C  
BRANCH   6   7
HETATM    7  C   UNL     1     -11.111  10.903  69.011  1.00  0.00    -0.246 C  
HETATM    8  H   UNL     1     -12.994  10.437  68.769  1.00  0.00     0.000 HD 
HETATM    9  O   UNL     1     -12.404  11.100  68.428  1.00  0.00    -0.556 OA 
BRANCH   7  10
HETATM   10  C   UNL     1     -10.588   9.434  68.802  1.00  0.00    -0.208 C  
BRANCH  10  11
HETATM   11  N   UNL     1     -11.188   8.465  69.742  1.00  0.00    -0.450 N  
HETATM   12  O   UNL     1      -9.787   8.989  71.479  1.00  0.00    -0.296 OA 
HETATM   13  H   UNL     1     -11.973   7.890  69.436  1.00  0.00     0.000 HD 
HETATM   14  C   UNL     1     -10.706   8.328  71.020  1.00  0.00    -0.218 C  
BRANCH  14  15
HETATM   15  O   UNL     1     -11.361   7.345  71.704  1.00  0.00    -0.248 OA 
BRANCH  15  16
HETATM   16  C   UNL     1     -10.511   6.257  72.113  1.00  0.00    -0.199 C  
HETATM   17  C   UNL     1     -11.184   5.365  73.136  1.00  0.00    -0.355 C  
HETATM   18  O   UNL     1     -10.153   3.949  71.561  1.00  0.00    -0.167 OA 
HETATM   19  C   UNL     1     -10.451   4.054  72.957  1.00  0.00    -0.174 C  
HETATM   20  C   UNL     1     -10.201   5.268  70.992  1.00  0.00    -0.229 C  
ENDBRANCH  15  16
ENDBRANCH  14  15
ENDBRANCH  10  11
BRANCH  10  21
HETATM   21  C   UNL     1     -10.575   8.902  67.344  1.00  0.00    -0.305 C  
BRANCH  21  22
HETATM   22  C   UNL     1      -9.383   9.150  66.441  1.00  0.00    -0.261 A  
HETATM   23  C   UNL     1      -8.464  10.104  64.398  1.00  0.00    -0.179 A  
HETATM   24  C   UNL     1      -9.563   9.700  65.164  1.00  0.00    -0.324 A  
HETATM   25  C   UNL     1      -7.169   9.951  64.888  1.00  0.00    -0.136 A  
HETATM   26  C   UNL     1      -8.070   8.988  66.915  1.00  0.00    -0.112 A  
HETATM   27  C   UNL     1      -6.972   9.385  66.144  1.00  0.00    -0.090 A  
ENDBRANCH  21  22
ENDBRANCH  10  21
ENDBRANCH   7  10
ENDBRANCH   6   7
ENDBRANCH   5   6
BRANCH   5  28
HETATM   28  S   UNL     1     -10.295  14.720  68.409  1.00  0.00    -0.239 S  
HETATM   29  O   UNL     1      -8.952  14.596  68.924  1.00  0.00    -0.181 OA 
HETATM   30  O   UNL     1     -10.620  15.732  67.420  1.00  0.00    -0.301 OA 
BRANCH  28  31
HETATM   31  C   UNL     1     -11.352  14.972  69.808  1.00  0.00    -0.283 A  
HETATM   32  N   UNL     1     -13.897  15.610  73.093  1.00  0.00    -0.612 NA 
HETATM   33  H2  UNL     1     -14.216  16.574  73.006  1.00  0.00     0.000 HD 
HETATM   34  H1  UNL     1     -14.712  15.014  73.241  1.00  0.00     0.000 HD 
HETATM   35  C   UNL     1     -11.052  15.971  70.736  1.00  0.00    -0.321 A  
HETATM   36  C   UNL     1     -11.891  16.160  71.842  1.00  0.00    -0.605 A  
HETATM   37  C   UNL     1     -12.517  14.207  69.953  1.00  0.00    -0.313 A  
HETATM   38  C   UNL     1     -13.349  14.411  71.059  1.00  0.00    -0.359 A  
HETATM   39  C   UNL     1     -13.010  15.342  72.045  1.00  0.00    -0.401 A  
ENDBRANCH  28  31
ENDBRANCH   5  28
ENDBRANCH   4   5
TORSDOF 11
ENDMDL
MODEL       43
REMARK 921   NORMALIZED FREE ENERGY PREDICTED BY IDOCK:   -6.48 KCAL/MOL
REMARK 922        TOTAL FREE ENERGY PREDICTED BY IDOCK:  -12.41 KCAL/MOL
REMARK 923 INTER-LIGAND FREE ENERGY PREDICTED BY IDOCK:  -10.32 KCAL/MOL
REMARK 924 INTRA-LIGAND FREE ENERGY PREDICTED BY IDOCK:   -2.09 KCAL/MOL
REMARK 927      BINDING AFFINITY PREDICTED BY RF-SCORE:    0.00 PKD
ROOT
HETATM    1  C   UNL     1     -12.831  13.917  65.535  1.00  0.00    -0.471 C  
HETATM    2  C   UNL     1     -12.092  12.729  64.916  1.00  0.00    -0.490 C  
HETATM    3  C   UNL     1     -12.125  12.895  63.384  1.00  0.00    -0.610 C  
HETATM    4  C   UNL     1     -10.629  12.604  65.384  1.00  0.00    -0.282 C  
ENDROOT
BRANCH   4   5
HETATM    5  N   UNL     1     -10.386  12.443  66.880  1.00  0.00    -0.223 N  
BRANCH   5   6
HETATM    6  C   UNL     1      -9.623  11.137  67.210  1.00  0.00    -0.165 C  
BRANCH   6   7
HETATM    7  C   UNL     1     -10.389   9.791  66.955  1.00  0.00    -0.239 C  
HETATM    8  H   UNL     1     -10.264   8.324  65.671  1.00  0.00     0.000 HD 
HETATM    9  O   UNL     1      -9.800   9.139  65.825  1.00  0.00    -0.286 OA 
BRANCH   7  10
HETATM   10  C   UNL     1     -10.440   8.852  68.217  1.00  0.00    -0.195 C  
BRANCH  10  11
HETATM   11  N   UNL     1      -9.697   7.590  68.031  1.00  0.00    -0.143 N  
HETATM   12  O   UNL     1     -11.361   6.261  68.880  1.00  0.00    -0.373 OA 
HETATM   13  H   UNL     1      -8.764   7.613  67.621  1.00  0.00     0.000 HD 
HETATM   14  C   UNL     1     -10.243   6.386  68.403  1.00  0.00    -0.175 C  
BRANCH  14  15
HETATM   15  O   UNL     1      -9.376   5.353  68.199  1.00  0.00    -0.109 OA 
BRANCH  15  16
HETATM   16  C   UNL     1      -9.800   4.432  67.176  1.00  0.00    -0.178 C  
HETATM   17  C   UNL     1      -9.120   4.705  65.850  1.00  0.00    -0.135 C  
HETATM   18  O   UNL     1      -9.057   2.374  66.189  1.00  0.00    -0.131 OA 
HETATM   19  C   UNL     1      -9.199   3.360  65.161  1.00  0.00    -0.149 C  
HETATM   20  C   UNL     1      -9.389   2.986  67.446  1.00  0.00    -0.175 C  
ENDBRANCH  15  16
ENDBRANCH  14  15
ENDBRANCH  10  11
BRANCH  10  21
HETATM   21  C   UNL     1     -10.136   9.513  69.588  1.00  0.00    -0.228 C  
BRANCH  21  22
HETATM   22  C   UNL     1     -11.163   9.489  70.703  1.00  0.00    -0.364 A  
HETATM   23  C   UNL     1     -13.231  10.339  71.666  1.00  0.00    -0.509 A  
HETATM   24  C   UNL     1     -12.176  10.457  70.756  1.00  0.00    -0.457 A  
HETATM   25  C   UNL     1     -13.283   9.262  72.548  1.00  0.00    -0.439 A  
HETATM   26  C   UNL     1     -11.220   8.418  71.610  1.00  0.00    -0.343 A  
HETATM   27  C   UNL     1     -12.273   8.306  72.526  1.00  0.00    -0.367 A  
ENDBRANCH  21  22
ENDBRANCH  10  21
ENDBRANCH   7  10
ENDBRANCH   6   7
ENDBRANCH   5   6
BRANCH   5  28
HETATM   28  S   UNL     1      -9.534  13.845  67.520  1.00  0.00    -0.224 S  
HETATM   29  O   UNL     1      -8.284  13.416  68.103  1.00  0.00    -0.143 OA 
HETATM   30  O   UNL     1      -9.556  14.836  66.459  1.00  0.00    -0.255 OA 
BRANCH  28  31
HETATM   31  C   UNL     1     -10.529  14.454  68.853  1.00  0.00    -0.245 A  
HETATM   32  N   UNL     1     -12.938  15.922  71.970  1.00  0.00    -0.435 NA 
HETATM   33  H2  UNL     1     -13.397  16.750  71.592  1.00  0.00     0.000 HD 
HETATM   34  H1  UNL     1     -13.647  15.329  72.400  1.00  0.00     0.000 HD 
HETATM   35  C   UNL     1     -10.321  15.745  69.342  1.00  0.00    -0.263 A  
HETATM   36  C   UNL     1     -11.111  16.217  70.400  1.00  0.00    -0.362 A  
HETATM   37  C   UNL     1     -11.561  13.664  69.375  1.00  0.00    -0.368 A  
HETATM   38  C   UNL     1     -12.346  14.150  70.426  1.00  0.00    -0.428 A  
HETATM   39  C   UNL     1     -12.085  15.403  70.989  1.00  0.00    -0.365 A  
ENDBRANCH  28  31
ENDBRANCH   5  28
ENDBRANCH   4   5
TORSDOF 11
ENDMDL
MODEL       44
REMARK 921   NORMALIZED FREE ENERGY PREDICTED BY IDOCK:   -6.48 KCAL/MOL
REMARK 922        TOTAL FREE ENERGY PREDICTED BY IDOCK:  -12.41 KCAL/MOL
REMARK 923 INTER-LIGAND FREE ENERGY PREDICTED BY IDOCK:  -11.06 KCAL/MOL
REMARK 924 INTRA-LIGAND FREE ENERGY PREDICTED BY IDOCK:   -1.35 KCAL/MOL
REMARK 927      BINDING AFFINITY PREDICTED BY RF-SCORE:    0.00 PKD
ROOT
HETATM    1  C   UNL     1      -7.805   9.958  64.930  1.00  0.00    -0.136 C  
HETATM    2  C   UNL     1      -8.921  10.493  64.031  1.00  0.00    -0.235 C  
HETATM    3  C   UNL     1      -8.974   9.616  62.764  1.00  0.00    -0.264 C  
HETATM    4  C   UNL     1     -10.306  10.494  64.708  1.00  0.00    -0.230 C  
ENDROOT
BRANCH   4   5
HETATM    5  N   UNL     1     -10.455  11.301  65.993  1.00  0.00    -0.251 N  
BRANCH   5   6
HETATM    6  C   UNL     1     -11.566  12.373  65.882  1.00  0.00    -0.396 C  
BRANCH   6   7
HETATM    7  C   UNL     1     -11.149  13.758  65.273  1.00  0.00    -0.313 C  
HETATM    8  H   UNL     1     -11.646  14.810  63.703  1.00  0.00     0.000 HD 
HETATM    9  O   UNL     1     -11.899  13.972  64.072  1.00  0.00    -0.390 OA 
BRANCH   7  10
HETATM   10  C   UNL     1     -11.298  14.956  66.282  1.00  0.00    -0.306 C  
BRANCH  10  11
HETATM   11  N   UNL     1     -12.210  14.658  67.405  1.00  0.00    -0.556 N  
HETATM   12  O   UNL     1     -10.539  14.070  68.859  1.00  0.00    -0.244 OA 
HETATM   13  H   UNL     1     -13.215  14.779  67.280  1.00  0.00     0.000 HD 
HETATM   14  C   UNL     1     -11.726  14.221  68.613  1.00  0.00    -0.345 C  
BRANCH  14  15
HETATM   15  O   UNL     1     -12.732  13.952  69.493  1.00  0.00    -0.090 OA 
BRANCH  15  16
HETATM   16  C   UNL     1     -12.360  14.129  70.874  1.00  0.00    -0.368 C  
HETATM   17  C   UNL     1     -12.719  15.510  71.385  1.00  0.00    -0.517 C  
HETATM   18  O   UNL     1     -13.373  13.970  73.044  1.00  0.00    -0.641 OA 
HETATM   19  C   UNL     1     -12.832  15.284  72.877  1.00  0.00    -0.438 C  
HETATM   20  C   UNL     1     -13.133  13.229  71.836  1.00  0.00    -0.388 C  
ENDBRANCH  15  16
ENDBRANCH  14  15
ENDBRANCH  10  11
BRANCH  10  21
HETATM   21  C   UNL     1      -9.984  15.630  66.759  1.00  0.00    -0.258 C  
BRANCH  21  22
HETATM   22  C   UNL     1      -9.974  17.080  67.202  1.00  0.00    -0.281 A  
HETATM   23  C   UNL     1     -10.346  19.430  66.687  1.00  0.00    -0.555 A  
HETATM   24  C   UNL     1     -10.168  18.108  66.268  1.00  0.00    -0.401 A  
HETATM   25  C   UNL     1     -10.317  19.749  68.043  1.00  0.00    -0.567 A  
HETATM   26  C   UNL     1      -9.932  17.420  68.564  1.00  0.00    -0.331 A  
HETATM   27  C   UNL     1     -10.101  18.745  68.981  1.00  0.00    -0.295 A  
ENDBRANCH  21  22
ENDBRANCH  10  21
ENDBRANCH   7  10
ENDBRANCH   6   7
ENDBRANCH   5   6
BRANCH   5  28
HETATM   28  S   UNL     1     -10.751  10.232  67.360  1.00  0.00    -0.269 S  
HETATM   29  O   UNL     1     -11.875  10.730  68.119  1.00  0.00    -0.533 OA 
HETATM   30  O   UNL     1     -10.763   8.888  66.812  1.00  0.00    -0.198 OA 
BRANCH  28  31
HETATM   31  C   UNL     1      -9.330  10.377  68.409  1.00  0.00    -0.150 A  
HETATM   32  N   UNL     1      -5.994  10.763  70.937  1.00  0.00    -0.328 NA 
HETATM   33  H2  UNL     1      -6.033  11.718  71.294  1.00  0.00     0.000 HD 
HETATM   34  H1  UNL     1      -5.865  10.130  71.726  1.00  0.00     0.000 HD 
HETATM   35  C   UNL     1      -8.361  11.344  68.137  1.00  0.00    -0.149 A  
HETATM   36  C   UNL     1      -7.238  11.448  68.969  1.00  0.00    -0.118 A  
HETATM   37  C   UNL     1      -9.209   9.562  69.542  1.00  0.00    -0.198 A  
HETATM   38  C   UNL     1      -8.087   9.681  70.368  1.00  0.00    -0.198 A  
HETATM   39  C   UNL     1      -7.062  10.579  70.052  1.00  0.00    -0.127 A  
ENDBRANCH  28  31
ENDBRANCH   5  28
ENDBRANCH   4   5
TORSDOF 11
ENDMDL
MODEL       45
REMARK 921   NORMALIZED FREE ENERGY PREDICTED BY IDOCK:   -6.47 KCAL/MOL
REMARK 922        TOTAL FREE ENERGY PREDICTED BY IDOCK:  -12.40 KCAL/MOL
REMARK 923 INTER-LIGAND FREE ENERGY PREDICTED BY IDOCK:  -10.24 KCAL/MOL
REMARK 924 INTRA-LIGAND FREE ENERGY PREDICTED BY IDOCK:   -2.16 KCAL/MOL
REMARK 927      BINDING AFFINITY PREDICTED BY RF-SCORE:    0.00 PKD
ROOT
HETATM    1  C   UNL     1     -10.726  15.675  65.606  1.00  0.00    -0.376 C  
HETATM    2  C   UNL     1     -10.046  16.489  66.708  1.00  0.00    -0.290 C  
HETATM    3  C   UNL     1     -10.091  17.975  66.298  1.00  0.00    -0.363 C  
HETATM    4  C   UNL     1     -10.705  16.322  68.091  1.00  0.00    -0.322 C  
ENDROOT
BRANCH   4   5
HETATM    5  N   UNL     1     -10.769  14.913  68.668  1.00  0.00    -0.243 N  
BRANCH   5   6
HETATM    6  C   UNL     1      -9.364  14.284  68.827  1.00  0.00    -0.119 C  
BRANCH   6   7
HETATM    7  C   UNL     1      -8.766  13.571  67.564  1.00  0.00    -0.208 C  
HETATM    8  H   UNL     1      -7.092  13.660  66.560  1.00  0.00     0.000 HD 
HETATM    9  O   UNL     1      -7.454  14.092  67.325  1.00  0.00    -0.157 OA 
BRANCH   7  10
HETATM   10  C   UNL     1      -8.766  12.001  67.672  1.00  0.00    -0.166 C  
BRANCH  10  11
HETATM   11  N   UNL     1      -8.558  11.515  69.052  1.00  0.00    -0.375 N  
HETATM   12  O   UNL     1      -7.478   9.595  68.418  1.00  0.00    -0.079 OA 
HETATM   13  H   UNL     1      -8.889  12.076  69.836  1.00  0.00     0.000 HD 
HETATM   14  C   UNL     1      -7.926  10.320  69.293  1.00  0.00    -0.149 C  
BRANCH  14  15
HETATM   15  O   UNL     1      -7.885  10.031  70.625  1.00  0.00    -0.236 OA 
BRANCH  15  16
HETATM   16  C   UNL     1      -8.475   8.761  70.963  1.00  0.00    -0.179 C  
HETATM   17  C   UNL     1      -8.438   8.497  72.454  1.00  0.00    -0.196 C  
HETATM   18  O   UNL     1     -10.590   7.900  71.703  1.00  0.00    -0.214 OA 
HETATM   19  C   UNL     1      -9.577   7.518  72.639  1.00  0.00    -0.170 C  
HETATM   20  C   UNL     1      -9.972   8.684  70.669  1.00  0.00    -0.192 C  
ENDBRANCH  15  16
ENDBRANCH  14  15
ENDBRANCH  10  11
BRANCH  10  21
HETATM   21  C   UNL     1      -9.925  11.254  66.959  1.00  0.00    -0.226 C  
BRANCH  21  22
HETATM   22  C   UNL     1     -10.662  11.898  65.801  1.00  0.00    -0.327 A  
HETATM   23  C   UNL     1     -10.814  12.377  63.419  1.00  0.00    -0.417 A  
HETATM   24  C   UNL     1     -10.075  11.955  64.529  1.00  0.00    -0.302 A  
HETATM   25  C   UNL     1     -12.145  12.762  63.564  1.00  0.00    -0.642 A  
HETATM   26  C   UNL     1     -12.001  12.305  65.934  1.00  0.00    -0.358 A  
HETATM   27  C   UNL     1     -12.736  12.734  64.823  1.00  0.00    -0.469 A  
ENDBRANCH  21  22
ENDBRANCH  10  21
ENDBRANCH   7  10
ENDBRANCH   6   7
ENDBRANCH   5   6
BRANCH   5  28
HETATM   28  S   UNL     1     -11.631  14.915  70.204  1.00  0.00    -0.307 S  
HETATM   29  O   UNL     1     -10.706  15.227  71.268  1.00  0.00    -0.182 OA 
HETATM   30  O   UNL     1     -12.815  15.728  69.989  1.00  0.00    -0.225 OA 
BRANCH  28  31
HETATM   31  C   UNL     1     -12.161  13.246  70.468  1.00  0.00    -0.340 A  
HETATM   32  N   UNL     1     -13.476   9.297  71.062  1.00  0.00    -0.572 NA 
HETATM   33  H2  UNL     1     -14.487   9.362  71.175  1.00  0.00     0.000 HD 
HETATM   34  H1  UNL     1     -13.276   8.574  70.370  1.00  0.00     0.000 HD 
HETATM   35  C   UNL     1     -12.830  12.906  71.645  1.00  0.00    -0.368 A  
HETATM   36  C   UNL     1     -13.241  11.581  71.847  1.00  0.00    -0.479 A  
HETATM   37  C   UNL     1     -11.960  12.281  69.472  1.00  0.00    -0.333 A  
HETATM   38  C   UNL     1     -12.382  10.964  69.684  1.00  0.00    -0.290 A  
HETATM   39  C   UNL     1     -12.967  10.590  70.898  1.00  0.00    -0.367 A  
ENDBRANCH  28  31
ENDBRANCH   5  28
ENDBRANCH   4   5
TORSDOF 11
ENDMDL
MODEL       46
REMARK 921   NORMALIZED FREE ENERGY PREDICTED BY IDOCK:   -6.46 KCAL/MOL
REMARK 922        TOTAL FREE ENERGY PREDICTED BY IDOCK:  -12.39 KCAL/MOL
REMARK 923 INTER-LIGAND FREE ENERGY PREDICTED BY IDOCK:  -10.37 KCAL/MOL
REMARK 924 INTRA-LIGAND FREE ENERGY PREDICTED BY IDOCK:   -2.02 KCAL/MOL
REMARK 927      BINDING AFFINITY PREDICTED BY RF-SCORE:    0.00 PKD
ROOT
HETATM    1  C   UNL     1      -6.414  10.502  67.645  1.00  0.00    -0.057 C  
HETATM    2  C   UNL     1      -6.932  10.876  66.256  1.00  0.00    -0.120 C  
HETATM    3  C   UNL     1      -6.293   9.914  65.234  1.00  0.00    -0.099 C  
HETATM    4  C   UNL     1      -8.467  10.803  66.133  1.00  0.00    -0.167 C  
ENDROOT
BRANCH   4   5
HETATM    5  N   UNL     1      -9.285  11.680  67.074  1.00  0.00    -0.179 N  
BRANCH   5   6
HETATM    6  C   UNL     1      -9.242  13.172  66.665  1.00  0.00    -0.215 C  
BRANCH   6   7
HETATM    7  C   UNL     1      -8.486  14.146  67.634  1.00  0.00    -0.185 C  
HETATM    8  H   UNL     1      -6.986  15.390  67.488  1.00  0.00     0.000 HD 
HETATM    9  O   UNL     1      -7.444  14.800  66.901  1.00  0.00    -0.014 OA 
BRANCH   7  10
HETATM   10  C   UNL     1      -9.435  15.174  68.354  1.00  0.00    -0.208 C  
BRANCH  10  11
HETATM   11  N   UNL     1     -10.406  14.530  69.262  1.00  0.00    -0.379 N  
HETATM   12  O   UNL     1     -12.126  15.955  68.745  1.00  0.00    -0.297 OA 
HETATM   13  H   UNL     1     -10.119  13.719  69.810  1.00  0.00     0.000 HD 
HETATM   14  C   UNL     1     -11.688  15.006  69.378  1.00  0.00    -0.326 C  
BRANCH  14  15
HETATM   15  O   UNL     1     -12.404  14.307  70.305  1.00  0.00    -0.319 OA 
BRANCH  15  16
HETATM   16  C   UNL     1     -12.039  14.604  71.666  1.00  0.00    -0.335 C  
HETATM   17  C   UNL     1     -11.933  16.095  71.912  1.00  0.00    -0.583 C  
HETATM   18  O   UNL     1     -13.117  15.181  73.732  1.00  0.00    -0.471 OA 
HETATM   19  C   UNL     1     -12.163  16.196  73.404  1.00  0.00    -0.533 C  
HETATM   20  C   UNL     1     -13.099  14.194  72.687  1.00  0.00    -0.472 C  
ENDBRANCH  15  16
ENDBRANCH  14  15
ENDBRANCH  10  11
BRANCH  10  21
HETATM   21  C   UNL     1      -8.755  16.408  69.006  1.00  0.00    -0.233 C  
BRANCH  21  22
HETATM   22  C   UNL     1      -8.951  17.795  68.427  1.00  0.00    -0.281 A  
HETATM   23  C   UNL     1      -8.455  19.432  66.694  1.00  0.00    -0.339 A  
HETATM   24  C   UNL     1      -8.162  18.234  67.354  1.00  0.00    -0.237 A  
HETATM   25  C   UNL     1      -9.530  20.218  67.104  1.00  0.00    -0.557 A  
HETATM   26  C   UNL     1     -10.023  18.606  68.838  1.00  0.00    -0.399 A  
HETATM   27  C   UNL     1     -10.309  19.808  68.182  1.00  0.00    -0.561 A  
ENDBRANCH  21  22
ENDBRANCH  10  21
ENDBRANCH   7  10
ENDBRANCH   6   7
ENDBRANCH   5   6
BRANCH   5  28
HETATM   28  S   UNL     1     -10.946  11.102  67.165  1.00  0.00    -0.282 S  
HETATM   29  O   UNL     1     -11.840  12.234  67.238  1.00  0.00    -0.500 OA 
HETATM   30  O   UNL     1     -11.079  10.120  66.104  1.00  0.00     0.210 OA 
BRANCH  28  31
HETATM   31  C   UNL     1     -11.082  10.251  68.713  1.00  0.00    -0.228 A  
HETATM   32  N   UNL     1     -11.459   8.197  72.361  1.00  0.00    -0.373 NA 
HETATM   33  H2  UNL     1     -12.461   8.058  72.492  1.00  0.00     0.000 HD 
HETATM   34  H1  UNL     1     -10.989   7.303  72.504  1.00  0.00     0.000 HD 
HETATM   35  C   UNL     1     -11.811  10.820  69.758  1.00  0.00    -0.409 A  
HETATM   36  C   UNL     1     -11.910  10.141  70.980  1.00  0.00    -0.475 A  
HETATM   37  C   UNL     1     -10.508   8.982  68.867  1.00  0.00    -0.231 A  
HETATM   38  C   UNL     1     -10.620   8.313  70.090  1.00  0.00    -0.233 A  
HETATM   39  C   UNL     1     -11.265   8.914  71.176  1.00  0.00    -0.284 A  
ENDBRANCH  28  31
ENDBRANCH   5  28
ENDBRANCH   4   5
TORSDOF 11
ENDMDL
MODEL       47
REMARK 921   NORMALIZED FREE ENERGY PREDICTED BY IDOCK:   -6.44 KCAL/MOL
REMARK 922        TOTAL FREE ENERGY PREDICTED BY IDOCK:  -12.36 KCAL/MOL
REMARK 923 INTER-LIGAND FREE ENERGY PREDICTED BY IDOCK:  -10.71 KCAL/MOL
REMARK 924 INTRA-LIGAND FREE ENERGY PREDICTED BY IDOCK:   -1.65 KCAL/MOL
REMARK 927      BINDING AFFINITY PREDICTED BY RF-SCORE:    0.00 PKD
ROOT
HETATM    1  C   UNL     1     -11.795  15.510  72.466  1.00  0.00    -0.572 C  
HETATM    2  C   UNL     1     -12.934  14.651  71.915  1.00  0.00    -0.406 C  
HETATM    3  C   UNL     1     -14.266  15.328  72.292  1.00  0.00    -0.642 C  
HETATM    4  C   UNL     1     -12.875  14.460  70.386  1.00  0.00    -0.245 C  
ENDROOT
BRANCH   4   5
HETATM    5  N   UNL     1     -11.620  13.812  69.812  1.00  0.00    -0.272 N  
BRANCH   5   6
HETATM    6  C   UNL     1     -11.888  12.375  69.302  1.00  0.00    -0.304 C  
BRANCH   6   7
HETATM    7  C   UNL     1     -11.646  11.209  70.324  1.00  0.00    -0.296 C  
HETATM    8  H   UNL     1     -12.761  10.108  71.490  1.00  0.00     0.000 HD 
HETATM    9  O   UNL     1     -12.908  10.814  70.872  1.00  0.00    -0.352 OA 
BRANCH   7  10
HETATM   10  C   UNL     1     -10.862   9.991  69.709  1.00  0.00    -0.273 C  
BRANCH  10  11
HETATM   11  N   UNL     1     -10.656  10.110  68.251  1.00  0.00    -0.211 N  
HETATM   12  O   UNL     1     -10.541   7.849  67.888  1.00  0.00    -0.208 OA 
HETATM   13  H   UNL     1     -10.629  11.035  67.822  1.00  0.00     0.000 HD 
HETATM   14  C   UNL     1     -10.500   8.995  67.466  1.00  0.00    -0.272 C  
BRANCH  14  15
HETATM   15  O   UNL     1     -10.267   9.324  66.162  1.00  0.00    -0.273 OA 
BRANCH  15  16
HETATM   16  C   UNL     1      -8.929   9.030  65.719  1.00  0.00    -0.197 C  
HETATM   17  C   UNL     1      -8.761   9.262  64.231  1.00  0.00    -0.204 C  
HETATM   18  O   UNL     1      -6.878  10.202  65.291  1.00  0.00    -0.125 OA 
HETATM   19  C   UNL     1      -7.272   9.503  64.106  1.00  0.00    -0.115 C  
HETATM   20  C   UNL     1      -7.872   9.965  66.302  1.00  0.00    -0.108 C  
ENDBRANCH  15  16
ENDBRANCH  14  15
ENDBRANCH  10  11
BRANCH  10  21
HETATM   21  C   UNL     1      -9.571   9.550  70.448  1.00  0.00    -0.326 C  
BRANCH  21  22
HETATM   22  C   UNL     1      -9.626   8.510  71.550  1.00  0.00    -0.297 A  
HETATM   23  C   UNL     1     -10.925   7.245  73.174  1.00  0.00    -0.384 A  
HETATM   24  C   UNL     1     -10.803   8.319  72.286  1.00  0.00    -0.408 A  
HETATM   25  C   UNL     1      -9.868   6.354  73.350  1.00  0.00    -0.190 A  
HETATM   26  C   UNL     1      -8.563   7.613  71.751  1.00  0.00    -0.130 A  
HETATM   27  C   UNL     1      -8.684   6.543  72.645  1.00  0.00    -0.125 A  
ENDBRANCH  21  22
ENDBRANCH  10  21
ENDBRANCH   7  10
ENDBRANCH   6   7
ENDBRANCH   5   6
BRANCH   5  28
HETATM   28  S   UNL     1     -10.940  14.813  68.533  1.00  0.00    -0.270 S  
HETATM   29  O   UNL     1     -11.714  16.027  68.418  1.00  0.00    -0.346 OA 
HETATM   30  O   UNL     1      -9.513  14.865  68.792  1.00  0.00    -0.203 OA 
BRANCH  28  31
HETATM   31  C   UNL     1     -11.186  13.913  67.027  1.00  0.00    -0.313 A  
HETATM   32  N   UNL     1     -11.747  11.832  63.418  1.00  0.00    -0.756 NA 
HETATM   33  H2  UNL     1     -12.050  12.534  62.744  1.00  0.00     0.000 HD 
HETATM   34  H1  UNL     1     -10.984  11.297  63.004  1.00  0.00     0.000 HD 
HETATM   35  C   UNL     1     -12.441  13.908  66.416  1.00  0.00    -0.414 A  
HETATM   36  C   UNL     1     -12.626  13.189  65.227  1.00  0.00    -0.531 A  
HETATM   37  C   UNL     1     -10.107  13.256  66.420  1.00  0.00    -0.290 A  
HETATM   38  C   UNL     1     -10.305  12.549  65.230  1.00  0.00    -0.310 A  
HETATM   39  C   UNL     1     -11.578  12.455  64.659  1.00  0.00    -0.343 A  
ENDBRANCH  28  31
ENDBRANCH   5  28
ENDBRANCH   4   5
TORSDOF 11
ENDMDL
MODEL       48
REMARK 921   NORMALIZED FREE ENERGY PREDICTED BY IDOCK:   -6.44 KCAL/MOL
REMARK 922        TOTAL FREE ENERGY PREDICTED BY IDOCK:  -12.36 KCAL/MOL
REMARK 923 INTER-LIGAND FREE ENERGY PREDICTED BY IDOCK:  -10.30 KCAL/MOL
REMARK 924 INTRA-LIGAND FREE ENERGY PREDICTED BY IDOCK:   -2.06 KCAL/MOL
REMARK 927      BINDING AFFINITY PREDICTED BY RF-SCORE:    0.00 PKD
ROOT
HETATM    1  C   UNL     1     -11.686  15.184  71.860  1.00  0.00    -0.490 C  
HETATM    2  C   UNL     1     -12.748  14.292  71.215  1.00  0.00    -0.427 C  
HETATM    3  C   UNL     1     -14.083  15.063  71.215  1.00  0.00    -0.516 C  
HETATM    4  C   UNL     1     -12.403  13.871  69.773  1.00  0.00    -0.275 C  
ENDROOT
BRANCH   4   5
HETATM    5  N   UNL     1     -11.104  13.101  69.562  1.00  0.00    -0.080 N  
BRANCH   5   6
HETATM    6  C   UNL     1     -11.355  11.597  69.295  1.00  0.00    -0.290 C  
BRANCH   6   7
HETATM    7  C   UNL     1     -11.740  10.717  70.535  1.00  0.00    -0.351 C  
HETATM    8  H   UNL     1     -13.398  10.048  71.323  1.00  0.00     0.000 HD 
HETATM    9  O   UNL     1     -13.165  10.581  70.572  1.00  0.00    -0.282 OA 
BRANCH   7  10
HETATM   10  C   UNL     1     -11.013   9.321  70.562  1.00  0.00    -0.265 C  
BRANCH  10  11
HETATM   11  N   UNL     1      -9.724   9.353  71.281  1.00  0.00    -0.221 N  
HETATM   12  O   UNL     1      -8.448   9.031  69.404  1.00  0.00    -0.112 OA 
HETATM   13  H   UNL     1      -9.716   9.499  72.291  1.00  0.00     0.000 HD 
HETATM   14  C   UNL     1      -8.536   9.188  70.612  1.00  0.00    -0.226 C  
BRANCH  14  15
HETATM   15  O   UNL     1      -7.471   9.195  71.465  1.00  0.00    -0.307 OA 
BRANCH  15  16
HETATM   16  C   UNL     1      -7.469   8.100  72.401  1.00  0.00    -0.116 C  
HETATM   17  C   UNL     1      -7.135   6.783  71.731  1.00  0.00    -0.075 C  
HETATM   18  O   UNL     1      -5.891   6.873  73.729  1.00  0.00    -0.057 OA 
HETATM   19  C   UNL     1      -6.595   5.961  72.881  1.00  0.00    -0.065 C  
HETATM   20  C   UNL     1      -6.371   8.201  73.457  1.00  0.00    -0.099 C  
ENDBRANCH  15  16
ENDBRANCH  14  15
ENDBRANCH  10  11
BRANCH  10  21
HETATM   21  C   UNL     1     -11.877   8.096  70.963  1.00  0.00    -0.279 C  
BRANCH  21  22
HETATM   22  C   UNL     1     -11.303   6.694  70.907  1.00  0.00    -0.377 A  
HETATM   23  C   UNL     1     -10.150   4.949  69.661  1.00  0.00    -0.300 A  
HETATM   24  C   UNL     1     -10.847   6.161  69.693  1.00  0.00    -0.424 A  
HETATM   25  C   UNL     1      -9.911   4.242  70.838  1.00  0.00    -0.225 A  
HETATM   26  C   UNL     1     -11.068   5.962  72.084  1.00  0.00    -0.333 A  
HETATM   27  C   UNL     1     -10.378   4.745  72.048  1.00  0.00    -0.247 A  
ENDBRANCH  21  22
ENDBRANCH  10  21
ENDBRANCH   7  10
ENDBRANCH   6   7
ENDBRANCH   5   6
BRANCH   5  28
HETATM   28  S   UNL     1     -10.166  13.822  68.257  1.00  0.00    -0.248 S  
HETATM   29  O   UNL     1     -10.402  15.246  68.232  1.00  0.00    -0.229 OA 
HETATM   30  O   UNL     1      -8.822  13.294  68.402  1.00  0.00    -0.177 OA 
BRANCH  28  31
HETATM   31  C   UNL     1     -10.844  13.171  66.754  1.00  0.00    -0.276 A  
HETATM   32  N   UNL     1     -12.418  11.676  63.154  1.00  0.00    -0.949 NA 
HETATM   33  H2  UNL     1     -12.537  12.489  62.551  1.00  0.00     0.000 HD 
HETATM   34  H1  UNL     1     -11.919  10.957  62.630  1.00  0.00     0.000 HD 
HETATM   35  C   UNL     1     -12.084  13.621  66.299  1.00  0.00    -0.477 A  
HETATM   36  C   UNL     1     -12.614  13.097  65.112  1.00  0.00    -0.525 A  
HETATM   37  C   UNL     1     -10.109  12.251  65.995  1.00  0.00    -0.269 A  
HETATM   38  C   UNL     1     -10.647  11.742  64.808  1.00  0.00    -0.351 A  
HETATM   39  C   UNL     1     -11.930  12.111  64.391  1.00  0.00    -0.361 A  
ENDBRANCH  28  31
ENDBRANCH   5  28
ENDBRANCH   4   5
TORSDOF 11
ENDMDL
MODEL       49
REMARK 921   NORMALIZED FREE ENERGY PREDICTED BY IDOCK:   -6.44 KCAL/MOL
REMARK 922        TOTAL FREE ENERGY PREDICTED BY IDOCK:  -12.36 KCAL/MOL
REMARK 923 INTER-LIGAND FREE ENERGY PREDICTED BY IDOCK:  -10.22 KCAL/MOL
REMARK 924 INTRA-LIGAND FREE ENERGY PREDICTED BY IDOCK:   -2.13 KCAL/MOL
REMARK 927      BINDING AFFINITY PREDICTED BY RF-SCORE:    0.00 PKD
ROOT
HETATM    1  C   UNL     1     -12.783  13.935  65.531  1.00  0.00    -0.536 C  
HETATM    2  C   UNL     1     -12.002  12.877  64.749  1.00  0.00    -0.445 C  
HETATM    3  C   UNL     1     -12.125  13.207  63.248  1.00  0.00    -0.460 C  
HETATM    4  C   UNL     1     -10.512  12.805  65.134  1.00  0.00    -0.300 C  
ENDROOT
BRANCH   4   5
HETATM    5  N   UNL     1     -10.181  12.499  66.591  1.00  0.00    -0.227 N  
BRANCH   5   6
HETATM    6  C   UNL     1      -9.344  11.205  66.738  1.00  0.00    -0.177 C  
BRANCH   6   7
HETATM    7  C   UNL     1     -10.031   9.868  66.288  1.00  0.00    -0.256 C  
HETATM    8  H   UNL     1      -9.806   8.597  64.821  1.00  0.00     0.000 HD 
HETATM    9  O   UNL     1      -9.390   9.406  65.094  1.00  0.00    -0.252 OA 
BRANCH   7  10
HETATM   10  C   UNL     1     -10.051   8.766  67.411  1.00  0.00    -0.226 C  
BRANCH  10  11
HETATM   11  N   UNL     1     -10.482   9.284  68.725  1.00  0.00    -0.211 N  
HETATM   12  O   UNL     1      -8.549   8.696  69.808  1.00  0.00    -0.125 OA 
HETATM   13  H   UNL     1     -11.399   9.722  68.815  1.00  0.00     0.000 HD 
HETATM   14  C   UNL     1      -9.669   9.183  69.827  1.00  0.00    -0.181 C  
BRANCH  14  15
HETATM   15  O   UNL     1     -10.275   9.671  70.947  1.00  0.00    -0.295 OA 
BRANCH  15  16
HETATM   16  C   UNL     1     -11.698   9.447  70.983  1.00  0.00    -0.323 C  
HETATM   17  C   UNL     1     -12.094   8.490  72.088  1.00  0.00    -0.449 C  
HETATM   18  O   UNL     1     -13.621  10.283  72.151  1.00  0.00    -0.345 OA 
HETATM   19  C   UNL     1     -13.537   8.867  72.343  1.00  0.00    -0.447 C  
HETATM   20  C   UNL     1     -12.504  10.693  71.345  1.00  0.00    -0.390 C  
ENDBRANCH  15  16
ENDBRANCH  14  15
ENDBRANCH  10  11
BRANCH  10  21
HETATM   21  C   UNL     1     -10.744   7.423  67.055  1.00  0.00    -0.389 C  
BRANCH  21  22
HETATM   22  C   UNL     1      -9.936   6.150  66.909  1.00  0.00    -0.211 A  
HETATM   23  C   UNL     1      -9.728   3.888  66.032  1.00  0.00    -0.172 A  
HETATM   24  C   UNL     1     -10.511   5.005  66.341  1.00  0.00    -0.349 A  
HETATM   25  C   UNL     1      -8.361   3.891  66.301  1.00  0.00    -0.105 A  
HETATM   26  C   UNL     1      -8.559   6.132  67.189  1.00  0.00    -0.103 A  
HETATM   27  C   UNL     1      -7.778   5.010  66.887  1.00  0.00    -0.092 A  
ENDBRANCH  21  22
ENDBRANCH  10  21
ENDBRANCH   7  10
ENDBRANCH   6   7
ENDBRANCH   5   6
BRANCH   5  28
HETATM   28  S   UNL     1      -9.357  13.866  67.335  1.00  0.00    -0.238 S  
HETATM   29  O   UNL     1      -8.166  13.397  68.004  1.00  0.00    -0.139 OA 
HETATM   30  O   UNL     1      -9.276  14.885  66.304  1.00  0.00    -0.287 OA 
BRANCH  28  31
HETATM   31  C   UNL     1     -10.445  14.461  68.600  1.00  0.00    -0.247 A  
HETATM   32  N   UNL     1     -12.987  15.845  71.649  1.00  0.00    -0.486 NA 
HETATM   33  H2  UNL     1     -12.937  15.141  72.385  1.00  0.00     0.000 HD 
HETATM   34  H1  UNL     1     -12.840  16.762  72.071  1.00  0.00     0.000 HD 
HETATM   35  C   UNL     1     -11.533  13.684  69.004  1.00  0.00    -0.346 A  
HETATM   36  C   UNL     1     -12.391  14.165  70.002  1.00  0.00    -0.403 A  
HETATM   37  C   UNL     1     -10.181  15.682  69.235  1.00  0.00    -0.250 A  
HETATM   38  C   UNL     1     -11.042  16.146  70.235  1.00  0.00    -0.375 A  
HETATM   39  C   UNL     1     -12.188  15.424  70.580  1.00  0.00    -0.385 A  
ENDBRANCH  28  31
ENDBRANCH   5  28
ENDBRANCH   4   5
TORSDOF 11
ENDMDL
MODEL       50
REMARK 921   NORMALIZED FREE ENERGY PREDICTED BY IDOCK:   -6.44 KCAL/MOL
REMARK 922        TOTAL FREE ENERGY PREDICTED BY IDOCK:  -12.36 KCAL/MOL
REMARK 923 INTER-LIGAND FREE ENERGY PREDICTED BY IDOCK:   -9.30 KCAL/MOL
REMARK 924 INTRA-LIGAND FREE ENERGY PREDICTED BY IDOCK:   -3.06 KCAL/MOL
REMARK 927      BINDING AFFINITY PREDICTED BY RF-SCORE:    0.00 PKD
ROOT
HETATM    1  C   UNL     1     -11.518  15.537  71.916  1.00  0.00    -0.506 C  
HETATM    2  C   UNL     1     -12.639  14.505  71.785  1.00  0.00    -0.417 C  
HETATM    3  C   UNL     1     -13.951  15.164  72.255  1.00  0.00    -0.631 C  
HETATM    4  C   UNL     1     -12.821  13.975  70.349  1.00  0.00    -0.170 C  
ENDROOT
BRANCH   4   5
HETATM    5  N   UNL     1     -11.622  13.294  69.699  1.00  0.00    -0.281 N  
BRANCH   5   6
HETATM    6  C   UNL     1     -11.850  11.775  69.504  1.00  0.00    -0.337 C  
BRANCH   6   7
HETATM    7  C   UNL     1     -11.939  10.904  70.806  1.00  0.00    -0.346 C  
HETATM    8  H   UNL     1     -13.293   9.780  71.655  1.00  0.00     0.000 HD 
HETATM    9  O   UNL     1     -13.239  10.307  70.867  1.00  0.00    -0.395 OA 
BRANCH   7  10
HETATM   10  C   UNL     1     -10.792   9.833  70.923  1.00  0.00    -0.328 C  
BRANCH  10  11
HETATM   11  N   UNL     1     -11.297   8.447  70.986  1.00  0.00    -0.262 N  
HETATM   12  O   UNL     1     -10.563   8.072  73.126  1.00  0.00    -0.334 OA 
HETATM   13  H   UNL     1     -11.788   8.055  70.183  1.00  0.00     0.000 HD 
HETATM   14  C   UNL     1     -11.117   7.679  72.110  1.00  0.00    -0.267 C  
BRANCH  14  15
HETATM   15  O   UNL     1     -11.608   6.417  71.943  1.00  0.00    -0.289 OA 
BRANCH  15  16
HETATM   16  C   UNL     1     -10.673   5.506  71.335  1.00  0.00    -0.221 C  
HETATM   17  C   UNL     1     -10.766   5.523  69.823  1.00  0.00    -0.355 C  
HETATM   18  O   UNL     1      -8.475   5.561  70.370  1.00  0.00    -0.117 OA 
HETATM   19  C   UNL     1      -9.395   5.039  69.407  1.00  0.00    -0.124 C  
HETATM   20  C   UNL     1      -9.211   5.887  71.562  1.00  0.00    -0.146 C  
ENDBRANCH  15  16
ENDBRANCH  14  15
ENDBRANCH  10  11
BRANCH  10  21
HETATM   21  C   UNL     1      -9.603   9.978  69.936  1.00  0.00    -0.233 C  
BRANCH  21  22
HETATM   22  C   UNL     1      -9.423   8.998  68.793  1.00  0.00    -0.148 A  
HETATM   23  C   UNL     1     -10.261   8.000  66.737  1.00  0.00    -0.367 A  
HETATM   24  C   UNL     1     -10.471   8.755  67.896  1.00  0.00    -0.275 A  
HETATM   25  C   UNL     1      -9.004   7.463  66.465  1.00  0.00    -0.184 A  
HETATM   26  C   UNL     1      -8.165   8.437  68.514  1.00  0.00    -0.124 A  
HETATM   27  C   UNL     1      -7.958   7.675  67.359  1.00  0.00    -0.119 A  
ENDBRANCH  21  22
ENDBRANCH  10  21
ENDBRANCH   7  10
ENDBRANCH   6   7
ENDBRANCH   5   6
BRANCH   5  28
HETATM   28  S   UNL     1     -11.229  14.069  68.167  1.00  0.00    -0.291 S  
HETATM   29  O   UNL     1     -12.404  14.085  67.327  1.00  0.00    -0.351 OA 
HETATM   30  O   UNL     1     -10.550  15.304  68.516  1.00  0.00    -0.228 OA 
BRANCH  28  31
HETATM   31  C   UNL     1     -10.053  13.010  67.372  1.00  0.00    -0.231 A  
HETATM   32  N   UNL     1      -7.238  10.548  65.451  1.00  0.00    -0.274 NA 
HETATM   33  H2  UNL     1      -7.119  10.948  64.520  1.00  0.00     0.000 HD 
HETATM   34  H1  UNL     1      -6.315  10.401  65.858  1.00  0.00     0.000 HD 
HETATM   35  C   UNL     1     -10.401  12.344  66.195  1.00  0.00    -0.271 A  
HETATM   36  C   UNL     1      -9.466  11.504  65.576  1.00  0.00    -0.234 A  
HETATM   37  C   UNL     1      -8.758  12.886  67.892  1.00  0.00    -0.186 A  
HETATM   38  C   UNL     1      -7.832  12.049  67.259  1.00  0.00    -0.170 A  
HETATM   39  C   UNL     1      -8.198  11.303  66.135  1.00  0.00    -0.088 A  
ENDBRANCH  28  31
ENDBRANCH   5  28
ENDBRANCH   4   5
TORSDOF 11
ENDMDL
MODEL       51
REMARK 921   NORMALIZED FREE ENERGY PREDICTED BY IDOCK:   -6.42 KCAL/MOL
REMARK 922        TOTAL FREE ENERGY PREDICTED BY IDOCK:  -12.32 KCAL/MOL
REMARK 923 INTER-LIGAND FREE ENERGY PREDICTED BY IDOCK:  -10.87 KCAL/MOL
REMARK 924 INTRA-LIGAND FREE ENERGY PREDICTED BY IDOCK:   -1.45 KCAL/MOL
REMARK 927      BINDING AFFINITY PREDICTED BY RF-SCORE:    0.00 PKD
ROOT
HETATM    1  C   UNL     1      -8.862  10.573  69.151  1.00  0.00    -0.161 C  
HETATM    2  C   UNL     1      -8.237  11.835  68.554  1.00  0.00    -0.134 C  
HETATM    3  C   UNL     1      -6.816  11.982  69.134  1.00  0.00    -0.090 C  
HETATM    4  C   UNL     1      -8.158  11.812  67.015  1.00  0.00    -0.169 C  
ENDROOT
BRANCH   4   5
HETATM    5  N   UNL     1      -9.469  11.660  66.252  1.00  0.00    -0.213 N  
BRANCH   5   6
HETATM    6  C   UNL     1      -9.960  13.005  65.663  1.00  0.00    -0.230 C  
BRANCH   6   7
HETATM    7  C   UNL     1     -11.459  13.384  65.931  1.00  0.00    -0.321 C  
HETATM    8  H   UNL     1     -13.005  12.512  66.746  1.00  0.00     0.000 HD 
HETATM    9  O   UNL     1     -12.098  12.282  66.584  1.00  0.00    -0.612 OA 
BRANCH   7  10
HETATM   10  C   UNL     1     -11.631  14.726  66.734  1.00  0.00    -0.324 C  
BRANCH  10  11
HETATM   11  N   UNL     1     -12.458  14.573  67.949  1.00  0.00    -0.510 N  
HETATM   12  O   UNL     1     -10.739  13.802  69.255  1.00  0.00    -0.177 OA 
HETATM   13  H   UNL     1     -13.446  14.821  67.917  1.00  0.00     0.000 HD 
HETATM   14  C   UNL     1     -11.916  14.101  69.119  1.00  0.00    -0.349 C  
BRANCH  14  15
HETATM   15  O   UNL     1     -12.856  13.984  70.100  1.00  0.00    -0.242 OA 
BRANCH  15  16
HETATM   16  C   UNL     1     -12.376  14.338  71.411  1.00  0.00    -0.353 C  
HETATM   17  C   UNL     1     -12.183  15.833  71.559  1.00  0.00    -0.513 C  
HETATM   18  O   UNL     1     -13.266  15.081  73.512  1.00  0.00    -0.502 OA 
HETATM   19  C   UNL     1     -12.294  16.028  73.056  1.00  0.00    -0.520 C  
HETATM   20  C   UNL     1     -13.372  14.038  72.529  1.00  0.00    -0.539 C  
ENDBRANCH  15  16
ENDBRANCH  14  15
ENDBRANCH  10  11
BRANCH  10  21
HETATM   21  C   UNL     1     -10.340  15.545  67.006  1.00  0.00    -0.279 C  
BRANCH  21  22
HETATM   22  C   UNL     1     -10.403  17.047  67.197  1.00  0.00    -0.305 A  
HETATM   23  C   UNL     1     -10.086  18.993  68.625  1.00  0.00    -0.449 A  
HETATM   24  C   UNL     1     -10.214  17.609  68.467  1.00  0.00    -0.386 A  
HETATM   25  C   UNL     1     -10.160  19.838  67.519  1.00  0.00    -0.554 A  
HETATM   26  C   UNL     1     -10.492  17.913  66.094  1.00  0.00    -0.321 A  
HETATM   27  C   UNL     1     -10.372  19.298  66.255  1.00  0.00    -0.566 A  
ENDBRANCH  21  22
ENDBRANCH  10  21
ENDBRANCH   7  10
ENDBRANCH   6   7
ENDBRANCH   5   6
BRANCH   5  28
HETATM   28  S   UNL     1      -9.307  10.445  64.986  1.00  0.00    -0.254 S  
HETATM   29  O   UNL     1     -10.443  10.529  64.099  1.00  0.00    -0.256 OA 
HETATM   30  O   UNL     1      -7.955  10.587  64.477  1.00  0.00    -0.127 OA 
BRANCH  28  31
HETATM   31  C   UNL     1      -9.417   8.876  65.801  1.00  0.00    -0.202 A  
HETATM   32  N   UNL     1      -9.711   5.127  67.681  1.00  0.00    -0.141 NA 
HETATM   33  H2  UNL     1     -10.610   4.746  67.387  1.00  0.00     0.000 HD 
HETATM   34  H1  UNL     1      -8.996   4.415  67.533  1.00  0.00     0.000 HD 
HETATM   35  C   UNL     1     -10.472   8.620  66.679  1.00  0.00    -0.239 A  
HETATM   36  C   UNL     1     -10.548   7.377  67.322  1.00  0.00    -0.393 A  
HETATM   37  C   UNL     1      -8.479   7.873  65.521  1.00  0.00    -0.153 A  
HETATM   38  C   UNL     1      -8.571   6.635  66.165  1.00  0.00    -0.148 A  
HETATM   39  C   UNL     1      -9.566   6.400  67.118  1.00  0.00    -0.134 A  
ENDBRANCH  28  31
ENDBRANCH   5  28
ENDBRANCH   4   5
TORSDOF 11
ENDMDL
MODEL       52
REMARK 921   NORMALIZED FREE ENERGY PREDICTED BY IDOCK:   -6.40 KCAL/MOL
REMARK 922        TOTAL FREE ENERGY PREDICTED BY IDOCK:  -12.29 KCAL/MOL
REMARK 923 INTER-LIGAND FREE ENERGY PREDICTED BY IDOCK:  -11.20 KCAL/MOL
REMARK 924 INTRA-LIGAND FREE ENERGY PREDICTED BY IDOCK:   -1.09 KCAL/MOL
REMARK 927      BINDING AFFINITY PREDICTED BY RF-SCORE:    0.00 PKD
ROOT
HETATM    1  C   UNL     1     -10.130  10.376  65.886  1.00  0.00    -0.326 C  
HETATM    2  C   UNL     1      -9.473  10.146  67.248  1.00  0.00    -0.178 C  
HETATM    3  C   UNL     1      -8.120   9.447  67.012  1.00  0.00    -0.105 C  
HETATM    4  C   UNL     1      -9.243  11.445  68.046  1.00  0.00    -0.171 C  
ENDROOT
BRANCH   4   5
HETATM    5  N   UNL     1     -10.469  12.291  68.372  1.00  0.00    -0.228 N  
BRANCH   5   6
HETATM    6  C   UNL     1     -11.225  12.736  67.096  1.00  0.00    -0.292 C  
BRANCH   6   7
HETATM    7  C   UNL     1     -10.693  14.026  66.378  1.00  0.00    -0.278 C  
HETATM    8  H   UNL     1     -11.461  15.425  65.250  1.00  0.00     0.000 HD 
HETATM    9  O   UNL     1     -11.783  14.644  65.685  1.00  0.00    -0.347 OA 
BRANCH   7  10
HETATM   10  C   UNL     1      -9.968  15.029  67.350  1.00  0.00    -0.226 C  
BRANCH  10  11
HETATM   11  N   UNL     1      -8.651  15.473  66.848  1.00  0.00    -0.234 N  
HETATM   12  O   UNL     1      -7.470  14.588  68.602  1.00  0.00    -0.114 OA 
HETATM   13  H   UNL     1      -8.596  15.982  65.966  1.00  0.00     0.000 HD 
HETATM   14  C   UNL     1      -7.502  15.210  67.551  1.00  0.00    -0.198 C  
BRANCH  14  15
HETATM   15  O   UNL     1      -6.405  15.751  66.946  1.00  0.00    -0.280 OA 
BRANCH  15  16
HETATM   16  C   UNL     1      -5.963  16.987  67.541  1.00  0.00    -0.135 C  
HETATM   17  C   UNL     1      -6.498  18.196  66.801  1.00  0.00    -0.213 C  
HETATM   18  O   UNL     1      -6.771  18.621  69.102  1.00  0.00    -0.270 OA 
HETATM   19  C   UNL     1      -6.461  19.270  67.865  1.00  0.00    -0.233 C  
HETATM   20  C   UNL     1      -6.508  17.216  68.949  1.00  0.00    -0.192 C  
ENDBRANCH  15  16
ENDBRANCH  14  15
ENDBRANCH  10  11
BRANCH  10  21
HETATM   21  C   UNL     1     -10.817  16.212  67.888  1.00  0.00    -0.332 C  
BRANCH  21  22
HETATM   22  C   UNL     1     -10.451  17.643  67.552  1.00  0.00    -0.365 A  
HETATM   23  C   UNL     1     -10.341  19.451  65.925  1.00  0.00    -0.536 A  
HETATM   24  C   UNL     1     -10.496  18.094  66.225  1.00  0.00    -0.374 A  
HETATM   25  C   UNL     1     -10.124  20.377  66.943  1.00  0.00    -0.503 A  
HETATM   26  C   UNL     1     -10.215  18.587  68.566  1.00  0.00    -0.389 A  
HETATM   27  C   UNL     1     -10.053  19.943  68.263  1.00  0.00    -0.571 A  
ENDBRANCH  21  22
ENDBRANCH  10  21
ENDBRANCH   7  10
ENDBRANCH   6   7
ENDBRANCH   5   6
BRANCH   5  28
HETATM   28  S   UNL     1     -11.543  11.422  69.465  1.00  0.00    -0.361 S  
HETATM   29  O   UNL     1     -12.654  10.888  68.714  1.00  0.00    -0.317 OA 
HETATM   30  O   UNL     1     -10.685  10.549  70.245  1.00  0.00    -0.253 OA 
BRANCH  28  31
HETATM   31  C   UNL     1     -12.213  12.643  70.560  1.00  0.00    -0.299 A  
HETATM   32  N   UNL     1     -13.860  15.542  73.120  1.00  0.00    -0.587 NA 
HETATM   33  H2  UNL     1     -14.402  16.160  72.517  1.00  0.00     0.000 HD 
HETATM   34  H1  UNL     1     -14.447  15.266  73.907  1.00  0.00     0.000 HD 
HETATM   35  C   UNL     1     -11.912  13.992  70.366  1.00  0.00    -0.398 A  
HETATM   36  C   UNL     1     -12.444  14.950  71.240  1.00  0.00    -0.396 A  
HETATM   37  C   UNL     1     -13.091  12.260  71.584  1.00  0.00    -0.408 A  
HETATM   38  C   UNL     1     -13.619  13.227  72.444  1.00  0.00    -0.694 A  
HETATM   39  C   UNL     1     -13.249  14.570  72.321  1.00  0.00    -0.389 A  
ENDBRANCH  28  31
ENDBRANCH   5  28
ENDBRANCH   4   5
TORSDOF 11
ENDMDL
MODEL       53
REMARK 921   NORMALIZED FREE ENERGY PREDICTED BY IDOCK:   -6.40 KCAL/MOL
REMARK 922        TOTAL FREE ENERGY PREDICTED BY IDOCK:  -12.28 KCAL/MOL
REMARK 923 INTER-LIGAND FREE ENERGY PREDICTED BY IDOCK:  -10.76 KCAL/MOL
REMARK 924 INTRA-LIGAND FREE ENERGY PREDICTED BY IDOCK:   -1.52 KCAL/MOL
REMARK 927      BINDING AFFINITY PREDICTED BY RF-SCORE:    0.00 PKD
ROOT
HETATM    1  C   UNL     1     -12.652   7.455  71.341  1.00  0.00    -0.405 C  
HETATM    2  C   UNL     1     -12.694   8.967  71.113  1.00  0.00    -0.201 C  
HETATM    3  C   UNL     1     -13.388   9.614  72.328  1.00  0.00    -0.498 C  
HETATM    4  C   UNL     1     -11.300   9.598  70.926  1.00  0.00    -0.360 C  
ENDROOT
BRANCH   4   5
HETATM    5  N   UNL     1     -10.447   9.079  69.774  1.00  0.00    -0.213 N  
BRANCH   5   6
HETATM    6  C   UNL     1     -10.203  10.163  68.696  1.00  0.00    -0.176 C  
BRANCH   6   7
HETATM    7  C   UNL     1      -9.643  11.540  69.197  1.00  0.00     0.176 C  
HETATM    8  H   UNL     1      -7.903  12.428  69.213  1.00  0.00     0.000 HD 
HETATM    9  O   UNL     1      -8.242  11.594  68.909  1.00  0.00    -0.096 OA 
BRANCH   7  10
HETATM   10  C   UNL     1     -10.414  12.780  68.609  1.00  0.00    -0.211 C  
BRANCH  10  11
HETATM   11  N   UNL     1     -10.179  12.977  67.164  1.00  0.00    -0.241 N  
HETATM   12  O   UNL     1     -10.694  15.211  67.188  1.00  0.00    -0.296 OA 
HETATM   13  H   UNL     1      -9.879  12.187  66.592  1.00  0.00     0.000 HD 
HETATM   14  C   UNL     1     -10.359  14.206  66.579  1.00  0.00    -0.284 C  
BRANCH  14  15
HETATM   15  O   UNL     1     -10.145  14.161  65.233  1.00  0.00    -0.354 OA 
BRANCH  15  16
HETATM   16  C   UNL     1     -11.312  13.801  64.470  1.00  0.00    -0.380 C  
HETATM   17  C   UNL     1     -11.096  12.536  63.665  1.00  0.00    -0.523 C  
HETATM   18  O   UNL     1     -13.219  12.357  64.673  1.00  0.00    -0.822 OA 
HETATM   19  C   UNL     1     -12.508  12.027  63.475  1.00  0.00    -0.540 C  
HETATM   20  C   UNL     1     -12.514  13.422  65.333  1.00  0.00    -0.494 C  
ENDBRANCH  15  16
ENDBRANCH  14  15
ENDBRANCH  10  11
BRANCH  10  21
HETATM   21  C   UNL     1     -11.916  12.905  68.980  1.00  0.00    -0.297 C  
BRANCH  21  22
HETATM   22  C   UNL     1     -12.349  13.696  70.198  1.00  0.00    -0.372 A  
HETATM   23  C   UNL     1     -13.237  13.734  72.465  1.00  0.00    -0.599 A  
HETATM   24  C   UNL     1     -13.000  13.058  71.264  1.00  0.00    -0.330 A  
HETATM   25  C   UNL     1     -12.842  15.062  72.615  1.00  0.00    -0.475 A  
HETATM   26  C   UNL     1     -11.971  15.040  70.359  1.00  0.00    -0.372 A  
HETATM   27  C   UNL     1     -12.217  15.717  71.559  1.00  0.00    -0.513 A  
ENDBRANCH  21  22
ENDBRANCH  10  21
ENDBRANCH   7  10
ENDBRANCH   6   7
ENDBRANCH   5   6
BRANCH   5  28
HETATM   28  S   UNL     1      -8.920   8.442  70.377  1.00  0.00    -0.153 S  
HETATM   29  O   UNL     1      -7.996   8.298  69.277  1.00  0.00    -0.110 OA 
HETATM   30  O   UNL     1      -8.581   9.258  71.529  1.00  0.00    -0.320 OA 
BRANCH  28  31
HETATM   31  C   UNL     1      -9.272   6.805  70.958  1.00  0.00    -0.156 A  
HETATM   32  N   UNL     1     -10.171   2.936  72.335  1.00  0.00    -0.158 NA 
HETATM   33  H2  UNL     1     -10.997   3.042  72.923  1.00  0.00     0.000 HD 
HETATM   34  H1  UNL     1     -10.342   2.178  71.674  1.00  0.00     0.000 HD 
HETATM   35  C   UNL     1      -9.283   6.541  72.328  1.00  0.00    -0.138 A  
HETATM   36  C   UNL     1      -9.558   5.242  72.778  1.00  0.00    -0.167 A  
HETATM   37  C   UNL     1      -9.594   5.792  70.045  1.00  0.00    -0.206 A  
HETATM   38  C   UNL     1      -9.872   4.502  70.508  1.00  0.00    -0.297 A  
HETATM   39  C   UNL     1      -9.793   4.201  71.872  1.00  0.00    -0.181 A  
ENDBRANCH  28  31
ENDBRANCH   5  28
ENDBRANCH   4   5
TORSDOF 11
ENDMDL
MODEL       54
REMARK 921   NORMALIZED FREE ENERGY PREDICTED BY IDOCK:   -6.38 KCAL/MOL
REMARK 922        TOTAL FREE ENERGY PREDICTED BY IDOCK:  -12.25 KCAL/MOL
REMARK 923 INTER-LIGAND FREE ENERGY PREDICTED BY IDOCK:  -10.76 KCAL/MOL
REMARK 924 INTRA-LIGAND FREE ENERGY PREDICTED BY IDOCK:   -1.49 KCAL/MOL
REMARK 927      BINDING AFFINITY PREDICTED BY RF-SCORE:    0.00 PKD
ROOT
HETATM    1  C   UNL     1     -10.963   6.949  67.091  1.00  0.00    -0.427 C  
HETATM    2  C   UNL     1      -9.728   7.103  67.979  1.00  0.00    -0.152 C  
HETATM    3  C   UNL     1      -8.966   5.762  67.972  1.00  0.00    -0.111 C  
HETATM    4  C   UNL     1      -8.780   8.229  67.522  1.00  0.00    -0.129 C  
ENDROOT
BRANCH   4   5
HETATM    5  N   UNL     1      -9.355   9.639  67.452  1.00  0.00    -0.133 N  
BRANCH   5   6
HETATM    6  C   UNL     1      -9.343  10.343  68.831  1.00  0.00    -0.186 C  
BRANCH   6   7
HETATM    7  C   UNL     1      -9.366   9.414  70.095  1.00  0.00    -0.241 C  
HETATM    8  H   UNL     1      -8.233   9.149  71.665  1.00  0.00     0.000 HD 
HETATM    9  O   UNL     1      -8.220   9.712  70.899  1.00  0.00    -0.290 OA 
BRANCH   7  10
HETATM   10  C   UNL     1     -10.704   9.509  70.917  1.00  0.00    -0.333 C  
BRANCH  10  11
HETATM   11  N   UNL     1     -11.497  10.714  70.599  1.00  0.00    -0.377 N  
HETATM   12  O   UNL     1     -12.985  10.425  72.318  1.00  0.00    -0.382 OA 
HETATM   13  H   UNL     1     -11.222  11.301  69.811  1.00  0.00     0.000 HD 
HETATM   14  C   UNL     1     -12.597  11.055  71.346  1.00  0.00    -0.393 C  
BRANCH  14  15
HETATM   15  O   UNL     1     -13.217  12.166  70.854  1.00  0.00     0.043 OA 
BRANCH  15  16
HETATM   16  C   UNL     1     -12.602  13.403  71.262  1.00  0.00    -0.322 C  
HETATM   17  C   UNL     1     -12.211  14.260  70.075  1.00  0.00    -0.417 C  
HETATM   18  O   UNL     1     -13.237  15.686  71.645  1.00  0.00    -0.470 OA 
HETATM   19  C   UNL     1     -12.188  15.650  70.672  1.00  0.00    -0.405 C  
HETATM   20  C   UNL     1     -13.545  14.333  72.021  1.00  0.00    -0.430 C  
ENDBRANCH  15  16
ENDBRANCH  14  15
ENDBRANCH  10  11
BRANCH  10  21
HETATM   21  C   UNL     1     -11.581   8.229  70.968  1.00  0.00    -0.301 C  
BRANCH  21  22
HETATM   22  C   UNL     1     -11.173   7.045  71.823  1.00  0.00    -0.278 A  
HETATM   23  C   UNL     1     -10.352   4.759  71.981  1.00  0.00    -0.247 A  
HETATM   24  C   UNL     1     -10.904   5.803  71.232  1.00  0.00    -0.313 A  
HETATM   25  C   UNL     1     -10.072   4.935  73.335  1.00  0.00    -0.199 A  
HETATM   26  C   UNL     1     -10.901   7.202  73.192  1.00  0.00    -0.373 A  
HETATM   27  C   UNL     1     -10.355   6.154  73.942  1.00  0.00    -0.302 A  
ENDBRANCH  21  22
ENDBRANCH  10  21
ENDBRANCH   7  10
ENDBRANCH   6   7
ENDBRANCH   5   6
BRANCH   5  28
HETATM   28  S   UNL     1      -8.491  10.597  66.253  1.00  0.00    -0.161 S  
HETATM   29  O   UNL     1      -7.652  11.560  66.927  1.00  0.00    -0.147 OA 
HETATM   30  O   UNL     1      -7.921   9.639  65.322  1.00  0.00    -0.108 OA 
BRANCH  28  31
HETATM   31  C   UNL     1      -9.728  11.524  65.386  1.00  0.00    -0.233 A  
HETATM   32  N   UNL     1     -12.613  13.754  63.295  1.00  0.00    -0.993 NA 
HETATM   33  H2  UNL     1     -12.177  14.656  63.110  1.00  0.00     0.000 HD 
HETATM   34  H1  UNL     1     -13.008  13.402  62.422  1.00  0.00     0.000 HD 
HETATM   35  C   UNL     1     -10.191  12.729  65.915  1.00  0.00    -0.300 A  
HETATM   36  C   UNL     1     -11.173  13.453  65.225  1.00  0.00    -0.305 A  
HETATM   37  C   UNL     1     -10.197  11.076  64.144  1.00  0.00    -0.419 A  
HETATM   38  C   UNL     1     -11.171  11.812  63.463  1.00  0.00    -0.494 A  
HETATM   39  C   UNL     1     -11.714  12.971  64.027  1.00  0.00    -0.436 A  
ENDBRANCH  28  31
ENDBRANCH   5  28
ENDBRANCH   4   5
TORSDOF 11
ENDMDL
MODEL       55
REMARK 921   NORMALIZED FREE ENERGY PREDICTED BY IDOCK:   -6.38 KCAL/MOL
REMARK 922        TOTAL FREE ENERGY PREDICTED BY IDOCK:  -12.25 KCAL/MOL
REMARK 923 INTER-LIGAND FREE ENERGY PREDICTED BY IDOCK:  -11.04 KCAL/MOL
REMARK 924 INTRA-LIGAND FREE ENERGY PREDICTED BY IDOCK:   -1.21 KCAL/MOL
REMARK 927      BINDING AFFINITY PREDICTED BY RF-SCORE:    0.00 PKD
ROOT
HETATM    1  C   UNL     1     -13.152  13.609  65.352  1.00  0.00    -0.180 C  
HETATM    2  C   UNL     1     -11.813  12.874  65.407  1.00  0.00    -0.444 C  
HETATM    3  C   UNL     1     -11.758  11.896  64.216  1.00  0.00    -0.388 C  
HETATM    4  C   UNL     1     -10.592  13.814  65.350  1.00  0.00    -0.322 C  
ENDROOT
BRANCH   4   5
HETATM    5  N   UNL     1     -10.473  14.868  66.445  1.00  0.00    -0.290 N  
BRANCH   5   6
HETATM    6  C   UNL     1      -9.562  14.402  67.606  1.00  0.00    -0.214 C  
BRANCH   6   7
HETATM    7  C   UNL     1      -9.855  12.981  68.202  1.00  0.00    -0.228 C  
HETATM    8  H   UNL     1      -8.944  11.752  69.419  1.00  0.00     0.000 HD 
HETATM    9  O   UNL     1      -8.767  12.612  69.058  1.00  0.00     0.248 OA 
BRANCH   7  10
HETATM   10  C   UNL     1     -11.242  12.885  68.939  1.00  0.00    -0.279 C  
BRANCH  10  11
HETATM   11  N   UNL     1     -11.203  12.026  70.140  1.00  0.00    -0.430 N  
HETATM   12  O   UNL     1     -12.836  10.595  69.406  1.00  0.00    -0.144 OA 
HETATM   13  H   UNL     1     -10.547  12.243  70.890  1.00  0.00     0.000 HD 
HETATM   14  C   UNL     1     -12.036  10.942  70.262  1.00  0.00    -0.355 C  
BRANCH  14  15
HETATM   15  O   UNL     1     -11.880  10.317  71.465  1.00  0.00    -0.336 OA 
BRANCH  15  16
HETATM   16  C   UNL     1     -11.590   8.911  71.356  1.00  0.00    -0.312 C  
HETATM   17  C   UNL     1     -10.331   8.532  72.110  1.00  0.00    -0.409 C  
HETATM   18  O   UNL     1     -11.952   6.897  72.611  1.00  0.00    -0.112 OA 
HETATM   19  C   UNL     1     -10.549   7.060  72.385  1.00  0.00    -0.223 C  
HETATM   20  C   UNL     1     -12.634   8.017  72.022  1.00  0.00    -0.312 C  
ENDBRANCH  15  16
ENDBRANCH  14  15
ENDBRANCH  10  11
BRANCH  10  21
HETATM   21  C   UNL     1     -11.984  14.223  69.201  1.00  0.00    -0.372 C  
BRANCH  21  22
HETATM   22  C   UNL     1     -12.308  14.664  70.615  1.00  0.00    -0.398 A  
HETATM   23  C   UNL     1     -13.810  14.620  72.531  1.00  0.00    -0.561 A  
HETATM   24  C   UNL     1     -13.563  14.385  71.174  1.00  0.00    -0.338 A  
HETATM   25  C   UNL     1     -12.813  15.151  73.346  1.00  0.00    -0.661 A  
HETATM   26  C   UNL     1     -11.318  15.213  71.446  1.00  0.00    -0.380 A  
HETATM   27  C   UNL     1     -11.569  15.455  72.801  1.00  0.00    -0.464 A  
ENDBRANCH  21  22
ENDBRANCH  10  21
ENDBRANCH   7  10
ENDBRANCH   6   7
ENDBRANCH   5   6
BRANCH   5  28
HETATM   28  S   UNL     1      -9.899  16.391  65.772  1.00  0.00    -0.205 S  
HETATM   29  O   UNL     1      -8.491  16.278  65.472  1.00  0.00     0.032 OA 
HETATM   30  O   UNL     1     -10.852  16.746  64.736  1.00  0.00    -0.745 OA 
BRANCH  28  31
HETATM   31  C   UNL     1     -10.044  17.584  67.073  1.00  0.00    -0.323 A  
HETATM   32  N   UNL     1     -10.454  20.403  70.166  1.00  0.00    -0.461 NA 
HETATM   33  H2  UNL     1     -11.377  20.815  70.036  1.00  0.00     0.000 HD 
HETATM   34  H1  UNL     1     -10.362  20.119  71.141  1.00  0.00     0.000 HD 
HETATM   35  C   UNL     1     -10.252  18.929  66.764  1.00  0.00    -0.451 A  
HETATM   36  C   UNL     1     -10.361  19.867  67.800  1.00  0.00    -0.548 A  
HETATM   37  C   UNL     1     -10.007  17.170  68.411  1.00  0.00    -0.310 A  
HETATM   38  C   UNL     1     -10.124  18.115  69.435  1.00  0.00     0.060 A  
HETATM   39  C   UNL     1     -10.236  19.477  69.139  1.00  0.00    -0.185 A  
ENDBRANCH  28  31
ENDBRANCH   5  28
ENDBRANCH   4   5
TORSDOF 11
ENDMDL
MODEL       56
REMARK 921   NORMALIZED FREE ENERGY PREDICTED BY IDOCK:   -6.35 KCAL/MOL
REMARK 922        TOTAL FREE ENERGY PREDICTED BY IDOCK:  -12.21 KCAL/MOL
REMARK 923 INTER-LIGAND FREE ENERGY PREDICTED BY IDOCK:   -8.83 KCAL/MOL
REMARK 924 INTRA-LIGAND FREE ENERGY PREDICTED BY IDOCK:   -3.38 KCAL/MOL
REMARK 927      BINDING AFFINITY PREDICTED BY RF-SCORE:    0.00 PKD
ROOT
HETATM    1  C   UNL     1     -12.060  10.809  70.425  1.00  0.00    -0.443 C  
HETATM    2  C   UNL     1     -12.036   9.778  71.555  1.00  0.00    -0.493 C  
HETATM    3  C   UNL     1     -13.436   9.750  72.203  1.00  0.00    -0.491 C  
HETATM    4  C   UNL     1     -11.665   8.359  71.084  1.00  0.00    -0.280 C  
ENDROOT
BRANCH   4   5
HETATM    5  N   UNL     1     -10.313   8.181  70.403  1.00  0.00    -0.202 N  
BRANCH   5   6
HETATM    6  C   UNL     1      -9.225   9.095  71.019  1.00  0.00    -0.252 C  
BRANCH   6   7
HETATM    7  C   UNL     1      -8.460  10.042  70.029  1.00  0.00    -0.097 C  
HETATM    8  H   UNL     1      -6.700  10.889  69.972  1.00  0.00     0.000 HD 
HETATM    9  O   UNL     1      -7.163  10.316  70.571  1.00  0.00    -0.297 OA 
BRANCH   7  10
HETATM   10  C   UNL     1      -8.379   9.480  68.562  1.00  0.00    -0.118 C  
BRANCH  10  11
HETATM   11  N   UNL     1      -8.704  10.491  67.535  1.00  0.00    -0.125 N  
HETATM   12  O   UNL     1     -10.907   9.883  67.357  1.00  0.00    -0.280 OA 
HETATM   13  H   UNL     1      -7.976  11.128  67.210  1.00  0.00     0.000 HD 
HETATM   14  C   UNL     1      -9.969  10.586  67.011  1.00  0.00    -0.201 C  
BRANCH  14  15
HETATM   15  O   UNL     1     -10.044  11.543  66.042  1.00  0.00    -0.217 OA 
BRANCH  15  16
HETATM   16  C   UNL     1     -11.360  12.106  65.882  1.00  0.00    -0.356 C  
HETATM   17  C   UNL     1     -11.442  13.519  66.424  1.00  0.00    -0.356 C  
HETATM   18  O   UNL     1     -12.537  13.518  64.338  1.00  0.00    -0.618 OA 
HETATM   19  C   UNL     1     -12.601  14.100  65.644  1.00  0.00    -0.470 C  
HETATM   20  C   UNL     1     -11.767  12.307  64.423  1.00  0.00    -0.365 C  
ENDBRANCH  15  16
ENDBRANCH  14  15
ENDBRANCH  10  11
BRANCH  10  21
HETATM   21  C   UNL     1      -7.109   8.666  68.199  1.00  0.00    -0.082 C  
BRANCH  21  22
HETATM   22  C   UNL     1      -7.167   7.564  67.159  1.00  0.00    -0.086 A  
HETATM   23  C   UNL     1      -7.647   6.857  64.880  1.00  0.00    -0.106 A  
HETATM   24  C   UNL     1      -7.751   7.800  65.907  1.00  0.00    -0.094 A  
HETATM   25  C   UNL     1      -6.972   5.656  65.091  1.00  0.00    -0.063 A  
HETATM   26  C   UNL     1      -6.504   6.342  67.363  1.00  0.00    -0.049 A  
HETATM   27  C   UNL     1      -6.407   5.396  66.336  1.00  0.00    -0.039 A  
ENDBRANCH  21  22
ENDBRANCH  10  21
ENDBRANCH   7  10
ENDBRANCH   6   7
ENDBRANCH   5   6
BRANCH   5  28
HETATM   28  S   UNL     1      -9.814   6.493  70.455  1.00  0.00    -0.175 S  
HETATM   29  O   UNL     1      -8.393   6.424  70.702  1.00  0.00    -0.129 OA 
HETATM   30  O   UNL     1     -10.754   5.833  71.343  1.00  0.00    -0.243 OA 
BRANCH  28  31
HETATM   31  C   UNL     1     -10.074   5.858  68.822  1.00  0.00    -0.172 A  
HETATM   32  N   UNL     1     -10.751   4.326  64.965  1.00  0.00    -0.651 NA 
HETATM   33  H2  UNL     1     -11.284   3.468  65.104  1.00  0.00     0.000 HD 
HETATM   34  H1  UNL     1     -11.226   4.889  64.260  1.00  0.00     0.000 HD 
HETATM   35  C   UNL     1      -9.599   4.589  68.485  1.00  0.00    -0.212 A  
HETATM   36  C   UNL     1      -9.805   4.097  67.189  1.00  0.00    -0.182 A  
HETATM   37  C   UNL     1     -10.806   6.603  67.888  1.00  0.00    -0.353 A  
HETATM   38  C   UNL     1     -11.011   6.097  66.601  1.00  0.00    -0.225 A  
HETATM   39  C   UNL     1     -10.457   4.870  66.221  1.00  0.00    -0.304 A  
ENDBRANCH  28  31
ENDBRANCH   5  28
ENDBRANCH   4   5
TORSDOF 11
ENDMDL
MODEL       57
REMARK 921   NORMALIZED FREE ENERGY PREDICTED BY IDOCK:   -6.34 KCAL/MOL
REMARK 922        TOTAL FREE ENERGY PREDICTED BY IDOCK:  -12.19 KCAL/MOL
REMARK 923 INTER-LIGAND FREE ENERGY PREDICTED BY IDOCK:   -9.74 KCAL/MOL
REMARK 924 INTRA-LIGAND FREE ENERGY PREDICTED BY IDOCK:   -2.45 KCAL/MOL
REMARK 927      BINDING AFFINITY PREDICTED BY RF-SCORE:    0.00 PKD
ROOT
HETATM    1  C   UNL     1     -10.949  10.255  67.041  1.00  0.00    -0.189 C  
HETATM    2  C   UNL     1     -11.004  11.351  68.106  1.00  0.00    -0.284 C  
HETATM    3  C   UNL     1     -11.785  10.801  69.316  1.00  0.00    -0.374 C  
HETATM    4  C   UNL     1      -9.614  11.827  68.570  1.00  0.00    -0.170 C  
ENDROOT
BRANCH   4   5
HETATM    5  N   UNL     1      -8.681  12.398  67.508  1.00  0.00    -0.170 N  
BRANCH   5   6
HETATM    6  C   UNL     1      -8.421  13.910  67.713  1.00  0.00    -0.183 C  
BRANCH   6   7
HETATM    7  C   UNL     1      -9.282  14.629  68.810  1.00  0.00    -0.184 C  
HETATM    8  H   UNL     1      -8.935  15.867  70.282  1.00  0.00     0.000 HD 
HETATM    9  O   UNL     1      -8.413  15.431  69.618  1.00  0.00    -0.247 OA 
BRANCH   7  10
HETATM   10  C   UNL     1     -10.477  15.466  68.219  1.00  0.00    -0.241 C  
BRANCH  10  11
HETATM   11  N   UNL     1     -11.331  14.687  67.300  1.00  0.00    -0.341 N  
HETATM   12  O   UNL     1     -10.768  15.901  65.439  1.00  0.00    -0.376 OA 
HETATM   13  H   UNL     1     -11.877  13.905  67.664  1.00  0.00     0.000 HD 
HETATM   14  C   UNL     1     -11.402  14.999  65.965  1.00  0.00    -0.270 C  
BRANCH  14  15
HETATM   15  O   UNL     1     -12.286  14.196  65.305  1.00  0.00    -0.424 OA 
BRANCH  15  16
HETATM   16  C   UNL     1     -11.734  13.561  64.137  1.00  0.00    -0.411 C  
HETATM   17  C   UNL     1     -10.437  12.840  64.443  1.00  0.00    -0.410 C  
HETATM   18  O   UNL     1     -11.726  11.395  63.102  1.00  0.00    -0.122 OA 
HETATM   19  C   UNL     1     -10.375  11.801  63.346  1.00  0.00    -0.439 C  
HETATM   20  C   UNL     1     -12.599  12.427  63.590  1.00  0.00    -0.443 C  
ENDBRANCH  15  16
ENDBRANCH  14  15
ENDBRANCH  10  11
BRANCH  10  21
HETATM   21  C   UNL     1     -11.311  16.296  69.231  1.00  0.00    -0.288 C  
BRANCH  21  22
HETATM   22  C   UNL     1     -11.989  15.626  70.409  1.00  0.00    -0.405 A  
HETATM   23  C   UNL     1     -13.048  13.659  71.377  1.00  0.00    -0.396 A  
HETATM   24  C   UNL     1     -12.585  14.366  70.262  1.00  0.00    -0.380 A  
HETATM   25  C   UNL     1     -12.937  14.207  72.653  1.00  0.00    -0.505 A  
HETATM   26  C   UNL     1     -11.899  16.172  71.701  1.00  0.00    -0.557 A  
HETATM   27  C   UNL     1     -12.370  15.467  72.814  1.00  0.00    -0.522 A  
ENDBRANCH  21  22
ENDBRANCH  10  21
ENDBRANCH   7  10
ENDBRANCH   6   7
ENDBRANCH   5   6
BRANCH   5  28
HETATM   28  S   UNL     1      -7.166  11.501  67.473  1.00  0.00    -0.120 S  
HETATM   29  O   UNL     1      -6.188  12.248  66.717  1.00  0.00    -0.185 OA 
HETATM   30  O   UNL     1      -6.904  11.118  68.849  1.00  0.00    -0.071 OA 
BRANCH  28  31
HETATM   31  C   UNL     1      -7.495  10.024  66.553  1.00  0.00    -0.105 A  
HETATM   32  N   UNL     1      -8.343   6.529  64.376  1.00  0.00    -0.326 NA 
HETATM   33  H2  UNL     1      -9.196   6.153  64.787  1.00  0.00     0.000 HD 
HETATM   34  H1  UNL     1      -8.463   6.565  63.363  1.00  0.00     0.000 HD 
HETATM   35  C   UNL     1      -7.559   8.794  67.210  1.00  0.00    -0.089 A  
HETATM   36  C   UNL     1      -7.815   7.630  66.473  1.00  0.00    -0.105 A  
HETATM   37  C   UNL     1      -7.748  10.097  65.176  1.00  0.00    -0.141 A  
HETATM   38  C   UNL     1      -8.009   8.928  64.454  1.00  0.00    -0.137 A  
HETATM   39  C   UNL     1      -7.981   7.680  65.084  1.00  0.00    -0.130 A  
ENDBRANCH  28  31
ENDBRANCH   5  28
ENDBRANCH   4   5
TORSDOF 11
ENDMDL
MODEL       58
REMARK 921   NORMALIZED FREE ENERGY PREDICTED BY IDOCK:   -6.34 KCAL/MOL
REMARK 922        TOTAL FREE ENERGY PREDICTED BY IDOCK:  -12.18 KCAL/MOL
REMARK 923 INTER-LIGAND FREE ENERGY PREDICTED BY IDOCK:  -10.36 KCAL/MOL
REMARK 924 INTRA-LIGAND FREE ENERGY PREDICTED BY IDOCK:   -1.82 KCAL/MOL
REMARK 927      BINDING AFFINITY PREDICTED BY RF-SCORE:    0.00 PKD
ROOT
HETATM    1  C   UNL     1      -6.961  17.011  66.745  1.00  0.00    -0.268 C  
HETATM    2  C   UNL     1      -7.140  16.429  68.148  1.00  0.00    -0.145 C  
HETATM    3  C   UNL     1      -6.690  17.496  69.166  1.00  0.00    -0.243 C  
HETATM    4  C   UNL     1      -8.590  16.009  68.458  1.00  0.00    -0.190 C  
ENDROOT
BRANCH   4   5
HETATM    5  N   UNL     1      -9.223  14.963  67.548  1.00  0.00    -0.189 N  
BRANCH   5   6
HETATM    6  C   UNL     1      -9.445  13.615  68.276  1.00  0.00    -0.213 C  
BRANCH   6   7
HETATM    7  C   UNL     1      -8.815  12.342  67.609  1.00  0.00    -0.177 C  
HETATM    8  H   UNL     1      -7.043  11.822  66.971  1.00  0.00     0.000 HD 
HETATM    9  O   UNL     1      -7.424  12.592  67.375  1.00  0.00    -0.143 OA 
BRANCH   7  10
HETATM   10  C   UNL     1      -9.046  11.023  68.435  1.00  0.00    -0.161 C  
BRANCH  10  11
HETATM   11  N   UNL     1     -10.270  11.062  69.260  1.00  0.00    -0.384 N  
HETATM   12  O   UNL     1     -11.703  10.789  67.492  1.00  0.00    -0.510 OA 
HETATM   13  H   UNL     1     -10.190  11.175  70.271  1.00  0.00     0.000 HD 
HETATM   14  C   UNL     1     -11.513  10.950  68.688  1.00  0.00    -0.311 C  
BRANCH  14  15
HETATM   15  O   UNL     1     -12.508  11.066  69.615  1.00  0.00    -0.291 OA 
BRANCH  15  16
HETATM   16  C   UNL     1     -12.196  11.970  70.692  1.00  0.00    -0.316 C  
HETATM   17  C   UNL     1     -12.353  13.419  70.278  1.00  0.00    -0.354 C  
HETATM   18  O   UNL     1     -13.352  13.197  72.401  1.00  0.00    -0.533 OA 
HETATM   19  C   UNL     1     -12.593  14.111  71.602  1.00  0.00    -0.337 C  
HETATM   20  C   UNL     1     -13.163  11.875  71.870  1.00  0.00    -0.362 C  
ENDBRANCH  15  16
ENDBRANCH  14  15
ENDBRANCH  10  11
BRANCH  10  21
HETATM   21  C   UNL     1      -8.906   9.685  67.661  1.00  0.00    -0.127 C  
BRANCH  21  22
HETATM   22  C   UNL     1      -8.508   9.675  66.198  1.00  0.00    -0.126 A  
HETATM   23  C   UNL     1      -6.854   9.189  64.479  1.00  0.00    -0.086 A  
HETATM   24  C   UNL     1      -7.190   9.382  65.823  1.00  0.00    -0.095 A  
HETATM   25  C   UNL     1      -7.827   9.301  63.487  1.00  0.00    -0.129 A  
HETATM   26  C   UNL     1      -9.474   9.800  65.186  1.00  0.00    -0.338 A  
HETATM   27  C   UNL     1      -9.136   9.615  63.841  1.00  0.00    -0.229 A  
ENDBRANCH  21  22
ENDBRANCH  10  21
ENDBRANCH   7  10
ENDBRANCH   6   7
ENDBRANCH   5   6
BRANCH   5  28
HETATM   28  S   UNL     1     -10.733  15.567  66.873  1.00  0.00    -0.303 S  
HETATM   29  O   UNL     1     -11.731  15.622  67.916  1.00  0.00    -0.262 OA 
HETATM   30  O   UNL     1     -10.379  16.757  66.121  1.00  0.00    -0.328 OA 
BRANCH  28  31
HETATM   31  C   UNL     1     -11.277  14.338  65.719  1.00  0.00    -0.317 A  
HETATM   32  N   UNL     1     -12.585  11.470  62.936  1.00  0.00    -0.874 NA 
HETATM   33  H2  UNL     1     -13.363  11.906  62.443  1.00  0.00     0.000 HD 
HETATM   34  H1  UNL     1     -11.940  11.088  62.245  1.00  0.00     0.000 HD 
HETATM   35  C   UNL     1     -12.589  13.864  65.774  1.00  0.00    -0.533 A  
HETATM   36  C   UNL     1     -13.009  12.888  64.860  1.00  0.00    -0.214 A  
HETATM   37  C   UNL     1     -10.410  13.885  64.716  1.00  0.00    -0.419 A  
HETATM   38  C   UNL     1     -10.844  12.916  63.806  1.00  0.00    -0.351 A  
HETATM   39  C   UNL     1     -12.124  12.363  63.910  1.00  0.00    -0.499 A  
ENDBRANCH  28  31
ENDBRANCH   5  28
ENDBRANCH   4   5
TORSDOF 11
ENDMDL
MODEL       59
REMARK 921   NORMALIZED FREE ENERGY PREDICTED BY IDOCK:   -6.32 KCAL/MOL
REMARK 922        TOTAL FREE ENERGY PREDICTED BY IDOCK:  -12.16 KCAL/MOL
REMARK 923 INTER-LIGAND FREE ENERGY PREDICTED BY IDOCK:  -11.11 KCAL/MOL
REMARK 924 INTRA-LIGAND FREE ENERGY PREDICTED BY IDOCK:   -1.05 KCAL/MOL
REMARK 927      BINDING AFFINITY PREDICTED BY RF-SCORE:    0.00 PKD
ROOT
HETATM    1  C   UNL     1      -7.095  16.997  66.530  1.00  0.00    -0.307 C  
HETATM    2  C   UNL     1      -7.099  16.372  67.926  1.00  0.00    -0.149 C  
HETATM    3  C   UNL     1      -6.591  17.431  68.924  1.00  0.00    -0.218 C  
HETATM    4  C   UNL     1      -8.489  15.876  68.373  1.00  0.00    -0.176 C  
ENDROOT
BRANCH   4   5
HETATM    5  N   UNL     1      -9.168  14.826  67.502  1.00  0.00    -0.193 N  
BRANCH   5   6
HETATM    6  C   UNL     1      -9.464  13.523  68.284  1.00  0.00    -0.212 C  
BRANCH   6   7
HETATM    7  C   UNL     1      -8.936  12.188  67.651  1.00  0.00    -0.178 C  
HETATM    8  H   UNL     1      -7.278  11.593  66.804  1.00  0.00     0.000 HD 
HETATM    9  O   UNL     1      -7.598  12.401  67.187  1.00  0.00    -0.152 OA 
BRANCH   7  10
HETATM   10  C   UNL     1      -9.034  10.953  68.621  1.00  0.00    -0.162 C  
BRANCH  10  11
HETATM   11  N   UNL     1     -10.278  10.938  69.417  1.00  0.00    -0.400 N  
HETATM   12  O   UNL     1     -11.670  11.000  67.597  1.00  0.00    -0.576 OA 
HETATM   13  H   UNL     1     -10.222  10.899  70.435  1.00  0.00     0.000 HD 
HETATM   14  C   UNL     1     -11.508  10.976  68.807  1.00  0.00    -0.305 C  
BRANCH  14  15
HETATM   15  O   UNL     1     -12.522  11.009  69.719  1.00  0.00    -0.293 OA 
BRANCH  15  16
HETATM   16  C   UNL     1     -12.290  11.916  70.813  1.00  0.00    -0.320 C  
HETATM   17  C   UNL     1     -12.547  13.357  70.420  1.00  0.00    -0.237 C  
HETATM   18  O   UNL     1     -13.553  13.029  72.525  1.00  0.00    -0.572 OA 
HETATM   19  C   UNL     1     -12.852  14.008  71.751  1.00  0.00    -0.340 C  
HETATM   20  C   UNL     1     -13.263  11.733  71.977  1.00  0.00    -0.355 C  
ENDBRANCH  15  16
ENDBRANCH  14  15
ENDBRANCH  10  11
BRANCH  10  21
HETATM   21  C   UNL     1      -8.712   9.563  68.012  1.00  0.00    -0.120 C  
BRANCH  21  22
HETATM   22  C   UNL     1      -9.582   8.361  68.325  1.00  0.00    -0.156 A  
HETATM   23  C   UNL     1     -11.009   6.548  67.549  1.00  0.00    -0.444 A  
HETATM   24  C   UNL     1     -10.351   7.760  67.318  1.00  0.00    -0.371 A  
HETATM   25  C   UNL     1     -10.923   5.925  68.792  1.00  0.00    -0.311 A  
HETATM   26  C   UNL     1      -9.518   7.729  69.578  1.00  0.00    -0.160 A  
HETATM   27  C   UNL     1     -10.184   6.521  69.809  1.00  0.00    -0.221 A  
ENDBRANCH  21  22
ENDBRANCH  10  21
ENDBRANCH   7  10
ENDBRANCH   6   7
ENDBRANCH   5   6
BRANCH   5  28
HETATM   28  S   UNL     1     -10.642  15.477  66.790  1.00  0.00    -0.306 S  
HETATM   29  O   UNL     1     -11.661  15.572  67.809  1.00  0.00    -0.302 OA 
HETATM   30  O   UNL     1     -10.231  16.650  66.040  1.00  0.00    -0.328 OA 
BRANCH  28  31
HETATM   31  C   UNL     1     -11.201  14.260  65.630  1.00  0.00    -0.314 A  
HETATM   32  N   UNL     1     -12.541  11.423  62.832  1.00  0.00    -0.847 NA 
HETATM   33  H2  UNL     1     -13.289  11.884  62.314  1.00  0.00     0.000 HD 
HETATM   34  H1  UNL     1     -11.893  11.011  62.161  1.00  0.00     0.000 HD 
HETATM   35  C   UNL     1     -12.531  13.837  65.652  1.00  0.00    -0.541 A  
HETATM   36  C   UNL     1     -12.963  12.871  64.733  1.00  0.00    -0.224 A  
HETATM   37  C   UNL     1     -10.324  13.767  64.654  1.00  0.00    -0.393 A  
HETATM   38  C   UNL     1     -10.771  12.809  63.739  1.00  0.00    -0.397 A  
HETATM   39  C   UNL     1     -12.073  12.305  63.812  1.00  0.00    -0.532 A  
ENDBRANCH  28  31
ENDBRANCH   5  28
ENDBRANCH   4   5
TORSDOF 11
ENDMDL
MODEL       60
REMARK 921   NORMALIZED FREE ENERGY PREDICTED BY IDOCK:   -6.31 KCAL/MOL
REMARK 922        TOTAL FREE ENERGY PREDICTED BY IDOCK:  -12.14 KCAL/MOL
REMARK 923 INTER-LIGAND FREE ENERGY PREDICTED BY IDOCK:  -10.38 KCAL/MOL
REMARK 924 INTRA-LIGAND FREE ENERGY PREDICTED BY IDOCK:   -1.76 KCAL/MOL
REMARK 927      BINDING AFFINITY PREDICTED BY RF-SCORE:    0.00 PKD
ROOT
HETATM    1  C   UNL     1      -8.230   8.401  71.789  1.00  0.00    -0.200 C  
HETATM    2  C   UNL     1      -8.797   7.304  72.691  1.00  0.00    -0.152 C  
HETATM    3  C   UNL     1      -7.746   6.989  73.775  1.00  0.00    -0.117 C  
HETATM    4  C   UNL     1     -10.126   7.691  73.368  1.00  0.00    -0.319 C  
ENDROOT
BRANCH   4   5
HETATM    5  N   UNL     1     -11.294   8.052  72.457  1.00  0.00    -0.382 N  
BRANCH   5   6
HETATM    6  C   UNL     1     -10.861   8.978  71.294  1.00  0.00    -0.315 C  
BRANCH   6   7
HETATM    7  C   UNL     1     -11.957   9.941  70.716  1.00  0.00    -0.323 C  
HETATM    8  H   UNL     1     -13.337  11.107  71.461  1.00  0.00     0.000 HD 
HETATM    9  O   UNL     1     -12.673  10.524  71.810  1.00  0.00    -0.420 OA 
BRANCH   7  10
HETATM   10  C   UNL     1     -11.379  11.033  69.742  1.00  0.00    -0.292 C  
BRANCH  10  11
HETATM   11  N   UNL     1     -11.651  12.413  70.191  1.00  0.00    -0.539 N  
HETATM   12  O   UNL     1     -12.071  13.221  68.087  1.00  0.00    -0.330 OA 
HETATM   13  H   UNL     1     -11.602  12.636  71.185  1.00  0.00     0.000 HD 
HETATM   14  C   UNL     1     -11.968  13.401  69.291  1.00  0.00    -0.317 C  
BRANCH  14  15
HETATM   15  O   UNL     1     -12.126  14.610  69.903  1.00  0.00    -0.302 OA 
BRANCH  15  16
HETATM   16  C   UNL     1     -12.569  14.515  71.270  1.00  0.00    -0.345 C  
HETATM   17  C   UNL     1     -11.760  15.406  72.191  1.00  0.00    -0.551 C  
HETATM   18  O   UNL     1     -14.025  15.690  72.774  1.00  0.00    -0.558 OA 
HETATM   19  C   UNL     1     -12.713  15.633  73.344  1.00  0.00    -0.542 C  
HETATM   20  C   UNL     1     -13.986  15.041  71.492  1.00  0.00    -0.501 C  
ENDBRANCH  15  16
ENDBRANCH  14  15
ENDBRANCH  10  11
BRANCH  10  21
HETATM   21  C   UNL     1      -9.908  10.847  69.282  1.00  0.00    -0.113 C  
BRANCH  21  22
HETATM   22  C   UNL     1      -9.573   9.958  68.101  1.00  0.00    -0.153 A  
HETATM   23  C   UNL     1      -9.905   9.365  65.763  1.00  0.00    -0.345 A  
HETATM   24  C   UNL     1     -10.317  10.043  66.916  1.00  0.00    -0.297 A  
HETATM   25  C   UNL     1      -8.754   8.580  65.781  1.00  0.00    -0.210 A  
HETATM   26  C   UNL     1      -8.424   9.149  68.108  1.00  0.00    -0.125 A  
HETATM   27  C   UNL     1      -8.018   8.466  66.956  1.00  0.00    -0.100 A  
ENDBRANCH  21  22
ENDBRANCH  10  21
ENDBRANCH   7  10
ENDBRANCH   6   7
ENDBRANCH   5   6
BRANCH   5  28
HETATM   28  S   UNL     1     -12.068   6.594  71.842  1.00  0.00    -0.319 S  
HETATM   29  O   UNL     1     -11.872   5.518  72.784  1.00  0.00    -0.271 OA 
HETATM   30  O   UNL     1     -13.404   6.998  71.444  1.00  0.00    -0.354 OA 
BRANCH  28  31
HETATM   31  C   UNL     1     -11.177   6.151  70.376  1.00  0.00    -0.353 A  
HETATM   32  N   UNL     1      -9.106   5.047  66.888  1.00  0.00    -0.116 NA 
HETATM   33  H2  UNL     1      -9.193   4.033  66.830  1.00  0.00     0.000 HD 
HETATM   34  H1  UNL     1      -9.364   5.445  65.985  1.00  0.00     0.000 HD 
HETATM   35  C   UNL     1     -10.092   5.276  70.460  1.00  0.00    -0.315 A  
HETATM   36  C   UNL     1      -9.390   4.934  69.296  1.00  0.00    -0.185 A  
HETATM   37  C   UNL     1     -11.596   6.631  69.128  1.00  0.00    -0.079 A  
HETATM   38  C   UNL     1     -10.890   6.277  67.974  1.00  0.00    -0.409 A  
HETATM   39  C   UNL     1      -9.745   5.479  68.056  1.00  0.00    -0.131 A  
ENDBRANCH  28  31
ENDBRANCH   5  28
ENDBRANCH   4   5
TORSDOF 11
ENDMDL
MODEL       61
REMARK 921   NORMALIZED FREE ENERGY PREDICTED BY IDOCK:   -6.30 KCAL/MOL
REMARK 922        TOTAL FREE ENERGY PREDICTED BY IDOCK:  -12.13 KCAL/MOL
REMARK 923 INTER-LIGAND FREE ENERGY PREDICTED BY IDOCK:  -10.26 KCAL/MOL
REMARK 924 INTRA-LIGAND FREE ENERGY PREDICTED BY IDOCK:   -1.87 KCAL/MOL
REMARK 927      BINDING AFFINITY PREDICTED BY RF-SCORE:    0.00 PKD
ROOT
HETATM    1  C   UNL     1     -10.403  15.464  64.894  1.00  0.00    -0.256 C  
HETATM    2  C   UNL     1      -9.327  15.549  65.978  1.00  0.00    -0.379 C  
HETATM    3  C   UNL     1      -8.990  17.037  66.199  1.00  0.00    -0.243 C  
HETATM    4  C   UNL     1      -9.754  14.919  67.318  1.00  0.00    -0.228 C  
ENDROOT
BRANCH   4   5
HETATM    5  N   UNL     1     -10.141  13.444  67.304  1.00  0.00    -0.236 N  
BRANCH   5   6
HETATM    6  C   UNL     1      -9.317  12.616  68.319  1.00  0.00    -0.195 C  
BRANCH   6   7
HETATM    7  C   UNL     1      -8.611  11.328  67.768  1.00  0.00    -0.126 C  
HETATM    8  H   UNL     1      -6.818  10.557  67.866  1.00  0.00     0.000 HD 
HETATM    9  O   UNL     1      -7.246  11.337  68.201  1.00  0.00    -0.075 OA 
BRANCH   7  10
HETATM   10  C   UNL     1      -9.345   9.993  68.161  1.00  0.00    -0.131 C  
BRANCH  10  11
HETATM   11  N   UNL     1     -10.241  10.146  69.326  1.00  0.00    -0.208 N  
HETATM   12  O   UNL     1      -9.060   8.708  70.665  1.00  0.00    -0.148 OA 
HETATM   13  H   UNL     1     -11.044  10.771  69.263  1.00  0.00     0.000 HD 
HETATM   14  C   UNL     1     -10.008   9.459  70.492  1.00  0.00    -0.267 C  
BRANCH  14  15
HETATM   15  O   UNL     1     -10.979   9.697  71.420  1.00  0.00    -0.360 OA 
BRANCH  15  16
HETATM   16  C   UNL     1     -12.270   9.172  71.059  1.00  0.00    -0.242 C  
HETATM   17  C   UNL     1     -12.377   7.687  71.340  1.00  0.00    -0.358 C  
HETATM   18  O   UNL     1     -14.370   8.679  72.113  1.00  0.00    -0.446 OA 
HETATM   19  C   UNL     1     -13.870   7.492  71.490  1.00  0.00    -0.387 C  
HETATM   20  C   UNL     1     -13.415   9.733  71.900  1.00  0.00    -0.395 C  
ENDBRANCH  15  16
ENDBRANCH  14  15
ENDBRANCH  10  11
BRANCH  10  21
HETATM   21  C   UNL     1     -10.017   9.203  67.007  1.00  0.00    -0.294 C  
BRANCH  21  22
HETATM   22  C   UNL     1      -9.752   7.722  66.826  1.00  0.00    -0.296 A  
HETATM   23  C   UNL     1     -10.578   5.432  66.809  1.00  0.00    -0.339 A  
HETATM   24  C   UNL     1     -10.741   6.780  67.143  1.00  0.00    -0.441 A  
HETATM   25  C   UNL     1      -9.419   5.000  66.168  1.00  0.00    -0.166 A  
HETATM   26  C   UNL     1      -8.582   7.269  66.195  1.00  0.00    -0.156 A  
HETATM   27  C   UNL     1      -8.417   5.918  65.869  1.00  0.00    -0.141 A  
ENDBRANCH  21  22
ENDBRANCH  10  21
ENDBRANCH   7  10
ENDBRANCH   6   7
ENDBRANCH   5   6
BRANCH   5  28
HETATM   28  S   UNL     1     -11.868  13.258  67.598  1.00  0.00    -0.333 S  
HETATM   29  O   UNL     1     -12.599  14.126  66.705  1.00  0.00    -0.349 OA 
HETATM   30  O   UNL     1     -12.112  11.827  67.608  1.00  0.00    -0.598 OA 
BRANCH  28  31
HETATM   31  C   UNL     1     -12.151  13.868  69.237  1.00  0.00    -0.339 A  
HETATM   32  N   UNL     1     -12.888  15.321  73.113  1.00  0.00    -0.447 NA 
HETATM   33  H2  UNL     1     -13.655  15.985  73.012  1.00  0.00     0.000 HD 
HETATM   34  H1  UNL     1     -13.116  14.679  73.872  1.00  0.00     0.000 HD 
HETATM   35  C   UNL     1     -12.030  15.233  69.502  1.00  0.00    -0.356 A  
HETATM   36  C   UNL     1     -12.251  15.706  70.803  1.00  0.00    -0.463 A  
HETATM   37  C   UNL     1     -12.552  12.989  70.253  1.00  0.00    -0.108 A  
HETATM   38  C   UNL     1     -12.776  13.476  71.544  1.00  0.00    -0.412 A  
HETATM   39  C   UNL     1     -12.565  14.825  71.845  1.00  0.00    -0.334 A  
ENDBRANCH  28  31
ENDBRANCH   5  28
ENDBRANCH   4   5
TORSDOF 11
ENDMDL
MODEL       62
REMARK 921   NORMALIZED FREE ENERGY PREDICTED BY IDOCK:   -6.29 KCAL/MOL
REMARK 922        TOTAL FREE ENERGY PREDICTED BY IDOCK:  -12.11 KCAL/MOL
REMARK 923 INTER-LIGAND FREE ENERGY PREDICTED BY IDOCK:   -9.74 KCAL/MOL
REMARK 924 INTRA-LIGAND FREE ENERGY PREDICTED BY IDOCK:   -2.37 KCAL/MOL
REMARK 927      BINDING AFFINITY PREDICTED BY RF-SCORE:    0.00 PKD
ROOT
HETATM    1  C   UNL     1     -12.529   7.023  71.228  1.00  0.00    -0.430 C  
HETATM    2  C   UNL     1     -12.400   8.542  71.354  1.00  0.00    -0.332 C  
HETATM    3  C   UNL     1     -13.504   9.036  72.311  1.00  0.00    -0.529 C  
HETATM    4  C   UNL     1     -11.026   9.000  71.882  1.00  0.00    -0.353 C  
ENDROOT
BRANCH   4   5
HETATM    5  N   UNL     1      -9.798   8.597  71.073  1.00  0.00    -0.194 N  
BRANCH   5   6
HETATM    6  C   UNL     1      -9.139   9.809  70.372  1.00  0.00    -0.097 C  
BRANCH   6   7
HETATM    7  C   UNL     1      -9.116   9.788  68.804  1.00  0.00    -0.136 C  
HETATM    8  H   UNL     1      -9.140   8.412  67.416  1.00  0.00     0.000 HD 
HETATM    9  O   UNL     1      -9.153   8.425  68.366  1.00  0.00    -0.136 OA 
BRANCH   7  10
HETATM   10  C   UNL     1     -10.260  10.648  68.149  1.00  0.00    -0.168 C  
BRANCH  10  11
HETATM   11  N   UNL     1     -10.648  11.815  68.967  1.00  0.00    -0.357 N  
HETATM   12  O   UNL     1     -12.768  11.054  69.394  1.00  0.00    -0.279 OA 
HETATM   13  H   UNL     1      -9.972  12.562  69.128  1.00  0.00     0.000 HD 
HETATM   14  C   UNL     1     -11.904  11.909  69.514  1.00  0.00    -0.331 C  
BRANCH  14  15
HETATM   15  O   UNL     1     -12.076  13.084  70.185  1.00  0.00    -0.336 OA 
BRANCH  15  16
HETATM   16  C   UNL     1     -11.283  14.170  69.667  1.00  0.00    -0.191 C  
HETATM   17  C   UNL     1     -11.999  14.918  68.561  1.00  0.00    -0.275 C  
HETATM   18  O   UNL     1     -11.051  16.538  69.985  1.00  0.00    -0.345 OA 
HETATM   19  C   UNL     1     -11.337  16.277  68.607  1.00  0.00    -0.333 C  
HETATM   20  C   UNL     1     -11.031  15.282  70.683  1.00  0.00    -0.284 C  
ENDBRANCH  15  16
ENDBRANCH  14  15
ENDBRANCH  10  11
BRANCH  10  21
HETATM   21  C   UNL     1     -10.082  11.017  66.652  1.00  0.00    -0.262 C  
BRANCH  21  22
HETATM   22  C   UNL     1     -10.680  12.293  66.094  1.00  0.00    -0.296 A  
HETATM   23  C   UNL     1     -10.377  14.562  65.264  1.00  0.00    -0.435 A  
HETATM   24  C   UNL     1      -9.890  13.441  65.945  1.00  0.00    -0.251 A  
HETATM   25  C   UNL     1     -11.666  14.558  64.734  1.00  0.00    -0.425 A  
HETATM   26  C   UNL     1     -11.983  12.311  65.568  1.00  0.00    -0.387 A  
HETATM   27  C   UNL     1     -12.472  13.435  64.894  1.00  0.00    -0.447 A  
ENDBRANCH  21  22
ENDBRANCH  10  21
ENDBRANCH   7  10
ENDBRANCH   6   7
ENDBRANCH   5   6
BRANCH   5  28
HETATM   28  S   UNL     1      -8.637   7.757  72.097  1.00  0.00    -0.140 S  
HETATM   29  O   UNL     1      -7.485   7.390  71.306  1.00  0.00    -0.078 OA 
HETATM   30  O   UNL     1      -8.490   8.581  73.283  1.00  0.00    -0.372 OA 
BRANCH  28  31
HETATM   31  C   UNL     1      -9.419   6.244  72.581  1.00  0.00    -0.148 A  
HETATM   32  N   UNL     1     -11.333   2.672  73.702  1.00  0.00    -0.225 NA 
HETATM   33  H2  UNL     1     -12.304   2.929  73.879  1.00  0.00     0.000 HD 
HETATM   34  H1  UNL     1     -11.322   1.862  73.083  1.00  0.00     0.000 HD 
HETATM   35  C   UNL     1     -10.028   6.145  73.833  1.00  0.00    -0.235 A  
HETATM   36  C   UNL     1     -10.641   4.942  74.210  1.00  0.00    -0.321 A  
HETATM   37  C   UNL     1      -9.477   5.166  71.687  1.00  0.00    -0.193 A  
HETATM   38  C   UNL     1     -10.097   3.974  72.073  1.00  0.00    -0.227 A  
HETATM   39  C   UNL     1     -10.627   3.830  73.360  1.00  0.00    -0.193 A  
ENDBRANCH  28  31
ENDBRANCH   5  28
ENDBRANCH   4   5
TORSDOF 11
ENDMDL
MODEL       63
REMARK 921   NORMALIZED FREE ENERGY PREDICTED BY IDOCK:   -6.29 KCAL/MOL
REMARK 922        TOTAL FREE ENERGY PREDICTED BY IDOCK:  -12.10 KCAL/MOL
REMARK 923 INTER-LIGAND FREE ENERGY PREDICTED BY IDOCK:   -9.92 KCAL/MOL
REMARK 924 INTRA-LIGAND FREE ENERGY PREDICTED BY IDOCK:   -2.18 KCAL/MOL
REMARK 927      BINDING AFFINITY PREDICTED BY RF-SCORE:    0.00 PKD
ROOT
HETATM    1  C   UNL     1     -11.498  15.324  67.778  1.00  0.00    -0.312 C  
HETATM    2  C   UNL     1     -10.856  14.239  66.913  1.00  0.00    -0.298 C  
HETATM    3  C   UNL     1     -11.410  14.382  65.481  1.00  0.00    -0.334 C  
HETATM    4  C   UNL     1      -9.317  14.316  66.873  1.00  0.00    -0.257 C  
ENDROOT
BRANCH   4   5
HETATM    5  N   UNL     1      -8.579  14.206  68.202  1.00  0.00    -0.167 N  
BRANCH   5   6
HETATM    6  C   UNL     1      -8.064  12.770  68.465  1.00  0.00    -0.080 C  
BRANCH   6   7
HETATM    7  C   UNL     1      -8.216  11.742  67.290  1.00  0.00    -0.163 C  
HETATM    8  H   UNL     1      -7.002  10.762  66.113  1.00  0.00     0.000 HD 
HETATM    9  O   UNL     1      -6.910  11.385  66.824  1.00  0.00    -0.132 OA 
BRANCH   7  10
HETATM   10  C   UNL     1      -9.071  10.477  67.672  1.00  0.00    -0.142 C  
BRANCH  10  11
HETATM   11  N   UNL     1      -9.642  10.552  69.032  1.00  0.00    -0.196 N  
HETATM   12  O   UNL     1      -9.100   8.394  69.587  1.00  0.00    -0.151 OA 
HETATM   13  H   UNL     1     -10.067  11.422  69.351  1.00  0.00     0.000 HD 
HETATM   14  C   UNL     1      -9.608   9.467  69.874  1.00  0.00    -0.223 C  
BRANCH  14  15
HETATM   15  O   UNL     1     -10.234   9.727  71.058  1.00  0.00    -0.249 OA 
BRANCH  15  16
HETATM   16  C   UNL     1     -11.660   9.530  71.016  1.00  0.00    -0.344 C  
HETATM   17  C   UNL     1     -12.138   8.614  72.124  1.00  0.00    -0.451 C  
HETATM   18  O   UNL     1     -13.631  10.435  72.046  1.00  0.00    -0.328 OA 
HETATM   19  C   UNL     1     -13.586   9.024  72.283  1.00  0.00    -0.484 C  
HETATM   20  C   UNL     1     -12.462  10.800  71.294  1.00  0.00    -0.399 C  
ENDBRANCH  15  16
ENDBRANCH  14  15
ENDBRANCH  10  11
BRANCH  10  21
HETATM   21  C   UNL     1     -10.115  10.002  66.626  1.00  0.00    -0.289 C  
BRANCH  21  22
HETATM   22  C   UNL     1      -9.855  10.171  65.142  1.00  0.00    -0.394 A  
HETATM   23  C   UNL     1     -10.102  11.485  63.108  1.00  0.00    -0.395 A  
HETATM   24  C   UNL     1     -10.473  11.207  64.427  1.00  0.00    -0.418 A  
HETATM   25  C   UNL     1      -9.119  10.725  62.477  1.00  0.00    -0.344 A  
HETATM   26  C   UNL     1      -8.878   9.403  64.487  1.00  0.00    -0.235 A  
HETATM   27  C   UNL     1      -8.513   9.678  63.165  1.00  0.00    -0.189 A  
ENDBRANCH  21  22
ENDBRANCH  10  21
ENDBRANCH   7  10
ENDBRANCH   6   7
ENDBRANCH   5   6
BRANCH   5  28
HETATM   28  S   UNL     1      -7.257  15.367  68.270  1.00  0.00    -0.123 S  
HETATM   29  O   UNL     1      -6.795  15.484  69.633  1.00  0.00    -0.172 OA 
HETATM   30  O   UNL     1      -6.344  14.985  67.208  1.00  0.00    -0.312 OA 
BRANCH  28  31
HETATM   31  C   UNL     1      -7.962  16.934  67.840  1.00  0.00    -0.183 A  
HETATM   32  N   UNL     1      -9.691  20.621  66.794  1.00  0.00    -0.655 NA 
HETATM   33  H2  UNL     1     -10.202  20.445  65.929  1.00  0.00     0.000 HD 
HETATM   34  H1  UNL     1     -10.313  21.104  67.442  1.00  0.00     0.000 HD 
HETATM   35  C   UNL     1      -7.642  17.530  66.619  1.00  0.00    -0.286 A  
HETATM   36  C   UNL     1      -8.202  18.772  66.289  1.00  0.00    -0.270 A  
HETATM   37  C   UNL     1      -8.885  17.547  68.698  1.00  0.00    -0.255 A  
HETATM   38  C   UNL     1      -9.441  18.783  68.354  1.00  0.00    -0.391 A  
HETATM   39  C   UNL     1      -9.055  19.435  67.179  1.00  0.00    -0.303 A  
ENDBRANCH  28  31
ENDBRANCH   5  28
ENDBRANCH   4   5
TORSDOF 11
ENDMDL
MODEL       64
REMARK 921   NORMALIZED FREE ENERGY PREDICTED BY IDOCK:   -6.29 KCAL/MOL
REMARK 922        TOTAL FREE ENERGY PREDICTED BY IDOCK:  -12.10 KCAL/MOL
REMARK 923 INTER-LIGAND FREE ENERGY PREDICTED BY IDOCK:  -10.93 KCAL/MOL
REMARK 924 INTRA-LIGAND FREE ENERGY PREDICTED BY IDOCK:   -1.17 KCAL/MOL
REMARK 927      BINDING AFFINITY PREDICTED BY RF-SCORE:    0.00 PKD
ROOT
HETATM    1  C   UNL     1     -10.856  13.706  64.809  1.00  0.00    -0.402 C  
HETATM    2  C   UNL     1     -11.629  12.386  64.815  1.00  0.00    -0.395 C  
HETATM    3  C   UNL     1     -12.344  12.248  63.456  1.00  0.00    -0.670 C  
HETATM    4  C   UNL     1     -10.735  11.153  65.047  1.00  0.00    -0.231 C  
ENDROOT
BRANCH   4   5
HETATM    5  N   UNL     1      -9.930  11.108  66.341  1.00  0.00    -0.210 N  
BRANCH   5   6
HETATM    6  C   UNL     1     -10.841  11.095  67.594  1.00  0.00    -0.247 C  
BRANCH   6   7
HETATM    7  C   UNL     1     -10.531  12.164  68.699  1.00  0.00    -0.216 C  
HETATM    8  H   UNL     1      -9.563  13.859  68.784  1.00  0.00     0.000 HD 
HETATM    9  O   UNL     1      -9.750  13.212  68.114  1.00  0.00    -0.218 OA 
BRANCH   7  10
HETATM   10  C   UNL     1     -11.819  12.717  69.413  1.00  0.00    -0.300 C  
BRANCH  10  11
HETATM   11  N   UNL     1     -12.067  12.093  70.729  1.00  0.00    -0.460 N  
HETATM   12  O   UNL     1     -13.434  10.447  69.906  1.00  0.00     0.139 OA 
HETATM   13  H   UNL     1     -11.625  12.484  71.561  1.00  0.00     0.000 HD 
HETATM   14  C   UNL     1     -12.883  10.995  70.849  1.00  0.00    -0.301 C  
BRANCH  14  15
HETATM   15  O   UNL     1     -13.022  10.609  72.149  1.00  0.00    -0.427 OA 
BRANCH  15  16
HETATM   16  C   UNL     1     -12.963   9.182  72.341  1.00  0.00    -0.398 C  
HETATM   17  C   UNL     1     -14.283   8.512  72.018  1.00  0.00    -0.535 C  
HETATM   18  O   UNL     1     -12.588   7.205  71.033  1.00  0.00    -0.357 OA 
HETATM   19  C   UNL     1     -13.856   7.099  71.686  1.00  0.00    -0.302 C  
HETATM   20  C   UNL     1     -12.009   8.474  71.381  1.00  0.00    -0.300 C  
ENDBRANCH  15  16
ENDBRANCH  14  15
ENDBRANCH  10  11
BRANCH  10  21
HETATM   21  C   UNL     1     -11.981  14.260  69.459  1.00  0.00    -0.384 C  
BRANCH  21  22
HETATM   22  C   UNL     1     -12.426  14.954  70.731  1.00  0.00    -0.401 A  
HETATM   23  C   UNL     1     -14.205  15.539  72.287  1.00  0.00    -0.617 A  
HETATM   24  C   UNL     1     -13.789  15.069  71.037  1.00  0.00    -0.379 A  
HETATM   25  C   UNL     1     -13.266  15.915  73.246  1.00  0.00    -0.698 A  
HETATM   26  C   UNL     1     -11.491  15.352  71.702  1.00  0.00    -0.492 A  
HETATM   27  C   UNL     1     -11.909  15.830  72.950  1.00  0.00    -0.568 A  
ENDBRANCH  21  22
ENDBRANCH  10  21
ENDBRANCH   7  10
ENDBRANCH   6   7
ENDBRANCH   5   6
BRANCH   5  28
HETATM   28  S   UNL     1      -8.844   9.722  66.343  1.00  0.00    -0.149 S  
HETATM   29  O   UNL     1      -9.591   8.531  66.012  1.00  0.00    -0.227 OA 
HETATM   30  O   UNL     1      -7.696  10.122  65.549  1.00  0.00    -0.133 OA 
BRANCH  28  31
HETATM   31  C   UNL     1      -8.303   9.529  68.019  1.00  0.00    -0.118 A  
HETATM   32  N   UNL     1      -6.965   9.036  71.974  1.00  0.00    -0.312 NA 
HETATM   33  H2  UNL     1      -6.518   8.120  71.997  1.00  0.00     0.000 HD 
HETATM   34  H1  UNL     1      -6.330   9.715  72.395  1.00  0.00     0.000 HD 
HETATM   35  C   UNL     1      -8.772   8.459  68.783  1.00  0.00    -0.136 A  
HETATM   36  C   UNL     1      -8.342   8.317  70.109  1.00  0.00    -0.124 A  
HETATM   37  C   UNL     1      -7.361  10.416  68.558  1.00  0.00    -0.086 A  
HETATM   38  C   UNL     1      -6.935  10.258  69.881  1.00  0.00    -0.142 A  
HETATM   39  C   UNL     1      -7.470   9.248  70.687  1.00  0.00    -0.136 A  
ENDBRANCH  28  31
ENDBRANCH   5  28
ENDBRANCH   4   5
TORSDOF 11
ENDMDL
MODEL       65
REMARK 921   NORMALIZED FREE ENERGY PREDICTED BY IDOCK:   -6.28 KCAL/MOL
REMARK 922        TOTAL FREE ENERGY PREDICTED BY IDOCK:  -12.09 KCAL/MOL
REMARK 923 INTER-LIGAND FREE ENERGY PREDICTED BY IDOCK:  -11.03 KCAL/MOL
REMARK 924 INTRA-LIGAND FREE ENERGY PREDICTED BY IDOCK:   -1.05 KCAL/MOL
REMARK 927      BINDING AFFINITY PREDICTED BY RF-SCORE:    0.00 PKD
ROOT
HETATM    1  C   UNL     1      -8.706   6.784  67.098  1.00  0.00    -0.119 C  
HETATM    2  C   UNL     1     -10.224   6.961  67.152  1.00  0.00    -0.308 C  
HETATM    3  C   UNL     1     -10.875   5.613  66.784  1.00  0.00    -0.296 C  
HETATM    4  C   UNL     1     -10.741   7.417  68.531  1.00  0.00    -0.098 C  
ENDROOT
BRANCH   4   5
HETATM    5  N   UNL     1     -10.201   8.733  69.078  1.00  0.00    -0.203 N  
BRANCH   5   6
HETATM    6  C   UNL     1     -10.851   9.960  68.392  1.00  0.00    -0.221 C  
BRANCH   6   7
HETATM    7  C   UNL     1     -10.223  11.361  68.715  1.00  0.00    -0.197 C  
HETATM    8  H   UNL     1      -8.844  12.498  67.926  1.00  0.00     0.000 HD 
HETATM    9  O   UNL     1      -9.224  11.650  67.730  1.00  0.00    -0.168 OA 
BRANCH   7  10
HETATM   10  C   UNL     1     -11.289  12.513  68.829  1.00  0.00    -0.293 C  
BRANCH  10  11
HETATM   11  N   UNL     1     -11.991  12.782  67.558  1.00  0.00    -0.341 N  
HETATM   12  O   UNL     1     -11.095  14.873  67.282  1.00  0.00    -0.317 OA 
HETATM   13  H   UNL     1     -12.607  12.070  67.165  1.00  0.00     0.000 HD 
HETATM   14  C   UNL     1     -11.828  13.974  66.898  1.00  0.00    -0.430 C  
BRANCH  14  15
HETATM   15  O   UNL     1     -12.604  14.042  65.778  1.00  0.00    -0.491 OA 
BRANCH  15  16
HETATM   16  C   UNL     1     -11.946  13.573  64.586  1.00  0.00    -0.400 C  
HETATM   17  C   UNL     1     -10.490  13.237  64.837  1.00  0.00    -0.387 C  
HETATM   18  O   UNL     1     -11.388  11.484  63.544  1.00  0.00    -0.408 OA 
HETATM   19  C   UNL     1     -10.191  12.246  63.734  1.00  0.00    -0.402 C  
HETATM   20  C   UNL     1     -12.489  12.242  64.071  1.00  0.00    -0.458 C  
ENDBRANCH  15  16
ENDBRANCH  14  15
ENDBRANCH  10  11
BRANCH  10  21
HETATM   21  C   UNL     1     -12.266  12.439  70.033  1.00  0.00    -0.264 C  
BRANCH  21  22
HETATM   22  C   UNL     1     -12.511  13.653  70.906  1.00  0.00    -0.448 A  
HETATM   23  C   UNL     1     -13.410  14.615  72.954  1.00  0.00    -0.585 A  
HETATM   24  C   UNL     1     -13.325  13.557  72.044  1.00  0.00    -0.563 A  
HETATM   25  C   UNL     1     -12.696  15.792  72.735  1.00  0.00    -0.553 A  
HETATM   26  C   UNL     1     -11.810  14.852  70.691  1.00  0.00    -0.357 A  
HETATM   27  C   UNL     1     -11.903  15.913  71.599  1.00  0.00    -0.565 A  
ENDBRANCH  21  22
ENDBRANCH  10  21
ENDBRANCH   7  10
ENDBRANCH   6   7
ENDBRANCH   5   6
BRANCH   5  28
HETATM   28  S   UNL     1     -10.414   8.807  70.825  1.00  0.00    -0.236 S  
HETATM   29  O   UNL     1      -9.337   9.575  71.403  1.00  0.00    -0.224 OA 
HETATM   30  O   UNL     1     -11.797   9.193  71.036  1.00  0.00    -0.280 OA 
BRANCH  28  31
HETATM   31  C   UNL     1     -10.220   7.146  71.409  1.00  0.00    -0.192 A  
HETATM   32  N   UNL     1      -9.732   3.228  72.854  1.00  0.00    -0.118 NA 
HETATM   33  H2  UNL     1      -8.885   3.251  73.421  1.00  0.00     0.000 HD 
HETATM   34  H1  UNL     1     -10.471   2.780  73.397  1.00  0.00     0.000 HD 
HETATM   35  C   UNL     1      -9.062   6.430  71.099  1.00  0.00    -0.150 A  
HETATM   36  C   UNL     1      -8.919   5.115  71.562  1.00  0.00    -0.154 A  
HETATM   37  C   UNL     1     -11.200   6.572  72.230  1.00  0.00    -0.308 A  
HETATM   38  C   UNL     1     -11.041   5.261  72.691  1.00  0.00    -0.319 A  
HETATM   39  C   UNL     1      -9.933   4.500  72.308  1.00  0.00    -0.179 A  
ENDBRANCH  28  31
ENDBRANCH   5  28
ENDBRANCH   4   5
TORSDOF 11
ENDMDL
MODEL       66
REMARK 921   NORMALIZED FREE ENERGY PREDICTED BY IDOCK:   -6.28 KCAL/MOL
REMARK 922        TOTAL FREE ENERGY PREDICTED BY IDOCK:  -12.08 KCAL/MOL
REMARK 923 INTER-LIGAND FREE ENERGY PREDICTED BY IDOCK:  -10.77 KCAL/MOL
REMARK 924 INTRA-LIGAND FREE ENERGY PREDICTED BY IDOCK:   -1.31 KCAL/MOL
REMARK 927      BINDING AFFINITY PREDICTED BY RF-SCORE:    0.00 PKD
ROOT
HETATM    1  C   UNL     1     -11.814   5.743  72.598  1.00  0.00    -0.198 C  
HETATM    2  C   UNL     1     -10.769   6.678  73.208  1.00  0.00    -0.315 C  
HETATM    3  C   UNL     1     -10.204   6.001  74.473  1.00  0.00    -0.307 C  
HETATM    4  C   UNL     1      -9.610   7.013  72.249  1.00  0.00    -0.149 C  
ENDROOT
BRANCH   4   5
HETATM    5  N   UNL     1      -9.968   7.682  70.927  1.00  0.00    -0.181 N  
BRANCH   5   6
HETATM    6  C   UNL     1     -10.342   9.173  71.111  1.00  0.00    -0.317 C  
BRANCH   6   7
HETATM    7  C   UNL     1     -11.785   9.597  70.664  1.00  0.00    -0.280 C  
HETATM    8  H   UNL     1     -13.602   9.303  71.318  1.00  0.00     0.000 HD 
HETATM    9  O   UNL     1     -12.729   9.046  71.589  1.00  0.00    -0.324 OA 
BRANCH   7  10
HETATM   10  C   UNL     1     -11.958  11.153  70.501  1.00  0.00    -0.380 C  
BRANCH  10  11
HETATM   11  N   UNL     1     -12.298  11.558  69.122  1.00  0.00    -0.141 N  
HETATM   12  O   UNL     1     -10.169  11.295  68.314  1.00  0.00    -0.173 OA 
HETATM   13  H   UNL     1     -13.261  11.809  68.897  1.00  0.00     0.000 HD 
HETATM   14  C   UNL     1     -11.340  11.600  68.140  1.00  0.00    -0.292 C  
BRANCH  14  15
HETATM   15  O   UNL     1     -11.848  12.050  66.957  1.00  0.00    -0.573 OA 
BRANCH  15  16
HETATM   16  C   UNL     1     -11.868  13.486  66.842  1.00  0.00    -0.407 C  
HETATM   17  C   UNL     1     -10.494  14.090  67.047  1.00  0.00    -0.275 C  
HETATM   18  O   UNL     1     -11.445  15.162  65.177  1.00  0.00    -0.352 OA 
HETATM   19  C   UNL     1     -10.605  15.407  66.309  1.00  0.00    -0.308 C  
HETATM   20  C   UNL     1     -12.222  13.982  65.442  1.00  0.00    -0.439 C  
ENDBRANCH  15  16
ENDBRANCH  14  15
ENDBRANCH  10  11
BRANCH  10  21
HETATM   21  C   UNL     1     -12.844  11.867  71.556  1.00  0.00    -0.421 C  
BRANCH  21  22
HETATM   22  C   UNL     1     -12.849  13.379  71.665  1.00  0.00    -0.414 A  
HETATM   23  C   UNL     1     -13.639  15.398  72.774  1.00  0.00    -0.628 A  
HETATM   24  C   UNL     1     -13.747  14.025  72.527  1.00  0.00    -0.651 A  
HETATM   25  C   UNL     1     -12.643  16.149  72.154  1.00  0.00    -0.394 A  
HETATM   26  C   UNL     1     -11.860  14.153  71.035  1.00  0.00    -0.255 A  
HETATM   27  C   UNL     1     -11.758  15.527  71.278  1.00  0.00    -0.457 A  
ENDBRANCH  21  22
ENDBRANCH  10  21
ENDBRANCH   7  10
ENDBRANCH   6   7
ENDBRANCH   5   6
BRANCH   5  28
HETATM   28  S   UNL     1      -8.652   7.504  69.770  1.00  0.00    -0.140 S  
HETATM   29  O   UNL     1      -8.288   8.805  69.261  1.00  0.00    -0.116 OA 
HETATM   30  O   UNL     1      -7.668   6.660  70.423  1.00  0.00    -0.094 OA 
BRANCH  28  31
HETATM   31  C   UNL     1      -9.323   6.597  68.404  1.00  0.00    -0.123 A  
HETATM   32  N   UNL     1     -10.863   4.464  65.125  1.00  0.00    -0.712 NA 
HETATM   33  H2  UNL     1     -10.597   5.003  64.302  1.00  0.00     0.000 HD 
HETATM   34  H1  UNL     1     -10.601   3.491  64.971  1.00  0.00     0.000 HD 
HETATM   35  C   UNL     1     -10.243   7.206  67.550  1.00  0.00    -0.272 A  
HETATM   36  C   UNL     1     -10.772   6.480  66.474  1.00  0.00    -0.099 A  
HETATM   37  C   UNL     1      -8.888   5.290  68.149  1.00  0.00    -0.107 A  
HETATM   38  C   UNL     1      -9.419   4.579  67.068  1.00  0.00    -0.186 A  
HETATM   39  C   UNL     1     -10.412   5.144  66.262  1.00  0.00    -0.289 A  
ENDBRANCH  28  31
ENDBRANCH   5  28
ENDBRANCH   4   5
TORSDOF 11
ENDMDL
MODEL       67
REMARK 921   NORMALIZED FREE ENERGY PREDICTED BY IDOCK:   -6.27 KCAL/MOL
REMARK 922        TOTAL FREE ENERGY PREDICTED BY IDOCK:  -12.07 KCAL/MOL
REMARK 923 INTER-LIGAND FREE ENERGY PREDICTED BY IDOCK:  -10.10 KCAL/MOL
REMARK 924 INTRA-LIGAND FREE ENERGY PREDICTED BY IDOCK:   -1.98 KCAL/MOL
REMARK 927      BINDING AFFINITY PREDICTED BY RF-SCORE:    0.00 PKD
ROOT
HETATM    1  C   UNL     1     -11.267  15.495  71.139  1.00  0.00    -0.423 C  
HETATM    2  C   UNL     1     -12.037  14.289  70.598  1.00  0.00    -0.417 C  
HETATM    3  C   UNL     1     -13.489  14.384  71.108  1.00  0.00    -0.368 C  
HETATM    4  C   UNL     1     -12.043  14.204  69.059  1.00  0.00    -0.313 C  
ENDROOT
BRANCH   4   5
HETATM    5  N   UNL     1     -10.691  14.115  68.360  1.00  0.00    -0.249 N  
BRANCH   5   6
HETATM    6  C   UNL     1     -10.147  12.666  68.326  1.00  0.00    -0.233 C  
BRANCH   6   7
HETATM    7  C   UNL     1     -11.169  11.541  67.938  1.00  0.00    -0.279 C  
HETATM    8  H   UNL     1     -11.666  10.596  66.301  1.00  0.00     0.000 HD 
HETATM    9  O   UNL     1     -11.047  11.278  66.536  1.00  0.00    -0.285 OA 
BRANCH   7  10
HETATM   10  C   UNL     1     -11.016  10.232  68.799  1.00  0.00    -0.243 C  
BRANCH  10  11
HETATM   11  N   UNL     1      -9.757   9.507  68.532  1.00  0.00    -0.149 N  
HETATM   12  O   UNL     1     -10.740   7.888  67.240  1.00  0.00    -0.301 OA 
HETATM   13  H   UNL     1      -8.883   9.858  68.922  1.00  0.00     0.000 HD 
HETATM   14  C   UNL     1      -9.747   8.367  67.766  1.00  0.00    -0.162 C  
BRANCH  14  15
HETATM   15  O   UNL     1      -8.498   7.823  67.687  1.00  0.00    -0.120 OA 
BRANCH  15  16
HETATM   16  C   UNL     1      -7.970   7.395  68.957  1.00  0.00    -0.122 C  
HETATM   17  C   UNL     1      -8.664   6.150  69.469  1.00  0.00    -0.130 C  
HETATM   18  O   UNL     1      -6.352   5.834  69.797  1.00  0.00    -0.031 OA 
HETATM   19  C   UNL     1      -7.623   5.555  70.393  1.00  0.00    -0.081 C  
HETATM   20  C   UNL     1      -6.514   6.937  68.891  1.00  0.00    -0.036 C  
ENDBRANCH  15  16
ENDBRANCH  14  15
ENDBRANCH  10  11
BRANCH  10  21
HETATM   21  C   UNL     1     -11.304  10.362  70.318  1.00  0.00    -0.406 C  
BRANCH  21  22
HETATM   22  C   UNL     1     -12.145   9.326  71.037  1.00  0.00    -0.349 A  
HETATM   23  C   UNL     1     -14.248   8.697  72.090  1.00  0.00    -0.520 A  
HETATM   24  C   UNL     1     -13.385   9.677  71.589  1.00  0.00    -0.485 A  
HETATM   25  C   UNL     1     -13.881   7.353  72.060  1.00  0.00    -0.239 A  
HETATM   26  C   UNL     1     -11.782   7.968  71.029  1.00  0.00    -0.295 A  
HETATM   27  C   UNL     1     -12.644   6.990  71.537  1.00  0.00    -0.426 A  
ENDBRANCH  21  22
ENDBRANCH  10  21
ENDBRANCH   7  10
ENDBRANCH   6   7
ENDBRANCH   5   6
BRANCH   5  28
HETATM   28  S   UNL     1     -10.794  14.785  66.735  1.00  0.00    -0.322 S  
HETATM   29  O   UNL     1      -9.708  14.266  65.937  1.00  0.00    -0.303 OA 
HETATM   30  O   UNL     1     -12.173  14.600  66.320  1.00  0.00    -0.293 OA 
BRANCH  28  31
HETATM   31  C   UNL     1     -10.508  16.525  66.905  1.00  0.00    -0.282 A  
HETATM   32  N   UNL     1      -9.766  20.645  67.288  1.00  0.00    -0.560 NA 
HETATM   33  H2  UNL     1      -8.785  20.721  67.554  1.00  0.00     0.000 HD 
HETATM   34  H1  UNL     1      -9.937  21.277  66.506  1.00  0.00     0.000 HD 
HETATM   35  C   UNL     1     -10.076  17.042  68.128  1.00  0.00    -0.308 A  
HETATM   36  C   UNL     1      -9.857  18.421  68.255  1.00  0.00    -0.383 A  
HETATM   37  C   UNL     1     -10.659  17.372  65.799  1.00  0.00    -0.185 A  
HETATM   38  C   UNL     1     -10.430  18.744  65.938  1.00  0.00    -0.424 A  
HETATM   39  C   UNL     1     -10.091  19.288  67.181  1.00  0.00    -0.377 A  
ENDBRANCH  28  31
ENDBRANCH   5  28
ENDBRANCH   4   5
TORSDOF 11
ENDMDL
MODEL       68
REMARK 921   NORMALIZED FREE ENERGY PREDICTED BY IDOCK:   -6.24 KCAL/MOL
REMARK 922        TOTAL FREE ENERGY PREDICTED BY IDOCK:  -12.02 KCAL/MOL
REMARK 923 INTER-LIGAND FREE ENERGY PREDICTED BY IDOCK:  -11.49 KCAL/MOL
REMARK 924 INTRA-LIGAND FREE ENERGY PREDICTED BY IDOCK:   -0.54 KCAL/MOL
REMARK 927      BINDING AFFINITY PREDICTED BY RF-SCORE:    0.00 PKD
ROOT
HETATM    1  C   UNL     1     -12.698  13.964  65.270  1.00  0.00    -0.485 C  
HETATM    2  C   UNL     1     -12.293  12.522  64.961  1.00  0.00    -0.522 C  
HETATM    3  C   UNL     1     -12.470  12.291  63.447  1.00  0.00    -0.592 C  
HETATM    4  C   UNL     1     -10.840  12.194  65.360  1.00  0.00    -0.294 C  
ENDROOT
BRANCH   4   5
HETATM    5  N   UNL     1     -10.461  12.373  66.825  1.00  0.00    -0.220 N  
BRANCH   5   6
HETATM    6  C   UNL     1     -11.652  12.090  67.774  1.00  0.00    -0.330 C  
BRANCH   6   7
HETATM    7  C   UNL     1     -11.829  13.065  68.990  1.00  0.00    -0.316 C  
HETATM    8  H   UNL     1     -11.935  12.883  70.933  1.00  0.00     0.000 HD 
HETATM    9  O   UNL     1     -11.828  12.293  70.196  1.00  0.00    -0.328 OA 
BRANCH   7  10
HETATM   10  C   UNL     1     -10.759  14.218  69.029  1.00  0.00    -0.245 C  
BRANCH  10  11
HETATM   11  N   UNL     1     -10.905  15.181  67.918  1.00  0.00    -0.282 N  
HETATM   12  O   UNL     1      -8.679  15.179  67.369  1.00  0.00    -0.171 OA 
HETATM   13  H   UNL     1     -11.828  15.551  67.692  1.00  0.00     0.000 HD 
HETATM   14  C   UNL     1      -9.816  15.586  67.185  1.00  0.00    -0.235 C  
BRANCH  14  15
HETATM   15  O   UNL     1     -10.156  16.515  66.246  1.00  0.00    -0.300 OA 
BRANCH  15  16
HETATM   16  C   UNL     1      -9.683  17.842  66.545  1.00  0.00    -0.329 C  
HETATM   17  C   UNL     1     -10.646  18.909  66.063  1.00  0.00    -0.470 C  
HETATM   18  O   UNL     1      -9.977  19.517  68.239  1.00  0.00    -0.379 OA 
HETATM   19  C   UNL     1     -10.314  20.077  66.966  1.00  0.00    -0.421 C  
HETATM   20  C   UNL     1      -9.607  18.143  68.041  1.00  0.00    -0.300 C  
ENDBRANCH  15  16
ENDBRANCH  14  15
ENDBRANCH  10  11
BRANCH  10  21
HETATM   21  C   UNL     1     -10.550  14.928  70.393  1.00  0.00     0.012 C  
BRANCH  21  22
HETATM   22  C   UNL     1     -11.736  15.302  71.260  1.00  0.00    -0.425 A  
HETATM   23  C   UNL     1     -14.143  15.554  71.523  1.00  0.00    -0.502 A  
HETATM   24  C   UNL     1     -13.020  15.393  70.705  1.00  0.00    -0.510 A  
HETATM   25  C   UNL     1     -14.000  15.643  72.906  1.00  0.00    -0.477 A  
HETATM   26  C   UNL     1     -11.606  15.409  72.655  1.00  0.00    -0.504 A  
HETATM   27  C   UNL     1     -12.730  15.579  73.472  1.00  0.00    -0.681 A  
ENDBRANCH  21  22
ENDBRANCH  10  21
ENDBRANCH   7  10
ENDBRANCH   6   7
ENDBRANCH   5   6
BRANCH   5  28
HETATM   28  S   UNL     1      -9.081  11.357  67.232  1.00  0.00    -0.164 S  
HETATM   29  O   UNL     1      -8.343  11.053  66.029  1.00  0.00    -0.168 OA 
HETATM   30  O   UNL     1      -8.433  12.008  68.356  1.00  0.00    -0.163 OA 
BRANCH  28  31
HETATM   31  C   UNL     1      -9.758   9.825  67.810  1.00  0.00    -0.141 A  
HETATM   32  N   UNL     1     -11.301   6.164  69.184  1.00  0.00    -0.446 NA 
HETATM   33  H2  UNL     1     -10.686   5.448  68.798  1.00  0.00     0.000 HD 
HETATM   34  H1  UNL     1     -11.410   5.989  70.183  1.00  0.00     0.000 HD 
HETATM   35  C   UNL     1     -10.176   8.859  66.893  1.00  0.00    -0.347 A  
HETATM   36  C   UNL     1     -10.714   7.652  67.359  1.00  0.00    -0.318 A  
HETATM   37  C   UNL     1      -9.820   9.560  69.185  1.00  0.00    -0.176 A  
HETATM   38  C   UNL     1     -10.353   8.348  69.636  1.00  0.00    -0.218 A  
HETATM   39  C   UNL     1     -10.864   7.413  68.730  1.00  0.00    -0.043 A  
ENDBRANCH  28  31
ENDBRANCH   5  28
ENDBRANCH   4   5
TORSDOF 11
ENDMDL
MODEL       69
REMARK 921   NORMALIZED FREE ENERGY PREDICTED BY IDOCK:   -6.24 KCAL/MOL
REMARK 922        TOTAL FREE ENERGY PREDICTED BY IDOCK:  -12.02 KCAL/MOL
REMARK 923 INTER-LIGAND FREE ENERGY PREDICTED BY IDOCK:  -10.06 KCAL/MOL
REMARK 924 INTRA-LIGAND FREE ENERGY PREDICTED BY IDOCK:   -1.96 KCAL/MOL
REMARK 927      BINDING AFFINITY PREDICTED BY RF-SCORE:    0.00 PKD
ROOT
HETATM    1  C   UNL     1      -9.020  11.207  62.536  1.00  0.00    -0.347 C  
HETATM    2  C   UNL     1      -9.091   9.908  63.341  1.00  0.00    -0.291 C  
HETATM    3  C   UNL     1      -8.523   8.773  62.465  1.00  0.00    -0.195 C  
HETATM    4  C   UNL     1      -8.311   9.966  64.669  1.00  0.00    -0.163 C  
ENDROOT
BRANCH   4   5
HETATM    5  N   UNL     1      -8.719  11.038  65.672  1.00  0.00    -0.181 N  
BRANCH   5   6
HETATM    6  C   UNL     1     -10.255  11.113  65.853  1.00  0.00    -0.251 C  
BRANCH   6   7
HETATM    7  C   UNL     1     -10.955  12.436  65.384  1.00  0.00    -0.299 C  
HETATM    8  H   UNL     1     -12.743  12.943  64.780  1.00  0.00     0.000 HD 
HETATM    9  O   UNL     1     -12.319  12.142  65.064  1.00  0.00    -0.454 OA 
BRANCH   7  10
HETATM   10  C   UNL     1     -10.834  13.611  66.424  1.00  0.00    -0.290 C  
BRANCH  10  11
HETATM   11  N   UNL     1     -10.262  14.843  65.843  1.00  0.00    -0.294 N  
HETATM   12  O   UNL     1      -8.681  15.112  67.482  1.00  0.00    -0.164 OA 
HETATM   13  H   UNL     1     -10.648  15.215  64.975  1.00  0.00     0.000 HD 
HETATM   14  C   UNL     1      -9.220  15.496  66.454  1.00  0.00    -0.305 C  
BRANCH  14  15
HETATM   15  O   UNL     1      -8.879  16.637  65.789  1.00  0.00    -0.493 OA 
BRANCH  15  16
HETATM   16  C   UNL     1      -9.209  17.845  66.501  1.00  0.00    -0.273 C  
HETATM   17  C   UNL     1      -8.158  18.919  66.312  1.00  0.00    -0.286 C  
HETATM   18  O   UNL     1     -10.257  19.960  66.065  1.00  0.00    -0.468 OA 
HETATM   19  C   UNL     1      -8.939  20.188  66.574  1.00  0.00    -0.294 C  
HETATM   20  C   UNL     1     -10.464  18.540  65.978  1.00  0.00    -0.400 C  
ENDBRANCH  15  16
ENDBRANCH  14  15
ENDBRANCH  10  11
BRANCH  10  21
HETATM   21  C   UNL     1     -12.086  13.901  67.294  1.00  0.00    -0.403 C  
BRANCH  21  22
HETATM   22  C   UNL     1     -11.944  14.245  68.763  1.00  0.00    -0.346 A  
HETATM   23  C   UNL     1     -11.826  15.926  70.520  1.00  0.00    -0.374 A  
HETATM   24  C   UNL     1     -11.773  15.577  69.167  1.00  0.00    -0.380 A  
HETATM   25  C   UNL     1     -12.036  14.950  71.492  1.00  0.00    -0.408 A  
HETATM   26  C   UNL     1     -12.139  13.270  69.756  1.00  0.00    -0.355 A  
HETATM   27  C   UNL     1     -12.184  13.620  71.110  1.00  0.00    -0.326 A  
ENDBRANCH  21  22
ENDBRANCH  10  21
ENDBRANCH   7  10
ENDBRANCH   6   7
ENDBRANCH   5   6
BRANCH   5  28
HETATM   28  S   UNL     1      -7.919  10.772  67.218  1.00  0.00    -0.120 S  
HETATM   29  O   UNL     1      -6.774   9.914  67.019  1.00  0.00    -0.073 OA 
HETATM   30  O   UNL     1      -7.767  12.087  67.813  1.00  0.00    -0.120 OA 
BRANCH  28  31
HETATM   31  C   UNL     1      -9.068   9.858  68.210  1.00  0.00    -0.122 A  
HETATM   32  N   UNL     1     -11.842   7.700  70.517  1.00  0.00    -0.488 NA 
HETATM   33  H2  UNL     1     -12.739   8.159  70.363  1.00  0.00     0.000 HD 
HETATM   34  H1  UNL     1     -11.965   6.697  70.375  1.00  0.00     0.000 HD 
HETATM   35  C   UNL     1      -9.788  10.505  69.215  1.00  0.00    -0.225 A  
HETATM   36  C   UNL     1     -10.691   9.773  69.998  1.00  0.00    -0.326 A  
HETATM   37  C   UNL     1      -9.296   8.500  67.947  1.00  0.00    -0.148 A  
HETATM   38  C   UNL     1     -10.205   7.783  68.731  1.00  0.00    -0.212 A  
HETATM   39  C   UNL     1     -10.861   8.397  69.803  1.00  0.00    -0.183 A  
ENDBRANCH  28  31
ENDBRANCH   5  28
ENDBRANCH   4   5
TORSDOF 11
ENDMDL
MODEL       70
REMARK 921   NORMALIZED FREE ENERGY PREDICTED BY IDOCK:   -6.23 KCAL/MOL
REMARK 922        TOTAL FREE ENERGY PREDICTED BY IDOCK:  -12.01 KCAL/MOL
REMARK 923 INTER-LIGAND FREE ENERGY PREDICTED BY IDOCK:   -9.63 KCAL/MOL
REMARK 924 INTRA-LIGAND FREE ENERGY PREDICTED BY IDOCK:   -2.38 KCAL/MOL
REMARK 927      BINDING AFFINITY PREDICTED BY RF-SCORE:    0.00 PKD
ROOT
HETATM    1  C   UNL     1      -7.621  10.820  65.960  1.00  0.00    -0.130 C  
HETATM    2  C   UNL     1      -8.970  10.484  65.322  1.00  0.00    -0.211 C  
HETATM    3  C   UNL     1      -8.852  10.721  63.803  1.00  0.00    -0.131 C  
HETATM    4  C   UNL     1      -9.425   9.033  65.577  1.00  0.00    -0.150 C  
ENDROOT
BRANCH   4   5
HETATM    5  N   UNL     1      -9.591   8.598  67.028  1.00  0.00    -0.168 N  
BRANCH   5   6
HETATM    6  C   UNL     1     -10.656   9.440  67.771  1.00  0.00    -0.258 C  
BRANCH   6   7
HETATM    7  C   UNL     1     -10.235  10.045  69.156  1.00  0.00    -0.210 C  
HETATM    8  H   UNL     1      -8.589  10.751  69.939  1.00  0.00     0.000 HD 
HETATM    9  O   UNL     1      -8.845  10.384  69.101  1.00  0.00    -0.162 OA 
BRANCH   7  10
HETATM   10  C   UNL     1     -11.122  11.266  69.602  1.00  0.00    -0.206 C  
BRANCH  10  11
HETATM   11  N   UNL     1     -11.918  11.838  68.498  1.00  0.00    -0.290 N  
HETATM   12  O   UNL     1     -10.638  13.729  68.298  1.00  0.00    -0.241 OA 
HETATM   13  H   UNL     1     -12.722  11.322  68.139  1.00  0.00     0.000 HD 
HETATM   14  C   UNL     1     -11.594  13.054  67.948  1.00  0.00    -0.342 C  
BRANCH  14  15
HETATM   15  O   UNL     1     -12.484  13.425  66.983  1.00  0.00    -0.236 OA 
BRANCH  15  16
HETATM   16  C   UNL     1     -11.910  13.508  65.664  1.00  0.00    -0.369 C  
HETATM   17  C   UNL     1     -12.341  12.352  64.785  1.00  0.00    -0.497 C  
HETATM   18  O   UNL     1     -12.520  14.308  63.485  1.00  0.00    -0.798 OA 
HETATM   19  C   UNL     1     -12.175  12.922  63.394  1.00  0.00    -0.490 C  
HETATM   20  C   UNL     1     -12.398  14.711  64.859  1.00  0.00    -0.315 C  
ENDBRANCH  15  16
ENDBRANCH  14  15
ENDBRANCH  10  11
BRANCH  10  21
HETATM   21  C   UNL     1     -11.963  11.079  70.893  1.00  0.00    -0.391 C  
BRANCH  21  22
HETATM   22  C   UNL     1     -12.227   9.695  71.451  1.00  0.00    -0.471 A  
HETATM   23  C   UNL     1     -13.655   7.727  71.586  1.00  0.00    -0.416 A  
HETATM   24  C   UNL     1     -13.463   9.068  71.239  1.00  0.00    -0.250 A  
HETATM   25  C   UNL     1     -12.620   6.995  72.164  1.00  0.00    -0.158 A  
HETATM   26  C   UNL     1     -11.198   8.948  72.049  1.00  0.00    -0.422 A  
HETATM   27  C   UNL     1     -11.394   7.608  72.403  1.00  0.00    -0.381 A  
ENDBRANCH  21  22
ENDBRANCH  10  21
ENDBRANCH   7  10
ENDBRANCH   6   7
ENDBRANCH   5   6
BRANCH   5  28
HETATM   28  S   UNL     1      -9.976   6.882  67.116  1.00  0.00    -0.202 S  
HETATM   29  O   UNL     1     -11.408   6.711  67.041  1.00  0.00    -0.348 OA 
HETATM   30  O   UNL     1      -9.101   6.233  66.157  1.00  0.00    -0.155 OA 
BRANCH  28  31
HETATM   31  C   UNL     1      -9.490   6.356  68.736  1.00  0.00    -0.127 A  
HETATM   32  N   UNL     1      -8.377   5.152  72.608  1.00  0.00    -0.113 NA 
HETATM   33  H2  UNL     1      -8.421   5.997  73.178  1.00  0.00     0.000 HD 
HETATM   34  H1  UNL     1      -8.890   4.413  73.088  1.00  0.00     0.000 HD 
HETATM   35  C   UNL     1      -8.377   6.933  69.350  1.00  0.00    -0.132 A  
HETATM   36  C   UNL     1      -7.996   6.507  70.630  1.00  0.00    -0.111 A  
HETATM   37  C   UNL     1     -10.255   5.404  69.424  1.00  0.00    -0.334 A  
HETATM   38  C   UNL     1      -9.868   4.993  70.703  1.00  0.00    -0.282 A  
HETATM   39  C   UNL     1      -8.701   5.492  71.290  1.00  0.00    -0.131 A  
ENDBRANCH  28  31
ENDBRANCH   5  28
ENDBRANCH   4   5
TORSDOF 11
ENDMDL
MODEL       71
REMARK 921   NORMALIZED FREE ENERGY PREDICTED BY IDOCK:   -6.23 KCAL/MOL
REMARK 922        TOTAL FREE ENERGY PREDICTED BY IDOCK:  -12.00 KCAL/MOL
REMARK 923 INTER-LIGAND FREE ENERGY PREDICTED BY IDOCK:  -10.18 KCAL/MOL
REMARK 924 INTRA-LIGAND FREE ENERGY PREDICTED BY IDOCK:   -1.83 KCAL/MOL
REMARK 927      BINDING AFFINITY PREDICTED BY RF-SCORE:    0.00 PKD
ROOT
HETATM    1  C   UNL     1      -8.294   4.942  66.143  1.00  0.00    -0.112 C  
HETATM    2  C   UNL     1      -9.772   5.333  66.192  1.00  0.00    -0.179 C  
HETATM    3  C   UNL     1     -10.577   4.248  65.448  1.00  0.00    -0.152 C  
HETATM    4  C   UNL     1     -10.320   5.481  67.625  1.00  0.00    -0.200 C  
ENDROOT
BRANCH   4   5
HETATM    5  N   UNL     1      -9.643   6.505  68.528  1.00  0.00    -0.124 N  
BRANCH   5   6
HETATM    6  C   UNL     1     -10.303   7.902  68.425  1.00  0.00    -0.199 C  
BRANCH   6   7
HETATM    7  C   UNL     1      -9.509   8.997  67.630  1.00  0.00    -0.140 C  
HETATM    8  H   UNL     1      -8.883   9.225  65.794  1.00  0.00     0.000 HD 
HETATM    9  O   UNL     1      -9.363   8.561  66.274  1.00  0.00    -0.193 OA 
BRANCH   7  10
HETATM   10  C   UNL     1     -10.156  10.429  67.723  1.00  0.00    -0.181 C  
BRANCH  10  11
HETATM   11  N   UNL     1     -10.307  11.083  66.407  1.00  0.00    -0.243 N  
HETATM   12  O   UNL     1      -8.439  12.394  66.630  1.00  0.00    -0.143 OA 
HETATM   13  H   UNL     1     -11.086  10.822  65.804  1.00  0.00     0.000 HD 
HETATM   14  C   UNL     1      -9.414  12.037  65.985  1.00  0.00    -0.219 C  
BRANCH  14  15
HETATM   15  O   UNL     1      -9.762  12.553  64.772  1.00  0.00    -0.102 OA 
BRANCH  15  16
HETATM   16  C   UNL     1     -11.095  13.098  64.733  1.00  0.00    -0.330 C  
HETATM   17  C   UNL     1     -11.097  14.605  64.893  1.00  0.00    -0.409 C  
HETATM   18  O   UNL     1     -12.584  14.098  63.138  1.00  0.00    -0.686 OA 
HETATM   19  C   UNL     1     -12.399  15.000  64.233  1.00  0.00    -0.226 C  
HETATM   20  C   UNL     1     -11.788  12.926  63.383  1.00  0.00    -0.507 C  
ENDBRANCH  15  16
ENDBRANCH  14  15
ENDBRANCH  10  11
BRANCH  10  21
HETATM   21  C   UNL     1     -11.436  10.559  68.590  1.00  0.00    -0.290 C  
BRANCH  21  22
HETATM   22  C   UNL     1     -11.665  11.784  69.453  1.00  0.00    -0.405 A  
HETATM   23  C   UNL     1     -11.793  14.206  69.662  1.00  0.00    -0.379 A  
HETATM   24  C   UNL     1     -11.413  13.066  68.946  1.00  0.00    -0.345 A  
HETATM   25  C   UNL     1     -12.417  14.084  70.902  1.00  0.00    -0.439 A  
HETATM   26  C   UNL     1     -12.281  11.677  70.712  1.00  0.00    -0.443 A  
HETATM   27  C   UNL     1     -12.653  12.818  71.430  1.00  0.00    -0.308 A  
ENDBRANCH  21  22
ENDBRANCH  10  21
ENDBRANCH   7  10
ENDBRANCH   6   7
ENDBRANCH   5   6
BRANCH   5  28
HETATM   28  S   UNL     1      -9.631   5.941  70.197  1.00  0.00    -0.166 S  
HETATM   29  O   UNL     1     -10.001   4.545  70.230  1.00  0.00    -0.226 OA 
HETATM   30  O   UNL     1      -8.366   6.386  70.753  1.00  0.00    -0.123 OA 
BRANCH  28  31
HETATM   31  C   UNL     1     -10.926   6.826  71.020  1.00  0.00    -0.255 A  
HETATM   32  N   UNL     1     -14.005   8.968  72.919  1.00  0.00    -1.067 NA 
HETATM   33  H2  UNL     1     -13.895   9.933  72.608  1.00  0.00     0.000 HD 
HETATM   34  H1  UNL     1     -14.980   8.698  72.791  1.00  0.00     0.000 HD 
HETATM   35  C   UNL     1     -10.611   7.882  71.876  1.00  0.00    -0.285 A  
HETATM   36  C   UNL     1     -11.642   8.574  72.526  1.00  0.00    -0.376 A  
HETATM   37  C   UNL     1     -12.266   6.504  70.766  1.00  0.00    -0.200 A  
HETATM   38  C   UNL     1     -13.285   7.208  71.416  1.00  0.00    -0.391 A  
HETATM   39  C   UNL     1     -12.981   8.203  72.350  1.00  0.00    -0.134 A  
ENDBRANCH  28  31
ENDBRANCH   5  28
ENDBRANCH   4   5
TORSDOF 11
ENDMDL
MODEL       72
REMARK 921   NORMALIZED FREE ENERGY PREDICTED BY IDOCK:   -6.23 KCAL/MOL
REMARK 922        TOTAL FREE ENERGY PREDICTED BY IDOCK:  -12.00 KCAL/MOL
REMARK 923 INTER-LIGAND FREE ENERGY PREDICTED BY IDOCK:  -10.06 KCAL/MOL
REMARK 924 INTRA-LIGAND FREE ENERGY PREDICTED BY IDOCK:   -1.94 KCAL/MOL
REMARK 927      BINDING AFFINITY PREDICTED BY RF-SCORE:    0.00 PKD
ROOT
HETATM    1  C   UNL     1      -6.696   8.931  68.312  1.00  0.00    -0.065 C  
HETATM    2  C   UNL     1      -8.064   9.438  67.852  1.00  0.00    -0.103 C  
HETATM    3  C   UNL     1      -7.951   9.832  66.366  1.00  0.00    -0.109 C  
HETATM    4  C   UNL     1      -9.191   8.400  68.020  1.00  0.00    -0.136 C  
ENDROOT
BRANCH   4   5
HETATM    5  N   UNL     1      -9.452   7.874  69.427  1.00  0.00    -0.156 N  
BRANCH   5   6
HETATM    6  C   UNL     1     -10.875   8.224  69.925  1.00  0.00    -0.213 C  
BRANCH   6   7
HETATM    7  C   UNL     1     -10.984   9.363  70.998  1.00  0.00    -0.338 C  
HETATM    8  H   UNL     1      -9.754  10.269  72.216  1.00  0.00     0.000 HD 
HETATM    9  O   UNL     1      -9.687   9.579  71.567  1.00  0.00    -0.195 OA 
BRANCH   7  10
HETATM   10  C   UNL     1     -11.611  10.693  70.438  1.00  0.00    -0.351 C  
BRANCH  10  11
HETATM   11  N   UNL     1     -11.944  10.617  69.001  1.00  0.00    -0.527 N  
HETATM   12  O   UNL     1     -10.337  12.116  68.351  1.00  0.00    -0.219 OA 
HETATM   13  H   UNL     1     -12.693   9.997  68.692  1.00  0.00     0.000 HD 
HETATM   14  C   UNL     1     -11.261  11.367  68.076  1.00  0.00    -0.281 C  
BRANCH  14  15
HETATM   15  O   UNL     1     -11.758  11.192  66.818  1.00  0.00    -0.349 OA 
BRANCH  15  16
HETATM   16  C   UNL     1     -11.155  12.050  65.830  1.00  0.00    -0.324 C  
HETATM   17  C   UNL     1     -10.594  11.263  64.663  1.00  0.00    -0.392 C  
HETATM   18  O   UNL     1     -11.753  13.105  63.759  1.00  0.00    -0.437 OA 
HETATM   19  C   UNL     1     -10.596  12.288  63.550  1.00  0.00    -0.448 C  
HETATM   20  C   UNL     1     -12.151  12.975  65.134  1.00  0.00    -0.433 C  
ENDBRANCH  15  16
ENDBRANCH  14  15
ENDBRANCH  10  11
BRANCH  10  21
HETATM   21  C   UNL     1     -12.758  11.326  71.271  1.00  0.00    -0.510 C  
BRANCH  21  22
HETATM   22  C   UNL     1     -12.814  12.823  71.498  1.00  0.00    -0.369 A  
HETATM   23  C   UNL     1     -12.182  15.072  70.810  1.00  0.00    -0.386 A  
HETATM   24  C   UNL     1     -12.008  13.686  70.742  1.00  0.00    -0.286 A  
HETATM   25  C   UNL     1     -13.154  15.619  71.646  1.00  0.00    -0.554 A  
HETATM   26  C   UNL     1     -13.778  13.390  72.348  1.00  0.00    -0.698 A  
HETATM   27  C   UNL     1     -13.946  14.778  72.422  1.00  0.00    -0.575 A  
ENDBRANCH  21  22
ENDBRANCH  10  21
ENDBRANCH   7  10
ENDBRANCH   6   7
ENDBRANCH   5   6
BRANCH   5  28
HETATM   28  S   UNL     1      -9.174   6.136  69.495  1.00  0.00    -0.138 S  
HETATM   29  O   UNL     1      -7.818   5.888  69.926  1.00  0.00    -0.092 OA 
HETATM   30  O   UNL     1     -10.298   5.588  70.231  1.00  0.00    -0.234 OA 
BRANCH  28  31
HETATM   31  C   UNL     1      -9.286   5.559  67.824  1.00  0.00    -0.107 A  
HETATM   32  N   UNL     1      -9.556   4.125  63.881  1.00  0.00    -0.197 NA 
HETATM   33  H2  UNL     1      -9.087   3.220  63.889  1.00  0.00     0.000 HD 
HETATM   34  H1  UNL     1     -10.465   4.013  63.432  1.00  0.00     0.000 HD 
HETATM   35  C   UNL     1      -8.122   5.285  67.103  1.00  0.00    -0.101 A  
HETATM   36  C   UNL     1      -8.221   4.833  65.780  1.00  0.00    -0.112 A  
HETATM   37  C   UNL     1     -10.541   5.322  67.247  1.00  0.00    -0.200 A  
HETATM   38  C   UNL     1     -10.624   4.864  65.928  1.00  0.00    -0.280 A  
HETATM   39  C   UNL     1      -9.468   4.679  65.163  1.00  0.00    -0.140 A  
ENDBRANCH  28  31
ENDBRANCH   5  28
ENDBRANCH   4   5
TORSDOF 11
ENDMDL
MODEL       73
REMARK 921   NORMALIZED FREE ENERGY PREDICTED BY IDOCK:   -6.22 KCAL/MOL
REMARK 922        TOTAL FREE ENERGY PREDICTED BY IDOCK:  -12.00 KCAL/MOL
REMARK 923 INTER-LIGAND FREE ENERGY PREDICTED BY IDOCK:   -9.96 KCAL/MOL
REMARK 924 INTRA-LIGAND FREE ENERGY PREDICTED BY IDOCK:   -2.04 KCAL/MOL
REMARK 927      BINDING AFFINITY PREDICTED BY RF-SCORE:    0.00 PKD
ROOT
HETATM    1  C   UNL     1      -6.501  10.270  64.475  1.00  0.00    -0.092 C  
HETATM    2  C   UNL     1      -7.988  10.067  64.182  1.00  0.00    -0.152 C  
HETATM    3  C   UNL     1      -8.166   8.661  63.574  1.00  0.00    -0.150 C  
HETATM    4  C   UNL     1      -8.883  10.199  65.429  1.00  0.00    -0.173 C  
ENDROOT
BRANCH   4   5
HETATM    5  N   UNL     1      -8.839  11.524  66.183  1.00  0.00    -0.192 N  
BRANCH   5   6
HETATM    6  C   UNL     1     -10.223  12.216  66.227  1.00  0.00    -0.223 C  
BRANCH   6   7
HETATM    7  C   UNL     1     -10.327  13.622  65.540  1.00  0.00    -0.309 C  
HETATM    8  H   UNL     1     -11.547  14.483  64.279  1.00  0.00     0.000 HD 
HETATM    9  O   UNL     1     -11.483  13.632  64.695  1.00  0.00    -0.338 OA 
BRANCH   7  10
HETATM   10  C   UNL     1     -10.335  14.819  66.562  1.00  0.00    -0.286 C  
BRANCH  10  11
HETATM   11  N   UNL     1     -10.428  14.380  67.969  1.00  0.00    -0.235 N  
HETATM   12  O   UNL     1     -12.069  15.878  68.530  1.00  0.00    -0.208 OA 
HETATM   13  H   UNL     1      -9.832  13.620  68.298  1.00  0.00     0.000 HD 
HETATM   14  C   UNL     1     -11.303  14.978  68.841  1.00  0.00    -0.297 C  
BRANCH  14  15
HETATM   15  O   UNL     1     -11.194  14.464  70.100  1.00  0.00    -0.206 OA 
BRANCH  15  16
HETATM   16  C   UNL     1     -12.439  14.427  70.823  1.00  0.00    -0.352 C  
HETATM   17  C   UNL     1     -12.804  13.021  71.251  1.00  0.00    -0.370 C  
HETATM   18  O   UNL     1     -13.196  14.427  73.101  1.00  0.00    -0.591 OA 
HETATM   19  C   UNL     1     -13.710  13.268  72.438  1.00  0.00    -0.578 C  
HETATM   20  C   UNL     1     -12.390  15.160  72.162  1.00  0.00    -0.358 C  
ENDBRANCH  15  16
ENDBRANCH  14  15
ENDBRANCH  10  11
BRANCH  10  21
HETATM   21  C   UNL     1      -9.251  15.912  66.361  1.00  0.00    -0.344 C  
BRANCH  21  22
HETATM   22  C   UNL     1      -9.475  17.325  66.862  1.00  0.00    -0.264 A  
HETATM   23  C   UNL     1     -10.737  19.405  66.773  1.00  0.00    -0.550 A  
HETATM   24  C   UNL     1     -10.386  18.171  66.215  1.00  0.00    -0.407 A  
HETATM   25  C   UNL     1     -10.172  19.819  67.978  1.00  0.00    -0.581 A  
HETATM   26  C   UNL     1      -8.902  17.764  68.068  1.00  0.00    -0.259 A  
HETATM   27  C   UNL     1      -9.248  19.002  68.620  1.00  0.00    -0.414 A  
ENDBRANCH  21  22
ENDBRANCH  10  21
ENDBRANCH   7  10
ENDBRANCH   6   7
ENDBRANCH   5   6
BRANCH   5  28
HETATM   28  S   UNL     1      -8.206  11.285  67.809  1.00  0.00    -0.125 S  
HETATM   29  O   UNL     1      -6.957  10.563  67.733  1.00  0.00    -0.076 OA 
HETATM   30  O   UNL     1      -8.272  12.585  68.451  1.00  0.00    -0.161 OA 
BRANCH  28  31
HETATM   31  C   UNL     1      -9.357  10.217  68.628  1.00  0.00    -0.161 A  
HETATM   32  N   UNL     1     -12.129   7.681  70.516  1.00  0.00    -0.507 NA 
HETATM   33  H2  UNL     1     -13.040   7.952  70.147  1.00  0.00     0.000 HD 
HETATM   34  H1  UNL     1     -12.039   6.668  70.441  1.00  0.00     0.000 HD 
HETATM   35  C   UNL     1     -10.377  10.762  69.410  1.00  0.00    -0.207 A  
HETATM   36  C   UNL     1     -11.281   9.909  70.058  1.00  0.00    -0.327 A  
HETATM   37  C   UNL     1      -9.279   8.829  68.445  1.00  0.00    -0.137 A  
HETATM   38  C   UNL     1     -10.192   7.990  69.092  1.00  0.00    -0.221 A  
HETATM   39  C   UNL     1     -11.158   8.518  69.954  1.00  0.00    -0.112 A  
ENDBRANCH  28  31
ENDBRANCH   5  28
ENDBRANCH   4   5
TORSDOF 11
ENDMDL
MODEL       74
REMARK 921   NORMALIZED FREE ENERGY PREDICTED BY IDOCK:   -6.22 KCAL/MOL
REMARK 922        TOTAL FREE ENERGY PREDICTED BY IDOCK:  -11.99 KCAL/MOL
REMARK 923 INTER-LIGAND FREE ENERGY PREDICTED BY IDOCK:  -10.11 KCAL/MOL
REMARK 924 INTRA-LIGAND FREE ENERGY PREDICTED BY IDOCK:   -1.87 KCAL/MOL
REMARK 927      BINDING AFFINITY PREDICTED BY RF-SCORE:    0.00 PKD
ROOT
HETATM    1  C   UNL     1     -13.094  10.120  70.344  1.00  0.00    -0.060 C  
HETATM    2  C   UNL     1     -12.435   9.596  71.621  1.00  0.00    -0.494 C  
HETATM    3  C   UNL     1     -13.533   9.437  72.692  1.00  0.00    -0.323 C  
HETATM    4  C   UNL     1     -11.710   8.249  71.430  1.00  0.00    -0.287 C  
ENDROOT
BRANCH   4   5
HETATM    5  N   UNL     1     -10.591   8.199  70.397  1.00  0.00    -0.220 N  
BRANCH   5   6
HETATM    6  C   UNL     1      -9.567   9.344  70.591  1.00  0.00    -0.268 C  
BRANCH   6   7
HETATM    7  C   UNL     1      -9.072  10.073  69.293  1.00  0.00    -0.200 C  
HETATM    8  H   UNL     1      -8.405   9.524  67.540  1.00  0.00     0.000 HD 
HETATM    9  O   UNL     1      -8.705   9.082  68.326  1.00  0.00    -0.129 OA 
BRANCH   7  10
HETATM   10  C   UNL     1     -10.116  11.100  68.716  1.00  0.00    -0.201 C  
BRANCH  10  11
HETATM   11  N   UNL     1      -9.536  12.435  68.463  1.00  0.00    -0.362 N  
HETATM   12  O   UNL     1     -11.291  13.585  69.388  1.00  0.00    -0.260 OA 
HETATM   13  H   UNL     1      -8.624  12.509  68.013  1.00  0.00     0.000 HD 
HETATM   14  C   UNL     1     -10.206  13.578  68.825  1.00  0.00    -0.131 C  
BRANCH  14  15
HETATM   15  O   UNL     1      -9.527  14.701  68.455  1.00  0.00    -0.205 OA 
BRANCH  15  16
HETATM   16  C   UNL     1     -10.253  15.546  67.543  1.00  0.00    -0.254 C  
HETATM   17  C   UNL     1     -10.004  17.016  67.811  1.00  0.00    -0.280 C  
HETATM   18  O   UNL     1      -9.873  16.710  65.479  1.00  0.00    -0.549 OA 
HETATM   19  C   UNL     1     -10.307  17.647  66.470  1.00  0.00    -0.337 C  
HETATM   20  C   UNL     1      -9.799  15.412  66.091  1.00  0.00    -0.311 C  
ENDBRANCH  15  16
ENDBRANCH  14  15
ENDBRANCH  10  11
BRANCH  10  21
HETATM   21  C   UNL     1     -10.992  10.611  67.532  1.00  0.00    -0.371 C  
BRANCH  21  22
HETATM   22  C   UNL     1     -11.099  11.426  66.259  1.00  0.00    -0.281 A  
HETATM   23  C   UNL     1     -10.470  11.773  63.933  1.00  0.00    -0.437 A  
HETATM   24  C   UNL     1     -10.259  11.156  65.170  1.00  0.00    -0.347 A  
HETATM   25  C   UNL     1     -11.514  12.681  63.768  1.00  0.00    -0.539 A  
HETATM   26  C   UNL     1     -12.137  12.357  66.082  1.00  0.00    -0.295 A  
HETATM   27  C   UNL     1     -12.342  12.979  64.845  1.00  0.00    -0.512 A  
ENDBRANCH  21  22
ENDBRANCH  10  21
ENDBRANCH   7  10
ENDBRANCH   6   7
ENDBRANCH   5   6
BRANCH   5  28
HETATM   28  S   UNL     1      -9.790   6.631  70.432  1.00  0.00    -0.175 S  
HETATM   29  O   UNL     1      -8.371   6.825  70.612  1.00  0.00    -0.125 OA 
HETATM   30  O   UNL     1     -10.553   5.822  71.366  1.00  0.00    -0.235 OA 
BRANCH  28  31
HETATM   31  C   UNL     1     -10.004   5.938  68.816  1.00  0.00    -0.152 A  
HETATM   32  N   UNL     1     -10.566   4.262  65.002  1.00  0.00    -0.588 NA 
HETATM   33  H2  UNL     1     -10.948   3.331  65.168  1.00  0.00     0.000 HD 
HETATM   34  H1  UNL     1     -11.152   4.730  64.311  1.00  0.00     0.000 HD 
HETATM   35  C   UNL     1      -9.342   4.759  68.471  1.00  0.00    -0.181 A  
HETATM   36  C   UNL     1      -9.513   4.221  67.188  1.00  0.00    -0.204 A  
HETATM   37  C   UNL     1     -10.882   6.542  67.905  1.00  0.00    -0.383 A  
HETATM   38  C   UNL     1     -11.049   5.990  66.631  1.00  0.00    -0.118 A  
HETATM   39  C   UNL     1     -10.318   4.864  66.240  1.00  0.00    -0.298 A  
ENDBRANCH  28  31
ENDBRANCH   5  28
ENDBRANCH   4   5
TORSDOF 11
ENDMDL
MODEL       75
REMARK 921   NORMALIZED FREE ENERGY PREDICTED BY IDOCK:   -6.19 KCAL/MOL
REMARK 922        TOTAL FREE ENERGY PREDICTED BY IDOCK:  -11.93 KCAL/MOL
REMARK 923 INTER-LIGAND FREE ENERGY PREDICTED BY IDOCK:  -10.52 KCAL/MOL
REMARK 924 INTRA-LIGAND FREE ENERGY PREDICTED BY IDOCK:   -1.41 KCAL/MOL
REMARK 927      BINDING AFFINITY PREDICTED BY RF-SCORE:    0.00 PKD
ROOT
HETATM    1  C   UNL     1      -9.087   8.508  72.722  1.00  0.00    -0.218 C  
HETATM    2  C   UNL     1     -10.307   7.873  72.054  1.00  0.00    -0.283 C  
HETATM    3  C   UNL     1     -10.859   6.789  73.002  1.00  0.00    -0.314 C  
HETATM    4  C   UNL     1     -11.426   8.883  71.731  1.00  0.00    -0.353 C  
ENDROOT
BRANCH   4   5
HETATM    5  N   UNL     1     -11.071  10.046  70.810  1.00  0.00    -0.330 N  
BRANCH   5   6
HETATM    6  C   UNL     1     -10.103   9.619  69.679  1.00  0.00    -0.224 C  
BRANCH   6   7
HETATM    7  C   UNL     1      -8.867  10.549  69.424  1.00  0.00    -0.075 C  
HETATM    8  H   UNL     1      -6.940  10.300  69.210  1.00  0.00     0.000 HD 
HETATM    9  O   UNL     1      -7.689   9.736  69.365  1.00  0.00    -0.088 OA 
BRANCH   7  10
HETATM   10  C   UNL     1      -9.020  11.458  68.148  1.00  0.00    -0.169 C  
BRANCH  10  11
HETATM   11  N   UNL     1      -9.051  12.900  68.463  1.00  0.00    -0.370 N  
HETATM   12  O   UNL     1     -10.836  13.357  67.100  1.00  0.00    -0.271 OA 
HETATM   13  H   UNL     1      -8.374  13.284  69.123  1.00  0.00     0.000 HD 
HETATM   14  C   UNL     1      -9.976  13.732  67.881  1.00  0.00    -0.240 C  
BRANCH  14  15
HETATM   15  O   UNL     1      -9.799  15.029  68.263  1.00  0.00    -0.211 OA 
BRANCH  15  16
HETATM   16  C   UNL     1     -10.330  15.988  67.328  1.00  0.00    -0.295 C  
HETATM   17  C   UNL     1     -10.597  17.329  67.981  1.00  0.00    -0.394 C  
HETATM   18  O   UNL     1      -9.531  17.764  65.925  1.00  0.00    -0.521 OA 
HETATM   19  C   UNL     1     -10.534  18.280  66.806  1.00  0.00    -0.365 C  
HETATM   20  C   UNL     1      -9.350  16.369  66.220  1.00  0.00    -0.315 C  
ENDBRANCH  15  16
ENDBRANCH  14  15
ENDBRANCH  10  11
BRANCH  10  21
HETATM   21  C   UNL     1      -8.082  11.141  66.952  1.00  0.00    -0.150 C  
BRANCH  21  22
HETATM   22  C   UNL     1      -8.653  10.822  65.585  1.00  0.00    -0.185 A  
HETATM   23  C   UNL     1     -10.435  11.079  63.946  1.00  0.00    -0.422 A  
HETATM   24  C   UNL     1      -9.962  11.202  65.256  1.00  0.00    -0.311 A  
HETATM   25  C   UNL     1      -9.614  10.562  62.946  1.00  0.00    -0.355 A  
HETATM   26  C   UNL     1      -7.843  10.287  64.569  1.00  0.00    -0.116 A  
HETATM   27  C   UNL     1      -8.320  10.158  63.260  1.00  0.00    -0.170 A  
ENDBRANCH  21  22
ENDBRANCH  10  21
ENDBRANCH   7  10
ENDBRANCH   6   7
ENDBRANCH   5   6
BRANCH   5  28
HETATM   28  S   UNL     1     -12.531  10.771  70.144  1.00  0.00    -0.221 S  
HETATM   29  O   UNL     1     -12.331  11.040  68.740  1.00  0.00    -0.533 OA 
HETATM   30  O   UNL     1     -13.626   9.928  70.589  1.00  0.00    -0.183 OA 
BRANCH  28  31
HETATM   31  C   UNL     1     -12.700  12.345  70.940  1.00  0.00    -0.185 A  
HETATM   32  N   UNL     1     -13.046  16.065  72.867  1.00  0.00    -0.480 NA 
HETATM   33  H2  UNL     1     -12.717  15.909  73.819  1.00  0.00     0.000 HD 
HETATM   34  H1  UNL     1     -12.573  16.888  72.494  1.00  0.00     0.000 HD 
HETATM   35  C   UNL     1     -13.512  12.470  72.069  1.00  0.00    -0.486 A  
HETATM   36  C   UNL     1     -13.643  13.719  72.689  1.00  0.00    -0.617 A  
HETATM   37  C   UNL     1     -11.974  13.448  70.473  1.00  0.00    -0.332 A  
HETATM   38  C   UNL     1     -12.109  14.688  71.106  1.00  0.00    -0.403 A  
HETATM   39  C   UNL     1     -12.993  14.849  72.177  1.00  0.00    -0.334 A  
ENDBRANCH  28  31
ENDBRANCH   5  28
ENDBRANCH   4   5
TORSDOF 11
ENDMDL
MODEL       76
REMARK 921   NORMALIZED FREE ENERGY PREDICTED BY IDOCK:   -6.17 KCAL/MOL
REMARK 922        TOTAL FREE ENERGY PREDICTED BY IDOCK:  -11.92 KCAL/MOL
REMARK 923 INTER-LIGAND FREE ENERGY PREDICTED BY IDOCK:   -9.56 KCAL/MOL
REMARK 924 INTRA-LIGAND FREE ENERGY PREDICTED BY IDOCK:   -2.36 KCAL/MOL
REMARK 927      BINDING AFFINITY PREDICTED BY RF-SCORE:    0.00 PKD
ROOT
HETATM    1  C   UNL     1     -10.265  10.643  64.941  1.00  0.00    -0.395 C  
HETATM    2  C   UNL     1     -10.159   9.548  66.003  1.00  0.00    -0.319 C  
HETATM    3  C   UNL     1      -8.936   8.672  65.665  1.00  0.00    -0.231 C  
HETATM    4  C   UNL     1     -10.013  10.095  67.437  1.00  0.00    -0.195 C  
ENDROOT
BRANCH   4   5
HETATM    5  N   UNL     1     -11.125  11.000  67.956  1.00  0.00    -0.262 N  
BRANCH   5   6
HETATM    6  C   UNL     1     -11.885  10.364  69.146  1.00  0.00    -0.063 C  
BRANCH   6   7
HETATM    7  C   UNL     1     -11.014   9.634  70.227  1.00  0.00    -0.285 C  
HETATM    8  H   UNL     1     -10.792   9.748  72.165  1.00  0.00     0.000 HD 
HETATM    9  O   UNL     1     -11.319  10.190  71.510  1.00  0.00    -0.233 OA 
BRANCH   7  10
HETATM   10  C   UNL     1     -11.177   8.069  70.209  1.00  0.00    -0.190 C  
BRANCH  10  11
HETATM   11  N   UNL     1      -9.886   7.351  70.173  1.00  0.00    -0.180 N  
HETATM   12  O   UNL     1     -10.421   6.086  68.337  1.00  0.00    -0.188 OA 
HETATM   13  H   UNL     1      -9.171   7.570  70.866  1.00  0.00     0.000 HD 
HETATM   14  C   UNL     1      -9.634   6.396  69.219  1.00  0.00    -0.137 C  
BRANCH  14  15
HETATM   15  O   UNL     1      -8.412   5.817  69.395  1.00  0.00    -0.110 OA 
BRANCH  15  16
HETATM   16  C   UNL     1      -8.037   5.656  70.776  1.00  0.00    -0.117 C  
HETATM   17  C   UNL     1      -8.229   4.231  71.253  1.00  0.00    -0.083 C  
HETATM   18  O   UNL     1      -6.132   4.948  72.053  1.00  0.00    -0.022 OA 
HETATM   19  C   UNL     1      -7.260   4.143  72.411  1.00  0.00    -0.062 C  
HETATM   20  C   UNL     1      -6.548   5.875  71.036  1.00  0.00    -0.045 C  
ENDBRANCH  15  16
ENDBRANCH  14  15
ENDBRANCH  10  11
BRANCH  10  21
HETATM   21  C   UNL     1     -12.155   7.460  71.249  1.00  0.00    -0.359 C  
BRANCH  21  22
HETATM   22  C   UNL     1     -11.632   6.673  72.434  1.00  0.00    -0.281 A  
HETATM   23  C   UNL     1     -11.128   4.527  73.467  1.00  0.00    -0.398 A  
HETATM   24  C   UNL     1     -11.765   5.278  72.474  1.00  0.00    -0.112 A  
HETATM   25  C   UNL     1     -10.360   5.158  74.444  1.00  0.00    -0.313 A  
HETATM   26  C   UNL     1     -10.869   7.296  73.436  1.00  0.00    -0.370 A  
HETATM   27  C   UNL     1     -10.238   6.544  74.433  1.00  0.00    -0.334 A  
ENDBRANCH  21  22
ENDBRANCH  10  21
ENDBRANCH   7  10
ENDBRANCH   6   7
ENDBRANCH   5   6
BRANCH   5  28
HETATM   28  S   UNL     1     -10.480  12.578  68.396  1.00  0.00    -0.238 S  
HETATM   29  O   UNL     1     -11.217  13.096  69.525  1.00  0.00    -0.192 OA 
HETATM   30  O   UNL     1      -9.040  12.408  68.465  1.00  0.00    -0.163 OA 
BRANCH  28  31
HETATM   31  C   UNL     1     -10.834  13.647  67.028  1.00  0.00    -0.286 A  
HETATM   32  N   UNL     1     -11.700  16.230  63.826  1.00  0.00    -1.488 NA 
HETATM   33  H2  UNL     1     -12.556  16.716  64.093  1.00  0.00     0.000 HD 
HETATM   34  H1  UNL     1     -11.018  16.925  63.522  1.00  0.00     0.000 HD 
HETATM   35  C   UNL     1     -12.041  13.520  66.340  1.00  0.00    -0.467 A  
HETATM   36  C   UNL     1     -12.311  14.367  65.257  1.00  0.00    -0.372 A  
HETATM   37  C   UNL     1      -9.929  14.657  66.675  1.00  0.00    -0.281 A  
HETATM   38  C   UNL     1     -10.214  15.500  65.597  1.00  0.00    -0.403 A  
HETATM   39  C   UNL     1     -11.375  15.321  64.839  1.00  0.00    -0.384 A  
ENDBRANCH  28  31
ENDBRANCH   5  28
ENDBRANCH   4   5
TORSDOF 11
ENDMDL
MODEL       77
REMARK 921   NORMALIZED FREE ENERGY PREDICTED BY IDOCK:   -6.17 KCAL/MOL
REMARK 922        TOTAL FREE ENERGY PREDICTED BY IDOCK:  -11.91 KCAL/MOL
REMARK 923 INTER-LIGAND FREE ENERGY PREDICTED BY IDOCK:   -9.91 KCAL/MOL
REMARK 924 INTRA-LIGAND FREE ENERGY PREDICTED BY IDOCK:   -2.00 KCAL/MOL
REMARK 927      BINDING AFFINITY PREDICTED BY RF-SCORE:    0.00 PKD
ROOT
HETATM    1  C   UNL     1     -12.830  13.351  65.216  1.00  0.00    -0.398 C  
HETATM    2  C   UNL     1     -11.484  12.627  65.186  1.00  0.00    -0.363 C  
HETATM    3  C   UNL     1     -10.954  12.666  63.739  1.00  0.00    -0.481 C  
HETATM    4  C   UNL     1     -10.433  13.244  66.130  1.00  0.00    -0.293 C  
ENDROOT
BRANCH   4   5
HETATM    5  N   UNL     1     -10.778  13.308  67.613  1.00  0.00    -0.237 N  
BRANCH   5   6
HETATM    6  C   UNL     1     -10.021  12.236  68.434  1.00  0.00    -0.209 C  
BRANCH   6   7
HETATM    7  C   UNL     1     -10.856  10.999  68.916  1.00  0.00    -0.217 C  
HETATM    8  H   UNL     1     -12.653  10.303  68.591  1.00  0.00     0.000 HD 
HETATM    9  O   UNL     1     -12.148  11.053  68.299  1.00  0.00    -0.604 OA 
BRANCH   7  10
HETATM   10  C   UNL     1     -10.139   9.622  68.660  1.00  0.00    -0.179 C  
BRANCH  10  11
HETATM   11  N   UNL     1     -10.207   8.708  69.819  1.00  0.00    -0.200 N  
HETATM   12  O   UNL     1      -8.239   9.429  70.748  1.00  0.00    -0.193 OA 
HETATM   13  H   UNL     1     -11.003   8.078  69.915  1.00  0.00     0.000 HD 
HETATM   14  C   UNL     1      -9.216   8.695  70.769  1.00  0.00    -0.185 C  
BRANCH  14  15
HETATM   15  O   UNL     1      -9.442   7.745  71.721  1.00  0.00    -0.145 OA 
BRANCH  15  16
HETATM   16  C   UNL     1      -9.981   6.515  71.199  1.00  0.00    -0.182 C  
HETATM   17  C   UNL     1      -8.895   5.503  70.898  1.00  0.00    -0.148 C  
HETATM   18  O   UNL     1     -10.623   4.348  72.006  1.00  0.00    -0.117 OA 
HETATM   19  C   UNL     1      -9.644   4.191  70.975  1.00  0.00    -0.183 C  
HETATM   20  C   UNL     1     -10.848   5.754  72.200  1.00  0.00    -0.244 C  
ENDBRANCH  15  16
ENDBRANCH  14  15
ENDBRANCH  10  11
BRANCH  10  21
HETATM   21  C   UNL     1     -10.472   8.900  67.327  1.00  0.00    -0.348 C  
BRANCH  21  22
HETATM   22  C   UNL     1      -9.912   7.524  67.031  1.00  0.00    -0.304 A  
HETATM   23  C   UNL     1      -8.003   6.015  66.931  1.00  0.00    -0.102 A  
HETATM   24  C   UNL     1      -8.526   7.309  67.019  1.00  0.00    -0.118 A  
HETATM   25  C   UNL     1      -8.855   4.916  66.837  1.00  0.00    -0.106 A  
HETATM   26  C   UNL     1     -10.757   6.407  66.919  1.00  0.00    -0.408 A  
HETATM   27  C   UNL     1     -10.233   5.114  66.823  1.00  0.00    -0.289 A  
ENDBRANCH  21  22
ENDBRANCH  10  21
ENDBRANCH   7  10
ENDBRANCH   6   7
ENDBRANCH   5   6
BRANCH   5  28
HETATM   28  S   UNL     1     -10.467  14.920  68.249  1.00  0.00    -0.244 S  
HETATM   29  O   UNL     1      -9.071  15.030  68.605  1.00  0.00    -0.177 OA 
HETATM   30  O   UNL     1     -11.064  15.840  67.298  1.00  0.00    -0.302 OA 
BRANCH  28  31
HETATM   31  C   UNL     1     -11.383  15.033  69.761  1.00  0.00    -0.283 A  
HETATM   32  N   UNL     1     -13.603  15.340  73.318  1.00  0.00    -0.607 NA 
HETATM   33  H2  UNL     1     -13.998  16.280  73.311  1.00  0.00     0.000 HD 
HETATM   34  H1  UNL     1     -14.352  14.678  73.521  1.00  0.00     0.000 HD 
HETATM   35  C   UNL     1     -11.060  16.014  70.700  1.00  0.00    -0.352 A  
HETATM   36  C   UNL     1     -11.787  16.093  71.895  1.00  0.00    -0.605 A  
HETATM   37  C   UNL     1     -12.468  14.176  69.989  1.00  0.00    -0.352 A  
HETATM   38  C   UNL     1     -13.190  14.270  71.183  1.00  0.00    -0.387 A  
HETATM   39  C   UNL     1     -12.815  15.184  72.172  1.00  0.00    -0.344 A  
ENDBRANCH  28  31
ENDBRANCH   5  28
ENDBRANCH   4   5
TORSDOF 11
ENDMDL
MODEL       78
REMARK 921   NORMALIZED FREE ENERGY PREDICTED BY IDOCK:   -6.16 KCAL/MOL
REMARK 922        TOTAL FREE ENERGY PREDICTED BY IDOCK:  -11.89 KCAL/MOL
REMARK 923 INTER-LIGAND FREE ENERGY PREDICTED BY IDOCK:   -9.97 KCAL/MOL
REMARK 924 INTRA-LIGAND FREE ENERGY PREDICTED BY IDOCK:   -1.92 KCAL/MOL
REMARK 927      BINDING AFFINITY PREDICTED BY RF-SCORE:    0.00 PKD
ROOT
HETATM    1  C   UNL     1      -7.667   8.778  66.625  1.00  0.00    -0.093 C  
HETATM    2  C   UNL     1      -9.140   9.184  66.558  1.00  0.00    -0.194 C  
HETATM    3  C   UNL     1      -9.518   9.364  65.074  1.00  0.00    -0.204 C  
HETATM    4  C   UNL     1     -10.090   8.156  67.204  1.00  0.00    -0.264 C  
ENDROOT
BRANCH   4   5
HETATM    5  N   UNL     1      -9.869   7.830  68.677  1.00  0.00    -0.164 N  
BRANCH   5   6
HETATM    6  C   UNL     1     -10.953   8.465  69.582  1.00  0.00    -0.087 C  
BRANCH   6   7
HETATM    7  C   UNL     1     -10.526   9.728  70.409  1.00  0.00    -0.297 C  
HETATM    8  H   UNL     1      -8.863  10.701  70.733  1.00  0.00     0.000 HD 
HETATM    9  O   UNL     1      -9.121   9.936  70.232  1.00  0.00    -0.208 OA 
BRANCH   7  10
HETATM   10  C   UNL     1     -11.361  11.016  70.060  1.00  0.00    -0.277 C  
BRANCH  10  11
HETATM   11  N   UNL     1     -11.942  10.979  68.703  1.00  0.00    -0.397 N  
HETATM   12  O   UNL     1     -10.236  12.163  67.731  1.00  0.00    -0.194 OA 
HETATM   13  H   UNL     1     -12.828  10.497  68.549  1.00  0.00     0.000 HD 
HETATM   14  C   UNL     1     -11.309  11.584  67.645  1.00  0.00    -0.291 C  
BRANCH  14  15
HETATM   15  O   UNL     1     -12.036  11.482  66.496  1.00  0.00    -0.252 OA 
BRANCH  15  16
HETATM   16  C   UNL     1     -11.723  12.493  65.518  1.00  0.00    -0.409 C  
HETATM   17  C   UNL     1     -12.200  12.109  64.133  1.00  0.00    -0.509 C  
HETATM   18  O   UNL     1     -12.790  14.366  64.463  1.00  0.00    -0.634 OA 
HETATM   19  C   UNL     1     -12.344  13.454  63.455  1.00  0.00    -0.269 C  
HETATM   20  C   UNL     1     -12.456  13.813  65.747  1.00  0.00    -0.485 C  
ENDBRANCH  15  16
ENDBRANCH  14  15
ENDBRANCH  10  11
BRANCH  10  21
HETATM   21  C   UNL     1     -12.388  11.488  71.123  1.00  0.00    -0.382 C  
BRANCH  21  22
HETATM   22  C   UNL     1     -12.811  12.942  71.198  1.00  0.00    -0.326 A  
HETATM   23  C   UNL     1     -13.876  14.754  72.426  1.00  0.00    -0.578 A  
HETATM   24  C   UNL     1     -13.632  13.389  72.243  1.00  0.00    -0.703 A  
HETATM   25  C   UNL     1     -13.316  15.692  71.561  1.00  0.00    -0.535 A  
HETATM   26  C   UNL     1     -12.267  13.899  70.324  1.00  0.00    -0.428 A  
HETATM   27  C   UNL     1     -12.518  15.263  70.505  1.00  0.00    -0.454 A  
ENDBRANCH  21  22
ENDBRANCH  10  21
ENDBRANCH   7  10
ENDBRANCH   6   7
ENDBRANCH   5   6
BRANCH   5  28
HETATM   28  S   UNL     1      -9.794   6.087  68.917  1.00  0.00    -0.148 S  
HETATM   29  O   UNL     1     -11.129   5.540  68.851  1.00  0.00    -0.083 OA 
HETATM   30  O   UNL     1      -8.753   5.612  68.024  1.00  0.00    -0.102 OA 
BRANCH  28  31
HETATM   31  C   UNL     1      -9.232   5.849  70.580  1.00  0.00    -0.153 A  
HETATM   32  N   UNL     1      -7.929   5.341  74.545  1.00  0.00    -0.101 NA 
HETATM   33  H2  UNL     1      -7.752   6.282  74.895  1.00  0.00     0.000 HD 
HETATM   34  H1  UNL     1      -8.511   4.849  75.223  1.00  0.00     0.000 HD 
HETATM   35  C   UNL     1      -7.970   6.307  70.961  1.00  0.00    -0.116 A  
HETATM   36  C   UNL     1      -7.532   6.110  72.277  1.00  0.00    -0.095 A  
HETATM   37  C   UNL     1     -10.077   5.253  71.527  1.00  0.00    -0.254 A  
HETATM   38  C   UNL     1      -9.629   5.068  72.839  1.00  0.00    -0.163 A  
HETATM   39  C   UNL     1      -8.332   5.436  73.208  1.00  0.00    -0.117 A  
ENDBRANCH  28  31
ENDBRANCH   5  28
ENDBRANCH   4   5
TORSDOF 11
ENDMDL
MODEL       79
REMARK 921   NORMALIZED FREE ENERGY PREDICTED BY IDOCK:   -6.15 KCAL/MOL
REMARK 922        TOTAL FREE ENERGY PREDICTED BY IDOCK:  -11.88 KCAL/MOL
REMARK 923 INTER-LIGAND FREE ENERGY PREDICTED BY IDOCK:  -10.71 KCAL/MOL
REMARK 924 INTRA-LIGAND FREE ENERGY PREDICTED BY IDOCK:   -1.17 KCAL/MOL
REMARK 927      BINDING AFFINITY PREDICTED BY RF-SCORE:    0.00 PKD
ROOT
HETATM    1  C   UNL     1     -11.498   6.693  70.456  1.00  0.00    -0.432 C  
HETATM    2  C   UNL     1     -11.481   7.338  71.843  1.00  0.00    -0.302 C  
HETATM    3  C   UNL     1     -10.863   6.328  72.830  1.00  0.00    -0.284 C  
HETATM    4  C   UNL     1     -10.684   8.656  71.897  1.00  0.00    -0.344 C  
ENDROOT
BRANCH   4   5
HETATM    5  N   UNL     1     -11.136   9.784  70.977  1.00  0.00    -0.350 N  
BRANCH   5   6
HETATM    6  C   UNL     1     -10.978   9.416  69.482  1.00  0.00    -0.173 C  
BRANCH   6   7
HETATM    7  C   UNL     1     -10.107  10.385  68.608  1.00  0.00    -0.176 C  
HETATM    8  H   UNL     1      -8.235  10.946  68.572  1.00  0.00     0.000 HD 
HETATM    9  O   UNL     1      -8.763  10.360  69.101  1.00  0.00    -0.154 OA 
BRANCH   7  10
HETATM   10  C   UNL     1     -10.174  10.069  67.067  1.00  0.00    -0.237 C  
BRANCH  10  11
HETATM   11  N   UNL     1     -10.054  11.275  66.223  1.00  0.00    -0.222 N  
HETATM   12  O   UNL     1     -12.118  12.104  66.777  1.00  0.00    -0.609 OA 
HETATM   13  H   UNL     1      -9.202  11.427  65.684  1.00  0.00     0.000 HD 
HETATM   14  C   UNL     1     -11.073  12.193  66.151  1.00  0.00    -0.312 C  
BRANCH  14  15
HETATM   15  O   UNL     1     -10.785  13.199  65.277  1.00  0.00    -0.289 OA 
BRANCH  15  16
HETATM   16  C   UNL     1     -11.056  14.515  65.796  1.00  0.00    -0.324 C  
HETATM   17  C   UNL     1      -9.912  15.039  66.639  1.00  0.00    -0.266 C  
HETATM   18  O   UNL     1     -10.593  16.802  65.231  1.00  0.00    -0.621 OA 
HETATM   19  C   UNL     1     -10.102  16.537  66.550  1.00  0.00    -0.299 C  
HETATM   20  C   UNL     1     -11.165  15.589  64.715  1.00  0.00    -0.390 C  
ENDBRANCH  15  16
ENDBRANCH  14  15
ENDBRANCH  10  11
BRANCH  10  21
HETATM   21  C   UNL     1      -9.283   8.906  66.556  1.00  0.00    -0.231 C  
BRANCH  21  22
HETATM   22  C   UNL     1      -9.449   7.504  67.108  1.00  0.00    -0.194 A  
HETATM   23  C   UNL     1     -10.607   5.362  67.075  1.00  0.00    -0.298 A  
HETATM   24  C   UNL     1     -10.541   6.714  66.721  1.00  0.00    -0.315 A  
HETATM   25  C   UNL     1      -9.592   4.783  67.833  1.00  0.00    -0.198 A  
HETATM   26  C   UNL     1      -8.442   6.909  67.886  1.00  0.00    -0.120 A  
HETATM   27  C   UNL     1      -8.513   5.559  68.246  1.00  0.00    -0.097 A  
ENDBRANCH  21  22
ENDBRANCH  10  21
ENDBRANCH   7  10
ENDBRANCH   6   7
ENDBRANCH   5   6
BRANCH   5  28
HETATM   28  S   UNL     1     -12.799  10.242  71.336  1.00  0.00    -0.476 S  
HETATM   29  O   UNL     1     -13.656   9.803  70.260  1.00  0.00     0.194 OA 
HETATM   30  O   UNL     1     -13.040   9.807  72.700  1.00  0.00    -0.222 OA 
BRANCH  28  31
HETATM   31  C   UNL     1     -12.832  12.013  71.317  1.00  0.00    -0.265 A  
HETATM   32  N   UNL     1     -12.854  16.217  71.312  1.00  0.00    -0.465 NA 
HETATM   33  H2  UNL     1     -12.502  16.491  72.229  1.00  0.00     0.000 HD 
HETATM   34  H1  UNL     1     -12.341  16.737  70.601  1.00  0.00     0.000 HD 
HETATM   35  C   UNL     1     -13.592  12.705  72.262  1.00  0.00    -0.508 A  
HETATM   36  C   UNL     1     -13.615  14.106  72.237  1.00  0.00    -0.596 A  
HETATM   37  C   UNL     1     -12.050  12.719  70.393  1.00  0.00    -0.382 A  
HETATM   38  C   UNL     1     -12.078  14.117  70.383  1.00  0.00    -0.417 A  
HETATM   39  C   UNL     1     -12.909  14.820  71.261  1.00  0.00    -0.338 A  
ENDBRANCH  28  31
ENDBRANCH   5  28
ENDBRANCH   4   5
TORSDOF 11
ENDMDL
MODEL       80
REMARK 921   NORMALIZED FREE ENERGY PREDICTED BY IDOCK:   -6.15 KCAL/MOL
REMARK 922        TOTAL FREE ENERGY PREDICTED BY IDOCK:  -11.88 KCAL/MOL
REMARK 923 INTER-LIGAND FREE ENERGY PREDICTED BY IDOCK:   -9.78 KCAL/MOL
REMARK 924 INTRA-LIGAND FREE ENERGY PREDICTED BY IDOCK:   -2.10 KCAL/MOL
REMARK 927      BINDING AFFINITY PREDICTED BY RF-SCORE:    0.00 PKD
ROOT
HETATM    1  C   UNL     1     -12.759   7.381  70.701  1.00  0.00     0.059 C  
HETATM    2  C   UNL     1     -12.123   8.609  71.354  1.00  0.00    -0.351 C  
HETATM    3  C   UNL     1     -12.785   8.813  72.731  1.00  0.00    -0.141 C  
HETATM    4  C   UNL     1     -10.597   8.486  71.536  1.00  0.00    -0.263 C  
ENDROOT
BRANCH   4   5
HETATM    5  N   UNL     1      -9.760   8.266  70.281  1.00  0.00    -0.174 N  
BRANCH   5   6
HETATM    6  C   UNL     1      -8.612   9.297  70.158  1.00  0.00    -0.198 C  
BRANCH   6   7
HETATM    7  C   UNL     1      -8.421   9.975  68.756  1.00  0.00    -0.126 C  
HETATM    8  H   UNL     1      -8.094   9.360  66.931  1.00  0.00     0.000 HD 
HETATM    9  O   UNL     1      -8.210   8.949  67.780  1.00  0.00    -0.109 OA 
BRANCH   7  10
HETATM   10  C   UNL     1      -9.604  10.933  68.358  1.00  0.00    -0.177 C  
BRANCH  10  11
HETATM   11  N   UNL     1     -10.277  11.540  69.525  1.00  0.00    -0.396 N  
HETATM   12  O   UNL     1     -12.398  11.116  68.766  1.00  0.00    -0.539 OA 
HETATM   13  H   UNL     1      -9.714  11.934  70.279  1.00  0.00     0.000 HD 
HETATM   14  C   UNL     1     -11.646  11.583  69.609  1.00  0.00    -0.333 C  
BRANCH  14  15
HETATM   15  O   UNL     1     -12.063  12.231  70.734  1.00  0.00    -0.340 OA 
BRANCH  15  16
HETATM   16  C   UNL     1     -12.627  13.532  70.480  1.00  0.00    -0.241 C  
HETATM   17  C   UNL     1     -13.490  14.011  71.630  1.00  0.00    -0.438 C  
HETATM   18  O   UNL     1     -12.143  15.830  70.975  1.00  0.00    -0.364 OA 
HETATM   19  C   UNL     1     -13.452  15.514  71.460  1.00  0.00    -0.494 C  
HETATM   20  C   UNL     1     -11.584  14.644  70.387  1.00  0.00    -0.268 C  
ENDBRANCH  15  16
ENDBRANCH  14  15
ENDBRANCH  10  11
BRANCH  10  21
HETATM   21  C   UNL     1      -9.312  11.974  67.245  1.00  0.00    -0.180 C  
BRANCH  21  22
HETATM   22  C   UNL     1     -10.441  12.579  66.435  1.00  0.00    -0.269 A  
HETATM   23  C   UNL     1     -12.212  12.316  64.786  1.00  0.00    -0.438 A  
HETATM   24  C   UNL     1     -11.055  11.842  65.413  1.00  0.00    -0.360 A  
HETATM   25  C   UNL     1     -12.765  13.539  65.159  1.00  0.00    -0.453 A  
HETATM   26  C   UNL     1     -11.001  13.818  66.790  1.00  0.00    -0.307 A  
HETATM   27  C   UNL     1     -12.155  14.294  66.156  1.00  0.00    -0.424 A  
ENDBRANCH  21  22
ENDBRANCH  10  21
ENDBRANCH   7  10
ENDBRANCH   6   7
ENDBRANCH   5   6
BRANCH   5  28
HETATM   28  S   UNL     1      -9.132   6.621  70.240  1.00  0.00    -0.156 S  
HETATM   29  O   UNL     1      -7.690   6.664  70.171  1.00  0.00    -0.097 OA 
HETATM   30  O   UNL     1      -9.803   5.918  71.318  1.00  0.00    -0.171 OA 
BRANCH  28  31
HETATM   31  C   UNL     1      -9.690   5.925  68.709  1.00  0.00    -0.131 A  
HETATM   32  N   UNL     1     -10.959   4.297  65.047  1.00  0.00    -0.769 NA 
HETATM   33  H2  UNL     1     -10.643   4.953  64.334  1.00  0.00     0.000 HD 
HETATM   34  H1  UNL     1     -10.672   3.358  64.770  1.00  0.00     0.000 HD 
HETATM   35  C   UNL     1     -10.555   6.651  67.889  1.00  0.00    -0.305 A  
HETATM   36  C   UNL     1     -10.995   6.090  66.682  1.00  0.00    -0.229 A  
HETATM   37  C   UNL     1      -9.218   4.672  68.296  1.00  0.00    -0.166 A  
HETATM   38  C   UNL     1      -9.660   4.127  67.086  1.00  0.00    -0.229 A  
HETATM   39  C   UNL     1     -10.601   4.801  66.302  1.00  0.00    -0.198 A  
ENDBRANCH  28  31
ENDBRANCH   5  28
ENDBRANCH   4   5
TORSDOF 11
ENDMDL
MODEL       81
REMARK 921   NORMALIZED FREE ENERGY PREDICTED BY IDOCK:   -6.15 KCAL/MOL
REMARK 922        TOTAL FREE ENERGY PREDICTED BY IDOCK:  -11.87 KCAL/MOL
REMARK 923 INTER-LIGAND FREE ENERGY PREDICTED BY IDOCK:  -10.10 KCAL/MOL
REMARK 924 INTRA-LIGAND FREE ENERGY PREDICTED BY IDOCK:   -1.77 KCAL/MOL
REMARK 927      BINDING AFFINITY PREDICTED BY RF-SCORE:    0.00 PKD
ROOT
HETATM    1  C   UNL     1     -12.630  12.607  64.907  1.00  0.00    -0.525 C  
HETATM    2  C   UNL     1     -11.151  12.227  64.990  1.00  0.00    -0.359 C  
HETATM    3  C   UNL     1     -10.557  12.314  63.569  1.00  0.00    -0.488 C  
HETATM    4  C   UNL     1     -10.336  13.129  65.938  1.00  0.00    -0.290 C  
ENDROOT
BRANCH   4   5
HETATM    5  N   UNL     1     -10.778  13.187  67.396  1.00  0.00    -0.251 N  
BRANCH   5   6
HETATM    6  C   UNL     1     -10.099  12.093  68.255  1.00  0.00    -0.210 C  
BRANCH   6   7
HETATM    7  C   UNL     1     -11.050  11.066  68.964  1.00  0.00    -0.244 C  
HETATM    8  H   UNL     1     -12.853  10.377  68.660  1.00  0.00     0.000 HD 
HETATM    9  O   UNL     1     -12.278  10.999  68.231  1.00  0.00    -0.582 OA 
BRANCH   7  10
HETATM   10  C   UNL     1     -10.402   9.645  69.159  1.00  0.00    -0.207 C  
BRANCH  10  11
HETATM   11  N   UNL     1      -9.496   9.264  68.056  1.00  0.00    -0.137 N  
HETATM   12  O   UNL     1     -10.935   7.729  67.148  1.00  0.00    -0.245 OA 
HETATM   13  H   UNL     1      -8.587   9.719  67.974  1.00  0.00     0.000 HD 
HETATM   14  C   UNL     1      -9.860   8.308  67.141  1.00  0.00    -0.217 C  
BRANCH  14  15
HETATM   15  O   UNL     1      -8.864   8.066  66.240  1.00  0.00    -0.145 OA 
BRANCH  15  16
HETATM   16  C   UNL     1      -8.285   9.260  65.680  1.00  0.00    -0.118 C  
HETATM   17  C   UNL     1      -6.771   9.229  65.720  1.00  0.00    -0.076 C  
HETATM   18  O   UNL     1      -7.385  10.009  63.584  1.00  0.00    -0.131 OA 
HETATM   19  C   UNL     1      -6.396  10.179  64.604  1.00  0.00    -0.130 C  
HETATM   20  C   UNL     1      -8.554   9.426  64.185  1.00  0.00    -0.198 C  
ENDBRANCH  15  16
ENDBRANCH  14  15
ENDBRANCH  10  11
BRANCH  10  21
HETATM   21  C   UNL     1      -9.784   9.348  70.552  1.00  0.00    -0.331 C  
BRANCH  21  22
HETATM   22  C   UNL     1     -10.156   8.090  71.311  1.00  0.00    -0.222 A  
HETATM   23  C   UNL     1     -10.599   6.974  73.429  1.00  0.00    -0.399 A  
HETATM   24  C   UNL     1     -10.085   8.059  72.711  1.00  0.00    -0.378 A  
HETATM   25  C   UNL     1     -11.178   5.897  72.760  1.00  0.00    -0.317 A  
HETATM   26  C   UNL     1     -10.728   6.990  70.650  1.00  0.00    -0.255 A  
HETATM   27  C   UNL     1     -11.235   5.902  71.370  1.00  0.00    -0.285 A  
ENDBRANCH  21  22
ENDBRANCH  10  21
ENDBRANCH   7  10
ENDBRANCH   6   7
ENDBRANCH   5   6
BRANCH   5  28
HETATM   28  S   UNL     1     -10.476  14.787  68.067  1.00  0.00    -0.249 S  
HETATM   29  O   UNL     1      -9.075  14.907  68.398  1.00  0.00    -0.173 OA 
HETATM   30  O   UNL     1     -11.104  15.722  67.151  1.00  0.00    -0.286 OA 
BRANCH  28  31
HETATM   31  C   UNL     1     -11.364  14.849  69.598  1.00  0.00    -0.282 A  
HETATM   32  N   UNL     1     -13.432  14.948  73.257  1.00  0.00    -0.579 NA 
HETATM   33  H2  UNL     1     -13.431  13.986  73.595  1.00  0.00     0.000 HD 
HETATM   34  H1  UNL     1     -13.118  15.555  74.014  1.00  0.00     0.000 HD 
HETATM   35  C   UNL     1     -12.521  14.087  69.762  1.00  0.00    -0.255 A  
HETATM   36  C   UNL     1     -13.220  14.146  70.976  1.00  0.00    -0.337 A  
HETATM   37  C   UNL     1     -10.874  15.618  70.662  1.00  0.00    -0.319 A  
HETATM   38  C   UNL     1     -11.577  15.662  71.870  1.00  0.00    -0.547 A  
HETATM   39  C   UNL     1     -12.789  14.979  72.015  1.00  0.00    -0.333 A  
ENDBRANCH  28  31
ENDBRANCH   5  28
ENDBRANCH   4   5
TORSDOF 11
ENDMDL
MODEL       82
REMARK 921   NORMALIZED FREE ENERGY PREDICTED BY IDOCK:   -6.14 KCAL/MOL
REMARK 922        TOTAL FREE ENERGY PREDICTED BY IDOCK:  -11.87 KCAL/MOL
REMARK 923 INTER-LIGAND FREE ENERGY PREDICTED BY IDOCK:   -9.73 KCAL/MOL
REMARK 924 INTRA-LIGAND FREE ENERGY PREDICTED BY IDOCK:   -2.14 KCAL/MOL
REMARK 927      BINDING AFFINITY PREDICTED BY RF-SCORE:    0.00 PKD
ROOT
HETATM    1  C   UNL     1     -10.694  15.248  69.603  1.00  0.00    -0.289 C  
HETATM    2  C   UNL     1     -11.530  13.968  69.643  1.00  0.00    -0.317 C  
HETATM    3  C   UNL     1     -12.785  14.246  70.495  1.00  0.00    -0.391 C  
HETATM    4  C   UNL     1     -11.961  13.473  68.248  1.00  0.00    -0.342 C  
ENDROOT
BRANCH   4   5
HETATM    5  N   UNL     1     -10.855  13.154  67.249  1.00  0.00    -0.254 N  
BRANCH   5   6
HETATM    6  C   UNL     1     -10.765  11.639  66.943  1.00  0.00    -0.257 C  
BRANCH   6   7
HETATM    7  C   UNL     1      -9.488  10.892  67.464  1.00  0.00    -0.155 C  
HETATM    8  H   UNL     1      -7.846  11.396  68.396  1.00  0.00     0.000 HD 
HETATM    9  O   UNL     1      -8.620  11.849  68.081  1.00  0.00    -0.152 OA 
BRANCH   7  10
HETATM   10  C   UNL     1      -9.814   9.687  68.422  1.00  0.00    -0.153 C  
BRANCH  10  11
HETATM   11  N   UNL     1      -9.150   8.430  68.021  1.00  0.00    -0.137 N  
HETATM   12  O   UNL     1     -11.015   7.536  67.032  1.00  0.00    -0.306 OA 
HETATM   13  H   UNL     1      -8.164   8.291  68.241  1.00  0.00     0.000 HD 
HETATM   14  C   UNL     1      -9.840   7.446  67.357  1.00  0.00    -0.169 C  
BRANCH  14  15
HETATM   15  O   UNL     1      -9.062   6.350  67.128  1.00  0.00    -0.118 OA 
BRANCH  15  16
HETATM   16  C   UNL     1      -9.718   5.101  67.419  1.00  0.00    -0.152 C  
HETATM   17  C   UNL     1      -8.987   3.921  66.811  1.00  0.00    -0.144 C  
HETATM   18  O   UNL     1      -9.559   3.315  69.014  1.00  0.00    -0.159 OA 
HETATM   19  C   UNL     1      -9.427   2.776  67.695  1.00  0.00    -0.108 C  
HETATM   20  C   UNL     1      -9.715   4.739  68.903  1.00  0.00    -0.174 C  
ENDBRANCH  15  16
ENDBRANCH  14  15
ENDBRANCH  10  11
BRANCH  10  21
HETATM   21  C   UNL     1      -9.685   9.956  69.945  1.00  0.00    -0.274 C  
BRANCH  21  22
HETATM   22  C   UNL     1     -10.872   9.764  70.868  1.00  0.00    -0.399 A  
HETATM   23  C   UNL     1     -13.158  10.327  71.486  1.00  0.00    -0.534 A  
HETATM   24  C   UNL     1     -11.989  10.606  70.772  1.00  0.00    -0.477 A  
HETATM   25  C   UNL     1     -13.226   9.212  72.319  1.00  0.00    -0.528 A  
HETATM   26  C   UNL     1     -10.950   8.653  71.725  1.00  0.00    -0.396 A  
HETATM   27  C   UNL     1     -12.118   8.380  72.444  1.00  0.00    -0.443 A  
ENDBRANCH  21  22
ENDBRANCH  10  21
ENDBRANCH   7  10
ENDBRANCH   6   7
ENDBRANCH   5   6
BRANCH   5  28
HETATM   28  S   UNL     1     -11.079  14.079  65.767  1.00  0.00    -0.311 S  
HETATM   29  O   UNL     1     -10.389  13.418  64.684  1.00  0.00    -0.395 OA 
HETATM   30  O   UNL     1     -12.503  14.349  65.684  1.00  0.00    -0.401 OA 
BRANCH  28  31
HETATM   31  C   UNL     1     -10.249  15.623  66.026  1.00  0.00    -0.335 A  
HETATM   32  N   UNL     1      -8.282  19.275  66.707  1.00  0.00    -0.273 NA 
HETATM   33  H2  UNL     1      -8.684  19.643  67.569  1.00  0.00     0.000 HD 
HETATM   34  H1  UNL     1      -7.266  19.310  66.785  1.00  0.00     0.000 HD 
HETATM   35  C   UNL     1     -10.985  16.806  66.092  1.00  0.00     0.132 A  
HETATM   36  C   UNL     1     -10.320  18.023  66.292  1.00  0.00    -0.384 A  
HETATM   37  C   UNL     1      -8.861  15.648  66.222  1.00  0.00    -0.364 A  
HETATM   38  C   UNL     1      -8.211  16.868  66.428  1.00  0.00    -0.342 A  
HETATM   39  C   UNL     1      -8.924  18.071  66.400  1.00  0.00    -0.230 A  
ENDBRANCH  28  31
ENDBRANCH   5  28
ENDBRANCH   4   5
TORSDOF 11
ENDMDL
MODEL       83
REMARK 921   NORMALIZED FREE ENERGY PREDICTED BY IDOCK:   -6.14 KCAL/MOL
REMARK 922        TOTAL FREE ENERGY PREDICTED BY IDOCK:  -11.86 KCAL/MOL
REMARK 923 INTER-LIGAND FREE ENERGY PREDICTED BY IDOCK:  -10.24 KCAL/MOL
REMARK 924 INTRA-LIGAND FREE ENERGY PREDICTED BY IDOCK:   -1.62 KCAL/MOL
REMARK 927      BINDING AFFINITY PREDICTED BY RF-SCORE:    0.00 PKD
ROOT
HETATM    1  C   UNL     1      -8.793   6.179  68.997  1.00  0.00    -0.123 C  
HETATM    2  C   UNL     1     -10.132   6.914  69.061  1.00  0.00    -0.175 C  
HETATM    3  C   UNL     1     -11.021   6.385  67.919  1.00  0.00    -0.416 C  
HETATM    4  C   UNL     1     -10.867   6.734  70.404  1.00  0.00    -0.262 C  
ENDROOT
BRANCH   4   5
HETATM    5  N   UNL     1     -10.141   7.190  71.664  1.00  0.00    -0.185 N  
BRANCH   5   6
HETATM    6  C   UNL     1     -10.530   8.632  72.071  1.00  0.00    -0.352 C  
BRANCH   6   7
HETATM    7  C   UNL     1     -12.019   9.057  71.819  1.00  0.00    -0.368 C  
HETATM    8  H   UNL     1     -13.643   9.194  72.896  1.00  0.00     0.000 HD 
HETATM    9  O   UNL     1     -12.742   8.937  73.049  1.00  0.00    -0.239 OA 
BRANCH   7  10
HETATM   10  C   UNL     1     -12.162  10.492  71.188  1.00  0.00    -0.391 C  
BRANCH  10  11
HETATM   11  N   UNL     1     -12.309  10.467  69.719  1.00  0.00    -0.536 N  
HETATM   12  O   UNL     1     -10.094  10.882  69.297  1.00  0.00    -0.208 OA 
HETATM   13  H   UNL     1     -13.226  10.288  69.309  1.00  0.00     0.000 HD 
HETATM   14  C   UNL     1     -11.231  10.683  68.896  1.00  0.00    -0.275 C  
BRANCH  14  15
HETATM   15  O   UNL     1     -11.590  10.673  67.580  1.00  0.00    -0.492 OA 
BRANCH  15  16
HETATM   16  C   UNL     1     -10.490  10.893  66.676  1.00  0.00    -0.254 C  
HETATM   17  C   UNL     1     -10.010   9.602  66.043  1.00  0.00    -0.344 C  
HETATM   18  O   UNL     1     -10.131  11.209  64.324  1.00  0.00    -0.271 OA 
HETATM   19  C   UNL     1      -9.358  10.089  64.768  1.00  0.00    -0.271 C  
HETATM   20  C   UNL     1     -10.863  11.723  65.449  1.00  0.00    -0.295 C  
ENDBRANCH  15  16
ENDBRANCH  14  15
ENDBRANCH  10  11
BRANCH  10  21
HETATM   21  C   UNL     1     -13.182  11.448  71.862  1.00  0.00    -0.485 C  
BRANCH  21  22
HETATM   22  C   UNL     1     -13.102  12.946  71.639  1.00  0.00    -0.430 A  
HETATM   23  C   UNL     1     -13.676  15.203  72.346  1.00  0.00    -0.600 A  
HETATM   24  C   UNL     1     -13.876  13.821  72.414  1.00  0.00    -0.681 A  
HETATM   25  C   UNL     1     -12.711  15.734  71.493  1.00  0.00    -0.512 A  
HETATM   26  C   UNL     1     -12.144  13.497  70.772  1.00  0.00    -0.351 A  
HETATM   27  C   UNL     1     -11.950  14.881  70.700  1.00  0.00    -0.363 A  
ENDBRANCH  21  22
ENDBRANCH  10  21
ENDBRANCH   7  10
ENDBRANCH   6   7
ENDBRANCH   5   6
BRANCH   5  28
HETATM   28  S   UNL     1     -10.437   6.065  72.987  1.00  0.00    -0.238 S  
HETATM   29  O   UNL     1     -10.344   6.772  74.242  1.00  0.00    -0.369 OA 
HETATM   30  O   UNL     1     -11.646   5.347  72.627  1.00  0.00    -0.282 OA 
BRANCH  28  31
HETATM   31  C   UNL     1      -9.092   4.912  72.956  1.00  0.00    -0.117 A  
HETATM   32  N   UNL     1      -5.870   2.212  72.932  1.00  0.00    -0.007 NA 
HETATM   33  H2  UNL     1      -5.046   2.770  73.154  1.00  0.00     0.000 HD 
HETATM   34  H1  UNL     1      -5.877   1.392  73.538  1.00  0.00     0.000 HD 
HETATM   35  C   UNL     1      -8.029   5.107  72.072  1.00  0.00    -0.112 A  
HETATM   36  C   UNL     1      -6.972   4.187  72.052  1.00  0.00    -0.046 A  
HETATM   37  C   UNL     1      -9.068   3.839  73.857  1.00  0.00    -0.093 A  
HETATM   38  C   UNL     1      -8.003   2.933  73.830  1.00  0.00    -0.064 A  
HETATM   39  C   UNL     1      -6.980   3.062  72.885  1.00  0.00    -0.035 A  
ENDBRANCH  28  31
ENDBRANCH   5  28
ENDBRANCH   4   5
TORSDOF 11
ENDMDL
MODEL       84
REMARK 921   NORMALIZED FREE ENERGY PREDICTED BY IDOCK:   -6.13 KCAL/MOL
REMARK 922        TOTAL FREE ENERGY PREDICTED BY IDOCK:  -11.85 KCAL/MOL
REMARK 923 INTER-LIGAND FREE ENERGY PREDICTED BY IDOCK:  -11.09 KCAL/MOL
REMARK 924 INTRA-LIGAND FREE ENERGY PREDICTED BY IDOCK:   -0.75 KCAL/MOL
REMARK 927      BINDING AFFINITY PREDICTED BY RF-SCORE:    0.00 PKD
ROOT
HETATM    1  C   UNL     1     -10.804  11.508  64.234  1.00  0.00    -0.421 C  
HETATM    2  C   UNL     1     -10.797  12.951  64.740  1.00  0.00    -0.350 C  
HETATM    3  C   UNL     1     -11.974  13.694  64.075  1.00  0.00    -0.478 C  
HETATM    4  C   UNL     1     -10.924  13.065  66.272  1.00  0.00    -0.284 C  
ENDROOT
BRANCH   4   5
HETATM    5  N   UNL     1      -9.853  12.380  67.113  1.00  0.00    -0.203 N  
BRANCH   5   6
HETATM    6  C   UNL     1      -9.193  13.353  68.121  1.00  0.00    -0.215 C  
BRANCH   6   7
HETATM    7  C   UNL     1      -9.065  14.851  67.671  1.00  0.00    -0.183 C  
HETATM    8  H   UNL     1      -8.194  15.810  66.208  1.00  0.00     0.000 HD 
HETATM    9  O   UNL     1      -8.271  14.903  66.480  1.00  0.00    -0.051 OA 
BRANCH   7  10
HETATM   10  C   UNL     1     -10.452  15.570  67.486  1.00  0.00    -0.282 C  
BRANCH  10  11
HETATM   11  N   UNL     1     -11.041  16.031  68.760  1.00  0.00    -0.317 N  
HETATM   12  O   UNL     1     -12.236  14.110  69.128  1.00  0.00    -0.335 OA 
HETATM   13  H   UNL     1     -10.799  16.955  69.119  1.00  0.00     0.000 HD 
HETATM   14  C   UNL     1     -11.908  15.236  69.468  1.00  0.00    -0.345 C  
BRANCH  14  15
HETATM   15  O   UNL     1     -12.377  15.868  70.582  1.00  0.00    -0.395 OA 
BRANCH  15  16
HETATM   16  C   UNL     1     -12.012  15.220  71.816  1.00  0.00    -0.385 C  
HETATM   17  C   UNL     1     -11.976  16.191  72.978  1.00  0.00    -0.593 C  
HETATM   18  O   UNL     1     -13.094  14.259  73.731  1.00  0.00    -0.276 OA 
HETATM   19  C   UNL     1     -12.194  15.282  74.167  1.00  0.00    -0.610 C  
HETATM   20  C   UNL     1     -13.039  14.196  72.296  1.00  0.00    -0.423 C  
ENDBRANCH  15  16
ENDBRANCH  14  15
ENDBRANCH  10  11
BRANCH  10  21
HETATM   21  C   UNL     1     -10.532  16.654  66.379  1.00  0.00    -0.266 C  
BRANCH  21  22
HETATM   22  C   UNL     1      -9.917  18.023  66.592  1.00  0.00    -0.362 A  
HETATM   23  C   UNL     1     -10.158  20.344  67.287  1.00  0.00    -0.504 A  
HETATM   24  C   UNL     1     -10.726  19.123  66.909  1.00  0.00    -0.515 A  
HETATM   25  C   UNL     1      -8.773  20.490  67.340  1.00  0.00    -0.373 A  
HETATM   26  C   UNL     1      -8.522  18.191  66.633  1.00  0.00    -0.282 A  
HETATM   27  C   UNL     1      -7.956  19.415  67.004  1.00  0.00    -0.287 A  
ENDBRANCH  21  22
ENDBRANCH  10  21
ENDBRANCH   7  10
ENDBRANCH   6   7
ENDBRANCH   5   6
BRANCH   5  28
HETATM   28  S   UNL     1     -10.525  10.980  67.944  1.00  0.00    -0.205 S  
HETATM   29  O   UNL     1     -10.041  10.957  69.304  1.00  0.00    -0.208 OA 
HETATM   30  O   UNL     1     -11.949  11.004  67.663  1.00  0.00    -0.583 OA 
BRANCH  28  31
HETATM   31  C   UNL     1      -9.837   9.560  67.139  1.00  0.00    -0.185 A  
HETATM   32  N   UNL     1      -8.164   6.179  65.282  1.00  0.00    -0.139 NA 
HETATM   33  H2  UNL     1      -7.191   6.157  65.585  1.00  0.00     0.000 HD 
HETATM   34  H1  UNL     1      -8.568   5.254  65.428  1.00  0.00     0.000 HD 
HETATM   35  C   UNL     1      -8.754   9.709  66.271  1.00  0.00    -0.156 A  
HETATM   36  C   UNL     1      -8.219   8.580  65.635  1.00  0.00    -0.130 A  
HETATM   37  C   UNL     1     -10.342   8.283  67.417  1.00  0.00    -0.350 A  
HETATM   38  C   UNL     1      -9.795   7.165  66.781  1.00  0.00    -0.272 A  
HETATM   39  C   UNL     1      -8.773   7.310  65.837  1.00  0.00    -0.131 A  
ENDBRANCH  28  31
ENDBRANCH   5  28
ENDBRANCH   4   5
TORSDOF 11
ENDMDL
MODEL       85
REMARK 921   NORMALIZED FREE ENERGY PREDICTED BY IDOCK:   -6.13 KCAL/MOL
REMARK 922        TOTAL FREE ENERGY PREDICTED BY IDOCK:  -11.85 KCAL/MOL
REMARK 923 INTER-LIGAND FREE ENERGY PREDICTED BY IDOCK:   -8.93 KCAL/MOL
REMARK 924 INTRA-LIGAND FREE ENERGY PREDICTED BY IDOCK:   -2.92 KCAL/MOL
REMARK 927      BINDING AFFINITY PREDICTED BY RF-SCORE:    0.00 PKD
ROOT
HETATM    1  C   UNL     1      -6.454   7.650  65.999  1.00  0.00    -0.042 C  
HETATM    2  C   UNL     1      -7.823   7.961  65.392  1.00  0.00    -0.112 C  
HETATM    3  C   UNL     1      -7.741   7.700  63.875  1.00  0.00    -0.126 C  
HETATM    4  C   UNL     1      -8.966   7.119  65.993  1.00  0.00    -0.111 C  
ENDROOT
BRANCH   4   5
HETATM    5  N   UNL     1      -9.201   7.232  67.495  1.00  0.00    -0.129 N  
BRANCH   5   6
HETATM    6  C   UNL     1      -9.925   8.546  67.875  1.00  0.00    -0.181 C  
BRANCH   6   7
HETATM    7  C   UNL     1      -9.562   9.172  69.266  1.00  0.00    -0.159 C  
HETATM    8  H   UNL     1      -8.080  10.218  69.994  1.00  0.00     0.000 HD 
HETATM    9  O   UNL     1      -8.300   9.839  69.151  1.00  0.00    -0.119 OA 
BRANCH   7  10
HETATM   10  C   UNL     1     -10.680  10.122  69.836  1.00  0.00    -0.295 C  
BRANCH  10  11
HETATM   11  N   UNL     1     -11.568  10.666  68.789  1.00  0.00    -0.438 N  
HETATM   12  O   UNL     1     -10.298  12.536  68.411  1.00  0.00    -0.223 OA 
HETATM   13  H   UNL     1     -12.404  10.146  68.521  1.00  0.00     0.000 HD 
HETATM   14  C   UNL     1     -11.286  11.859  68.171  1.00  0.00    -0.288 C  
BRANCH  14  15
HETATM   15  O   UNL     1     -12.256  12.207  67.278  1.00  0.00    -0.496 OA 
BRANCH  15  16
HETATM   16  C   UNL     1     -11.750  12.842  66.088  1.00  0.00    -0.403 C  
HETATM   17  C   UNL     1     -11.726  11.894  64.907  1.00  0.00    -0.262 C  
HETATM   18  O   UNL     1     -12.606  13.937  64.131  1.00  0.00    -0.675 OA 
HETATM   19  C   UNL     1     -11.778  12.841  63.729  1.00  0.00    -0.493 C  
HETATM   20  C   UNL     1     -12.643  13.967  65.568  1.00  0.00    -0.526 C  
ENDBRANCH  15  16
ENDBRANCH  14  15
ENDBRANCH  10  11
BRANCH  10  21
HETATM   21  C   UNL     1     -11.474   9.603  71.065  1.00  0.00    -0.444 C  
BRANCH  21  22
HETATM   22  C   UNL     1     -10.983   8.404  71.852  1.00  0.00    -0.375 A  
HETATM   23  C   UNL     1      -9.497   7.470  73.538  1.00  0.00    -0.326 A  
HETATM   24  C   UNL     1      -9.849   8.508  72.670  1.00  0.00    -0.281 A  
HETATM   25  C   UNL     1     -10.262   6.307  73.593  1.00  0.00    -0.267 A  
HETATM   26  C   UNL     1     -11.736   7.218  71.907  1.00  0.00    -0.323 A  
HETATM   27  C   UNL     1     -11.377   6.178  72.771  1.00  0.00    -0.259 A  
ENDBRANCH  21  22
ENDBRANCH  10  21
ENDBRANCH   7  10
ENDBRANCH   6   7
ENDBRANCH   5   6
BRANCH   5  28
HETATM   28  S   UNL     1     -10.093   5.832  68.085  1.00  0.00    -0.181 S  
HETATM   29  O   UNL     1     -11.398   6.255  68.534  1.00  0.00    -0.324 OA 
HETATM   30  O   UNL     1      -9.955   4.817  67.057  1.00  0.00    -0.188 OA 
BRANCH  28  31
HETATM   31  C   UNL     1      -9.222   5.270  69.522  1.00  0.00    -0.118 A  
HETATM   32  N   UNL     1      -7.113   3.902  72.891  1.00  0.00    -0.055 NA 
HETATM   33  H2  UNL     1      -6.792   2.965  72.649  1.00  0.00     0.000 HD 
HETATM   34  H1  UNL     1      -6.319   4.429  73.255  1.00  0.00     0.000 HD 
HETATM   35  C   UNL     1      -9.642   4.115  70.182  1.00  0.00    -0.272 A  
HETATM   36  C   UNL     1      -8.950   3.680  71.321  1.00  0.00    -0.159 A  
HETATM   37  C   UNL     1      -8.078   5.952  69.960  1.00  0.00    -0.109 A  
HETATM   38  C   UNL     1      -7.393   5.503  71.093  1.00  0.00    -0.084 A  
HETATM   39  C   UNL     1      -7.860   4.404  71.820  1.00  0.00    -0.087 A  
ENDBRANCH  28  31
ENDBRANCH   5  28
ENDBRANCH   4   5
TORSDOF 11
ENDMDL
MODEL       86
REMARK 921   NORMALIZED FREE ENERGY PREDICTED BY IDOCK:   -6.10 KCAL/MOL
REMARK 922        TOTAL FREE ENERGY PREDICTED BY IDOCK:  -11.80 KCAL/MOL
REMARK 923 INTER-LIGAND FREE ENERGY PREDICTED BY IDOCK:   -8.67 KCAL/MOL
REMARK 924 INTRA-LIGAND FREE ENERGY PREDICTED BY IDOCK:   -3.13 KCAL/MOL
REMARK 927      BINDING AFFINITY PREDICTED BY RF-SCORE:    0.00 PKD
ROOT
HETATM    1  C   UNL     1      -8.820  13.569  68.167  1.00  0.00    -0.179 C  
HETATM    2  C   UNL     1      -7.319  13.377  68.388  1.00  0.00    -0.112 C  
HETATM    3  C   UNL     1      -6.761  14.669  69.018  1.00  0.00    -0.103 C  
HETATM    4  C   UNL     1      -6.981  12.180  69.297  1.00  0.00    -0.010 C  
ENDROOT
BRANCH   4   5
HETATM    5  N   UNL     1      -7.461  10.804  68.847  1.00  0.00    -0.107 N  
BRANCH   5   6
HETATM    6  C   UNL     1      -6.779  10.350  67.534  1.00  0.00    -0.071 C  
BRANCH   6   7
HETATM    7  C   UNL     1      -7.636  10.454  66.224  1.00  0.00    -0.127 C  
HETATM    8  H   UNL     1      -7.343  10.116  64.322  1.00  0.00     0.000 HD 
HETATM    9  O   UNL     1      -6.824  10.053  65.115  1.00  0.00    -0.117 OA 
BRANCH   7  10
HETATM   10  C   UNL     1      -8.983   9.643  66.292  1.00  0.00    -0.155 C  
BRANCH  10  11
HETATM   11  N   UNL     1      -8.874   8.403  67.086  1.00  0.00    -0.128 N  
HETATM   12  O   UNL     1      -8.621   7.031  65.267  1.00  0.00    -0.099 OA 
HETATM   13  H   UNL     1      -8.921   8.453  68.104  1.00  0.00     0.000 HD 
HETATM   14  C   UNL     1      -8.711   7.183  66.476  1.00  0.00    -0.134 C  
BRANCH  14  15
HETATM   15  O   UNL     1      -8.688   6.164  67.382  1.00  0.00    -0.107 OA 
BRANCH  15  16
HETATM   16  C   UNL     1      -9.408   6.450  68.597  1.00  0.00    -0.124 C  
HETATM   17  C   UNL     1     -10.906   6.315  68.413  1.00  0.00    -0.394 C  
HETATM   18  O   UNL     1     -10.363   5.253  70.445  1.00  0.00    -0.258 OA 
HETATM   19  C   UNL     1     -11.382   6.042  69.823  1.00  0.00    -0.273 C  
HETATM   20  C   UNL     1      -9.139   5.448  69.717  1.00  0.00    -0.128 C  
ENDBRANCH  15  16
ENDBRANCH  14  15
ENDBRANCH  10  11
BRANCH  10  21
HETATM   21  C   UNL     1     -10.263  10.449  66.639  1.00  0.00    -0.292 C  
BRANCH  21  22
HETATM   22  C   UNL     1     -10.818  11.475  65.671  1.00  0.00    -0.310 A  
HETATM   23  C   UNL     1     -11.202  12.201  63.379  1.00  0.00    -0.494 A  
HETATM   24  C   UNL     1     -10.550  11.373  64.299  1.00  0.00    -0.416 A  
HETATM   25  C   UNL     1     -12.122  13.152  63.816  1.00  0.00    -0.563 A  
HETATM   26  C   UNL     1     -11.735  12.450  66.098  1.00  0.00    -0.460 A  
HETATM   27  C   UNL     1     -12.381  13.282  65.177  1.00  0.00    -0.516 A  
ENDBRANCH  21  22
ENDBRANCH  10  21
ENDBRANCH   7  10
ENDBRANCH   6   7
ENDBRANCH   5   6
BRANCH   5  28
HETATM   28  S   UNL     1      -7.213   9.618  70.125  1.00  0.00    -0.144 S  
HETATM   29  O   UNL     1      -6.778   8.371  69.539  1.00  0.00    -0.040 OA 
HETATM   30  O   UNL     1      -6.406  10.286  71.130  1.00  0.00    -0.329 OA 
BRANCH  28  31
HETATM   31  C   UNL     1      -8.811   9.316  70.827  1.00  0.00    -0.225 A  
HETATM   32  N   UNL     1     -12.609   8.542  72.456  1.00  0.00    -0.547 NA 
HETATM   33  H2  UNL     1     -13.132   8.077  71.715  1.00  0.00     0.000 HD 
HETATM   34  H1  UNL     1     -12.704   7.993  73.310  1.00  0.00     0.000 HD 
HETATM   35  C   UNL     1      -9.948   9.859  70.227  1.00  0.00    -0.261 A  
HETATM   36  C   UNL     1     -11.208   9.619  70.791  1.00  0.00    -0.403 A  
HETATM   37  C   UNL     1      -8.939   8.485  71.948  1.00  0.00    -0.301 A  
HETATM   38  C   UNL     1     -10.203   8.248  72.497  1.00  0.00    -0.386 A  
HETATM   39  C   UNL     1     -11.339   8.864  71.964  1.00  0.00    -0.357 A  
ENDBRANCH  28  31
ENDBRANCH   5  28
ENDBRANCH   4   5
TORSDOF 11
ENDMDL
MODEL       87
REMARK 921   NORMALIZED FREE ENERGY PREDICTED BY IDOCK:   -6.10 KCAL/MOL
REMARK 922        TOTAL FREE ENERGY PREDICTED BY IDOCK:  -11.79 KCAL/MOL
REMARK 923 INTER-LIGAND FREE ENERGY PREDICTED BY IDOCK:   -9.54 KCAL/MOL
REMARK 924 INTRA-LIGAND FREE ENERGY PREDICTED BY IDOCK:   -2.25 KCAL/MOL
REMARK 927      BINDING AFFINITY PREDICTED BY RF-SCORE:    0.00 PKD
ROOT
HETATM    1  C   UNL     1      -8.420   8.498  72.488  1.00  0.00    -0.181 C  
HETATM    2  C   UNL     1      -9.778   7.806  72.358  1.00  0.00    -0.249 C  
HETATM    3  C   UNL     1      -9.960   6.881  73.578  1.00  0.00    -0.293 C  
HETATM    4  C   UNL     1     -10.963   8.787  72.281  1.00  0.00    -0.266 C  
ENDROOT
BRANCH   4   5
HETATM    5  N   UNL     1     -10.960   9.798  71.139  1.00  0.00    -0.352 N  
BRANCH   5   6
HETATM    6  C   UNL     1     -10.324   9.220  69.851  1.00  0.00    -0.220 C  
BRANCH   6   7
HETATM    7  C   UNL     1      -9.661  10.249  68.871  1.00  0.00    -0.190 C  
HETATM    8  H   UNL     1      -7.938  11.162  68.747  1.00  0.00     0.000 HD 
HETATM    9  O   UNL     1      -8.339  10.539  69.341  1.00  0.00    -0.157 OA 
BRANCH   7  10
HETATM   10  C   UNL     1      -9.662   9.775  67.370  1.00  0.00    -0.163 C  
BRANCH  10  11
HETATM   11  N   UNL     1     -10.030   8.353  67.212  1.00  0.00    -0.204 N  
HETATM   12  O   UNL     1      -7.921   7.674  66.624  1.00  0.00    -0.103 OA 
HETATM   13  H   UNL     1     -10.991   8.061  67.387  1.00  0.00     0.000 HD 
HETATM   14  C   UNL     1      -9.098   7.420  66.832  1.00  0.00    -0.141 C  
BRANCH  14  15
HETATM   15  O   UNL     1      -9.652   6.181  66.690  1.00  0.00    -0.146 OA 
BRANCH  15  16
HETATM   16  C   UNL     1      -9.066   5.181  67.546  1.00  0.00    -0.114 C  
HETATM   17  C   UNL     1      -9.757   5.112  68.892  1.00  0.00    -0.220 C  
HETATM   18  O   UNL     1      -9.449   2.893  68.161  1.00  0.00    -0.205 OA 
HETATM   19  C   UNL     1      -9.449   3.701  69.343  1.00  0.00    -0.179 C  
HETATM   20  C   UNL     1      -9.243   3.755  67.029  1.00  0.00    -0.181 C  
ENDBRANCH  15  16
ENDBRANCH  14  15
ENDBRANCH  10  11
BRANCH  10  21
HETATM   21  C   UNL     1     -10.400  10.687  66.354  1.00  0.00    -0.291 C  
BRANCH  21  22
HETATM   22  C   UNL     1     -10.599  12.162  66.640  1.00  0.00    -0.266 A  
HETATM   23  C   UNL     1      -9.662  14.397  66.874  1.00  0.00    -0.266 A  
HETATM   24  C   UNL     1      -9.494  13.010  66.794  1.00  0.00    -0.250 A  
HETATM   25  C   UNL     1     -10.937  14.956  66.817  1.00  0.00    -0.326 A  
HETATM   26  C   UNL     1     -11.880  12.740  66.601  1.00  0.00    -0.462 A  
HETATM   27  C   UNL     1     -12.046  14.126  66.689  1.00  0.00    -0.480 A  
ENDBRANCH  21  22
ENDBRANCH  10  21
ENDBRANCH   7  10
ENDBRANCH   6   7
ENDBRANCH   5   6
BRANCH   5  28
HETATM   28  S   UNL     1     -12.593  10.379  70.826  1.00  0.00    -0.376 S  
HETATM   29  O   UNL     1     -12.894  10.218  69.423  1.00  0.00     0.125 OA 
HETATM   30  O   UNL     1     -13.429   9.762  71.840  1.00  0.00    -0.402 OA 
BRANCH  28  31
HETATM   31  C   UNL     1     -12.558  12.122  71.138  1.00  0.00    -0.260 A  
HETATM   32  N   UNL     1     -12.532  16.267  71.843  1.00  0.00    -0.552 NA 
HETATM   33  H2  UNL     1     -12.903  16.689  70.992  1.00  0.00     0.000 HD 
HETATM   34  H1  UNL     1     -13.030  16.660  72.641  1.00  0.00     0.000 HD 
HETATM   35  C   UNL     1     -11.818  12.963  70.306  1.00  0.00    -0.291 A  
HETATM   36  C   UNL     1     -11.792  14.341  70.564  1.00  0.00    -0.364 A  
HETATM   37  C   UNL     1     -13.319  12.662  72.184  1.00  0.00    -0.570 A  
HETATM   38  C   UNL     1     -13.290  14.039  72.425  1.00  0.00    -0.617 A  
HETATM   39  C   UNL     1     -12.477  14.881  71.659  1.00  0.00    -0.331 A  
ENDBRANCH  28  31
ENDBRANCH   5  28
ENDBRANCH   4   5
TORSDOF 11
ENDMDL
MODEL       88
REMARK 921   NORMALIZED FREE ENERGY PREDICTED BY IDOCK:   -6.10 KCAL/MOL
REMARK 922        TOTAL FREE ENERGY PREDICTED BY IDOCK:  -11.79 KCAL/MOL
REMARK 923 INTER-LIGAND FREE ENERGY PREDICTED BY IDOCK:  -10.02 KCAL/MOL
REMARK 924 INTRA-LIGAND FREE ENERGY PREDICTED BY IDOCK:   -1.77 KCAL/MOL
REMARK 927      BINDING AFFINITY PREDICTED BY RF-SCORE:    0.00 PKD
ROOT
HETATM    1  C   UNL     1      -7.568  12.306  67.327  1.00  0.00    -0.152 C  
HETATM    2  C   UNL     1      -7.130  13.371  68.333  1.00  0.00    -0.108 C  
HETATM    3  C   UNL     1      -5.589  13.406  68.349  1.00  0.00    -0.088 C  
HETATM    4  C   UNL     1      -7.668  14.779  68.011  1.00  0.00    -0.125 C  
ENDROOT
BRANCH   4   5
HETATM    5  N   UNL     1      -9.181  14.947  67.938  1.00  0.00    -0.181 N  
BRANCH   5   6
HETATM    6  C   UNL     1      -9.805  15.220  69.329  1.00  0.00    -0.255 C  
BRANCH   6   7
HETATM    7  C   UNL     1     -11.074  14.378  69.707  1.00  0.00    -0.159 C  
HETATM    8  H   UNL     1     -12.959  14.757  70.056  1.00  0.00     0.000 HD 
HETATM    9  O   UNL     1     -12.191  15.267  69.827  1.00  0.00    -0.321 OA 
BRANCH   7  10
HETATM   10  C   UNL     1     -11.364  13.198  68.707  1.00  0.00    -0.291 C  
BRANCH  10  11
HETATM   11  N   UNL     1     -11.926  12.003  69.368  1.00  0.00    -0.296 N  
HETATM   12  O   UNL     1      -9.979  10.797  69.274  1.00  0.00    -0.214 OA 
HETATM   13  H   UNL     1     -12.901  12.009  69.670  1.00  0.00     0.000 HD 
HETATM   14  C   UNL     1     -11.159  10.885  69.581  1.00  0.00    -0.266 C  
BRANCH  14  15
HETATM   15  O   UNL     1     -11.880   9.878  70.152  1.00  0.00    -0.216 OA 
BRANCH  15  16
HETATM   16  C   UNL     1     -11.074   8.910  70.851  1.00  0.00    -0.271 C  
HETATM   17  C   UNL     1     -11.558   8.687  72.269  1.00  0.00    -0.424 C  
HETATM   18  O   UNL     1     -11.114   6.563  71.351  1.00  0.00    -0.248 OA 
HETATM   19  C   UNL     1     -11.037   7.300  72.575  1.00  0.00    -0.293 C  
HETATM   20  C   UNL     1     -11.164   7.503  70.264  1.00  0.00    -0.236 C  
ENDBRANCH  15  16
ENDBRANCH  14  15
ENDBRANCH  10  11
BRANCH  10  21
HETATM   21  C   UNL     1     -12.128  13.562  67.406  1.00  0.00    -0.360 C  
BRANCH  21  22
HETATM   22  C   UNL     1     -11.853  12.818  66.114  1.00  0.00    -0.484 A  
HETATM   23  C   UNL     1     -12.066  12.674  63.693  1.00  0.00    -0.632 A  
HETATM   24  C   UNL     1     -12.453  13.232  64.916  1.00  0.00    -0.465 A  
HETATM   25  C   UNL     1     -11.087  11.684  63.649  1.00  0.00    -0.506 A  
HETATM   26  C   UNL     1     -10.879  11.808  66.055  1.00  0.00    -0.343 A  
HETATM   27  C   UNL     1     -10.499  11.246  64.831  1.00  0.00    -0.375 A  
ENDBRANCH  21  22
ENDBRANCH  10  21
ENDBRANCH   7  10
ENDBRANCH   6   7
ENDBRANCH   5   6
BRANCH   5  28
HETATM   28  S   UNL     1      -9.604  16.224  66.801  1.00  0.00    -0.252 S  
HETATM   29  O   UNL     1      -9.397  15.749  65.453  1.00  0.00    -0.290 OA 
HETATM   30  O   UNL     1     -10.904  16.712  67.224  1.00  0.00    -0.273 OA 
BRANCH  28  31
HETATM   31  C   UNL     1      -8.427  17.521  67.066  1.00  0.00    -0.234 A  
HETATM   32  N   UNL     1      -5.673  20.642  67.659  1.00  0.00    -0.216 NA 
HETATM   33  H2  UNL     1      -5.727  21.215  66.818  1.00  0.00     0.000 HD 
HETATM   34  H1  UNL     1      -5.750  21.254  68.471  1.00  0.00     0.000 HD 
HETATM   35  C   UNL     1      -7.365  17.689  66.175  1.00  0.00    -0.344 A  
HETATM   36  C   UNL     1      -6.436  18.715  66.395  1.00  0.00    -0.225 A  
HETATM   37  C   UNL     1      -8.594  18.413  68.134  1.00  0.00    -0.301 A  
HETATM   38  C   UNL     1      -7.663  19.436  68.338  1.00  0.00    -0.363 A  
HETATM   39  C   UNL     1      -6.543  19.556  67.510  1.00  0.00    -0.212 A  
ENDBRANCH  28  31
ENDBRANCH   5  28
ENDBRANCH   4   5
TORSDOF 11
ENDMDL
MODEL       89
REMARK 921   NORMALIZED FREE ENERGY PREDICTED BY IDOCK:   -6.09 KCAL/MOL
REMARK 922        TOTAL FREE ENERGY PREDICTED BY IDOCK:  -11.78 KCAL/MOL
REMARK 923 INTER-LIGAND FREE ENERGY PREDICTED BY IDOCK:   -9.92 KCAL/MOL
REMARK 924 INTRA-LIGAND FREE ENERGY PREDICTED BY IDOCK:   -1.86 KCAL/MOL
REMARK 927      BINDING AFFINITY PREDICTED BY RF-SCORE:    0.00 PKD
ROOT
HETATM    1  C   UNL     1     -12.158  10.434  69.107  1.00  0.00     0.047 C  
HETATM    2  C   UNL     1     -10.879  10.577  69.933  1.00  0.00    -0.334 C  
HETATM    3  C   UNL     1     -11.039   9.727  71.210  1.00  0.00    -0.375 C  
HETATM    4  C   UNL     1      -9.609  10.131  69.182  1.00  0.00    -0.212 C  
ENDROOT
BRANCH   4   5
HETATM    5  N   UNL     1      -9.282  10.850  67.878  1.00  0.00    -0.149 N  
BRANCH   5   6
HETATM    6  C   UNL     1      -7.967  11.662  67.974  1.00  0.00    -0.132 C  
BRANCH   6   7
HETATM    7  C   UNL     1      -8.109  13.209  68.192  1.00  0.00    -0.155 C  
HETATM    8  H   UNL     1      -7.187  14.809  67.553  1.00  0.00     0.000 HD 
HETATM    9  O   UNL     1      -7.101  13.872  67.421  1.00  0.00    -0.174 OA 
BRANCH   7  10
HETATM   10  C   UNL     1      -9.550  13.756  67.873  1.00  0.00    -0.222 C  
BRANCH  10  11
HETATM   11  N   UNL     1     -10.043  14.713  68.883  1.00  0.00    -0.236 N  
HETATM   12  O   UNL     1     -12.063  13.667  69.169  1.00  0.00    -0.345 OA 
HETATM   13  H   UNL     1      -9.447  15.489  69.173  1.00  0.00     0.000 HD 
HETATM   14  C   UNL     1     -11.292  14.575  69.438  1.00  0.00    -0.279 C  
BRANCH  14  15
HETATM   15  O   UNL     1     -11.574  15.590  70.304  1.00  0.00    -0.278 OA 
BRANCH  15  16
HETATM   16  C   UNL     1     -12.285  15.167  71.484  1.00  0.00    -0.340 C  
HETATM   17  C   UNL     1     -11.924  16.004  72.694  1.00  0.00    -0.646 C  
HETATM   18  O   UNL     1     -14.268  15.760  72.699  1.00  0.00    -0.554 OA 
HETATM   19  C   UNL     1     -13.141  15.837  73.578  1.00  0.00    -0.548 C  
HETATM   20  C   UNL     1     -13.795  15.377  71.397  1.00  0.00    -0.486 C  
ENDBRANCH  15  16
ENDBRANCH  14  15
ENDBRANCH  10  11
BRANCH  10  21
HETATM   21  C   UNL     1      -9.799  14.254  66.424  1.00  0.00    -0.309 C  
BRANCH  21  22
HETATM   22  C   UNL     1     -10.566  13.401  65.434  1.00  0.00    -0.310 A  
HETATM   23  C   UNL     1     -12.694  12.669  64.504  1.00  0.00    -0.439 A  
HETATM   24  C   UNL     1     -11.961  13.299  65.516  1.00  0.00    -0.445 A  
HETATM   25  C   UNL     1     -12.042  12.118  63.403  1.00  0.00    -0.608 A  
HETATM   26  C   UNL     1      -9.922  12.826  64.325  1.00  0.00    -0.176 A  
HETATM   27  C   UNL     1     -10.655  12.189  63.318  1.00  0.00    -0.367 A  
ENDBRANCH  21  22
ENDBRANCH  10  21
ENDBRANCH   7  10
ENDBRANCH   6   7
ENDBRANCH   5   6
BRANCH   5  28
HETATM   28  S   UNL     1      -9.214   9.704  66.543  1.00  0.00    -0.166 S  
HETATM   29  O   UNL     1     -10.382   9.873  65.711  1.00  0.00    -0.221 OA 
HETATM   30  O   UNL     1      -7.880   9.830  65.984  1.00  0.00    -0.104 OA 
BRANCH  28  31
HETATM   31  C   UNL     1      -9.344   8.096  67.275  1.00  0.00    -0.141 A  
HETATM   32  N   UNL     1      -9.648   4.252  68.951  1.00  0.00    -0.167 NA 
HETATM   33  H2  UNL     1     -10.146   3.693  68.259  1.00  0.00     0.000 HD 
HETATM   34  H1  UNL     1      -8.811   3.743  69.234  1.00  0.00     0.000 HD 
HETATM   35  C   UNL     1     -10.602   7.532  67.498  1.00  0.00    -0.331 A  
HETATM   36  C   UNL     1     -10.695   6.262  68.082  1.00  0.00    -0.364 A  
HETATM   37  C   UNL     1      -8.186   7.367  67.577  1.00  0.00    -0.113 A  
HETATM   38  C   UNL     1      -8.294   6.097  68.153  1.00  0.00    -0.114 A  
HETATM   39  C   UNL     1      -9.546   5.562  68.470  1.00  0.00    -0.127 A  
ENDBRANCH  28  31
ENDBRANCH   5  28
ENDBRANCH   4   5
TORSDOF 11
ENDMDL
MODEL       90
REMARK 921   NORMALIZED FREE ENERGY PREDICTED BY IDOCK:   -6.09 KCAL/MOL
REMARK 922        TOTAL FREE ENERGY PREDICTED BY IDOCK:  -11.78 KCAL/MOL
REMARK 923 INTER-LIGAND FREE ENERGY PREDICTED BY IDOCK:   -9.31 KCAL/MOL
REMARK 924 INTRA-LIGAND FREE ENERGY PREDICTED BY IDOCK:   -2.47 KCAL/MOL
REMARK 927      BINDING AFFINITY PREDICTED BY RF-SCORE:    0.00 PKD
ROOT
HETATM    1  C   UNL     1     -10.035  16.762  66.828  1.00  0.00    -0.286 C  
HETATM    2  C   UNL     1      -9.039  16.286  67.887  1.00  0.00    -0.196 C  
HETATM    3  C   UNL     1      -8.702  17.485  68.796  1.00  0.00    -0.214 C  
HETATM    4  C   UNL     1      -9.569  15.126  68.751  1.00  0.00    -0.219 C  
ENDROOT
BRANCH   4   5
HETATM    5  N   UNL     1      -9.971  13.845  68.029  1.00  0.00    -0.234 N  
BRANCH   5   6
HETATM    6  C   UNL     1      -9.196  12.612  68.554  1.00  0.00    -0.067 C  
BRANCH   6   7
HETATM    7  C   UNL     1      -8.191  11.936  67.556  1.00  0.00    -0.155 C  
HETATM    8  H   UNL     1      -6.392  11.181  67.668  1.00  0.00     0.000 HD 
HETATM    9  O   UNL     1      -7.001  11.590  68.273  1.00  0.00    -0.066 OA 
BRANCH   7  10
HETATM   10  C   UNL     1      -8.801  10.701  66.795  1.00  0.00    -0.139 C  
BRANCH  10  11
HETATM   11  N   UNL     1      -9.856  10.010  67.562  1.00  0.00    -0.169 N  
HETATM   12  O   UNL     1      -8.564   8.183  68.062  1.00  0.00    -0.128 OA 
HETATM   13  H   UNL     1     -10.767  10.454  67.675  1.00  0.00     0.000 HD 
HETATM   14  C   UNL     1      -9.629   8.778  68.126  1.00  0.00    -0.146 C  
BRANCH  14  15
HETATM   15  O   UNL     1     -10.745   8.292  68.742  1.00  0.00    -0.161 OA 
BRANCH  15  16
HETATM   16  C   UNL     1     -10.771   8.523  70.164  1.00  0.00    -0.235 C  
HETATM   17  C   UNL     1     -11.777   9.589  70.546  1.00  0.00    -0.285 C  
HETATM   18  O   UNL     1     -12.037   7.816  72.077  1.00  0.00    -0.293 OA 
HETATM   19  C   UNL     1     -12.083   9.244  71.987  1.00  0.00    -0.336 C  
HETATM   20  C   UNL     1     -11.265   7.323  70.969  1.00  0.00    -0.266 C  
ENDBRANCH  15  16
ENDBRANCH  14  15
ENDBRANCH  10  11
BRANCH  10  21
HETATM   21  C   UNL     1      -9.209  10.929  65.315  1.00  0.00    -0.236 C  
BRANCH  21  22
HETATM   22  C   UNL     1     -10.338  11.876  64.961  1.00  0.00    -0.330 A  
HETATM   23  C   UNL     1     -11.074  14.048  64.141  1.00  0.00    -0.062 A  
HETATM   24  C   UNL     1     -10.069  13.216  64.646  1.00  0.00    -0.248 A  
HETATM   25  C   UNL     1     -12.366  13.560  63.958  1.00  0.00    -0.391 A  
HETATM   26  C   UNL     1     -11.650  11.404  64.786  1.00  0.00     0.021 A  
HETATM   27  C   UNL     1     -12.656  12.240  64.288  1.00  0.00    -0.470 A  
ENDBRANCH  21  22
ENDBRANCH  10  21
ENDBRANCH   7  10
ENDBRANCH   6   7
ENDBRANCH   5   6
BRANCH   5  28
HETATM   28  S   UNL     1     -11.709  13.589  68.151  1.00  0.00    -0.373 S  
HETATM   29  O   UNL     1     -12.385  14.462  67.220  1.00  0.00    -0.322 OA 
HETATM   30  O   UNL     1     -11.900  12.151  68.091  1.00  0.00    -0.352 OA 
BRANCH  28  31
HETATM   31  C   UNL     1     -12.169  14.130  69.774  1.00  0.00    -0.344 A  
HETATM   32  N   UNL     1     -13.193  15.415  73.644  1.00  0.00    -0.634 NA 
HETATM   33  H2  UNL     1     -12.501  14.993  74.262  1.00  0.00     0.000 HD 
HETATM   34  H1  UNL     1     -13.254  16.410  73.860  1.00  0.00     0.000 HD 
HETATM   35  C   UNL     1     -12.482  13.191  70.758  1.00  0.00    -0.389 A  
HETATM   36  C   UNL     1     -12.849  13.628  72.038  1.00  0.00    -0.367 A  
HETATM   37  C   UNL     1     -12.161  15.496  70.086  1.00  0.00    -0.404 A  
HETATM   38  C   UNL     1     -12.523  15.919  71.369  1.00  0.00    -0.459 A  
HETATM   39  C   UNL     1     -12.932  14.994  72.335  1.00  0.00    -0.357 A  
ENDBRANCH  28  31
ENDBRANCH   5  28
ENDBRANCH   4   5
TORSDOF 11
ENDMDL
MODEL       91
REMARK 921   NORMALIZED FREE ENERGY PREDICTED BY IDOCK:   -6.09 KCAL/MOL
REMARK 922        TOTAL FREE ENERGY PREDICTED BY IDOCK:  -11.77 KCAL/MOL
REMARK 923 INTER-LIGAND FREE ENERGY PREDICTED BY IDOCK:  -11.14 KCAL/MOL
REMARK 924 INTRA-LIGAND FREE ENERGY PREDICTED BY IDOCK:   -0.63 KCAL/MOL
REMARK 927      BINDING AFFINITY PREDICTED BY RF-SCORE:    0.00 PKD
ROOT
HETATM    1  C   UNL     1      -7.913   9.229  71.073  1.00  0.00    -0.115 C  
HETATM    2  C   UNL     1      -7.781   8.125  72.123  1.00  0.00    -0.149 C  
HETATM    3  C   UNL     1      -6.439   8.323  72.856  1.00  0.00    -0.099 C  
HETATM    4  C   UNL     1      -8.927   8.117  73.153  1.00  0.00    -0.261 C  
ENDROOT
BRANCH   4   5
HETATM    5  N   UNL     1     -10.345   7.942  72.619  1.00  0.00    -0.281 N  
BRANCH   5   6
HETATM    6  C   UNL     1     -10.655   8.921  71.460  1.00  0.00    -0.329 C  
BRANCH   6   7
HETATM    7  C   UNL     1     -12.140   9.408  71.330  1.00  0.00    -0.345 C  
HETATM    8  H   UNL     1     -13.688   9.531  72.516  1.00  0.00     0.000 HD 
HETATM    9  O   UNL     1     -12.789   9.236  72.595  1.00  0.00    -0.334 OA 
BRANCH   7  10
HETATM   10  C   UNL     1     -12.271  10.883  70.797  1.00  0.00    -0.383 C  
BRANCH  10  11
HETATM   11  N   UNL     1     -12.505  10.954  69.340  1.00  0.00    -0.407 N  
HETATM   12  O   UNL     1     -10.340  11.503  68.824  1.00  0.00    -0.203 OA 
HETATM   13  H   UNL     1     -13.436  10.760  68.972  1.00  0.00     0.000 HD 
HETATM   14  C   UNL     1     -11.489  11.278  68.475  1.00  0.00    -0.306 C  
BRANCH  14  15
HETATM   15  O   UNL     1     -11.926  11.343  67.185  1.00  0.00    -0.532 OA 
BRANCH  15  16
HETATM   16  C   UNL     1     -11.056  12.091  66.314  1.00  0.00    -0.317 C  
HETATM   17  C   UNL     1     -10.776  11.352  65.021  1.00  0.00    -0.340 C  
HETATM   18  O   UNL     1     -11.236  13.591  64.448  1.00  0.00    -0.365 OA 
HETATM   19  C   UNL     1     -10.419  12.478  64.075  1.00  0.00    -0.422 C  
HETATM   20  C   UNL     1     -11.673  13.392  65.803  1.00  0.00    -0.349 C  
ENDBRANCH  15  16
ENDBRANCH  14  15
ENDBRANCH  10  11
BRANCH  10  21
HETATM   21  C   UNL     1     -13.215  11.827  71.588  1.00  0.00    -0.368 C  
BRANCH  21  22
HETATM   22  C   UNL     1     -12.937  13.315  71.661  1.00  0.00    -0.441 A  
HETATM   23  C   UNL     1     -13.217  15.446  72.806  1.00  0.00    -0.590 A  
HETATM   24  C   UNL     1     -13.598  14.115  72.604  1.00  0.00    -0.618 A  
HETATM   25  C   UNL     1     -12.181  16.003  72.059  1.00  0.00    -0.582 A  
HETATM   26  C   UNL     1     -11.905  13.896  70.905  1.00  0.00    -0.204 A  
HETATM   27  C   UNL     1     -11.531  15.230  71.102  1.00  0.00    -0.414 A  
ENDBRANCH  21  22
ENDBRANCH  10  21
ENDBRANCH   7  10
ENDBRANCH   6   7
ENDBRANCH   5   6
BRANCH   5  28
HETATM   28  S   UNL     1     -10.613   6.275  72.119  1.00  0.00    -0.232 S  
HETATM   29  O   UNL     1      -9.619   5.428  72.736  1.00  0.00    -0.148 OA 
HETATM   30  O   UNL     1     -12.029   6.027  72.324  1.00  0.00    -0.318 OA 
BRANCH  28  31
HETATM   31  C   UNL     1     -10.301   6.233  70.376  1.00  0.00    -0.208 A  
HETATM   32  N   UNL     1      -9.573   6.066  66.239  1.00  0.00    -0.269 NA 
HETATM   33  H2  UNL     1      -9.139   5.158  66.076  1.00  0.00     0.000 HD 
HETATM   34  H1  UNL     1     -10.338   6.181  65.573  1.00  0.00     0.000 HD 
HETATM   35  C   UNL     1      -8.997   6.073  69.906  1.00  0.00    -0.144 A  
HETATM   36  C   UNL     1      -8.759   6.046  68.525  1.00  0.00    -0.110 A  
HETATM   37  C   UNL     1     -11.369   6.301  69.471  1.00  0.00    -0.475 A  
HETATM   38  C   UNL     1     -11.119   6.265  68.096  1.00  0.00    -0.364 A  
HETATM   39  C   UNL     1      -9.808   6.203  67.611  1.00  0.00    -0.120 A  
ENDBRANCH  28  31
ENDBRANCH   5  28
ENDBRANCH   4   5
TORSDOF 11
ENDMDL
MODEL       92
REMARK 921   NORMALIZED FREE ENERGY PREDICTED BY IDOCK:   -6.09 KCAL/MOL
REMARK 922        TOTAL FREE ENERGY PREDICTED BY IDOCK:  -11.77 KCAL/MOL
REMARK 923 INTER-LIGAND FREE ENERGY PREDICTED BY IDOCK:   -8.50 KCAL/MOL
REMARK 924 INTRA-LIGAND FREE ENERGY PREDICTED BY IDOCK:   -3.27 KCAL/MOL
REMARK 927      BINDING AFFINITY PREDICTED BY RF-SCORE:    0.00 PKD
ROOT
HETATM    1  C   UNL     1     -12.068   7.601  70.884  1.00  0.00    -0.226 C  
HETATM    2  C   UNL     1     -11.827   9.108  70.778  1.00  0.00    -0.280 C  
HETATM    3  C   UNL     1     -12.790   9.814  71.754  1.00  0.00    -0.530 C  
HETATM    4  C   UNL     1     -10.379   9.523  71.103  1.00  0.00    -0.260 C  
ENDROOT
BRANCH   4   5
HETATM    5  N   UNL     1      -9.271   8.917  70.248  1.00  0.00    -0.171 N  
BRANCH   5   6
HETATM    6  C   UNL     1      -8.393  10.002  69.578  1.00  0.00    -0.172 C  
BRANCH   6   7
HETATM    7  C   UNL     1      -9.105  10.941  68.542  1.00  0.00    -0.173 C  
HETATM    8  H   UNL     1      -8.612  12.527  67.513  1.00  0.00     0.000 HD 
HETATM    9  O   UNL     1      -8.181  11.959  68.140  1.00  0.00    -0.142 OA 
BRANCH   7  10
HETATM   10  C   UNL     1      -9.707  10.171  67.309  1.00  0.00    -0.167 C  
BRANCH  10  11
HETATM   11  N   UNL     1     -10.262  11.071  66.278  1.00  0.00    -0.238 N  
HETATM   12  O   UNL     1     -12.022  11.777  67.567  1.00  0.00    -0.607 OA 
HETATM   13  H   UNL     1      -9.790  11.154  65.378  1.00  0.00     0.000 HD 
HETATM   14  C   UNL     1     -11.404  11.796  66.513  1.00  0.00    -0.305 C  
BRANCH  14  15
HETATM   15  O   UNL     1     -11.777  12.519  65.418  1.00  0.00    -0.360 OA 
BRANCH  15  16
HETATM   16  C   UNL     1     -11.763  13.944  65.630  1.00  0.00    -0.354 C  
HETATM   17  C   UNL     1     -10.356  14.478  65.799  1.00  0.00    -0.347 C  
HETATM   18  O   UNL     1     -11.480  15.950  64.343  1.00  0.00    -0.428 OA 
HETATM   19  C   UNL     1     -10.507  15.927  65.393  1.00  0.00    -0.405 C  
HETATM   20  C   UNL     1     -12.259  14.746  64.428  1.00  0.00    -0.428 C  
ENDBRANCH  15  16
ENDBRANCH  14  15
ENDBRANCH  10  11
BRANCH  10  21
HETATM   21  C   UNL     1      -8.828   9.049  66.694  1.00  0.00    -0.152 C  
BRANCH  21  22
HETATM   22  C   UNL     1      -9.312   7.613  66.670  1.00  0.00    -0.239 A  
HETATM   23  C   UNL     1     -11.030   5.971  67.200  1.00  0.00    -0.360 A  
HETATM   24  C   UNL     1     -10.474   7.244  67.363  1.00  0.00    -0.359 A  
HETATM   25  C   UNL     1     -10.427   5.042  66.354  1.00  0.00    -0.349 A  
HETATM   26  C   UNL     1      -8.706   6.660  65.834  1.00  0.00    -0.147 A  
HETATM   27  C   UNL     1      -9.260   5.384  65.678  1.00  0.00    -0.125 A  
ENDBRANCH  21  22
ENDBRANCH  10  21
ENDBRANCH   7  10
ENDBRANCH   6   7
ENDBRANCH   5   6
BRANCH   5  28
HETATM   28  S   UNL     1      -8.285   7.819  71.209  1.00  0.00    -0.106 S  
HETATM   29  O   UNL     1      -6.903   8.234  71.138  1.00  0.00    -0.045 OA 
HETATM   30  O   UNL     1      -8.960   7.701  72.488  1.00  0.00    -0.126 OA 
BRANCH  28  31
HETATM   31  C   UNL     1      -8.380   6.245  70.400  1.00  0.00    -0.126 A  
HETATM   32  N   UNL     1      -8.640   2.541  68.429  1.00  0.00    -0.073 NA 
HETATM   33  H2  UNL     1      -9.537   2.554  67.944  1.00  0.00     0.000 HD 
HETATM   34  H1  UNL     1      -7.920   2.255  67.766  1.00  0.00     0.000 HD 
HETATM   35  C   UNL     1      -9.431   5.374  70.693  1.00  0.00    -0.215 A  
HETATM   36  C   UNL     1      -9.495   4.130  70.052  1.00  0.00    -0.260 A  
HETATM   37  C   UNL     1      -7.435   5.900  69.424  1.00  0.00    -0.087 A  
HETATM   38  C   UNL     1      -7.515   4.658  68.787  1.00  0.00    -0.064 A  
HETATM   39  C   UNL     1      -8.507   3.738  69.142  1.00  0.00    -0.073 A  
ENDBRANCH  28  31
ENDBRANCH   5  28
ENDBRANCH   4   5
TORSDOF 11
ENDMDL
MODEL       93
REMARK 921   NORMALIZED FREE ENERGY PREDICTED BY IDOCK:   -6.08 KCAL/MOL
REMARK 922        TOTAL FREE ENERGY PREDICTED BY IDOCK:  -11.75 KCAL/MOL
REMARK 923 INTER-LIGAND FREE ENERGY PREDICTED BY IDOCK:  -10.01 KCAL/MOL
REMARK 924 INTRA-LIGAND FREE ENERGY PREDICTED BY IDOCK:   -1.74 KCAL/MOL
REMARK 927      BINDING AFFINITY PREDICTED BY RF-SCORE:    0.00 PKD
ROOT
HETATM    1  C   UNL     1      -6.396   8.909  66.922  1.00  0.00    -0.060 C  
HETATM    2  C   UNL     1      -7.343   9.843  66.168  1.00  0.00    -0.104 C  
HETATM    3  C   UNL     1      -6.690  10.191  64.815  1.00  0.00    -0.121 C  
HETATM    4  C   UNL     1      -8.737   9.235  65.918  1.00  0.00    -0.154 C  
ENDROOT
BRANCH   4   5
HETATM    5  N   UNL     1      -9.542   8.812  67.142  1.00  0.00    -0.164 N  
BRANCH   5   6
HETATM    6  C   UNL     1     -10.847   9.632  67.292  1.00  0.00    -0.142 C  
BRANCH   6   7
HETATM    7  C   UNL     1     -10.700  11.193  67.293  1.00  0.00    -0.258 C  
HETATM    8  H   UNL     1     -11.738  12.703  66.613  1.00  0.00     0.000 HD 
HETATM    9  O   UNL     1     -11.827  11.758  66.612  1.00  0.00    -0.569 OA 
BRANCH   7  10
HETATM   10  C   UNL     1     -10.515  11.804  68.732  1.00  0.00    -0.198 C  
BRANCH  10  11
HETATM   11  N   UNL     1     -10.003  13.189  68.713  1.00  0.00    -0.426 N  
HETATM   12  O   UNL     1     -12.079  14.161  68.690  1.00  0.00    -0.343 OA 
HETATM   13  H   UNL     1      -8.996  13.352  68.723  1.00  0.00     0.000 HD 
HETATM   14  C   UNL     1     -10.862  14.260  68.681  1.00  0.00    -0.253 C  
BRANCH  14  15
HETATM   15  O   UNL     1     -10.189  15.445  68.612  1.00  0.00    -0.209 OA 
BRANCH  15  16
HETATM   16  C   UNL     1     -10.674  16.330  67.585  1.00  0.00    -0.311 C  
HETATM   17  C   UNL     1     -10.411  17.784  67.919  1.00  0.00    -0.401 C  
HETATM   18  O   UNL     1      -9.828  17.481  65.656  1.00  0.00    -0.543 OA 
HETATM   19  C   UNL     1     -10.406  18.435  66.553  1.00  0.00    -0.400 C  
HETATM   20  C   UNL     1      -9.944  16.178  66.252  1.00  0.00    -0.317 C  
ENDBRANCH  15  16
ENDBRANCH  14  15
ENDBRANCH  10  11
BRANCH  10  21
HETATM   21  C   UNL     1     -11.702  11.633  69.717  1.00  0.00    -0.425 C  
BRANCH  21  22
HETATM   22  C   UNL     1     -11.805  10.404  70.599  1.00  0.00    -0.445 A  
HETATM   23  C   UNL     1     -10.711   8.632  71.860  1.00  0.00    -0.414 A  
HETATM   24  C   UNL     1     -10.661   9.653  70.906  1.00  0.00    -0.402 A  
HETATM   25  C   UNL     1     -11.906   8.335  72.512  1.00  0.00    -0.439 A  
HETATM   26  C   UNL     1     -13.006  10.082  71.252  1.00  0.00    -0.495 A  
HETATM   27  C   UNL     1     -13.056   9.055  72.202  1.00  0.00    -0.496 A  
ENDBRANCH  21  22
ENDBRANCH  10  21
ENDBRANCH   7  10
ENDBRANCH   6   7
ENDBRANCH   5   6
BRANCH   5  28
HETATM   28  S   UNL     1      -9.890   7.086  67.083  1.00  0.00    -0.188 S  
HETATM   29  O   UNL     1     -11.301   6.893  66.841  1.00  0.00    -0.269 OA 
HETATM   30  O   UNL     1      -8.899   6.516  66.189  1.00  0.00    -0.146 OA 
BRANCH  28  31
HETATM   31  C   UNL     1      -9.568   6.469  68.712  1.00  0.00    -0.126 A  
HETATM   32  N   UNL     1      -8.774   4.951  72.551  1.00  0.00    -0.119 NA 
HETATM   33  H2  UNL     1      -8.820   3.937  72.457  1.00  0.00     0.000 HD 
HETATM   34  H1  UNL     1      -7.907   5.189  73.034  1.00  0.00     0.000 HD 
HETATM   35  C   UNL     1     -10.520   5.676  69.356  1.00  0.00    -0.367 A  
HETATM   36  C   UNL     1     -10.258   5.196  70.647  1.00  0.00    -0.326 A  
HETATM   37  C   UNL     1      -8.337   6.728  69.330  1.00  0.00    -0.125 A  
HETATM   38  C   UNL     1      -8.087   6.237  70.615  1.00  0.00    -0.113 A  
HETATM   39  C   UNL     1      -9.069   5.523  71.309  1.00  0.00    -0.142 A  
ENDBRANCH  28  31
ENDBRANCH   5  28
ENDBRANCH   4   5
TORSDOF 11
ENDMDL
MODEL       94
REMARK 921   NORMALIZED FREE ENERGY PREDICTED BY IDOCK:   -6.06 KCAL/MOL
REMARK 922        TOTAL FREE ENERGY PREDICTED BY IDOCK:  -11.73 KCAL/MOL
REMARK 923 INTER-LIGAND FREE ENERGY PREDICTED BY IDOCK:   -9.49 KCAL/MOL
REMARK 924 INTRA-LIGAND FREE ENERGY PREDICTED BY IDOCK:   -2.24 KCAL/MOL
REMARK 927      BINDING AFFINITY PREDICTED BY RF-SCORE:    0.00 PKD
ROOT
HETATM    1  C   UNL     1     -10.037  12.678  64.290  1.00  0.00    -0.292 C  
HETATM    2  C   UNL     1     -10.240  11.162  64.290  1.00  0.00    -0.399 C  
HETATM    3  C   UNL     1      -9.997  10.650  62.856  1.00  0.00    -0.185 C  
HETATM    4  C   UNL     1      -9.304  10.418  65.262  1.00  0.00    -0.214 C  
ENDROOT
BRANCH   4   5
HETATM    5  N   UNL     1      -9.386  10.795  66.737  1.00  0.00    -0.160 N  
BRANCH   5   6
HETATM    6  C   UNL     1     -10.850  10.890  67.233  1.00  0.00    -0.287 C  
BRANCH   6   7
HETATM    7  C   UNL     1     -11.355  12.311  67.665  1.00  0.00    -0.311 C  
HETATM    8  H   UNL     1     -12.708  13.573  67.037  1.00  0.00     0.000 HD 
HETATM    9  O   UNL     1     -12.402  12.712  66.775  1.00  0.00    -0.450 OA 
BRANCH   7  10
HETATM   10  C   UNL     1     -11.802  12.385  69.173  1.00  0.00    -0.300 C  
BRANCH  10  11
HETATM   11  N   UNL     1     -11.242  11.295  69.997  1.00  0.00    -0.470 N  
HETATM   12  O   UNL     1     -13.248  10.724  70.949  1.00  0.00    -0.278 OA 
HETATM   13  H   UNL     1     -10.245  11.086  69.943  1.00  0.00     0.000 HD 
HETATM   14  C   UNL     1     -12.043  10.559  70.836  1.00  0.00    -0.383 C  
BRANCH  14  15
HETATM   15  O   UNL     1     -11.324   9.643  71.546  1.00  0.00    -0.381 OA 
BRANCH  15  16
HETATM   16  C   UNL     1     -11.501   8.287  71.092  1.00  0.00    -0.273 C  
HETATM   17  C   UNL     1     -10.265   7.444  71.327  1.00  0.00    -0.197 C  
HETATM   18  O   UNL     1     -12.117   6.153  72.000  1.00  0.00    -0.318 OA 
HETATM   19  C   UNL     1     -10.832   6.043  71.379  1.00  0.00    -0.270 C  
HETATM   20  C   UNL     1     -12.561   7.514  71.874  1.00  0.00    -0.294 C  
ENDBRANCH  15  16
ENDBRANCH  14  15
ENDBRANCH  10  11
BRANCH  10  21
HETATM   21  C   UNL     1     -11.678  13.767  69.868  1.00  0.00    -0.353 C  
BRANCH  21  22
HETATM   22  C   UNL     1     -10.901  14.893  69.216  1.00  0.00    -0.272 A  
HETATM   23  C   UNL     1     -10.887  17.044  68.076  1.00  0.00    -0.330 A  
HETATM   24  C   UNL     1     -11.572  15.909  68.521  1.00  0.00    -0.351 A  
HETATM   25  C   UNL     1      -9.519  17.177  68.306  1.00  0.00    -0.276 A  
HETATM   26  C   UNL     1      -9.518  15.034  69.426  1.00  0.00    -0.132 A  
HETATM   27  C   UNL     1      -8.834  16.167  68.974  1.00  0.00    -0.251 A  
ENDBRANCH  21  22
ENDBRANCH  10  21
ENDBRANCH   7  10
ENDBRANCH   6   7
ENDBRANCH   5   6
BRANCH   5  28
HETATM   28  S   UNL     1      -8.465   9.657  67.716  1.00  0.00    -0.125 S  
HETATM   29  O   UNL     1      -7.066   9.761  67.375  1.00  0.00    -0.084 OA 
HETATM   30  O   UNL     1      -8.913   9.862  69.081  1.00  0.00    -0.147 OA 
BRANCH  28  31
HETATM   31  C   UNL     1      -8.990   8.043  67.209  1.00  0.00    -0.138 A  
HETATM   32  N   UNL     1     -10.217   4.187  66.068  1.00  0.00    -0.432 NA 
HETATM   33  H2  UNL     1      -9.562   3.549  66.520  1.00  0.00     0.000 HD 
HETATM   34  H1  UNL     1     -11.165   3.866  66.262  1.00  0.00     0.000 HD 
HETATM   35  C   UNL     1      -8.112   7.213  66.510  1.00  0.00    -0.114 A  
HETATM   36  C   UNL     1      -8.538   5.940  66.109  1.00  0.00    -0.137 A  
HETATM   37  C   UNL     1     -10.265   7.578  67.561  1.00  0.00    -0.288 A  
HETATM   38  C   UNL     1     -10.674   6.302  67.161  1.00  0.00    -0.432 A  
HETATM   39  C   UNL     1      -9.840   5.499  66.377  1.00  0.00    -0.167 A  
ENDBRANCH  28  31
ENDBRANCH   5  28
ENDBRANCH   4   5
TORSDOF 11
ENDMDL
MODEL       95
REMARK 921   NORMALIZED FREE ENERGY PREDICTED BY IDOCK:   -6.06 KCAL/MOL
REMARK 922        TOTAL FREE ENERGY PREDICTED BY IDOCK:  -11.72 KCAL/MOL
REMARK 923 INTER-LIGAND FREE ENERGY PREDICTED BY IDOCK:  -10.47 KCAL/MOL
REMARK 924 INTRA-LIGAND FREE ENERGY PREDICTED BY IDOCK:   -1.25 KCAL/MOL
REMARK 927      BINDING AFFINITY PREDICTED BY RF-SCORE:    0.00 PKD
ROOT
HETATM    1  C   UNL     1     -10.823   6.514  67.596  1.00  0.00    -0.419 C  
HETATM    2  C   UNL     1     -10.108   7.514  68.506  1.00  0.00    -0.198 C  
HETATM    3  C   UNL     1      -9.051   6.743  69.322  1.00  0.00    -0.139 C  
HETATM    4  C   UNL     1      -9.421   8.660  67.738  1.00  0.00    -0.142 C  
ENDROOT
BRANCH   4   5
HETATM    5  N   UNL     1     -10.304   9.538  66.858  1.00  0.00    -0.244 N  
BRANCH   5   6
HETATM    6  C   UNL     1     -11.100  10.578  67.683  1.00  0.00    -0.309 C  
BRANCH   6   7
HETATM    7  C   UNL     1     -10.515  10.957  69.088  1.00  0.00    -0.221 C  
HETATM    8  H   UNL     1      -8.884  11.807  69.749  1.00  0.00     0.000 HD 
HETATM    9  O   UNL     1      -9.238  11.578  68.898  1.00  0.00    -0.113 OA 
BRANCH   7  10
HETATM   10  C   UNL     1     -11.483  11.851  69.949  1.00  0.00    -0.186 C  
BRANCH  10  11
HETATM   11  N   UNL     1     -11.743  13.173  69.344  1.00  0.00    -0.312 N  
HETATM   12  O   UNL     1     -12.057  14.242  71.347  1.00  0.00    -0.340 OA 
HETATM   13  H   UNL     1     -11.713  13.275  68.330  1.00  0.00     0.000 HD 
HETATM   14  C   UNL     1     -12.023  14.266  70.126  1.00  0.00    -0.326 C  
BRANCH  14  15
HETATM   15  O   UNL     1     -12.285  15.372  69.373  1.00  0.00    -0.300 OA 
BRANCH  15  16
HETATM   16  C   UNL     1     -11.170  16.277  69.261  1.00  0.00    -0.312 C  
HETATM   17  C   UNL     1      -9.847  15.541  69.207  1.00  0.00    -0.270 C  
HETATM   18  O   UNL     1      -9.775  17.209  67.544  1.00  0.00    -0.248 OA 
HETATM   19  C   UNL     1      -8.951  16.535  68.501  1.00  0.00    -0.231 C  
HETATM   20  C   UNL     1     -11.146  17.059  67.950  1.00  0.00    -0.125 C  
ENDBRANCH  15  16
ENDBRANCH  14  15
ENDBRANCH  10  11
BRANCH  10  21
HETATM   21  C   UNL     1     -12.784  11.175  70.459  1.00  0.00    -0.302 C  
BRANCH  21  22
HETATM   22  C   UNL     1     -12.741   9.807  71.111  1.00  0.00    -0.433 A  
HETATM   23  C   UNL     1     -13.683   7.577  71.367  1.00  0.00    -0.414 A  
HETATM   24  C   UNL     1     -13.793   8.900  70.927  1.00  0.00     0.145 A  
HETATM   25  C   UNL     1     -12.526   7.144  72.012  1.00  0.00    -0.277 A  
HETATM   26  C   UNL     1     -11.587   9.360  71.777  1.00  0.00    -0.433 A  
HETATM   27  C   UNL     1     -11.481   8.038  72.224  1.00  0.00    -0.419 A  
ENDBRANCH  21  22
ENDBRANCH  10  21
ENDBRANCH   7  10
ENDBRANCH   6   7
ENDBRANCH   5   6
BRANCH   5  28
HETATM   28  S   UNL     1      -9.340  10.330  65.614  1.00  0.00    -0.210 S  
HETATM   29  O   UNL     1      -8.136  10.859  66.211  1.00  0.00    -0.157 OA 
HETATM   30  O   UNL     1      -9.269   9.387  64.513  1.00  0.00    -0.216 OA 
BRANCH  28  31
HETATM   31  C   UNL     1     -10.291  11.723  65.075  1.00  0.00    -0.281 A  
HETATM   32  N   UNL     1     -12.508  15.037  63.740  1.00  0.00    -1.049 NA 
HETATM   33  H2  UNL     1     -11.833  15.648  63.282  1.00  0.00     0.000 HD 
HETATM   34  H1  UNL     1     -13.304  14.910  63.114  1.00  0.00     0.000 HD 
HETATM   35  C   UNL     1      -9.973  13.003  65.533  1.00  0.00    -0.226 A  
HETATM   36  C   UNL     1     -10.734  14.099  65.104  1.00  0.00    -0.400 A  
HETATM   37  C   UNL     1     -11.325  11.549  64.145  1.00  0.00    -0.349 A  
HETATM   38  C   UNL     1     -12.072  12.652  63.720  1.00  0.00    -0.604 A  
HETATM   39  C   UNL     1     -11.825  13.925  64.245  1.00  0.00    -0.412 A  
ENDBRANCH  28  31
ENDBRANCH   5  28
ENDBRANCH   4   5
TORSDOF 11
ENDMDL
MODEL       96
REMARK 921   NORMALIZED FREE ENERGY PREDICTED BY IDOCK:   -6.05 KCAL/MOL
REMARK 922        TOTAL FREE ENERGY PREDICTED BY IDOCK:  -11.72 KCAL/MOL
REMARK 923 INTER-LIGAND FREE ENERGY PREDICTED BY IDOCK:   -9.66 KCAL/MOL
REMARK 924 INTRA-LIGAND FREE ENERGY PREDICTED BY IDOCK:   -2.06 KCAL/MOL
REMARK 927      BINDING AFFINITY PREDICTED BY RF-SCORE:    0.00 PKD
ROOT
HETATM    1  C   UNL     1     -11.200   7.462  70.099  1.00  0.00    -0.239 C  
HETATM    2  C   UNL     1     -11.357   8.964  70.339  1.00  0.00    -0.229 C  
HETATM    3  C   UNL     1     -11.161   9.228  71.845  1.00  0.00    -0.331 C  
HETATM    4  C   UNL     1     -10.359   9.822  69.537  1.00  0.00    -0.230 C  
ENDROOT
BRANCH   4   5
HETATM    5  N   UNL     1     -10.390   9.691  68.018  1.00  0.00    -0.205 N  
BRANCH   5   6
HETATM    6  C   UNL     1     -10.711  11.037  67.324  1.00  0.00    -0.265 C  
BRANCH   6   7
HETATM    7  C   UNL     1      -9.777  12.248  67.671  1.00  0.00    -0.194 C  
HETATM    8  H   UNL     1      -8.569  13.421  66.678  1.00  0.00     0.000 HD 
HETATM    9  O   UNL     1      -9.135  12.688  66.468  1.00  0.00    -0.223 OA 
BRANCH   7  10
HETATM   10  C   UNL     1     -10.522  13.424  68.404  1.00  0.00    -0.250 C  
BRANCH  10  11
HETATM   11  N   UNL     1     -10.407  14.715  67.696  1.00  0.00    -0.233 N  
HETATM   12  O   UNL     1      -9.338  15.785  69.419  1.00  0.00    -0.254 OA 
HETATM   13  H   UNL     1     -10.770  14.801  66.747  1.00  0.00     0.000 HD 
HETATM   14  C   UNL     1      -9.820  15.801  68.296  1.00  0.00    -0.213 C  
BRANCH  14  15
HETATM   15  O   UNL     1      -9.863  16.905  67.497  1.00  0.00    -0.250 OA 
BRANCH  15  16
HETATM   16  C   UNL     1      -8.589  17.558  67.336  1.00  0.00    -0.220 C  
HETATM   17  C   UNL     1      -7.634  16.738  66.493  1.00  0.00    -0.334 C  
HETATM   18  O   UNL     1      -7.478  18.965  65.741  1.00  0.00    -0.432 OA 
HETATM   19  C   UNL     1      -6.689  17.790  65.957  1.00  0.00    -0.281 C  
HETATM   20  C   UNL     1      -8.665  18.862  66.544  1.00  0.00    -0.316 C  
ENDBRANCH  15  16
ENDBRANCH  14  15
ENDBRANCH  10  11
BRANCH  10  21
HETATM   21  C   UNL     1     -11.975  13.142  68.872  1.00  0.00    -0.317 C  
BRANCH  21  22
HETATM   22  C   UNL     1     -12.460  13.625  70.224  1.00  0.00    -0.335 A  
HETATM   23  C   UNL     1     -13.325  15.422  71.620  1.00  0.00    -0.578 A  
HETATM   24  C   UNL     1     -12.705  14.988  70.444  1.00  0.00    -0.371 A  
HETATM   25  C   UNL     1     -13.696  14.505  72.602  1.00  0.00    -0.543 A  
HETATM   26  C   UNL     1     -12.825  12.714  71.230  1.00  0.00    -0.344 A  
HETATM   27  C   UNL     1     -13.438  13.151  72.409  1.00  0.00    -0.643 A  
ENDBRANCH  21  22
ENDBRANCH  10  21
ENDBRANCH   7  10
ENDBRANCH   6   7
ENDBRANCH   5   6
BRANCH   5  28
HETATM   28  S   UNL     1      -8.868   9.030  67.427  1.00  0.00    -0.117 S  
HETATM   29  O   UNL     1      -8.616   9.532  66.096  1.00  0.00    -0.127 OA 
HETATM   30  O   UNL     1      -7.907   9.242  68.494  1.00  0.00    -0.089 OA 
BRANCH  28  31
HETATM   31  C   UNL     1      -9.125   7.284  67.268  1.00  0.00    -0.123 A  
HETATM   32  N   UNL     1      -9.696   3.142  66.834  1.00  0.00    -0.394 NA 
HETATM   33  H2  UNL     1      -9.720   2.975  65.829  1.00  0.00     0.000 HD 
HETATM   34  H1  UNL     1      -9.042   2.482  67.254  1.00  0.00     0.000 HD 
HETATM   35  C   UNL     1     -10.247   6.805  66.590  1.00  0.00    -0.211 A  
HETATM   36  C   UNL     1     -10.444   5.422  66.474  1.00  0.00    -0.352 A  
HETATM   37  C   UNL     1      -8.173   6.387  67.771  1.00  0.00    -0.118 A  
HETATM   38  C   UNL     1      -8.379   5.010  67.641  1.00  0.00    -0.105 A  
HETATM   39  C   UNL     1      -9.546   4.516  67.050  1.00  0.00    -0.190 A  
ENDBRANCH  28  31
ENDBRANCH   5  28
ENDBRANCH   4   5
TORSDOF 11
ENDMDL
MODEL       97
REMARK 921   NORMALIZED FREE ENERGY PREDICTED BY IDOCK:   -6.05 KCAL/MOL
REMARK 922        TOTAL FREE ENERGY PREDICTED BY IDOCK:  -11.71 KCAL/MOL
REMARK 923 INTER-LIGAND FREE ENERGY PREDICTED BY IDOCK:   -9.97 KCAL/MOL
REMARK 924 INTRA-LIGAND FREE ENERGY PREDICTED BY IDOCK:   -1.74 KCAL/MOL
REMARK 927      BINDING AFFINITY PREDICTED BY RF-SCORE:    0.00 PKD
ROOT
HETATM    1  C   UNL     1     -12.130  14.094  66.577  1.00  0.00    -0.481 C  
HETATM    2  C   UNL     1     -11.172  13.113  65.899  1.00  0.00    -0.311 C  
HETATM    3  C   UNL     1     -11.377  13.223  64.375  1.00  0.00    -0.415 C  
HETATM    4  C   UNL     1      -9.690  13.373  66.234  1.00  0.00    -0.272 C  
ENDROOT
BRANCH   4   5
HETATM    5  N   UNL     1      -9.286  13.320  67.703  1.00  0.00    -0.203 N  
BRANCH   5   6
HETATM    6  C   UNL     1      -8.728  11.933  68.104  1.00  0.00    -0.173 C  
BRANCH   6   7
HETATM    7  C   UNL     1      -9.704  10.713  67.959  1.00  0.00    -0.157 C  
HETATM    8  H   UNL     1      -9.814   9.128  66.822  1.00  0.00     0.000 HD 
HETATM    9  O   UNL     1      -9.223   9.866  66.910  1.00  0.00    -0.143 OA 
BRANCH   7  10
HETATM   10  C   UNL     1      -9.921   9.922  69.302  1.00  0.00    -0.207 C  
BRANCH  10  11
HETATM   11  N   UNL     1     -10.650  10.701  70.323  1.00  0.00    -0.429 N  
HETATM   12  O   UNL     1     -12.484  11.080  69.002  1.00  0.00    -0.449 OA 
HETATM   13  H   UNL     1     -10.225  10.850  71.239  1.00  0.00     0.000 HD 
HETATM   14  C   UNL     1     -11.890  11.228  70.059  1.00  0.00    -0.367 C  
BRANCH  14  15
HETATM   15  O   UNL     1     -12.364  11.955  71.111  1.00  0.00    -0.314 OA 
BRANCH  15  16
HETATM   16  C   UNL     1     -12.902  13.238  70.735  1.00  0.00    -0.121 C  
HETATM   17  C   UNL     1     -13.738  13.848  71.841  1.00  0.00    -0.521 C  
HETATM   18  O   UNL     1     -12.360  15.561  70.994  1.00  0.00    -0.351 OA 
HETATM   19  C   UNL     1     -13.669  15.326  71.522  1.00  0.00    -0.520 C  
HETATM   20  C   UNL     1     -11.835  14.309  70.521  1.00  0.00    -0.294 C  
ENDBRANCH  15  16
ENDBRANCH  14  15
ENDBRANCH  10  11
BRANCH  10  21
HETATM   21  C   UNL     1     -10.462   8.473  69.176  1.00  0.00    -0.217 C  
BRANCH  21  22
HETATM   22  C   UNL     1     -10.713   7.631  70.411  1.00  0.00    -0.241 A  
HETATM   23  C   UNL     1     -12.269   6.428  71.846  1.00  0.00    -0.332 A  
HETATM   24  C   UNL     1     -12.023   7.350  70.824  1.00  0.00    -0.261 A  
HETATM   25  C   UNL     1     -11.210   5.783  72.483  1.00  0.00    -0.347 A  
HETATM   26  C   UNL     1      -9.655   6.985  71.074  1.00  0.00    -0.170 A  
HETATM   27  C   UNL     1      -9.903   6.069  72.102  1.00  0.00    -0.181 A  
ENDBRANCH  21  22
ENDBRANCH  10  21
ENDBRANCH   7  10
ENDBRANCH   6   7
ENDBRANCH   5   6
BRANCH   5  28
HETATM   28  S   UNL     1      -8.125  14.592  68.068  1.00  0.00    -0.147 S  
HETATM   29  O   UNL     1      -7.962  14.690  69.500  1.00  0.00    -0.072 OA 
HETATM   30  O   UNL     1      -6.983  14.341  67.207  1.00  0.00    -0.199 OA 
BRANCH  28  31
HETATM   31  C   UNL     1      -8.878  16.106  67.541  1.00  0.00    -0.189 A  
HETATM   32  N   UNL     1     -10.620  19.734  66.323  1.00  0.00    -0.485 NA 
HETATM   33  H2  UNL     1     -10.481  20.376  67.103  1.00  0.00     0.000 HD 
HETATM   34  H1  UNL     1     -10.312  20.195  65.467  1.00  0.00     0.000 HD 
HETATM   35  C   UNL     1      -9.924  16.658  68.283  1.00  0.00    -0.261 A  
HETATM   36  C   UNL     1     -10.517  17.854  67.855  1.00  0.00    -0.404 A  
HETATM   37  C   UNL     1      -8.387  16.778  66.413  1.00  0.00    -0.344 A  
HETATM   38  C   UNL     1      -8.984  17.974  66.002  1.00  0.00     0.001 A  
HETATM   39  C   UNL     1     -10.094  18.487  66.681  1.00  0.00    -0.389 A  
ENDBRANCH  28  31
ENDBRANCH   5  28
ENDBRANCH   4   5
TORSDOF 11
ENDMDL
MODEL       98
REMARK 921   NORMALIZED FREE ENERGY PREDICTED BY IDOCK:   -6.04 KCAL/MOL
REMARK 922        TOTAL FREE ENERGY PREDICTED BY IDOCK:  -11.69 KCAL/MOL
REMARK 923 INTER-LIGAND FREE ENERGY PREDICTED BY IDOCK:   -9.99 KCAL/MOL
REMARK 924 INTRA-LIGAND FREE ENERGY PREDICTED BY IDOCK:   -1.70 KCAL/MOL
REMARK 927      BINDING AFFINITY PREDICTED BY RF-SCORE:    0.00 PKD
ROOT
HETATM    1  C   UNL     1      -8.230   6.940  68.397  1.00  0.00    -0.120 C  
HETATM    2  C   UNL     1      -9.442   7.756  67.944  1.00  0.00    -0.158 C  
HETATM    3  C   UNL     1      -9.890   7.220  66.570  1.00  0.00    -0.202 C  
HETATM    4  C   UNL     1     -10.628   7.692  68.927  1.00  0.00    -0.159 C  
ENDROOT
BRANCH   4   5
HETATM    5  N   UNL     1     -10.379   8.171  70.353  1.00  0.00    -0.202 N  
BRANCH   5   6
HETATM    6  C   UNL     1     -10.388   9.715  70.458  1.00  0.00    -0.295 C  
BRANCH   6   7
HETATM    7  C   UNL     1     -11.658  10.451  69.902  1.00  0.00    -0.284 C  
HETATM    8  H   UNL     1     -13.124  11.494  70.664  1.00  0.00     0.000 HD 
HETATM    9  O   UNL     1     -12.356  11.048  71.001  1.00  0.00    -0.357 OA 
BRANCH   7  10
HETATM   10  C   UNL     1     -11.331  11.497  68.773  1.00  0.00    -0.265 C  
BRANCH  10  11
HETATM   11  N   UNL     1     -10.608  12.684  69.274  1.00  0.00    -0.436 N  
HETATM   12  O   UNL     1     -12.407  14.093  69.099  1.00  0.00    -0.301 OA 
HETATM   13  H   UNL     1      -9.628  12.597  69.545  1.00  0.00     0.000 HD 
HETATM   14  C   UNL     1     -11.234  13.901  69.379  1.00  0.00    -0.224 C  
BRANCH  14  15
HETATM   15  O   UNL     1     -10.378  14.873  69.808  1.00  0.00    -0.188 OA 
BRANCH  15  16
HETATM   16  C   UNL     1      -9.885  15.721  68.752  1.00  0.00    -0.214 C  
HETATM   17  C   UNL     1     -10.756  16.945  68.554  1.00  0.00    -0.359 C  
HETATM   18  O   UNL     1      -8.517  17.678  68.508  1.00  0.00    -0.282 OA 
HETATM   19  C   UNL     1      -9.796  17.925  67.916  1.00  0.00    -0.309 C  
HETATM   20  C   UNL     1      -8.527  16.349  69.056  1.00  0.00    -0.225 C  
ENDBRANCH  15  16
ENDBRANCH  14  15
ENDBRANCH  10  11
BRANCH  10  21
HETATM   21  C   UNL     1     -10.703  10.938  67.468  1.00  0.00    -0.299 C  
BRANCH  21  22
HETATM   22  C   UNL     1     -11.038  11.553  66.124  1.00  0.00    -0.302 A  
HETATM   23  C   UNL     1     -10.922  11.469  63.693  1.00  0.00    -0.482 A  
HETATM   24  C   UNL     1     -10.481  11.033  64.947  1.00  0.00    -0.371 A  
HETATM   25  C   UNL     1     -11.915  12.442  63.595  1.00  0.00    -0.626 A  
HETATM   26  C   UNL     1     -12.027  12.545  66.009  1.00  0.00    -0.456 A  
HETATM   27  C   UNL     1     -12.461  12.986  64.754  1.00  0.00    -0.485 A  
ENDBRANCH  21  22
ENDBRANCH  10  21
ENDBRANCH   7  10
ENDBRANCH   6   7
ENDBRANCH   5   6
BRANCH   5  28
HETATM   28  S   UNL     1     -11.556   7.461  71.454  1.00  0.00    -0.287 S  
HETATM   29  O   UNL     1     -11.594   8.235  72.673  1.00  0.00    -0.399 OA 
HETATM   30  O   UNL     1     -12.759   7.260  70.667  1.00  0.00    -0.139 OA 
BRANCH  28  31
HETATM   31  C   UNL     1     -10.918   5.866  71.888  1.00  0.00    -0.266 A  
HETATM   32  N   UNL     1      -9.366   2.111  72.963  1.00  0.00    -0.076 NA 
HETATM   33  H2  UNL     1      -8.399   2.285  73.238  1.00  0.00     0.000 HD 
HETATM   34  H1  UNL     1      -9.812   1.555  73.692  1.00  0.00     0.000 HD 
HETATM   35  C   UNL     1      -9.815   5.350  71.206  1.00  0.00    -0.235 A  
HETATM   36  C   UNL     1      -9.320   4.085  71.552  1.00  0.00    -0.207 A  
HETATM   37  C   UNL     1     -11.484   5.150  72.951  1.00  0.00    -0.329 A  
HETATM   38  C   UNL     1     -10.976   3.893  73.291  1.00  0.00    -0.294 A  
HETATM   39  C   UNL     1      -9.933   3.322  72.553  1.00  0.00    -0.157 A  
ENDBRANCH  28  31
ENDBRANCH   5  28
ENDBRANCH   4   5
TORSDOF 11
ENDMDL
MODEL       99
REMARK 921   NORMALIZED FREE ENERGY PREDICTED BY IDOCK:   -6.04 KCAL/MOL
REMARK 922        TOTAL FREE ENERGY PREDICTED BY IDOCK:  -11.69 KCAL/MOL
REMARK 923 INTER-LIGAND FREE ENERGY PREDICTED BY IDOCK:   -9.98 KCAL/MOL
REMARK 924 INTRA-LIGAND FREE ENERGY PREDICTED BY IDOCK:   -1.71 KCAL/MOL
REMARK 927      BINDING AFFINITY PREDICTED BY RF-SCORE:    0.00 PKD
ROOT
HETATM    1  C   UNL     1      -6.044   7.396  66.489  1.00  0.00    -0.040 C  
HETATM    2  C   UNL     1      -6.957   8.309  65.670  1.00  0.00    -0.067 C  
HETATM    3  C   UNL     1      -6.546   8.188  64.189  1.00  0.00    -0.066 C  
HETATM    4  C   UNL     1      -8.453   7.967  65.812  1.00  0.00    -0.147 C  
ENDROOT
BRANCH   4   5
HETATM    5  N   UNL     1      -9.051   8.019  67.213  1.00  0.00    -0.133 N  
BRANCH   5   6
HETATM    6  C   UNL     1     -10.052   9.188  67.377  1.00  0.00    -0.230 C  
BRANCH   6   7
HETATM    7  C   UNL     1      -9.664  10.307  68.406  1.00  0.00    -0.156 C  
HETATM    8  H   UNL     1      -8.016  11.200  68.956  1.00  0.00     0.000 HD 
HETATM    9  O   UNL     1      -8.251  10.522  68.334  1.00  0.00    -0.111 OA 
BRANCH   7  10
HETATM   10  C   UNL     1     -10.474  11.643  68.213  1.00  0.00    -0.204 C  
BRANCH  10  11
HETATM   11  N   UNL     1     -10.876  12.267  69.489  1.00  0.00    -0.452 N  
HETATM   12  O   UNL     1     -12.609  10.817  69.875  1.00  0.00    -0.294 OA 
HETATM   13  H   UNL     1     -10.354  13.069  69.842  1.00  0.00     0.000 HD 
HETATM   14  C   UNL     1     -11.942  11.785  70.208  1.00  0.00    -0.343 C  
BRANCH  14  15
HETATM   15  O   UNL     1     -12.179  12.533  71.323  1.00  0.00    -0.164 OA 
BRANCH  15  16
HETATM   16  C   UNL     1     -12.883  13.762  71.059  1.00  0.00    -0.305 C  
HETATM   17  C   UNL     1     -14.087  13.931  71.963  1.00  0.00    -0.568 C  
HETATM   18  O   UNL     1     -12.969  16.004  71.912  1.00  0.00    -0.435 OA 
HETATM   19  C   UNL     1     -14.279  15.432  71.971  1.00  0.00    -0.552 C  
HETATM   20  C   UNL     1     -12.071  15.014  71.383  1.00  0.00    -0.339 C  
ENDBRANCH  15  16
ENDBRANCH  14  15
ENDBRANCH  10  11
BRANCH  10  21
HETATM   21  C   UNL     1      -9.883  12.676  67.217  1.00  0.00    -0.206 C  
BRANCH  21  22
HETATM   22  C   UNL     1     -10.462  12.827  65.824  1.00  0.00    -0.294 A  
HETATM   23  C   UNL     1     -10.819  11.920  63.594  1.00  0.00    -0.510 A  
HETATM   24  C   UNL     1     -10.151  11.898  64.822  1.00  0.00    -0.295 A  
HETATM   25  C   UNL     1     -11.797  12.880  63.341  1.00  0.00    -0.576 A  
HETATM   26  C   UNL     1     -11.439  13.799  65.549  1.00  0.00    -0.319 A  
HETATM   27  C   UNL     1     -12.101  13.825  64.316  1.00  0.00    -0.481 A  
ENDBRANCH  21  22
ENDBRANCH  10  21
ENDBRANCH   7  10
ENDBRANCH   6   7
ENDBRANCH   5   6
BRANCH   5  28
HETATM   28  S   UNL     1      -9.812   6.482  67.615  1.00  0.00    -0.132 S  
HETATM   29  O   UNL     1     -11.081   6.387  66.933  1.00  0.00    -0.384 OA 
HETATM   30  O   UNL     1      -8.787   5.473  67.417  1.00  0.00    -0.108 OA 
BRANCH  28  31
HETATM   31  C   UNL     1     -10.173   6.555  69.348  1.00  0.00    -0.183 A  
HETATM   32  N   UNL     1     -11.019   6.662  73.464  1.00  0.00    -0.495 NA 
HETATM   33  H2  UNL     1     -11.472   5.772  73.671  1.00  0.00     0.000 HD 
HETATM   34  H1  UNL     1     -10.273   6.808  74.143  1.00  0.00     0.000 HD 
HETATM   35  C   UNL     1     -11.492   6.443  69.789  1.00  0.00    -0.468 A  
HETATM   36  C   UNL     1     -11.769   6.507  71.161  1.00  0.00    -0.392 A  
HETATM   37  C   UNL     1      -9.130   6.666  70.277  1.00  0.00    -0.156 A  
HETATM   38  C   UNL     1      -9.420   6.721  71.644  1.00  0.00    -0.155 A  
HETATM   39  C   UNL     1     -10.744   6.708  72.093  1.00  0.00    -0.218 A  
ENDBRANCH  28  31
ENDBRANCH   5  28
ENDBRANCH   4   5
TORSDOF 11
ENDMDL
MODEL      100
REMARK 921   NORMALIZED FREE ENERGY PREDICTED BY IDOCK:   -6.02 KCAL/MOL
REMARK 922        TOTAL FREE ENERGY PREDICTED BY IDOCK:  -11.66 KCAL/MOL
REMARK 923 INTER-LIGAND FREE ENERGY PREDICTED BY IDOCK:   -9.43 KCAL/MOL
REMARK 924 INTRA-LIGAND FREE ENERGY PREDICTED BY IDOCK:   -2.24 KCAL/MOL
REMARK 927      BINDING AFFINITY PREDICTED BY RF-SCORE:    0.00 PKD
ROOT
HETATM    1  C   UNL     1      -7.057   4.078  67.021  1.00  0.00    -0.064 C  
HETATM    2  C   UNL     1      -8.572   3.939  66.866  1.00  0.00    -0.107 C  
HETATM    3  C   UNL     1      -8.850   2.695  65.997  1.00  0.00    -0.136 C  
HETATM    4  C   UNL     1      -9.317   3.799  68.208  1.00  0.00    -0.167 C  
ENDROOT
BRANCH   4   5
HETATM    5  N   UNL     1      -9.158   4.932  69.215  1.00  0.00    -0.097 N  
BRANCH   5   6
HETATM    6  C   UNL     1     -10.321   5.951  69.136  1.00  0.00    -0.238 C  
BRANCH   6   7
HETATM    7  C   UNL     1     -10.146   7.139  68.127  1.00  0.00    -0.169 C  
HETATM    8  H   UNL     1     -11.036   7.738  66.493  1.00  0.00     0.000 HD 
HETATM    9  O   UNL     1     -11.141   7.018  67.104  1.00  0.00    -0.350 OA 
BRANCH   7  10
HETATM   10  C   UNL     1     -10.178   8.554  68.815  1.00  0.00    -0.200 C  
BRANCH  10  11
HETATM   11  N   UNL     1     -11.156   9.476  68.202  1.00  0.00    -0.503 N  
HETATM   12  O   UNL     1      -9.669  11.203  67.962  1.00  0.00    -0.167 OA 
HETATM   13  H   UNL     1     -12.114   9.160  68.048  1.00  0.00     0.000 HD 
HETATM   14  C   UNL     1     -10.796  10.749  67.837  1.00  0.00    -0.264 C  
BRANCH  14  15
HETATM   15  O   UNL     1     -11.856  11.452  67.343  1.00  0.00    -0.609 OA 
BRANCH  15  16
HETATM   16  C   UNL     1     -11.500  12.389  66.308  1.00  0.00    -0.371 C  
HETATM   17  C   UNL     1     -11.533  11.754  64.933  1.00  0.00    -0.269 C  
HETATM   18  O   UNL     1     -12.597  13.848  64.749  1.00  0.00    -0.603 OA 
HETATM   19  C   UNL     1     -11.749  12.948  64.029  1.00  0.00    -0.434 C  
HETATM   20  C   UNL     1     -12.500  13.532  66.148  1.00  0.00    -0.365 C  
ENDBRANCH  15  16
ENDBRANCH  14  15
ENDBRANCH  10  11
BRANCH  10  21
HETATM   21  C   UNL     1     -10.250   8.572  70.365  1.00  0.00    -0.215 C  
BRANCH  21  22
HETATM   22  C   UNL     1     -11.587   8.632  71.077  1.00  0.00    -0.325 A  
HETATM   23  C   UNL     1     -13.410   9.953  72.005  1.00  0.00    -0.532 A  
HETATM   24  C   UNL     1     -12.103   9.860  71.516  1.00  0.00    -0.496 A  
HETATM   25  C   UNL     1     -14.217   8.820  72.077  1.00  0.00    -0.493 A  
HETATM   26  C   UNL     1     -12.408   7.495  71.171  1.00  0.00    -0.321 A  
HETATM   27  C   UNL     1     -13.713   7.589  71.668  1.00  0.00    -0.465 A  
ENDBRANCH  21  22
ENDBRANCH  10  21
ENDBRANCH   7  10
ENDBRANCH   6   7
ENDBRANCH   5   6
BRANCH   5  28
HETATM   28  S   UNL     1      -9.001   4.287  70.847  1.00  0.00    -0.115 S  
HETATM   29  O   UNL     1     -10.279   3.773  71.280  1.00  0.00    -0.067 OA 
HETATM   30  O   UNL     1      -7.828   3.432  70.820  1.00  0.00    -0.049 OA 
BRANCH  28  31
HETATM   31  C   UNL     1      -8.637   5.674  71.886  1.00  0.00    -0.131 A  
HETATM   32  N   UNL     1      -7.733   8.927  74.392  1.00  0.00    -0.362 NA 
HETATM   33  H2  UNL     1      -7.636   8.531  75.327  1.00  0.00     0.000 HD 
HETATM   34  H1  UNL     1      -6.920   9.514  74.206  1.00  0.00     0.000 HD 
HETATM   35  C   UNL     1      -9.484   5.988  72.950  1.00  0.00    -0.151 A  
HETATM   36  C   UNL     1      -9.190   7.090  73.764  1.00  0.00    -0.235 A  
HETATM   37  C   UNL     1      -7.469   6.420  71.676  1.00  0.00    -0.093 A  
HETATM   38  C   UNL     1      -7.184   7.513  72.501  1.00  0.00    -0.078 A  
HETATM   39  C   UNL     1      -8.074   7.896  73.509  1.00  0.00    -0.188 A  
ENDBRANCH  28  31
ENDBRANCH   5  28
ENDBRANCH   4   5
TORSDOF 11
ENDMDL
MODEL      101
REMARK 921   NORMALIZED FREE ENERGY PREDICTED BY IDOCK:   -6.02 KCAL/MOL
REMARK 922        TOTAL FREE ENERGY PREDICTED BY IDOCK:  -11.66 KCAL/MOL
REMARK 923 INTER-LIGAND FREE ENERGY PREDICTED BY IDOCK:  -10.31 KCAL/MOL
REMARK 924 INTRA-LIGAND FREE ENERGY PREDICTED BY IDOCK:   -1.35 KCAL/MOL
REMARK 927      BINDING AFFINITY PREDICTED BY RF-SCORE:    0.00 PKD
ROOT
HETATM    1  C   UNL     1     -13.034  14.492  64.963  1.00  0.00     0.127 C  
HETATM    2  C   UNL     1     -12.213  13.264  65.358  1.00  0.00    -0.501 C  
HETATM    3  C   UNL     1     -12.348  12.219  64.232  1.00  0.00    -0.519 C  
HETATM    4  C   UNL     1     -10.721  13.572  65.590  1.00  0.00    -0.281 C  
ENDROOT
BRANCH   4   5
HETATM    5  N   UNL     1     -10.380  14.598  66.665  1.00  0.00    -0.269 N  
BRANCH   5   6
HETATM    6  C   UNL     1      -9.545  13.982  67.814  1.00  0.00    -0.216 C  
BRANCH   6   7
HETATM    7  C   UNL     1      -9.056  12.505  67.615  1.00  0.00    -0.187 C  
HETATM    8  H   UNL     1      -7.392  11.523  67.912  1.00  0.00     0.000 HD 
HETATM    9  O   UNL     1      -7.689  12.417  68.033  1.00  0.00    -0.113 OA 
BRANCH   7  10
HETATM   10  C   UNL     1      -9.962  11.442  68.339  1.00  0.00    -0.204 C  
BRANCH  10  11
HETATM   11  N   UNL     1      -9.356  10.909  69.576  1.00  0.00    -0.396 N  
HETATM   12  O   UNL     1      -9.077   8.787  68.755  1.00  0.00    -0.138 OA 
HETATM   13  H   UNL     1      -9.220  11.529  70.375  1.00  0.00     0.000 HD 
HETATM   14  C   UNL     1      -8.973   9.594  69.667  1.00  0.00    -0.203 C  
BRANCH  14  15
HETATM   15  O   UNL     1      -8.489   9.293  70.906  1.00  0.00    -0.197 OA 
BRANCH  15  16
HETATM   16  C   UNL     1      -9.158   8.185  71.538  1.00  0.00    -0.158 C  
HETATM   17  C   UNL     1      -8.842   8.101  73.018  1.00  0.00    -0.316 C  
HETATM   18  O   UNL     1     -11.164   7.774  72.790  1.00  0.00    -0.354 OA 
HETATM   19  C   UNL     1     -10.037   7.349  73.563  1.00  0.00    -0.339 C  
HETATM   20  C   UNL     1     -10.680   8.316  71.551  1.00  0.00    -0.235 C  
ENDBRANCH  15  16
ENDBRANCH  14  15
ENDBRANCH  10  11
BRANCH  10  21
HETATM   21  C   UNL     1     -11.455  11.820  68.536  1.00  0.00    -0.353 C  
BRANCH  21  22
HETATM   22  C   UNL     1     -11.966  12.274  69.888  1.00  0.00    -0.377 A  
HETATM   23  C   UNL     1     -12.678  14.076  71.362  1.00  0.00    -0.442 A  
HETATM   24  C   UNL     1     -12.040  13.640  70.197  1.00  0.00    -0.431 A  
HETATM   25  C   UNL     1     -13.240  13.155  72.245  1.00  0.00    -0.555 A  
HETATM   26  C   UNL     1     -12.523  11.357  70.796  1.00  0.00    -0.460 A  
HETATM   27  C   UNL     1     -13.155  11.795  71.965  1.00  0.00    -0.436 A  
ENDBRANCH  21  22
ENDBRANCH  10  21
ENDBRANCH   7  10
ENDBRANCH   6   7
ENDBRANCH   5   6
BRANCH   5  28
HETATM   28  S   UNL     1      -9.546  15.978  65.956  1.00  0.00    -0.352 S  
HETATM   29  O   UNL     1      -8.122  15.737  65.978  1.00  0.00     0.066 OA 
HETATM   30  O   UNL     1     -10.233  16.251  64.706  1.00  0.00    -0.425 OA 
BRANCH  28  31
HETATM   31  C   UNL     1      -9.844  17.341  67.048  1.00  0.00    -0.281 A  
HETATM   32  N   UNL     1     -10.606  20.543  69.664  1.00  0.00    -0.312 NA 
HETATM   33  H2  UNL     1     -11.621  20.584  69.754  1.00  0.00     0.000 HD 
HETATM   34  H1  UNL     1     -10.199  20.556  70.599  1.00  0.00     0.000 HD 
HETATM   35  C   UNL     1     -10.615  18.422  66.616  1.00  0.00    -0.359 A  
HETATM   36  C   UNL     1     -10.842  19.498  67.486  1.00  0.00    -0.494 A  
HETATM   37  C   UNL     1      -9.356  17.307  68.361  1.00  0.00    -0.275 A  
HETATM   38  C   UNL     1      -9.596  18.384  69.220  1.00  0.00     0.027 A  
HETATM   39  C   UNL     1     -10.284  19.515  68.770  1.00  0.00    -0.349 A  
ENDBRANCH  28  31
ENDBRANCH   5  28
ENDBRANCH   4   5
TORSDOF 11
ENDMDL
MODEL      102
REMARK 921   NORMALIZED FREE ENERGY PREDICTED BY IDOCK:   -6.01 KCAL/MOL
REMARK 922        TOTAL FREE ENERGY PREDICTED BY IDOCK:  -11.65 KCAL/MOL
REMARK 923 INTER-LIGAND FREE ENERGY PREDICTED BY IDOCK:   -9.32 KCAL/MOL
REMARK 924 INTRA-LIGAND FREE ENERGY PREDICTED BY IDOCK:   -2.33 KCAL/MOL
REMARK 927      BINDING AFFINITY PREDICTED BY RF-SCORE:    0.00 PKD
ROOT
HETATM    1  C   UNL     1     -11.765  15.792  72.054  1.00  0.00    -0.572 C  
HETATM    2  C   UNL     1     -12.859  14.724  72.020  1.00  0.00    -0.399 C  
HETATM    3  C   UNL     1     -14.153  15.350  72.578  1.00  0.00    -0.593 C  
HETATM    4  C   UNL     1     -13.131  14.168  70.608  1.00  0.00    -0.151 C  
ENDROOT
BRANCH   4   5
HETATM    5  N   UNL     1     -11.962  13.515  69.878  1.00  0.00    -0.335 N  
BRANCH   5   6
HETATM    6  C   UNL     1     -12.255  12.040  69.513  1.00  0.00    -0.117 C  
BRANCH   6   7
HETATM    7  C   UNL     1     -12.027  10.977  70.643  1.00  0.00    -0.365 C  
HETATM    8  H   UNL     1     -13.128   9.660  71.577  1.00  0.00     0.000 HD 
HETATM    9  O   UNL     1     -13.267  10.304  70.893  1.00  0.00    -0.395 OA 
BRANCH   7  10
HETATM   10  C   UNL     1     -10.862   9.967  70.328  1.00  0.00    -0.313 C  
BRANCH  10  11
HETATM   11  N   UNL     1     -11.344   8.654  69.854  1.00  0.00    -0.452 N  
HETATM   12  O   UNL     1     -10.623   7.506  71.703  1.00  0.00    -0.205 OA 
HETATM   13  H   UNL     1     -11.820   8.589  68.955  1.00  0.00     0.000 HD 
HETATM   14  C   UNL     1     -11.161   7.520  70.606  1.00  0.00    -0.265 C  
BRANCH  14  15
HETATM   15  O   UNL     1     -11.628   6.409  69.967  1.00  0.00    -0.425 OA 
BRANCH  15  16
HETATM   16  C   UNL     1     -10.663   5.792  69.094  1.00  0.00    -0.300 C  
HETATM   17  C   UNL     1     -10.798   6.279  67.665  1.00  0.00    -0.433 C  
HETATM   18  O   UNL     1      -8.498   6.276  68.178  1.00  0.00    -0.114 OA 
HETATM   19  C   UNL     1      -9.414   6.031  67.106  1.00  0.00    -0.118 C  
HETATM   20  C   UNL     1      -9.218   6.167  69.417  1.00  0.00    -0.133 C  
ENDBRANCH  15  16
ENDBRANCH  14  15
ENDBRANCH  10  11
BRANCH  10  21
HETATM   21  C   UNL     1      -9.690  10.506  69.464  1.00  0.00    -0.147 C  
BRANCH  21  22
HETATM   22  C   UNL     1      -9.467   9.992  68.056  1.00  0.00    -0.150 A  
HETATM   23  C   UNL     1     -10.262   9.728  65.771  1.00  0.00    -0.222 A  
HETATM   24  C   UNL     1     -10.505  10.025  67.115  1.00  0.00    -0.305 A  
HETATM   25  C   UNL     1      -8.982   9.377  65.347  1.00  0.00    -0.251 A  
HETATM   26  C   UNL     1      -8.185   9.621  67.617  1.00  0.00    -0.114 A  
HETATM   27  C   UNL     1      -7.945   9.316  66.273  1.00  0.00    -0.107 A  
ENDBRANCH  21  22
ENDBRANCH  10  21
ENDBRANCH   7  10
ENDBRANCH   6   7
ENDBRANCH   5   6
BRANCH   5  28
HETATM   28  S   UNL     1     -11.537  14.443  68.443  1.00  0.00    -0.335 S  
HETATM   29  O   UNL     1     -11.985  13.734  67.268  1.00  0.00    -0.385 OA 
HETATM   30  O   UNL     1     -11.983  15.800  68.706  1.00  0.00    -0.374 OA 
BRANCH  28  31
HETATM   31  C   UNL     1      -9.767  14.458  68.379  1.00  0.00    -0.226 A  
HETATM   32  N   UNL     1      -5.564  14.441  68.271  1.00  0.00    -0.109 NA 
HETATM   33  H2  UNL     1      -5.270  14.147  69.203  1.00  0.00     0.000 HD 
HETATM   34  H1  UNL     1      -5.066  13.876  67.584  1.00  0.00     0.000 HD 
HETATM   35  C   UNL     1      -9.046  15.273  69.254  1.00  0.00    -0.240 A  
HETATM   36  C   UNL     1      -7.646  15.281  69.194  1.00  0.00    -0.192 A  
HETATM   37  C   UNL     1      -9.090  13.610  67.492  1.00  0.00    -0.213 A  
HETATM   38  C   UNL     1      -7.692  13.624  67.447  1.00  0.00    -0.156 A  
HETATM   39  C   UNL     1      -6.961  14.505  68.250  1.00  0.00    -0.111 A  
ENDBRANCH  28  31
ENDBRANCH   5  28
ENDBRANCH   4   5
TORSDOF 11
ENDMDL
MODEL      103
REMARK 921   NORMALIZED FREE ENERGY PREDICTED BY IDOCK:   -6.01 KCAL/MOL
REMARK 922        TOTAL FREE ENERGY PREDICTED BY IDOCK:  -11.65 KCAL/MOL
REMARK 923 INTER-LIGAND FREE ENERGY PREDICTED BY IDOCK:  -10.40 KCAL/MOL
REMARK 924 INTRA-LIGAND FREE ENERGY PREDICTED BY IDOCK:   -1.25 KCAL/MOL
REMARK 927      BINDING AFFINITY PREDICTED BY RF-SCORE:    0.00 PKD
ROOT
HETATM    1  C   UNL     1      -7.338  13.124  67.579  1.00  0.00    -0.153 C  
HETATM    2  C   UNL     1      -7.792  11.670  67.716  1.00  0.00    -0.129 C  
HETATM    3  C   UNL     1      -6.552  10.811  68.033  1.00  0.00    -0.063 C  
HETATM    4  C   UNL     1      -8.852  11.459  68.815  1.00  0.00    -0.072 C  
ENDROOT
BRANCH   4   5
HETATM    5  N   UNL     1     -10.157  12.237  68.685  1.00  0.00    -0.187 N  
BRANCH   5   6
HETATM    6  C   UNL     1     -10.429  12.677  67.226  1.00  0.00    -0.228 C  
BRANCH   6   7
HETATM    7  C   UNL     1     -11.098  14.083  67.030  1.00  0.00    -0.304 C  
HETATM    8  H   UNL     1     -12.795  14.746  66.326  1.00  0.00     0.000 HD 
HETATM    9  O   UNL     1     -12.391  13.895  66.445  1.00  0.00    -0.448 OA 
BRANCH   7  10
HETATM   10  C   UNL     1     -11.167  14.934  68.352  1.00  0.00    -0.292 C  
BRANCH  10  11
HETATM   11  N   UNL     1     -10.455  16.224  68.250  1.00  0.00    -0.271 N  
HETATM   12  O   UNL     1      -8.668  15.559  69.523  1.00  0.00    -0.261 OA 
HETATM   13  H   UNL     1     -10.868  16.983  67.708  1.00  0.00     0.000 HD 
HETATM   14  C   UNL     1      -9.247  16.417  68.873  1.00  0.00    -0.259 C  
BRANCH  14  15
HETATM   15  O   UNL     1      -8.787  17.689  68.701  1.00  0.00    -0.287 OA 
BRANCH  15  16
HETATM   16  C   UNL     1      -9.209  18.297  67.465  1.00  0.00    -0.254 C  
HETATM   17  C   UNL     1      -9.940  19.603  67.696  1.00  0.00    -0.510 C  
HETATM   18  O   UNL     1      -8.432  19.963  65.923  1.00  0.00    -0.338 OA 
HETATM   19  C   UNL     1      -9.737  20.326  66.383  1.00  0.00    -0.359 C  
HETATM   20  C   UNL     1      -8.051  18.740  66.574  1.00  0.00    -0.289 C  
ENDBRANCH  15  16
ENDBRANCH  14  15
ENDBRANCH  10  11
BRANCH  10  21
HETATM   21  C   UNL     1     -12.566  15.088  69.007  1.00  0.00     0.219 C  
BRANCH  21  22
HETATM   22  C   UNL     1     -12.700  15.325  70.498  1.00  0.00    -0.440 A  
HETATM   23  C   UNL     1     -14.055  15.247  72.519  1.00  0.00    -0.567 A  
HETATM   24  C   UNL     1     -13.949  15.213  71.125  1.00  0.00    -0.487 A  
HETATM   25  C   UNL     1     -12.918  15.409  73.308  1.00  0.00    -0.648 A  
HETATM   26  C   UNL     1     -11.564  15.504  71.306  1.00  0.00    -0.462 A  
HETATM   27  C   UNL     1     -11.673  15.545  72.701  1.00  0.00    -0.564 A  
ENDBRANCH  21  22
ENDBRANCH  10  21
ENDBRANCH   7  10
ENDBRANCH   6   7
ENDBRANCH   5   6
BRANCH   5  28
HETATM   28  S   UNL     1     -11.502  11.291  69.316  1.00  0.00    -0.332 S  
HETATM   29  O   UNL     1     -12.021  11.934  70.500  1.00  0.00    -0.354 OA 
HETATM   30  O   UNL     1     -12.363  11.026  68.177  1.00  0.00    -0.402 OA 
BRANCH  28  31
HETATM   31  C   UNL     1     -10.809   9.748  69.842  1.00  0.00    -0.272 A  
HETATM   32  N   UNL     1      -9.226   6.059  71.090  1.00  0.00    -0.149 NA 
HETATM   33  H2  UNL     1      -9.939   5.647  71.691  1.00  0.00     0.000 HD 
HETATM   34  H1  UNL     1      -8.940   5.359  70.405  1.00  0.00     0.000 HD 
HETATM   35  C   UNL     1     -10.622   9.497  71.202  1.00  0.00    -0.388 A  
HETATM   36  C   UNL     1     -10.069   8.275  71.608  1.00  0.00    -0.279 A  
HETATM   37  C   UNL     1     -10.503   8.759  68.897  1.00  0.00    -0.217 A  
HETATM   38  C   UNL     1      -9.958   7.541  69.318  1.00  0.00    -0.179 A  
HETATM   39  C   UNL     1      -9.676   7.315  70.668  1.00  0.00    -0.175 A  
ENDBRANCH  28  31
ENDBRANCH   5  28
ENDBRANCH   4   5
TORSDOF 11
ENDMDL
MODEL      104
REMARK 921   NORMALIZED FREE ENERGY PREDICTED BY IDOCK:   -6.01 KCAL/MOL
REMARK 922        TOTAL FREE ENERGY PREDICTED BY IDOCK:  -11.64 KCAL/MOL
REMARK 923 INTER-LIGAND FREE ENERGY PREDICTED BY IDOCK:  -10.42 KCAL/MOL
REMARK 924 INTRA-LIGAND FREE ENERGY PREDICTED BY IDOCK:   -1.22 KCAL/MOL
REMARK 927      BINDING AFFINITY PREDICTED BY RF-SCORE:    0.00 PKD
ROOT
HETATM    1  C   UNL     1      -5.985  15.799  67.765  1.00  0.00    -0.170 C  
HETATM    2  C   UNL     1      -6.498  15.465  69.166  1.00  0.00    -0.128 C  
HETATM    3  C   UNL     1      -5.788  16.398  70.168  1.00  0.00    -0.167 C  
HETATM    4  C   UNL     1      -8.024  15.624  69.316  1.00  0.00    -0.237 C  
ENDROOT
BRANCH   4   5
HETATM    5  N   UNL     1      -8.907  14.787  68.397  1.00  0.00    -0.175 N  
BRANCH   5   6
HETATM    6  C   UNL     1      -8.946  13.300  68.823  1.00  0.00     0.145 C  
BRANCH   6   7
HETATM    7  C   UNL     1      -9.006  12.239  67.669  1.00  0.00    -0.181 C  
HETATM    8  H   UNL     1      -7.796  11.620  66.264  1.00  0.00     0.000 HD 
HETATM    9  O   UNL     1      -7.760  12.262  66.963  1.00  0.00    -0.153 OA 
BRANCH   7  10
HETATM   10  C   UNL     1      -9.373  10.792  68.167  1.00  0.00    -0.155 C  
BRANCH  10  11
HETATM   11  N   UNL     1     -10.003  10.781  69.503  1.00  0.00    -0.431 N  
HETATM   12  O   UNL     1     -12.145  10.963  68.707  1.00  0.00    -0.496 OA 
HETATM   13  H   UNL     1      -9.416  10.697  70.333  1.00  0.00     0.000 HD 
HETATM   14  C   UNL     1     -11.365  10.882  69.644  1.00  0.00    -0.292 C  
BRANCH  14  15
HETATM   15  O   UNL     1     -11.736  10.908  70.956  1.00  0.00    -0.273 OA 
BRANCH  15  16
HETATM   16  C   UNL     1     -11.957   9.602  71.523  1.00  0.00    -0.406 C  
HETATM   17  C   UNL     1     -13.432   9.264  71.608  1.00  0.00    -0.465 C  
HETATM   18  O   UNL     1     -12.333   7.355  70.770  1.00  0.00    -0.242 OA 
HETATM   19  C   UNL     1     -13.417   7.751  71.617  1.00  0.00    -0.349 C  
HETATM   20  C   UNL     1     -11.423   8.462  70.659  1.00  0.00    -0.219 C  
ENDBRANCH  15  16
ENDBRANCH  14  15
ENDBRANCH  10  11
BRANCH  10  21
HETATM   21  C   UNL     1     -10.123   9.879  67.160  1.00  0.00    -0.270 C  
BRANCH  21  22
HETATM   22  C   UNL     1      -9.842   9.973  65.673  1.00  0.00    -0.363 A  
HETATM   23  C   UNL     1     -10.260  11.038  63.525  1.00  0.00    -0.424 A  
HETATM   24  C   UNL     1     -10.622  10.801  64.855  1.00  0.00    -0.258 A  
HETATM   25  C   UNL     1      -9.122  10.440  62.987  1.00  0.00    -0.279 A  
HETATM   26  C   UNL     1      -8.706   9.364  65.113  1.00  0.00    -0.210 A  
HETATM   27  C   UNL     1      -8.350   9.596  63.780  1.00  0.00    -0.173 A  
ENDBRANCH  21  22
ENDBRANCH  10  21
ENDBRANCH   7  10
ENDBRANCH   6   7
ENDBRANCH   5   6
BRANCH   5  28
HETATM   28  S   UNL     1     -10.532  15.461  68.324  1.00  0.00    -0.247 S  
HETATM   29  O   UNL     1     -11.364  14.803  69.304  1.00  0.00    -0.263 OA 
HETATM   30  O   UNL     1     -10.361  16.902  68.342  1.00  0.00    -0.297 OA 
BRANCH  28  31
HETATM   31  C   UNL     1     -11.174  15.012  66.735  1.00  0.00    -0.322 A  
HETATM   32  N   UNL     1     -12.654  13.896  62.961  1.00  0.00    -0.908 NA 
HETATM   33  H2  UNL     1     -11.847  13.543  62.447  1.00  0.00     0.000 HD 
HETATM   34  H1  UNL     1     -13.409  13.216  62.881  1.00  0.00     0.000 HD 
HETATM   35  C   UNL     1     -10.667  15.616  65.583  1.00  0.00    -0.376 A  
HETATM   36  C   UNL     1     -11.184  15.258  64.331  1.00  0.00    -0.191 A  
HETATM   37  C   UNL     1     -12.149  14.010  66.630  1.00  0.00    -0.487 A  
HETATM   38  C   UNL     1     -12.652  13.658  65.373  1.00  0.00    -0.533 A  
HETATM   39  C   UNL     1     -12.221  14.324  64.221  1.00  0.00    -0.423 A  
ENDBRANCH  28  31
ENDBRANCH   5  28
ENDBRANCH   4   5
TORSDOF 11
ENDMDL
MODEL      105
REMARK 921   NORMALIZED FREE ENERGY PREDICTED BY IDOCK:   -6.00 KCAL/MOL
REMARK 922        TOTAL FREE ENERGY PREDICTED BY IDOCK:  -11.63 KCAL/MOL
REMARK 923 INTER-LIGAND FREE ENERGY PREDICTED BY IDOCK:  -10.88 KCAL/MOL
REMARK 924 INTRA-LIGAND FREE ENERGY PREDICTED BY IDOCK:   -0.75 KCAL/MOL
REMARK 927      BINDING AFFINITY PREDICTED BY RF-SCORE:    0.00 PKD
ROOT
HETATM    1  C   UNL     1      -6.992  10.351  68.966  1.00  0.00    -0.071 C  
HETATM    2  C   UNL     1      -8.003   9.944  67.894  1.00  0.00    -0.104 C  
HETATM    3  C   UNL     1      -7.691   8.495  67.470  1.00  0.00    -0.098 C  
HETATM    4  C   UNL     1      -9.468  10.032  68.366  1.00  0.00    -0.141 C  
ENDROOT
BRANCH   4   5
HETATM    5  N   UNL     1      -9.968  11.393  68.840  1.00  0.00    -0.174 N  
BRANCH   5   6
HETATM    6  C   UNL     1      -9.994  12.435  67.695  1.00  0.00    -0.200 C  
BRANCH   6   7
HETATM    7  C   UNL     1      -9.564  13.897  68.066  1.00  0.00    -0.219 C  
HETATM    8  H   UNL     1      -7.873  14.850  68.294  1.00  0.00     0.000 HD 
HETATM    9  O   UNL     1      -8.133  13.964  68.069  1.00  0.00    -0.130 OA 
BRANCH   7  10
HETATM   10  C   UNL     1     -10.203  14.993  67.135  1.00  0.00    -0.249 C  
BRANCH  10  11
HETATM   11  N   UNL     1      -9.924  16.371  67.585  1.00  0.00    -0.248 N  
HETATM   12  O   UNL     1     -11.252  16.237  69.449  1.00  0.00    -0.324 OA 
HETATM   13  H   UNL     1      -9.292  16.959  67.041  1.00  0.00     0.000 HD 
HETATM   14  C   UNL     1     -10.502  16.875  68.724  1.00  0.00    -0.343 C  
BRANCH  14  15
HETATM   15  O   UNL     1     -10.159  18.178  68.932  1.00  0.00    -0.381 OA 
BRANCH  15  16
HETATM   16  C   UNL     1      -9.101  18.644  68.072  1.00  0.00    -0.305 C  
HETATM   17  C   UNL     1      -9.385  20.028  67.524  1.00  0.00    -0.485 C  
HETATM   18  O   UNL     1      -7.134  20.012  68.220  1.00  0.00    -0.290 OA 
HETATM   19  C   UNL     1      -7.998  20.544  67.210  1.00  0.00    -0.314 C  
HETATM   20  C   UNL     1      -7.774  18.862  68.797  1.00  0.00    -0.331 C  
ENDBRANCH  15  16
ENDBRANCH  14  15
ENDBRANCH  10  11
BRANCH  10  21
HETATM   21  C   UNL     1      -9.984  14.821  65.608  1.00  0.00    -0.390 C  
BRANCH  21  22
HETATM   22  C   UNL     1     -10.840  13.860  64.807  1.00  0.00    -0.430 A  
HETATM   23  C   UNL     1     -11.015  11.870  63.415  1.00  0.00    -0.470 A  
HETATM   24  C   UNL     1     -10.243  12.874  64.009  1.00  0.00    -0.256 A  
HETATM   25  C   UNL     1     -12.396  11.845  63.595  1.00  0.00    -0.591 A  
HETATM   26  C   UNL     1     -12.236  13.830  64.966  1.00  0.00    -0.448 A  
HETATM   27  C   UNL     1     -13.007  12.830  64.364  1.00  0.00    -0.178 A  
ENDBRANCH  21  22
ENDBRANCH  10  21
ENDBRANCH   7  10
ENDBRANCH   6   7
ENDBRANCH   5   6
BRANCH   5  28
HETATM   28  S   UNL     1     -11.557  11.239  69.583  1.00  0.00    -0.359 S  
HETATM   29  O   UNL     1     -11.852  12.441  70.328  1.00  0.00    -0.322 OA 
HETATM   30  O   UNL     1     -12.442  10.785  68.527  1.00  0.00    -0.289 OA 
BRANCH  28  31
HETATM   31  C   UNL     1     -11.415   9.932  70.771  1.00  0.00    -0.354 A  
HETATM   32  N   UNL     1     -11.076   6.786  73.539  1.00  0.00    -0.498 NA 
HETATM   33  H2  UNL     1     -11.562   5.997  73.113  1.00  0.00     0.000 HD 
HETATM   34  H1  UNL     1     -10.158   6.468  73.852  1.00  0.00     0.000 HD 
HETATM   35  C   UNL     1     -12.566   9.353  71.309  1.00  0.00    -0.403 A  
HETATM   36  C   UNL     1     -12.443   8.323  72.251  1.00  0.00    -0.384 A  
HETATM   37  C   UNL     1     -10.151   9.442  71.126  1.00  0.00    -0.335 A  
HETATM   38  C   UNL     1     -10.044   8.409  72.062  1.00  0.00    -0.364 A  
HETATM   39  C   UNL     1     -11.185   7.886  72.680  1.00  0.00    -0.398 A  
ENDBRANCH  28  31
ENDBRANCH   5  28
ENDBRANCH   4   5
TORSDOF 11
ENDMDL
MODEL      106
REMARK 921   NORMALIZED FREE ENERGY PREDICTED BY IDOCK:   -5.99 KCAL/MOL
REMARK 922        TOTAL FREE ENERGY PREDICTED BY IDOCK:  -11.62 KCAL/MOL
REMARK 923 INTER-LIGAND FREE ENERGY PREDICTED BY IDOCK:   -9.50 KCAL/MOL
REMARK 924 INTRA-LIGAND FREE ENERGY PREDICTED BY IDOCK:   -2.12 KCAL/MOL
REMARK 927      BINDING AFFINITY PREDICTED BY RF-SCORE:    0.00 PKD
ROOT
HETATM    1  C   UNL     1     -11.236  10.409  67.381  1.00  0.00    -0.205 C  
HETATM    2  C   UNL     1     -11.092  11.443  68.498  1.00  0.00    -0.287 C  
HETATM    3  C   UNL     1     -11.769  10.875  69.762  1.00  0.00    -0.413 C  
HETATM    4  C   UNL     1      -9.628  11.799  68.821  1.00  0.00    -0.042 C  
ENDROOT
BRANCH   4   5
HETATM    5  N   UNL     1      -8.782  12.369  67.688  1.00  0.00    -0.168 N  
BRANCH   5   6
HETATM    6  C   UNL     1      -8.698  13.913  67.744  1.00  0.00    -0.187 C  
BRANCH   6   7
HETATM    7  C   UNL     1      -9.603  14.629  68.806  1.00  0.00    -0.210 C  
HETATM    8  H   UNL     1      -9.341  15.973  70.200  1.00  0.00     0.000 HD 
HETATM    9  O   UNL     1      -8.793  15.540  69.557  1.00  0.00    -0.262 OA 
BRANCH   7  10
HETATM   10  C   UNL     1     -10.861  15.339  68.180  1.00  0.00    -0.273 C  
BRANCH  10  11
HETATM   11  N   UNL     1     -11.570  14.498  67.194  1.00  0.00    -0.375 N  
HETATM   12  O   UNL     1     -11.023  15.808  65.395  1.00  0.00    -0.345 OA 
HETATM   13  H   UNL     1     -12.052  13.656  67.508  1.00  0.00     0.000 HD 
HETATM   14  C   UNL     1     -11.591  14.833  65.863  1.00  0.00    -0.286 C  
BRANCH  14  15
HETATM   15  O   UNL     1     -12.343  13.959  65.134  1.00  0.00    -0.408 OA 
BRANCH  15  16
HETATM   16  C   UNL     1     -11.625  13.337  64.051  1.00  0.00    -0.409 C  
HETATM   17  C   UNL     1     -10.283  12.795  64.498  1.00  0.00    -0.333 C  
HETATM   18  O   UNL     1     -11.279  11.140  63.149  1.00  0.00    -0.041 OA 
HETATM   19  C   UNL     1     -10.010  11.717  63.472  1.00  0.00    -0.408 C  
HETATM   20  C   UNL     1     -12.304  12.082  63.507  1.00  0.00    -0.551 C  
ENDBRANCH  15  16
ENDBRANCH  14  15
ENDBRANCH  10  11
BRANCH  10  21
HETATM   21  C   UNL     1     -11.837  16.026  69.171  1.00  0.00    -0.268 C  
BRANCH  21  22
HETATM   22  C   UNL     1     -12.122  15.412  70.527  1.00  0.00    -0.411 A  
HETATM   23  C   UNL     1     -12.159  15.613  72.953  1.00  0.00    -0.583 A  
HETATM   24  C   UNL     1     -11.741  16.076  71.702  1.00  0.00    -0.583 A  
HETATM   25  C   UNL     1     -12.952  14.471  73.053  1.00  0.00    -0.596 A  
HETATM   26  C   UNL     1     -12.909  14.253  70.645  1.00  0.00    -0.378 A  
HETATM   27  C   UNL     1     -13.320  13.787  71.898  1.00  0.00    -0.499 A  
ENDBRANCH  21  22
ENDBRANCH  10  21
ENDBRANCH   7  10
ENDBRANCH   6   7
ENDBRANCH   5   6
BRANCH   5  28
HETATM   28  S   UNL     1      -7.173  11.652  67.700  1.00  0.00    -0.116 S  
HETATM   29  O   UNL     1      -6.782  11.337  66.347  1.00  0.00    -0.128 OA 
HETATM   30  O   UNL     1      -6.360  12.530  68.522  1.00  0.00    -0.062 OA 
BRANCH  28  31
HETATM   31  C   UNL     1      -7.335  10.107  68.552  1.00  0.00    -0.081 A  
HETATM   32  N   UNL     1      -7.780   6.458  70.592  1.00  0.00    -0.103 NA 
HETATM   33  H2  UNL     1      -8.380   6.665  71.390  1.00  0.00     0.000 HD 
HETATM   34  H1  UNL     1      -8.154   5.639  70.112  1.00  0.00     0.000 HD 
HETATM   35  C   UNL     1      -6.918   9.998  69.880  1.00  0.00    -0.118 A  
HETATM   36  C   UNL     1      -7.046   8.771  70.545  1.00  0.00    -0.050 A  
HETATM   37  C   UNL     1      -7.932   9.013  67.913  1.00  0.00    -0.102 A  
HETATM   38  C   UNL     1      -8.059   7.796  68.590  1.00  0.00    -0.127 A  
HETATM   39  C   UNL     1      -7.559   7.646  69.887  1.00  0.00    -0.092 A  
ENDBRANCH  28  31
ENDBRANCH   5  28
ENDBRANCH   4   5
TORSDOF 11
ENDMDL
MODEL      107
REMARK 921   NORMALIZED FREE ENERGY PREDICTED BY IDOCK:   -5.98 KCAL/MOL
REMARK 922        TOTAL FREE ENERGY PREDICTED BY IDOCK:  -11.60 KCAL/MOL
REMARK 923 INTER-LIGAND FREE ENERGY PREDICTED BY IDOCK:  -10.09 KCAL/MOL
REMARK 924 INTRA-LIGAND FREE ENERGY PREDICTED BY IDOCK:   -1.51 KCAL/MOL
REMARK 927      BINDING AFFINITY PREDICTED BY RF-SCORE:    0.00 PKD
ROOT
HETATM    1  C   UNL     1      -8.699   5.896  68.880  1.00  0.00    -0.116 C  
HETATM    2  C   UNL     1     -10.092   6.296  68.391  1.00  0.00    -0.179 C  
HETATM    3  C   UNL     1     -10.587   5.207  67.419  1.00  0.00    -0.108 C  
HETATM    4  C   UNL     1     -11.117   6.468  69.529  1.00  0.00    -0.365 C  
ENDROOT
BRANCH   4   5
HETATM    5  N   UNL     1     -10.799   7.499  70.606  1.00  0.00    -0.235 N  
BRANCH   5   6
HETATM    6  C   UNL     1     -11.276   8.918  70.212  1.00  0.00    -0.197 C  
BRANCH   6   7
HETATM    7  C   UNL     1     -10.179  10.037  70.149  1.00  0.00    -0.242 C  
HETATM    8  H   UNL     1      -8.324  10.154  69.546  1.00  0.00     0.000 HD 
HETATM    9  O   UNL     1      -8.988   9.477  69.584  1.00  0.00    -0.159 OA 
BRANCH   7  10
HETATM   10  C   UNL     1     -10.645  11.328  69.378  1.00  0.00    -0.099 C  
BRANCH  10  11
HETATM   11  N   UNL     1     -10.375  11.267  67.928  1.00  0.00    -0.177 N  
HETATM   12  O   UNL     1      -9.334  13.308  67.840  1.00  0.00    -0.198 OA 
HETATM   13  H   UNL     1     -10.666  10.446  67.397  1.00  0.00     0.000 HD 
HETATM   14  C   UNL     1      -9.738  12.298  67.283  1.00  0.00    -0.195 C  
BRANCH  14  15
HETATM   15  O   UNL     1      -9.636  12.069  65.942  1.00  0.00    -0.234 OA 
BRANCH  15  16
HETATM   16  C   UNL     1     -10.537  12.863  65.146  1.00  0.00    -0.302 C  
HETATM   17  C   UNL     1     -10.610  12.374  63.714  1.00  0.00    -0.486 C  
HETATM   18  O   UNL     1     -12.821  12.798  64.411  1.00  0.00    -0.700 OA 
HETATM   19  C   UNL     1     -11.964  12.880  63.267  1.00  0.00    -0.440 C  
HETATM   20  C   UNL     1     -11.995  12.760  65.587  1.00  0.00    -0.452 C  
ENDBRANCH  15  16
ENDBRANCH  14  15
ENDBRANCH  10  11
BRANCH  10  21
HETATM   21  C   UNL     1     -12.077  11.842  69.685  1.00  0.00    -0.323 C  
BRANCH  21  22
HETATM   22  C   UNL     1     -12.289  13.154  70.415  1.00  0.00    -0.351 A  
HETATM   23  C   UNL     1     -12.186  15.586  70.425  1.00  0.00    -0.443 A  
HETATM   24  C   UNL     1     -11.837  14.357  69.856  1.00  0.00    -0.382 A  
HETATM   25  C   UNL     1     -12.980  15.631  71.570  1.00  0.00    -0.549 A  
HETATM   26  C   UNL     1     -13.074  13.215  71.578  1.00  0.00    -0.404 A  
HETATM   27  C   UNL     1     -13.416  14.445  72.151  1.00  0.00    -0.507 A  
ENDBRANCH  21  22
ENDBRANCH  10  21
ENDBRANCH   7  10
ENDBRANCH   6   7
ENDBRANCH   5   6
BRANCH   5  28
HETATM   28  S   UNL     1     -11.491   7.011  72.150  1.00  0.00    -0.282 S  
HETATM   29  O   UNL     1     -11.213   8.027  73.138  1.00  0.00    -0.336 OA 
HETATM   30  O   UNL     1     -12.856   6.613  71.859  1.00  0.00    -0.328 OA 
BRANCH  28  31
HETATM   31  C   UNL     1     -10.598   5.565  72.648  1.00  0.00    -0.226 A  
HETATM   32  N   UNL     1      -8.478   2.155  73.895  1.00  0.00    -0.061 NA 
HETATM   33  H2  UNL     1      -7.847   2.481  74.627  1.00  0.00     0.000 HD 
HETATM   34  H1  UNL     1      -8.974   1.334  74.240  1.00  0.00     0.000 HD 
HETATM   35  C   UNL     1      -9.207   5.534  72.540  1.00  0.00    -0.150 A  
HETATM   36  C   UNL     1      -8.510   4.383  72.932  1.00  0.00    -0.102 A  
HETATM   37  C   UNL     1     -11.283   4.476  73.205  1.00  0.00    -0.388 A  
HETATM   38  C   UNL     1     -10.573   3.337  73.599  1.00  0.00    -0.277 A  
HETATM   39  C   UNL     1      -9.191   3.255  73.406  1.00  0.00    -0.092 A  
ENDBRANCH  28  31
ENDBRANCH   5  28
ENDBRANCH   4   5
TORSDOF 11
ENDMDL
MODEL      108
REMARK 921   NORMALIZED FREE ENERGY PREDICTED BY IDOCK:   -5.98 KCAL/MOL
REMARK 922        TOTAL FREE ENERGY PREDICTED BY IDOCK:  -11.59 KCAL/MOL
REMARK 923 INTER-LIGAND FREE ENERGY PREDICTED BY IDOCK:   -9.44 KCAL/MOL
REMARK 924 INTRA-LIGAND FREE ENERGY PREDICTED BY IDOCK:   -2.16 KCAL/MOL
REMARK 927      BINDING AFFINITY PREDICTED BY RF-SCORE:    0.00 PKD
ROOT
HETATM    1  C   UNL     1     -10.731  13.506  64.277  1.00  0.00    -0.324 C  
HETATM    2  C   UNL     1     -11.790  12.468  64.648  1.00  0.00    -0.439 C  
HETATM    3  C   UNL     1     -12.464  11.989  63.346  1.00  0.00    -0.625 C  
HETATM    4  C   UNL     1     -11.220  11.251  65.403  1.00  0.00     0.004 C  
ENDROOT
BRANCH   4   5
HETATM    5  N   UNL     1     -10.500  11.521  66.719  1.00  0.00    -0.230 N  
BRANCH   5   6
HETATM    6  C   UNL     1     -11.472  11.982  67.831  1.00  0.00    -0.330 C  
BRANCH   6   7
HETATM    7  C   UNL     1     -11.495  13.517  68.154  1.00  0.00    -0.303 C  
HETATM    8  H   UNL     1     -12.377  15.096  67.413  1.00  0.00     0.000 HD 
HETATM    9  O   UNL     1     -12.363  14.167  67.218  1.00  0.00    -0.350 OA 
BRANCH   7  10
HETATM   10  C   UNL     1     -11.889  13.838  69.643  1.00  0.00    -0.333 C  
BRANCH  10  11
HETATM   11  N   UNL     1     -12.000  12.631  70.487  1.00  0.00    -0.533 N  
HETATM   12  O   UNL     1     -13.861  13.354  71.613  1.00  0.00    -0.245 OA 
HETATM   13  H   UNL     1     -11.325  11.875  70.372  1.00  0.00     0.000 HD 
HETATM   14  C   UNL     1     -12.998  12.511  71.423  1.00  0.00    -0.251 C  
BRANCH  14  15
HETATM   15  O   UNL     1     -12.890  11.350  72.130  1.00  0.00    -0.287 OA 
BRANCH  15  16
HETATM   16  C   UNL     1     -12.792  10.174  71.304  1.00  0.00    -0.410 C  
HETATM   17  C   UNL     1     -11.536   9.379  71.597  1.00  0.00    -0.463 C  
HETATM   18  O   UNL     1     -13.307   7.833  71.440  1.00  0.00    -0.321 OA 
HETATM   19  C   UNL     1     -11.917   7.988  71.138  1.00  0.00    -0.277 C  
HETATM   20  C   UNL     1     -13.885   9.142  71.576  1.00  0.00    -0.294 C  
ENDBRANCH  15  16
ENDBRANCH  14  15
ENDBRANCH  10  11
BRANCH  10  21
HETATM   21  C   UNL     1     -11.092  14.970  70.345  1.00  0.00    -0.263 C  
BRANCH  21  22
HETATM   22  C   UNL     1     -10.154  15.861  69.554  1.00  0.00    -0.277 A  
HETATM   23  C   UNL     1      -9.757  17.936  68.345  1.00  0.00    -0.340 A  
HETATM   24  C   UNL     1     -10.637  17.013  68.919  1.00  0.00    -0.328 A  
HETATM   25  C   UNL     1      -8.381  17.715  68.383  1.00  0.00    -0.290 A  
HETATM   26  C   UNL     1      -8.766  15.644  69.570  1.00  0.00    -0.199 A  
HETATM   27  C   UNL     1      -7.887  16.564  68.989  1.00  0.00    -0.226 A  
ENDBRANCH  21  22
ENDBRANCH  10  21
ENDBRANCH   7  10
ENDBRANCH   6   7
ENDBRANCH   5   6
BRANCH   5  28
HETATM   28  S   UNL     1      -9.595  10.099  67.228  1.00  0.00    -0.163 S  
HETATM   29  O   UNL     1     -10.460   9.234  67.995  1.00  0.00    -0.211 OA 
HETATM   30  O   UNL     1      -8.926   9.611  66.036  1.00  0.00    -0.148 OA 
BRANCH  28  31
HETATM   31  C   UNL     1      -8.351  10.687  68.344  1.00  0.00    -0.127 A  
HETATM   32  N   UNL     1      -5.447  12.099  71.037  1.00  0.00    -0.308 NA 
HETATM   33  H2  UNL     1      -5.884  12.883  71.520  1.00  0.00     0.000 HD 
HETATM   34  H1  UNL     1      -5.042  11.476  71.736  1.00  0.00     0.000 HD 
HETATM   35  C   UNL     1      -7.896  12.003  68.249  1.00  0.00    -0.145 A  
HETATM   36  C   UNL     1      -6.909  12.458  69.133  1.00  0.00    -0.069 A  
HETATM   37  C   UNL     1      -7.866   9.849  69.358  1.00  0.00    -0.127 A  
HETATM   38  C   UNL     1      -6.886  10.318  70.238  1.00  0.00    -0.145 A  
HETATM   39  C   UNL     1      -6.353  11.603  70.092  1.00  0.00    -0.060 A  
ENDBRANCH  28  31
ENDBRANCH   5  28
ENDBRANCH   4   5
TORSDOF 11
ENDMDL
MODEL      109
REMARK 921   NORMALIZED FREE ENERGY PREDICTED BY IDOCK:   -5.94 KCAL/MOL
REMARK 922        TOTAL FREE ENERGY PREDICTED BY IDOCK:  -11.53 KCAL/MOL
REMARK 923 INTER-LIGAND FREE ENERGY PREDICTED BY IDOCK:   -9.86 KCAL/MOL
REMARK 924 INTRA-LIGAND FREE ENERGY PREDICTED BY IDOCK:   -1.67 KCAL/MOL
REMARK 927      BINDING AFFINITY PREDICTED BY RF-SCORE:    0.00 PKD
ROOT
HETATM    1  C   UNL     1      -7.300  14.164  69.237  1.00  0.00    -0.016 C  
HETATM    2  C   UNL     1      -6.987  13.202  68.090  1.00  0.00    -0.108 C  
HETATM    3  C   UNL     1      -5.470  13.260  67.819  1.00  0.00    -0.098 C  
HETATM    4  C   UNL     1      -7.396  11.745  68.381  1.00  0.00    -0.094 C  
ENDROOT
BRANCH   4   5
HETATM    5  N   UNL     1      -8.866  11.481  68.687  1.00  0.00    -0.144 N  
BRANCH   5   6
HETATM    6  C   UNL     1      -9.731  11.445  67.403  1.00  0.00    -0.181 C  
BRANCH   6   7
HETATM    7  C   UNL     1     -11.076  12.251  67.438  1.00  0.00    -0.282 C  
HETATM    8  H   UNL     1     -12.923  11.883  67.961  1.00  0.00     0.000 HD 
HETATM    9  O   UNL     1     -12.108  11.394  67.939  1.00  0.00    -0.646 OA 
BRANCH   7  10
HETATM   10  C   UNL     1     -10.979  13.595  68.252  1.00  0.00    -0.254 C  
BRANCH  10  11
HETATM   11  N   UNL     1     -10.322  14.682  67.500  1.00  0.00    -0.234 N  
HETATM   12  O   UNL     1     -11.911  14.763  65.850  1.00  0.00    -0.314 OA 
HETATM   13  H   UNL     1      -9.452  15.082  67.852  1.00  0.00     0.000 HD 
HETATM   14  C   UNL     1     -10.863  15.164  66.334  1.00  0.00    -0.326 C  
BRANCH  14  15
HETATM   15  O   UNL     1     -10.075  16.124  65.770  1.00  0.00    -0.334 OA 
BRANCH  15  16
HETATM   16  C   UNL     1      -9.379  16.942  66.730  1.00  0.00    -0.251 C  
HETATM   17  C   UNL     1      -7.938  17.183  66.330  1.00  0.00    -0.339 C  
HETATM   18  O   UNL     1      -8.808  19.252  67.045  1.00  0.00    -0.278 OA 
HETATM   19  C   UNL     1      -7.610  18.469  67.056  1.00  0.00    -0.223 C  
HETATM   20  C   UNL     1      -9.919  18.368  66.824  1.00  0.00    -0.360 C  
ENDBRANCH  15  16
ENDBRANCH  14  15
ENDBRANCH  10  11
BRANCH  10  21
HETATM   21  C   UNL     1     -12.275  14.074  68.960  1.00  0.00    -0.280 C  
BRANCH  21  22
HETATM   22  C   UNL     1     -12.288  14.341  70.452  1.00  0.00    -0.419 A  
HETATM   23  C   UNL     1     -11.731  15.792  72.326  1.00  0.00    -0.580 A  
HETATM   24  C   UNL     1     -11.579  15.427  70.984  1.00  0.00    -0.410 A  
HETATM   25  C   UNL     1     -12.581  15.069  73.160  1.00  0.00    -0.578 A  
HETATM   26  C   UNL     1     -13.129  13.612  71.310  1.00  0.00    -0.357 A  
HETATM   27  C   UNL     1     -13.274  13.974  72.654  1.00  0.00    -0.606 A  
ENDBRANCH  21  22
ENDBRANCH  10  21
ENDBRANCH   7  10
ENDBRANCH   6   7
ENDBRANCH   5   6
BRANCH   5  28
HETATM   28  S   UNL     1      -9.046   9.988  69.604  1.00  0.00    -0.183 S  
HETATM   29  O   UNL     1      -7.833   9.738  70.348  1.00  0.00    -0.164 OA 
HETATM   30  O   UNL     1     -10.324  10.096  70.283  1.00  0.00    -0.267 OA 
BRANCH  28  31
HETATM   31  C   UNL     1      -9.178   8.691  68.404  1.00  0.00    -0.138 A  
HETATM   32  N   UNL     1      -9.495   5.570  65.606  1.00  0.00    -0.339 NA 
HETATM   33  H2  UNL     1      -9.022   4.773  66.033  1.00  0.00     0.000 HD 
HETATM   34  H1  UNL     1     -10.409   5.261  65.275  1.00  0.00     0.000 HD 
HETATM   35  C   UNL     1      -8.023   8.107  67.881  1.00  0.00    -0.127 A  
HETATM   36  C   UNL     1      -8.137   7.085  66.929  1.00  0.00    -0.116 A  
HETATM   37  C   UNL     1     -10.439   8.214  68.024  1.00  0.00    -0.242 A  
HETATM   38  C   UNL     1     -10.538   7.189  67.078  1.00  0.00    -0.413 A  
HETATM   39  C   UNL     1      -9.392   6.662  66.475  1.00  0.00    -0.159 A  
ENDBRANCH  28  31
ENDBRANCH   5  28
ENDBRANCH   4   5
TORSDOF 11
ENDMDL
MODEL      110
REMARK 921   NORMALIZED FREE ENERGY PREDICTED BY IDOCK:   -5.94 KCAL/MOL
REMARK 922        TOTAL FREE ENERGY PREDICTED BY IDOCK:  -11.52 KCAL/MOL
REMARK 923 INTER-LIGAND FREE ENERGY PREDICTED BY IDOCK:  -10.08 KCAL/MOL
REMARK 924 INTRA-LIGAND FREE ENERGY PREDICTED BY IDOCK:   -1.45 KCAL/MOL
REMARK 927      BINDING AFFINITY PREDICTED BY RF-SCORE:    0.00 PKD
ROOT
HETATM    1  C   UNL     1     -12.332   6.692  71.087  1.00  0.00    -0.310 C  
HETATM    2  C   UNL     1     -12.004   8.186  71.109  1.00  0.00    -0.296 C  
HETATM    3  C   UNL     1     -12.141   8.682  72.563  1.00  0.00    -0.368 C  
HETATM    4  C   UNL     1     -10.589   8.512  70.592  1.00  0.00    -0.209 C  
ENDROOT
BRANCH   4   5
HETATM    5  N   UNL     1     -10.253   8.087  69.167  1.00  0.00    -0.213 N  
BRANCH   5   6
HETATM    6  C   UNL     1     -10.296   9.278  68.178  1.00  0.00    -0.215 C  
BRANCH   6   7
HETATM    7  C   UNL     1      -9.368  10.499  68.507  1.00  0.00    -0.168 C  
HETATM    8  H   UNL     1      -7.775  11.307  67.715  1.00  0.00     0.000 HD 
HETATM    9  O   UNL     1      -8.337  10.567  67.516  1.00  0.00    -0.117 OA 
BRANCH   7  10
HETATM   10  C   UNL     1     -10.148  11.859  68.640  1.00  0.00    -0.177 C  
BRANCH  10  11
HETATM   11  N   UNL     1      -9.960  12.752  67.478  1.00  0.00    -0.207 N  
HETATM   12  O   UNL     1     -11.920  12.148  66.453  1.00  0.00    -0.611 OA 
HETATM   13  H   UNL     1      -9.129  13.341  67.427  1.00  0.00     0.000 HD 
HETATM   14  C   UNL     1     -10.886  12.799  66.466  1.00  0.00    -0.256 C  
BRANCH  14  15
HETATM   15  O   UNL     1     -10.499  13.642  65.466  1.00  0.00    -0.287 OA 
BRANCH  15  16
HETATM   16  C   UNL     1     -11.064  14.963  65.567  1.00  0.00    -0.352 C  
HETATM   17  C   UNL     1     -10.023  15.998  65.942  1.00  0.00    -0.380 C  
HETATM   18  O   UNL     1     -11.315  16.921  64.202  1.00  0.00    -1.208 OA 
HETATM   19  C   UNL     1     -10.628  17.277  65.406  1.00  0.00    -0.072 C  
HETATM   20  C   UNL     1     -11.584  15.510  64.239  1.00  0.00    -0.194 C  
ENDBRANCH  15  16
ENDBRANCH  14  15
ENDBRANCH  10  11
BRANCH  10  21
HETATM   21  C   UNL     1     -11.636  11.769  69.073  1.00  0.00    -0.372 C  
BRANCH  21  22
HETATM   22  C   UNL     1     -12.159  12.606  70.223  1.00  0.00    -0.372 A  
HETATM   23  C   UNL     1     -12.822  14.777  71.103  1.00  0.00    -0.406 A  
HETATM   24  C   UNL     1     -12.175  14.005  70.133  1.00  0.00    -0.425 A  
HETATM   25  C   UNL     1     -13.449  14.165  72.187  1.00  0.00    -0.545 A  
HETATM   26  C   UNL     1     -12.782  12.004  71.330  1.00  0.00    -0.382 A  
HETATM   27  C   UNL     1     -13.422  12.779  72.304  1.00  0.00    -0.591 A  
ENDBRANCH  21  22
ENDBRANCH  10  21
ENDBRANCH   7  10
ENDBRANCH   6   7
ENDBRANCH   5   6
BRANCH   5  28
HETATM   28  S   UNL     1      -8.683   7.289  69.117  1.00  0.00    -0.136 S  
HETATM   29  O   UNL     1      -8.390   6.900  67.758  1.00  0.00    -0.119 OA 
HETATM   30  O   UNL     1      -7.779   8.156  69.852  1.00  0.00    -0.093 OA 
BRANCH  28  31
HETATM   31  C   UNL     1      -8.869   5.790  70.043  1.00  0.00    -0.135 A  
HETATM   32  N   UNL     1      -9.371   2.254  72.260  1.00  0.00    -0.086 NA 
HETATM   33  H2  UNL     1      -9.904   2.525  73.086  1.00  0.00     0.000 HD 
HETATM   34  H1  UNL     1      -9.820   1.439  71.841  1.00  0.00     0.000 HD 
HETATM   35  C   UNL     1      -8.371   5.710  71.344  1.00  0.00    -0.127 A  
HETATM   36  C   UNL     1      -8.519   4.518  72.067  1.00  0.00    -0.116 A  
HETATM   37  C   UNL     1      -9.566   4.707  69.490  1.00  0.00    -0.258 A  
HETATM   38  C   UNL     1      -9.712   3.527  70.225  1.00  0.00    -0.165 A  
HETATM   39  C   UNL     1      -9.134   3.400  71.493  1.00  0.00    -0.108 A  
ENDBRANCH  28  31
ENDBRANCH   5  28
ENDBRANCH   4   5
TORSDOF 11
ENDMDL
MODEL      111
REMARK 921   NORMALIZED FREE ENERGY PREDICTED BY IDOCK:   -5.94 KCAL/MOL
REMARK 922        TOTAL FREE ENERGY PREDICTED BY IDOCK:  -11.52 KCAL/MOL
REMARK 923 INTER-LIGAND FREE ENERGY PREDICTED BY IDOCK:   -9.72 KCAL/MOL
REMARK 924 INTRA-LIGAND FREE ENERGY PREDICTED BY IDOCK:   -1.81 KCAL/MOL
REMARK 927      BINDING AFFINITY PREDICTED BY RF-SCORE:    0.00 PKD
ROOT
HETATM    1  C   UNL     1      -8.721   8.689  65.063  1.00  0.00    -0.154 C  
HETATM    2  C   UNL     1      -8.922  10.184  64.813  1.00  0.00    -0.236 C  
HETATM    3  C   UNL     1      -9.212  10.381  63.312  1.00  0.00    -0.312 C  
HETATM    4  C   UNL     1     -10.071  10.795  65.639  1.00  0.00    -0.267 C  
ENDROOT
BRANCH   4   5
HETATM    5  N   UNL     1      -9.973  10.690  67.157  1.00  0.00    -0.189 N  
BRANCH   5   6
HETATM    6  C   UNL     1      -8.507  10.742  67.651  1.00  0.00    -0.119 C  
BRANCH   6   7
HETATM    7  C   UNL     1      -8.000   9.512  68.482  1.00  0.00    -0.093 C  
HETATM    8  H   UNL     1      -6.823   9.241  70.017  1.00  0.00     0.000 HD 
HETATM    9  O   UNL     1      -7.129   9.986  69.514  1.00  0.00    -0.068 OA 
BRANCH   7  10
HETATM   10  C   UNL     1      -9.165   8.623  69.056  1.00  0.00    -0.145 C  
BRANCH  10  11
HETATM   11  N   UNL     1      -9.018   7.190  68.728  1.00  0.00    -0.129 N  
HETATM   12  O   UNL     1     -10.863   7.114  67.369  1.00  0.00    -0.282 OA 
HETATM   13  H   UNL     1      -8.238   6.663  69.121  1.00  0.00     0.000 HD 
HETATM   14  C   UNL     1      -9.914   6.558  67.902  1.00  0.00    -0.131 C  
BRANCH  14  15
HETATM   15  O   UNL     1      -9.631   5.230  67.772  1.00  0.00    -0.123 OA 
BRANCH  15  16
HETATM   16  C   UNL     1      -8.979   4.659  68.923  1.00  0.00    -0.108 C  
HETATM   17  C   UNL     1      -9.973   4.211  69.974  1.00  0.00    -0.137 C  
HETATM   18  O   UNL     1      -8.378   2.491  69.758  1.00  0.00    -0.044 OA 
HETATM   19  C   UNL     1      -9.195   3.154  70.727  1.00  0.00    -0.135 C  
HETATM   20  C   UNL     1      -8.234   3.360  68.622  1.00  0.00    -0.068 C  
ENDBRANCH  15  16
ENDBRANCH  14  15
ENDBRANCH  10  11
BRANCH  10  21
HETATM   21  C   UNL     1      -9.539   8.845  70.546  1.00  0.00    -0.242 C  
BRANCH  21  22
HETATM   22  C   UNL     1     -10.962   8.636  71.026  1.00  0.00    -0.314 A  
HETATM   23  C   UNL     1     -13.218   9.498  71.332  1.00  0.00    -0.448 A  
HETATM   24  C   UNL     1     -11.861   9.711  71.070  1.00  0.00    -0.428 A  
HETATM   25  C   UNL     1     -13.696   8.210  71.570  1.00  0.00    -0.359 A  
HETATM   26  C   UNL     1     -11.456   7.346  71.284  1.00  0.00    -0.297 A  
HETATM   27  C   UNL     1     -12.812   7.136  71.554  1.00  0.00    -0.434 A  
ENDBRANCH  21  22
ENDBRANCH  10  21
ENDBRANCH   7  10
ENDBRANCH   6   7
ENDBRANCH   5   6
BRANCH   5  28
HETATM   28  S   UNL     1     -10.937  11.948  67.924  1.00  0.00    -0.239 S  
HETATM   29  O   UNL     1     -12.277  11.454  68.143  1.00  0.00    -0.602 OA 
HETATM   30  O   UNL     1     -10.136  12.435  69.032  1.00  0.00    -0.028 OA 
BRANCH  28  31
HETATM   31  C   UNL     1     -11.069  13.254  66.735  1.00  0.00    -0.292 A  
HETATM   32  N   UNL     1     -11.371  16.310  63.864  1.00  0.00    -1.442 NA 
HETATM   33  H2  UNL     1     -10.716  16.055  63.126  1.00  0.00     0.000 HD 
HETATM   34  H1  UNL     1     -12.269  16.531  63.434  1.00  0.00     0.000 HD 
HETATM   35  C   UNL     1      -9.944  14.011  66.405  1.00  0.00    -0.301 A  
HETATM   36  C   UNL     1     -10.059  15.046  65.467  1.00  0.00    -0.400 A  
HETATM   37  C   UNL     1     -12.288  13.490  66.084  1.00  0.00    -0.463 A  
HETATM   38  C   UNL     1     -12.387  14.521  65.145  1.00  0.00    -0.324 A  
HETATM   39  C   UNL     1     -11.292  15.348  64.877  1.00  0.00    -0.363 A  
ENDBRANCH  28  31
ENDBRANCH   5  28
ENDBRANCH   4   5
TORSDOF 11
ENDMDL
MODEL      112
REMARK 921   NORMALIZED FREE ENERGY PREDICTED BY IDOCK:   -5.93 KCAL/MOL
REMARK 922        TOTAL FREE ENERGY PREDICTED BY IDOCK:  -11.52 KCAL/MOL
REMARK 923 INTER-LIGAND FREE ENERGY PREDICTED BY IDOCK:   -9.77 KCAL/MOL
REMARK 924 INTRA-LIGAND FREE ENERGY PREDICTED BY IDOCK:   -1.76 KCAL/MOL
REMARK 927      BINDING AFFINITY PREDICTED BY RF-SCORE:    0.00 PKD
ROOT
HETATM    1  C   UNL     1     -12.027  11.419  67.596  1.00  0.00     0.002 C  
HETATM    2  C   UNL     1     -11.217  12.040  68.735  1.00  0.00    -0.316 C  
HETATM    3  C   UNL     1     -11.836  11.574  70.068  1.00  0.00    -0.435 C  
HETATM    4  C   UNL     1      -9.724  11.658  68.705  1.00  0.00    -0.095 C  
ENDROOT
BRANCH   4   5
HETATM    5  N   UNL     1      -8.934  12.026  67.455  1.00  0.00    -0.170 N  
BRANCH   5   6
HETATM    6  C   UNL     1      -8.011  13.247  67.687  1.00  0.00    -0.176 C  
BRANCH   6   7
HETATM    7  C   UNL     1      -8.552  14.365  68.646  1.00  0.00    -0.161 C  
HETATM    8  H   UNL     1      -7.765  15.660  69.879  1.00  0.00     0.000 HD 
HETATM    9  O   UNL     1      -7.437  14.983  69.299  1.00  0.00    -0.161 OA 
BRANCH   7  10
HETATM   10  C   UNL     1      -9.470  15.419  67.923  1.00  0.00    -0.197 C  
BRANCH  10  11
HETATM   11  N   UNL     1     -10.577  14.801  67.166  1.00  0.00    -0.280 N  
HETATM   12  O   UNL     1     -10.292  16.110  65.305  1.00  0.00    -0.513 OA 
HETATM   13  H   UNL     1     -11.114  14.045  67.590  1.00  0.00     0.000 HD 
HETATM   14  C   UNL     1     -10.894  15.229  65.900  1.00  0.00    -0.342 C  
BRANCH  14  15
HETATM   15  O   UNL     1     -11.978  14.568  65.401  1.00  0.00    -0.362 OA 
BRANCH  15  16
HETATM   16  C   UNL     1     -11.694  13.797  64.218  1.00  0.00    -0.395 C  
HETATM   17  C   UNL     1     -10.387  13.040  64.334  1.00  0.00    -0.397 C  
HETATM   18  O   UNL     1     -11.967  11.546  63.431  1.00  0.00    -0.345 OA 
HETATM   19  C   UNL     1     -10.583  11.900  63.360  1.00  0.00    -0.430 C  
HETATM   20  C   UNL     1     -12.689  12.664  63.973  1.00  0.00    -0.269 C  
ENDBRANCH  15  16
ENDBRANCH  14  15
ENDBRANCH  10  11
BRANCH  10  21
HETATM   21  C   UNL     1      -9.946  16.627  68.774  1.00  0.00    -0.265 C  
BRANCH  21  22
HETATM   22  C   UNL     1      -9.790  18.044  68.261  1.00  0.00    -0.357 A  
HETATM   23  C   UNL     1      -8.364  19.966  67.814  1.00  0.00    -0.343 A  
HETATM   24  C   UNL     1      -8.583  18.735  68.440  1.00  0.00    -0.373 A  
HETATM   25  C   UNL     1      -9.351  20.534  67.011  1.00  0.00    -0.482 A  
HETATM   26  C   UNL     1     -10.782  18.637  67.462  1.00  0.00    -0.447 A  
HETATM   27  C   UNL     1     -10.564  19.873  66.843  1.00  0.00    -0.534 A  
ENDBRANCH  21  22
ENDBRANCH  10  21
ENDBRANCH   7  10
ENDBRANCH   6   7
ENDBRANCH   5   6
BRANCH   5  28
HETATM   28  S   UNL     1      -8.008  10.642  66.882  1.00  0.00    -0.129 S  
HETATM   29  O   UNL     1      -8.012  10.632  65.438  1.00  0.00    -0.148 OA 
HETATM   30  O   UNL     1      -6.759  10.672  67.620  1.00  0.00    -0.070 OA 
BRANCH  28  31
HETATM   31  C   UNL     1      -8.909   9.206  67.399  1.00  0.00    -0.118 A  
HETATM   32  N   UNL     1     -10.999   5.761  68.596  1.00  0.00    -0.216 NA 
HETATM   33  H2  UNL     1     -10.847   5.079  67.853  1.00  0.00     0.000 HD 
HETATM   34  H1  UNL     1     -10.793   5.314  69.489  1.00  0.00     0.000 HD 
HETATM   35  C   UNL     1      -9.930   8.699  66.594  1.00  0.00    -0.357 A  
HETATM   36  C   UNL     1     -10.640   7.565  67.013  1.00  0.00    -0.409 A  
HETATM   37  C   UNL     1      -8.558   8.547  68.585  1.00  0.00    -0.135 A  
HETATM   38  C   UNL     1      -9.270   7.414  68.987  1.00  0.00    -0.146 A  
HETATM   39  C   UNL     1     -10.358   6.952  68.240  1.00  0.00    -0.193 A  
ENDBRANCH  28  31
ENDBRANCH   5  28
ENDBRANCH   4   5
TORSDOF 11
ENDMDL
MODEL      113
REMARK 921   NORMALIZED FREE ENERGY PREDICTED BY IDOCK:   -5.93 KCAL/MOL
REMARK 922        TOTAL FREE ENERGY PREDICTED BY IDOCK:  -11.51 KCAL/MOL
REMARK 923 INTER-LIGAND FREE ENERGY PREDICTED BY IDOCK:   -9.16 KCAL/MOL
REMARK 924 INTRA-LIGAND FREE ENERGY PREDICTED BY IDOCK:   -2.35 KCAL/MOL
REMARK 927      BINDING AFFINITY PREDICTED BY RF-SCORE:    0.00 PKD
ROOT
HETATM    1  C   UNL     1     -11.741  10.925  68.403  1.00  0.00    -0.290 C  
HETATM    2  C   UNL     1     -10.995  10.872  69.737  1.00  0.00    -0.290 C  
HETATM    3  C   UNL     1     -11.979  10.371  70.813  1.00  0.00    -0.462 C  
HETATM    4  C   UNL     1      -9.756   9.955  69.713  1.00  0.00    -0.236 C  
ENDROOT
BRANCH   4   5
HETATM    5  N   UNL     1      -8.666  10.282  68.700  1.00  0.00    -0.126 N  
BRANCH   5   6
HETATM    6  C   UNL     1      -7.845  11.529  69.109  1.00  0.00     0.072 C  
BRANCH   6   7
HETATM    7  C   UNL     1      -7.755  12.689  68.056  1.00  0.00    -0.139 C  
HETATM    8  H   UNL     1      -7.114  12.873  66.220  1.00  0.00     0.000 HD 
HETATM    9  O   UNL     1      -7.168  12.171  66.857  1.00  0.00    -0.107 OA 
BRANCH   7  10
HETATM   10  C   UNL     1      -9.135  13.393  67.781  1.00  0.00    -0.202 C  
BRANCH  10  11
HETATM   11  N   UNL     1      -9.602  14.217  68.914  1.00  0.00    -0.387 N  
HETATM   12  O   UNL     1     -11.771  14.339  68.182  1.00  0.00    -0.314 OA 
HETATM   13  H   UNL     1      -8.943  14.483  69.646  1.00  0.00     0.000 HD 
HETATM   14  C   UNL     1     -10.909  14.629  68.998  1.00  0.00    -0.245 C  
BRANCH  14  15
HETATM   15  O   UNL     1     -11.120  15.422  70.087  1.00  0.00    -0.261 OA 
BRANCH  15  16
HETATM   16  C   UNL     1     -11.963  14.822  71.089  1.00  0.00    -0.335 C  
HETATM   17  C   UNL     1     -11.574  15.251  72.489  1.00  0.00    -0.498 C  
HETATM   18  O   UNL     1     -13.923  15.379  72.359  1.00  0.00    -0.500 OA 
HETATM   19  C   UNL     1     -12.860  15.051  73.260  1.00  0.00    -0.531 C  
HETATM   20  C   UNL     1     -13.419  15.279  71.016  1.00  0.00    -0.452 C  
ENDBRANCH  15  16
ENDBRANCH  14  15
ENDBRANCH  10  11
BRANCH  10  21
HETATM   21  C   UNL     1      -9.281  14.130  66.423  1.00  0.00    -0.209 C  
BRANCH  21  22
HETATM   22  C   UNL     1     -10.192  13.585  65.341  1.00  0.00    -0.316 A  
HETATM   23  C   UNL     1     -11.147  11.676  64.171  1.00  0.00    -0.435 A  
HETATM   24  C   UNL     1     -10.187  12.218  65.031  1.00  0.00    -0.312 A  
HETATM   25  C   UNL     1     -12.117  12.493  63.594  1.00  0.00    -0.642 A  
HETATM   26  C   UNL     1     -11.167  14.399  64.739  1.00  0.00    -0.391 A  
HETATM   27  C   UNL     1     -12.122  13.856  63.872  1.00  0.00    -0.387 A  
ENDBRANCH  21  22
ENDBRANCH  10  21
ENDBRANCH   7  10
ENDBRANCH   6   7
ENDBRANCH   5   6
BRANCH   5  28
HETATM   28  S   UNL     1      -7.613   8.891  68.458  1.00  0.00    -0.098 S  
HETATM   29  O   UNL     1      -6.237   9.303  68.612  1.00  0.00    -0.044 OA 
HETATM   30  O   UNL     1      -8.166   7.832  69.283  1.00  0.00    -0.125 OA 
BRANCH  28  31
HETATM   31  C   UNL     1      -7.812   8.418  66.763  1.00  0.00    -0.094 A  
HETATM   32  N   UNL     1      -8.339   7.259  62.756  1.00  0.00    -0.357 NA 
HETATM   33  H2  UNL     1      -8.720   6.314  62.795  1.00  0.00     0.000 HD 
HETATM   34  H1  UNL     1      -8.920   7.814  62.128  1.00  0.00     0.000 HD 
HETATM   35  C   UNL     1      -7.144   7.295  66.271  1.00  0.00    -0.077 A  
HETATM   36  C   UNL     1      -7.304   6.931  64.927  1.00  0.00    -0.087 A  
HETATM   37  C   UNL     1      -8.683   9.136  65.932  1.00  0.00    -0.184 A  
HETATM   38  C   UNL     1      -8.839   8.757  64.595  1.00  0.00    -0.054 A  
HETATM   39  C   UNL     1      -8.102   7.693  64.065  1.00  0.00    -0.045 A  
ENDBRANCH  28  31
ENDBRANCH   5  28
ENDBRANCH   4   5
TORSDOF 11
ENDMDL
MODEL      114
REMARK 921   NORMALIZED FREE ENERGY PREDICTED BY IDOCK:   -5.93 KCAL/MOL
REMARK 922        TOTAL FREE ENERGY PREDICTED BY IDOCK:  -11.51 KCAL/MOL
REMARK 923 INTER-LIGAND FREE ENERGY PREDICTED BY IDOCK:   -9.78 KCAL/MOL
REMARK 924 INTRA-LIGAND FREE ENERGY PREDICTED BY IDOCK:   -1.72 KCAL/MOL
REMARK 927      BINDING AFFINITY PREDICTED BY RF-SCORE:    0.00 PKD
ROOT
HETATM    1  C   UNL     1      -8.360   7.925  72.779  1.00  0.00    -0.203 C  
HETATM    2  C   UNL     1      -7.916   8.181  71.338  1.00  0.00    -0.119 C  
HETATM    3  C   UNL     1      -6.538   7.519  71.140  1.00  0.00    -0.039 C  
HETATM    4  C   UNL     1      -8.900   7.633  70.286  1.00  0.00    -0.145 C  
ENDROOT
BRANCH   4   5
HETATM    5  N   UNL     1     -10.330   8.161  70.325  1.00  0.00    -0.205 N  
BRANCH   5   6
HETATM    6  C   UNL     1     -10.600   9.194  69.204  1.00  0.00    -0.208 C  
BRANCH   6   7
HETATM    7  C   UNL     1     -10.046  10.644  69.436  1.00  0.00    -0.174 C  
HETATM    8  H   UNL     1      -8.419  11.619  68.967  1.00  0.00     0.000 HD 
HETATM    9  O   UNL     1      -8.754  10.741  68.826  1.00  0.00    -0.150 OA 
BRANCH   7  10
HETATM   10  C   UNL     1     -11.021  11.774  68.936  1.00  0.00    -0.239 C  
BRANCH  10  11
HETATM   11  N   UNL     1     -10.375  13.099  68.845  1.00  0.00    -0.423 N  
HETATM   12  O   UNL     1     -12.177  14.248  69.675  1.00  0.00    -0.327 OA 
HETATM   13  H   UNL     1      -9.419  13.168  68.496  1.00  0.00     0.000 HD 
HETATM   14  C   UNL     1     -11.041  14.238  69.225  1.00  0.00    -0.265 C  
BRANCH  14  15
HETATM   15  O   UNL     1     -10.290  15.357  69.012  1.00  0.00    -0.222 OA 
BRANCH  15  16
HETATM   16  C   UNL     1     -10.851  16.256  68.036  1.00  0.00    -0.339 C  
HETATM   17  C   UNL     1     -10.201  17.623  68.086  1.00  0.00    -0.371 C  
HETATM   18  O   UNL     1     -10.370  17.025  65.814  1.00  0.00    -0.483 OA 
HETATM   19  C   UNL     1     -10.450  18.153  66.691  1.00  0.00    -0.339 C  
HETATM   20  C   UNL     1     -10.583  15.835  66.592  1.00  0.00    -0.307 C  
ENDBRANCH  15  16
ENDBRANCH  14  15
ENDBRANCH  10  11
BRANCH  10  21
HETATM   21  C   UNL     1     -11.871  11.451  67.678  1.00  0.00    -0.157 C  
BRANCH  21  22
HETATM   22  C   UNL     1     -11.411  11.885  66.301  1.00  0.00    -0.394 A  
HETATM   23  C   UNL     1      -9.975  11.540  64.365  1.00  0.00    -0.311 A  
HETATM   24  C   UNL     1     -10.297  11.281  65.702  1.00  0.00    -0.310 A  
HETATM   25  C   UNL     1     -10.751  12.418  63.611  1.00  0.00    -0.497 A  
HETATM   26  C   UNL     1     -12.174  12.781  65.532  1.00  0.00    -0.519 A  
HETATM   27  C   UNL     1     -11.846  13.045  64.198  1.00  0.00    -0.478 A  
ENDBRANCH  21  22
ENDBRANCH  10  21
ENDBRANCH   7  10
ENDBRANCH   6   7
ENDBRANCH   5   6
BRANCH   5  28
HETATM   28  S   UNL     1     -11.480   6.830  70.240  1.00  0.00    -0.351 S  
HETATM   29  O   UNL     1     -12.764   7.279  70.724  1.00  0.00    -0.215 OA 
HETATM   30  O   UNL     1     -11.343   6.277  68.905  1.00  0.00    -0.373 OA 
BRANCH  28  31
HETATM   31  C   UNL     1     -10.903   5.614  71.392  1.00  0.00    -0.222 A  
HETATM   32  N   UNL     1      -9.485   2.768  74.142  1.00  0.00    -0.084 NA 
HETATM   33  H2  UNL     1      -8.470   2.863  74.131  1.00  0.00     0.000 HD 
HETATM   34  H1  UNL     1      -9.798   2.784  75.113  1.00  0.00     0.000 HD 
HETATM   35  C   UNL     1     -10.038   4.605  70.964  1.00  0.00    -0.246 A  
HETATM   36  C   UNL     1      -9.591   3.645  71.881  1.00  0.00    -0.216 A  
HETATM   37  C   UNL     1     -11.269   5.698  72.742  1.00  0.00    -0.347 A  
HETATM   38  C   UNL     1     -10.810   4.737  73.648  1.00  0.00    -0.377 A  
HETATM   39  C   UNL     1     -10.022   3.667  73.213  1.00  0.00    -0.129 A  
ENDBRANCH  28  31
ENDBRANCH   5  28
ENDBRANCH   4   5
TORSDOF 11
ENDMDL
MODEL      115
REMARK 921   NORMALIZED FREE ENERGY PREDICTED BY IDOCK:   -5.92 KCAL/MOL
REMARK 922        TOTAL FREE ENERGY PREDICTED BY IDOCK:  -11.49 KCAL/MOL
REMARK 923 INTER-LIGAND FREE ENERGY PREDICTED BY IDOCK:  -10.94 KCAL/MOL
REMARK 924 INTRA-LIGAND FREE ENERGY PREDICTED BY IDOCK:   -0.55 KCAL/MOL
REMARK 927      BINDING AFFINITY PREDICTED BY RF-SCORE:    0.00 PKD
ROOT
HETATM    1  C   UNL     1     -13.783  15.208  70.713  1.00  0.00    -0.244 C  
HETATM    2  C   UNL     1     -12.648  14.394  71.336  1.00  0.00    -0.426 C  
HETATM    3  C   UNL     1     -13.017  14.109  72.806  1.00  0.00    -0.516 C  
HETATM    4  C   UNL     1     -12.378  13.061  70.611  1.00  0.00    -0.310 C  
ENDROOT
BRANCH   4   5
HETATM    5  N   UNL     1     -12.007  13.132  69.134  1.00  0.00    -0.302 N  
BRANCH   5   6
HETATM    6  C   UNL     1     -11.078  14.332  68.824  1.00  0.00    -0.256 C  
BRANCH   6   7
HETATM    7  C   UNL     1     -10.538  14.441  67.356  1.00  0.00    -0.270 C  
HETATM    8  H   UNL     1     -11.186  15.190  65.671  1.00  0.00     0.000 HD 
HETATM    9  O   UNL     1     -11.513  15.124  66.561  1.00  0.00    -0.291 OA 
BRANCH   7  10
HETATM   10  C   UNL     1      -9.121  15.119  67.260  1.00  0.00    -0.198 C  
BRANCH  10  11
HETATM   11  N   UNL     1      -8.024  14.147  67.072  1.00  0.00    -0.373 N  
HETATM   12  O   UNL     1      -6.813  14.871  68.879  1.00  0.00    -0.094 OA 
HETATM   13  H   UNL     1      -8.072  13.480  66.301  1.00  0.00     0.000 HD 
HETATM   14  C   UNL     1      -6.943  14.127  67.918  1.00  0.00    -0.165 C  
BRANCH  14  15
HETATM   15  O   UNL     1      -6.022  13.195  67.539  1.00  0.00    -0.219 OA 
BRANCH  15  16
HETATM   16  C   UNL     1      -6.594  11.917  67.201  1.00  0.00    -0.148 C  
HETATM   17  C   UNL     1      -5.752  11.169  66.188  1.00  0.00    -0.129 C  
HETATM   18  O   UNL     1      -6.367   9.617  67.851  1.00  0.00    -0.056 OA 
HETATM   19  C   UNL     1      -6.141   9.729  66.442  1.00  0.00    -0.064 C  
HETATM   20  C   UNL     1      -6.625  10.933  68.369  1.00  0.00    -0.058 C  
ENDBRANCH  15  16
ENDBRANCH  14  15
ENDBRANCH  10  11
BRANCH  10  21
HETATM   21  C   UNL     1      -8.995  16.334  66.303  1.00  0.00    -0.366 C  
BRANCH  21  22
HETATM   22  C   UNL     1      -9.289  17.738  66.792  1.00  0.00    -0.286 A  
HETATM   23  C   UNL     1      -8.659  19.662  68.145  1.00  0.00    -0.360 A  
HETATM   24  C   UNL     1      -8.518  18.310  67.814  1.00  0.00    -0.256 A  
HETATM   25  C   UNL     1      -9.583  20.459  67.472  1.00  0.00    -0.560 A  
HETATM   26  C   UNL     1     -10.228  18.551  66.135  1.00  0.00    -0.424 A  
HETATM   27  C   UNL     1     -10.373  19.901  66.473  1.00  0.00    -0.608 A  
ENDBRANCH  21  22
ENDBRANCH  10  21
ENDBRANCH   7  10
ENDBRANCH   6   7
ENDBRANCH   5   6
BRANCH   5  28
HETATM   28  S   UNL     1     -11.272  11.620  68.611  1.00  0.00    -0.278 S  
HETATM   29  O   UNL     1     -12.026  11.082  67.503  1.00  0.00    -0.529 OA 
HETATM   30  O   UNL     1      -9.853  11.899  68.476  1.00  0.00    -0.208 OA 
BRANCH  28  31
HETATM   31  C   UNL     1     -11.476  10.487  69.958  1.00  0.00    -0.316 A  
HETATM   32  N   UNL     1     -11.948   7.850  73.198  1.00  0.00    -0.609 NA 
HETATM   33  H2  UNL     1     -11.302   8.181  73.914  1.00  0.00     0.000 HD 
HETATM   34  H1  UNL     1     -12.863   7.715  73.627  1.00  0.00     0.000 HD 
HETATM   35  C   UNL     1     -10.384   9.748  70.416  1.00  0.00    -0.354 A  
HETATM   36  C   UNL     1     -10.556   8.851  71.479  1.00  0.00    -0.399 A  
HETATM   37  C   UNL     1     -12.717  10.377  70.599  1.00  0.00    -0.417 A  
HETATM   38  C   UNL     1     -12.872   9.483  71.663  1.00  0.00    -0.483 A  
HETATM   39  C   UNL     1     -11.812   8.666  72.069  1.00  0.00    -0.372 A  
ENDBRANCH  28  31
ENDBRANCH   5  28
ENDBRANCH   4   5
TORSDOF 11
ENDMDL
MODEL      116
REMARK 921   NORMALIZED FREE ENERGY PREDICTED BY IDOCK:   -5.90 KCAL/MOL
REMARK 922        TOTAL FREE ENERGY PREDICTED BY IDOCK:  -11.47 KCAL/MOL
REMARK 923 INTER-LIGAND FREE ENERGY PREDICTED BY IDOCK:  -10.46 KCAL/MOL
REMARK 924 INTRA-LIGAND FREE ENERGY PREDICTED BY IDOCK:   -1.01 KCAL/MOL
REMARK 927      BINDING AFFINITY PREDICTED BY RF-SCORE:    0.00 PKD
ROOT
HETATM    1  C   UNL     1      -8.448   6.883  66.771  1.00  0.00    -0.118 C  
HETATM    2  C   UNL     1      -9.902   7.195  66.417  1.00  0.00    -0.116 C  
HETATM    3  C   UNL     1     -10.642   5.857  66.217  1.00  0.00    -0.071 C  
HETATM    4  C   UNL     1     -10.632   8.024  67.492  1.00  0.00    -0.232 C  
ENDROOT
BRANCH   4   5
HETATM    5  N   UNL     1     -10.043   9.386  67.842  1.00  0.00    -0.183 N  
BRANCH   5   6
HETATM    6  C   UNL     1     -11.071  10.529  67.664  1.00  0.00    -0.309 C  
BRANCH   6   7
HETATM    7  C   UNL     1     -10.756  11.591  66.553  1.00  0.00    -0.273 C  
HETATM    8  H   UNL     1     -11.795  12.625  65.261  1.00  0.00     0.000 HD 
HETATM    9  O   UNL     1     -11.986  11.982  65.934  1.00  0.00    -0.540 OA 
BRANCH   7  10
HETATM   10  C   UNL     1      -9.944  12.831  67.085  1.00  0.00    -0.218 C  
BRANCH  10  11
HETATM   11  N   UNL     1     -10.253  14.080  66.360  1.00  0.00    -0.284 N  
HETATM   12  O   UNL     1      -8.170  14.992  66.653  1.00  0.00    -0.169 OA 
HETATM   13  H   UNL     1     -11.180  14.209  65.955  1.00  0.00     0.000 HD 
HETATM   14  C   UNL     1      -9.311  15.069  66.223  1.00  0.00    -0.307 C  
BRANCH  14  15
HETATM   15  O   UNL     1      -9.813  16.158  65.571  1.00  0.00    -0.458 OA 
BRANCH  15  16
HETATM   16  C   UNL     1     -10.446  17.115  66.441  1.00  0.00    -0.255 C  
HETATM   17  C   UNL     1      -9.494  17.638  67.498  1.00  0.00    -0.256 C  
HETATM   18  O   UNL     1     -10.660  19.497  66.642  1.00  0.00    -0.440 OA 
HETATM   19  C   UNL     1     -10.106  18.975  67.853  1.00  0.00    -0.381 C  
HETATM   20  C   UNL     1     -10.864  18.402  65.734  1.00  0.00     0.008 C  
ENDBRANCH  15  16
ENDBRANCH  14  15
ENDBRANCH  10  11
BRANCH  10  21
HETATM   21  C   UNL     1      -9.920  13.038  68.623  1.00  0.00    -0.114 C  
BRANCH  21  22
HETATM   22  C   UNL     1     -10.929  13.945  69.297  1.00  0.00    -0.222 A  
HETATM   23  C   UNL     1     -13.073  14.230  70.414  1.00  0.00    -0.067 A  
HETATM   24  C   UNL     1     -12.203  13.465  69.631  1.00  0.00    -0.279 A  
HETATM   25  C   UNL     1     -12.691  15.493  70.864  1.00  0.00    -0.525 A  
HETATM   26  C   UNL     1     -10.564  15.226  69.744  1.00  0.00    -0.293 A  
HETATM   27  C   UNL     1     -11.439  15.994  70.521  1.00  0.00    -0.409 A  
ENDBRANCH  21  22
ENDBRANCH  10  21
ENDBRANCH   7  10
ENDBRANCH   6   7
ENDBRANCH   5   6
BRANCH   5  28
HETATM   28  S   UNL     1      -9.398   9.374  69.481  1.00  0.00    -0.193 S  
HETATM   29  O   UNL     1      -8.616   8.175  69.676  1.00  0.00    -0.128 OA 
HETATM   30  O   UNL     1      -8.808  10.685  69.680  1.00  0.00    -0.045 OA 
BRANCH  28  31
HETATM   31  C   UNL     1     -10.800   9.242  70.555  1.00  0.00    -0.263 A  
HETATM   32  N   UNL     1     -14.092   8.955  73.156  1.00  0.00    -1.225 NA 
HETATM   33  H2  UNL     1     -13.697   8.733  74.069  1.00  0.00     0.000 HD 
HETATM   34  H1  UNL     1     -14.735   9.739  73.265  1.00  0.00     0.000 HD 
HETATM   35  C   UNL     1     -11.047   8.048  71.234  1.00  0.00    -0.279 A  
HETATM   36  C   UNL     1     -12.162   7.952  72.078  1.00  0.00    -0.357 A  
HETATM   37  C   UNL     1     -11.627  10.354  70.768  1.00  0.00    -0.450 A  
HETATM   38  C   UNL     1     -12.732  10.246  71.619  1.00  0.00    -0.561 A  
HETATM   39  C   UNL     1     -13.045   9.027  72.229  1.00  0.00    -0.445 A  
ENDBRANCH  28  31
ENDBRANCH   5  28
ENDBRANCH   4   5
TORSDOF 11
ENDMDL
MODEL      117
REMARK 921   NORMALIZED FREE ENERGY PREDICTED BY IDOCK:   -5.90 KCAL/MOL
REMARK 922        TOTAL FREE ENERGY PREDICTED BY IDOCK:  -11.46 KCAL/MOL
REMARK 923 INTER-LIGAND FREE ENERGY PREDICTED BY IDOCK:   -9.46 KCAL/MOL
REMARK 924 INTRA-LIGAND FREE ENERGY PREDICTED BY IDOCK:   -2.00 KCAL/MOL
REMARK 927      BINDING AFFINITY PREDICTED BY RF-SCORE:    0.00 PKD
ROOT
HETATM    1  C   UNL     1     -11.826   7.059  70.728  1.00  0.00    -0.401 C  
HETATM    2  C   UNL     1     -11.142   8.234  71.430  1.00  0.00    -0.302 C  
HETATM    3  C   UNL     1     -11.102   7.929  72.940  1.00  0.00    -0.442 C  
HETATM    4  C   UNL     1      -9.710   8.500  70.926  1.00  0.00    -0.187 C  
ENDROOT
BRANCH   4   5
HETATM    5  N   UNL     1      -9.537   8.812  69.444  1.00  0.00    -0.161 N  
BRANCH   5   6
HETATM    6  C   UNL     1      -9.189  10.300  69.198  1.00  0.00    -0.194 C  
BRANCH   6   7
HETATM    7  C   UNL     1      -9.962  11.021  68.039  1.00  0.00    -0.173 C  
HETATM    8  H   UNL     1     -11.711  10.836  67.188  1.00  0.00     0.000 HD 
HETATM    9  O   UNL     1     -11.243  10.399  67.890  1.00  0.00    -0.305 OA 
BRANCH   7  10
HETATM   10  C   UNL     1     -10.081  12.577  68.240  1.00  0.00    -0.228 C  
BRANCH  10  11
HETATM   11  N   UNL     1     -11.108  12.957  69.231  1.00  0.00    -0.424 N  
HETATM   12  O   UNL     1     -12.115  14.510  67.879  1.00  0.00    -0.325 OA 
HETATM   13  H   UNL     1     -11.123  12.495  70.140  1.00  0.00     0.000 HD 
HETATM   14  C   UNL     1     -12.043  13.922  68.948  1.00  0.00    -0.319 C  
BRANCH  14  15
HETATM   15  O   UNL     1     -12.861  14.160  70.012  1.00  0.00    -0.223 OA 
BRANCH  15  16
HETATM   16  C   UNL     1     -12.165  14.261  71.269  1.00  0.00    -0.350 C  
HETATM   17  C   UNL     1     -11.713  15.679  71.555  1.00  0.00    -0.504 C  
HETATM   18  O   UNL     1     -12.645  14.839  73.549  1.00  0.00    -0.488 OA 
HETATM   19  C   UNL     1     -11.598  15.686  73.063  1.00  0.00    -0.237 C  
HETATM   20  C   UNL     1     -13.045  13.964  72.482  1.00  0.00    -0.437 C  
ENDBRANCH  15  16
ENDBRANCH  14  15
ENDBRANCH  10  11
BRANCH  10  21
HETATM   21  C   UNL     1      -8.754  13.355  68.445  1.00  0.00    -0.134 C  
BRANCH  21  22
HETATM   22  C   UNL     1      -8.611  14.783  67.955  1.00  0.00    -0.166 A  
HETATM   23  C   UNL     1      -8.874  16.424  66.177  1.00  0.00    -0.349 A  
HETATM   24  C   UNL     1      -8.822  15.094  66.605  1.00  0.00    -0.321 A  
HETATM   25  C   UNL     1      -8.701  17.464  67.088  1.00  0.00    -0.239 A  
HETATM   26  C   UNL     1      -8.422  15.842  68.859  1.00  0.00    -0.218 A  
HETATM   27  C   UNL     1      -8.466  17.172  68.428  1.00  0.00    -0.241 A  
ENDBRANCH  21  22
ENDBRANCH  10  21
ENDBRANCH   7  10
ENDBRANCH   6   7
ENDBRANCH   5   6
BRANCH   5  28
HETATM   28  S   UNL     1      -8.320   7.757  68.731  1.00  0.00    -0.129 S  
HETATM   29  O   UNL     1      -7.423   8.546  67.919  1.00  0.00    -0.094 OA 
HETATM   30  O   UNL     1      -7.813   6.947  69.824  1.00  0.00    -0.110 OA 
BRANCH  28  31
HETATM   31  C   UNL     1      -9.193   6.686  67.622  1.00  0.00    -0.110 A  
HETATM   32  N   UNL     1     -11.246   4.182  64.940  1.00  0.00    -0.956 NA 
HETATM   33  H2  UNL     1     -11.594   4.798  64.206  1.00  0.00     0.000 HD 
HETATM   34  H1  UNL     1     -10.771   3.394  64.500  1.00  0.00     0.000 HD 
HETATM   35  C   UNL     1     -10.550   6.899  67.372  1.00  0.00    -0.373 A  
HETATM   36  C   UNL     1     -11.233   6.044  66.497  1.00  0.00     0.169 A  
HETATM   37  C   UNL     1      -8.510   5.661  66.954  1.00  0.00    -0.111 A  
HETATM   38  C   UNL     1      -9.203   4.819  66.078  1.00  0.00    -0.148 A  
HETATM   39  C   UNL     1     -10.581   4.962  65.893  1.00  0.00    -0.230 A  
ENDBRANCH  28  31
ENDBRANCH   5  28
ENDBRANCH   4   5
TORSDOF 11
ENDMDL
MODEL      118
REMARK 921   NORMALIZED FREE ENERGY PREDICTED BY IDOCK:   -5.89 KCAL/MOL
REMARK 922        TOTAL FREE ENERGY PREDICTED BY IDOCK:  -11.45 KCAL/MOL
REMARK 923 INTER-LIGAND FREE ENERGY PREDICTED BY IDOCK:  -10.13 KCAL/MOL
REMARK 924 INTRA-LIGAND FREE ENERGY PREDICTED BY IDOCK:   -1.33 KCAL/MOL
REMARK 927      BINDING AFFINITY PREDICTED BY RF-SCORE:    0.00 PKD
ROOT
HETATM    1  C   UNL     1      -9.418   8.228  66.493  1.00  0.00    -0.284 C  
HETATM    2  C   UNL     1     -10.576   7.822  67.406  1.00  0.00    -0.345 C  
HETATM    3  C   UNL     1     -11.063   6.427  66.966  1.00  0.00    -0.405 C  
HETATM    4  C   UNL     1     -10.194   7.781  68.899  1.00  0.00    -0.211 C  
ENDROOT
BRANCH   4   5
HETATM    5  N   UNL     1      -9.675   9.071  69.523  1.00  0.00    -0.167 N  
BRANCH   5   6
HETATM    6  C   UNL     1     -10.510  10.302  69.096  1.00  0.00    -0.224 C  
BRANCH   6   7
HETATM    7  C   UNL     1      -9.735  11.656  68.933  1.00  0.00    -0.013 C  
HETATM    8  H   UNL     1      -8.292  12.322  67.796  1.00  0.00     0.000 HD 
HETATM    9  O   UNL     1      -8.762  11.502  67.894  1.00  0.00    -0.134 OA 
BRANCH   7  10
HETATM   10  C   UNL     1     -10.678  12.891  68.679  1.00  0.00    -0.247 C  
BRANCH  10  11
HETATM   11  N   UNL     1      -9.940  14.120  68.324  1.00  0.00    -0.235 N  
HETATM   12  O   UNL     1     -10.535  15.256  70.225  1.00  0.00    -0.272 OA 
HETATM   13  H   UNL     1      -9.413  14.155  67.452  1.00  0.00     0.000 HD 
HETATM   14  C   UNL     1      -9.952  15.216  69.152  1.00  0.00    -0.238 C  
BRANCH  14  15
HETATM   15  O   UNL     1      -9.258  16.261  68.617  1.00  0.00    -0.208 OA 
BRANCH  15  16
HETATM   16  C   UNL     1     -10.067  17.153  67.826  1.00  0.00    -0.306 C  
HETATM   17  C   UNL     1     -10.011  18.576  68.343  1.00  0.00    -0.414 C  
HETATM   18  O   UNL     1      -9.794  18.685  65.999  1.00  0.00    -0.489 OA 
HETATM   19  C   UNL     1     -10.364  19.382  67.112  1.00  0.00    -0.438 C  
HETATM   20  C   UNL     1      -9.569  17.321  66.392  1.00  0.00    -0.274 C  
ENDBRANCH  15  16
ENDBRANCH  14  15
ENDBRANCH  10  11
BRANCH  10  21
HETATM   21  C   UNL     1     -11.898  12.653  67.750  1.00  0.00    -0.381 C  
BRANCH  21  22
HETATM   22  C   UNL     1     -11.766  12.795  66.247  1.00  0.00    -0.460 A  
HETATM   23  C   UNL     1     -11.302  11.788  64.079  1.00  0.00    -0.461 A  
HETATM   24  C   UNL     1     -11.258  11.740  65.476  1.00  0.00    -0.316 A  
HETATM   25  C   UNL     1     -11.842  12.897  63.430  1.00  0.00    -0.576 A  
HETATM   26  C   UNL     1     -12.292  13.913  65.577  1.00  0.00    -0.506 A  
HETATM   27  C   UNL     1     -12.329  13.963  64.179  1.00  0.00    -0.380 A  
ENDBRANCH  21  22
ENDBRANCH  10  21
ENDBRANCH   7  10
ENDBRANCH   6   7
ENDBRANCH   5   6
BRANCH   5  28
HETATM   28  S   UNL     1      -9.621   8.928  71.277  1.00  0.00    -0.286 S  
HETATM   29  O   UNL     1      -8.303   9.290  71.744  1.00  0.00    -0.284 OA 
HETATM   30  O   UNL     1     -10.798   9.625  71.764  1.00  0.00    -0.210 OA 
BRANCH  28  31
HETATM   31  C   UNL     1      -9.826   7.204  71.632  1.00  0.00    -0.162 A  
HETATM   32  N   UNL     1     -10.337   3.105  72.412  1.00  0.00    -0.122 NA 
HETATM   33  H2  UNL     1     -11.170   2.832  71.893  1.00  0.00     0.000 HD 
HETATM   34  H1  UNL     1      -9.593   2.440  72.199  1.00  0.00     0.000 HD 
HETATM   35  C   UNL     1     -11.000   6.754  72.238  1.00  0.00    -0.276 A  
HETATM   36  C   UNL     1     -11.151   5.389  72.519  1.00  0.00    -0.310 A  
HETATM   37  C   UNL     1      -8.835   6.288  71.253  1.00  0.00    -0.139 A  
HETATM   38  C   UNL     1      -9.003   4.928  71.533  1.00  0.00    -0.160 A  
HETATM   39  C   UNL     1     -10.130   4.476  72.226  1.00  0.00    -0.191 A  
ENDBRANCH  28  31
ENDBRANCH   5  28
ENDBRANCH   4   5
TORSDOF 11
ENDMDL
MODEL      119
REMARK 921   NORMALIZED FREE ENERGY PREDICTED BY IDOCK:   -5.88 KCAL/MOL
REMARK 922        TOTAL FREE ENERGY PREDICTED BY IDOCK:  -11.43 KCAL/MOL
REMARK 923 INTER-LIGAND FREE ENERGY PREDICTED BY IDOCK:   -9.37 KCAL/MOL
REMARK 924 INTRA-LIGAND FREE ENERGY PREDICTED BY IDOCK:   -2.07 KCAL/MOL
REMARK 927      BINDING AFFINITY PREDICTED BY RF-SCORE:    0.00 PKD
ROOT
HETATM    1  C   UNL     1      -7.758  12.504  68.453  1.00  0.00    -0.136 C  
HETATM    2  C   UNL     1      -6.523  11.698  68.856  1.00  0.00    -0.071 C  
HETATM    3  C   UNL     1      -5.439  12.690  69.323  1.00  0.00    -0.073 C  
HETATM    4  C   UNL     1      -6.795  10.676  69.977  1.00  0.00    -0.148 C  
ENDROOT
BRANCH   4   5
HETATM    5  N   UNL     1      -7.852   9.611  69.709  1.00  0.00    -0.124 N  
BRANCH   5   6
HETATM    6  C   UNL     1      -7.537   8.783  68.439  1.00  0.00    -0.095 C  
BRANCH   6   7
HETATM    7  C   UNL     1      -8.564   8.890  67.258  1.00  0.00    -0.118 C  
HETATM    8  H   UNL     1      -8.773   8.065  65.499  1.00  0.00     0.000 HD 
HETATM    9  O   UNL     1      -8.152   8.000  66.214  1.00  0.00    -0.104 OA 
BRANCH   7  10
HETATM   10  C   UNL     1     -10.053   8.634  67.697  1.00  0.00    -0.213 C  
BRANCH  10  11
HETATM   11  N   UNL     1     -10.929   9.805  67.487  1.00  0.00    -0.403 N  
HETATM   12  O   UNL     1     -10.194  10.215  65.355  1.00  0.00    -0.298 OA 
HETATM   13  H   UNL     1     -11.563  10.096  68.231  1.00  0.00     0.000 HD 
HETATM   14  C   UNL     1     -10.903  10.505  66.307  1.00  0.00     0.007 C  
BRANCH  14  15
HETATM   15  O   UNL     1     -11.744  11.578  66.338  1.00  0.00    -0.422 OA 
BRANCH  15  16
HETATM   16  C   UNL     1     -11.113  12.822  65.979  1.00  0.00    -0.285 C  
HETATM   17  C   UNL     1     -11.824  13.509  64.831  1.00  0.00    -0.402 C  
HETATM   18  O   UNL     1     -11.362  15.164  66.442  1.00  0.00    -0.320 OA 
HETATM   19  C   UNL     1     -11.436  14.957  65.028  1.00  0.00    -0.379 C  
HETATM   20  C   UNL     1     -11.189  13.885  67.073  1.00  0.00    -0.313 C  
ENDBRANCH  15  16
ENDBRANCH  14  15
ENDBRANCH  10  11
BRANCH  10  21
HETATM   21  C   UNL     1     -10.708   7.317  67.200  1.00  0.00    -0.413 C  
BRANCH  21  22
HETATM   22  C   UNL     1     -10.439   6.005  67.909  1.00  0.00    -0.294 A  
HETATM   23  C   UNL     1      -9.444   3.783  67.898  1.00  0.00    -0.224 A  
HETATM   24  C   UNL     1      -9.865   4.929  67.216  1.00  0.00    -0.214 A  
HETATM   25  C   UNL     1      -9.603   3.686  69.279  1.00  0.00    -0.185 A  
HETATM   26  C   UNL     1     -10.607   5.886  69.299  1.00  0.00    -0.379 A  
HETATM   27  C   UNL     1     -10.192   4.735  69.978  1.00  0.00    -0.251 A  
ENDBRANCH  21  22
ENDBRANCH  10  21
ENDBRANCH   7  10
ENDBRANCH   6   7
ENDBRANCH   5   6
BRANCH   5  28
HETATM   28  S   UNL     1      -8.037   8.561  71.111  1.00  0.00    -0.147 S  
HETATM   29  O   UNL     1      -7.775   7.195  70.721  1.00  0.00    -0.091 OA 
HETATM   30  O   UNL     1      -7.273   9.188  72.175  1.00  0.00    -0.328 OA 
BRANCH  28  31
HETATM   31  C   UNL     1      -9.750   8.639  71.556  1.00  0.00    -0.263 A  
HETATM   32  N   UNL     1     -13.800   8.867  72.662  1.00  0.00    -0.786 NA 
HETATM   33  H2  UNL     1     -13.799   8.970  73.677  1.00  0.00     0.000 HD 
HETATM   34  H1  UNL     1     -14.405   9.586  72.267  1.00  0.00     0.000 HD 
HETATM   35  C   UNL     1     -10.286   7.691  72.429  1.00  0.00    -0.292 A  
HETATM   36  C   UNL     1     -11.643   7.758  72.772  1.00  0.00    -0.368 A  
HETATM   37  C   UNL     1     -10.552   9.685  71.078  1.00  0.00    -0.362 A  
HETATM   38  C   UNL     1     -11.903   9.743  71.434  1.00  0.00    -0.488 A  
HETATM   39  C   UNL     1     -12.475   8.746  72.230  1.00  0.00    -0.386 A  
ENDBRANCH  28  31
ENDBRANCH   5  28
ENDBRANCH   4   5
TORSDOF 11
ENDMDL
MODEL      120
REMARK 921   NORMALIZED FREE ENERGY PREDICTED BY IDOCK:   -5.88 KCAL/MOL
REMARK 922        TOTAL FREE ENERGY PREDICTED BY IDOCK:  -11.43 KCAL/MOL
REMARK 923 INTER-LIGAND FREE ENERGY PREDICTED BY IDOCK:  -10.41 KCAL/MOL
REMARK 924 INTRA-LIGAND FREE ENERGY PREDICTED BY IDOCK:   -1.01 KCAL/MOL
REMARK 927      BINDING AFFINITY PREDICTED BY RF-SCORE:    0.00 PKD
ROOT
HETATM    1  C   UNL     1      -7.576   7.810  66.216  1.00  0.00    -0.087 C  
HETATM    2  C   UNL     1      -7.152   7.133  67.520  1.00  0.00    -0.088 C  
HETATM    3  C   UNL     1      -5.680   6.698  67.374  1.00  0.00    -0.013 C  
HETATM    4  C   UNL     1      -7.294   8.041  68.758  1.00  0.00    -0.085 C  
ENDROOT
BRANCH   4   5
HETATM    5  N   UNL     1      -8.683   8.588  69.067  1.00  0.00    -0.134 N  
BRANCH   5   6
HETATM    6  C   UNL     1      -9.121   9.672  68.053  1.00  0.00    -0.125 C  
BRANCH   6   7
HETATM    7  C   UNL     1      -8.737  11.154  68.397  1.00  0.00    -0.157 C  
HETATM    8  H   UNL     1      -7.348  12.410  67.842  1.00  0.00     0.000 HD 
HETATM    9  O   UNL     1      -7.580  11.513  67.634  1.00  0.00    -0.103 OA 
BRANCH   7  10
HETATM   10  C   UNL     1      -9.920  12.171  68.189  1.00  0.00    -0.201 C  
BRANCH  10  11
HETATM   11  N   UNL     1      -9.467  13.502  67.737  1.00  0.00    -0.208 N  
HETATM   12  O   UNL     1     -10.927  14.664  69.068  1.00  0.00    -0.239 OA 
HETATM   13  H   UNL     1      -8.716  13.570  67.050  1.00  0.00     0.000 HD 
HETATM   14  C   UNL     1     -10.040  14.649  68.228  1.00  0.00    -0.228 C  
BRANCH  14  15
HETATM   15  O   UNL     1      -9.518  15.765  67.643  1.00  0.00    -0.216 OA 
BRANCH  15  16
HETATM   16  C   UNL     1     -10.502  16.601  67.005  1.00  0.00    -0.283 C  
HETATM   17  C   UNL     1     -10.127  18.068  67.069  1.00  0.00    -0.348 C  
HETATM   18  O   UNL     1     -10.866  17.642  64.873  1.00  0.00    -0.831 OA 
HETATM   19  C   UNL     1     -10.880  18.647  65.891  1.00  0.00    -0.073 C  
HETATM   20  C   UNL     1     -10.613  16.373  65.498  1.00  0.00    -0.330 C  
ENDBRANCH  15  16
ENDBRANCH  14  15
ENDBRANCH  10  11
BRANCH  10  21
HETATM   21  C   UNL     1     -11.140  11.662  67.376  1.00  0.00    -0.337 C  
BRANCH  21  22
HETATM   22  C   UNL     1     -11.338  12.081  65.933  1.00  0.00    -0.391 A  
HETATM   23  C   UNL     1     -11.003  11.649  63.560  1.00  0.00    -0.485 A  
HETATM   24  C   UNL     1     -10.688  11.393  64.899  1.00  0.00    -0.350 A  
HETATM   25  C   UNL     1     -11.961  12.607  63.233  1.00  0.00    -0.526 A  
HETATM   26  C   UNL     1     -12.289  13.055  65.587  1.00  0.00    -0.504 A  
HETATM   27  C   UNL     1     -12.598  13.316  64.247  1.00  0.00    -0.253 A  
ENDBRANCH  21  22
ENDBRANCH  10  21
ENDBRANCH   7  10
ENDBRANCH   6   7
ENDBRANCH   5   6
BRANCH   5  28
HETATM   28  S   UNL     1      -9.859   7.278  69.132  1.00  0.00    -0.169 S  
HETATM   29  O   UNL     1     -10.507   7.157  67.847  1.00  0.00    -0.189 OA 
HETATM   30  O   UNL     1      -9.158   6.150  69.718  1.00  0.00    -0.139 OA 
BRANCH  28  31
HETATM   31  C   UNL     1     -11.104   7.799  70.279  1.00  0.00    -0.234 A  
HETATM   32  N   UNL     1     -14.105   9.037  72.951  1.00  0.00    -1.110 NA 
HETATM   33  H2  UNL     1     -14.694   9.676  72.420  1.00  0.00     0.000 HD 
HETATM   34  H1  UNL     1     -14.705   8.352  73.410  1.00  0.00     0.000 HD 
HETATM   35  C   UNL     1     -11.246   9.153  70.585  1.00  0.00    -0.322 A  
HETATM   36  C   UNL     1     -12.231   9.555  71.497  1.00  0.00    -0.468 A  
HETATM   37  C   UNL     1     -11.983   6.858  70.834  1.00  0.00    -0.430 A  
HETATM   38  C   UNL     1     -12.966   7.274  71.738  1.00  0.00    -0.368 A  
HETATM   39  C   UNL     1     -13.056   8.614  72.126  1.00  0.00    -0.383 A  
ENDBRANCH  28  31
ENDBRANCH   5  28
ENDBRANCH   4   5
TORSDOF 11
ENDMDL
MODEL      121
REMARK 921   NORMALIZED FREE ENERGY PREDICTED BY IDOCK:   -5.86 KCAL/MOL
REMARK 922        TOTAL FREE ENERGY PREDICTED BY IDOCK:  -11.40 KCAL/MOL
REMARK 923 INTER-LIGAND FREE ENERGY PREDICTED BY IDOCK:  -10.31 KCAL/MOL
REMARK 924 INTRA-LIGAND FREE ENERGY PREDICTED BY IDOCK:   -1.09 KCAL/MOL
REMARK 927      BINDING AFFINITY PREDICTED BY RF-SCORE:    0.00 PKD
ROOT
HETATM    1  C   UNL     1      -6.390  12.533  68.665  1.00  0.00    -0.073 C  
HETATM    2  C   UNL     1      -6.824  11.087  68.424  1.00  0.00    -0.065 C  
HETATM    3  C   UNL     1      -5.895  10.168  69.242  1.00  0.00    -0.037 C  
HETATM    4  C   UNL     1      -8.288  10.811  68.817  1.00  0.00    -0.147 C  
ENDROOT
BRANCH   4   5
HETATM    5  N   UNL     1      -9.365  11.635  68.120  1.00  0.00    -0.182 N  
BRANCH   5   6
HETATM    6  C   UNL     1      -8.854  12.267  66.803  1.00  0.00    -0.195 C  
BRANCH   6   7
HETATM    7  C   UNL     1      -9.431  13.676  66.429  1.00  0.00    -0.234 C  
HETATM    8  H   UNL     1     -11.043  14.347  65.550  1.00  0.00     0.000 HD 
HETATM    9  O   UNL     1     -10.693  13.493  65.776  1.00  0.00    -0.270 OA 
BRANCH   7  10
HETATM   10  C   UNL     1      -9.540  14.655  67.657  1.00  0.00    -0.212 C  
BRANCH  10  11
HETATM   11  N   UNL     1     -10.583  14.258  68.624  1.00  0.00    -0.245 N  
HETATM   12  O   UNL     1     -11.878  16.118  68.283  1.00  0.00    -0.209 OA 
HETATM   13  H   UNL     1     -10.491  13.376  69.127  1.00  0.00     0.000 HD 
HETATM   14  C   UNL     1     -11.674  15.058  68.856  1.00  0.00    -0.328 C  
BRANCH  14  15
HETATM   15  O   UNL     1     -12.486  14.538  69.820  1.00  0.00    -0.303 OA 
BRANCH  15  16
HETATM   16  C   UNL     1     -12.732  15.437  70.919  1.00  0.00    -0.461 C  
HETATM   17  C   UNL     1     -13.932  15.013  71.740  1.00  0.00    -0.598 C  
HETATM   18  O   UNL     1     -12.229  15.593  73.261  1.00  0.00    -0.416 OA 
HETATM   19  C   UNL     1     -13.648  15.648  73.084  1.00  0.00    -0.473 C  
HETATM   20  C   UNL     1     -11.621  15.438  71.968  1.00  0.00    -0.459 C  
ENDBRANCH  15  16
ENDBRANCH  14  15
ENDBRANCH  10  11
BRANCH  10  21
HETATM   21  C   UNL     1      -8.210  15.041  68.357  1.00  0.00    -0.151 C  
BRANCH  21  22
HETATM   22  C   UNL     1      -7.890  16.490  68.665  1.00  0.00    -0.226 A  
HETATM   23  C   UNL     1      -6.265  18.188  69.301  1.00  0.00    -0.253 A  
HETATM   24  C   UNL     1      -6.638  16.845  69.187  1.00  0.00    -0.224 A  
HETATM   25  C   UNL     1      -7.142  19.198  68.910  1.00  0.00    -0.372 A  
HETATM   26  C   UNL     1      -8.769  17.520  68.291  1.00  0.00    -0.270 A  
HETATM   27  C   UNL     1      -8.398  18.863  68.413  1.00  0.00    -0.382 A  
ENDBRANCH  21  22
ENDBRANCH  10  21
ENDBRANCH   7  10
ENDBRANCH   6   7
ENDBRANCH   5   6
BRANCH   5  28
HETATM   28  S   UNL     1     -10.798  10.653  67.829  1.00  0.00    -0.306 S  
HETATM   29  O   UNL     1     -11.936  11.520  67.631  1.00  0.00    -0.630 OA 
HETATM   30  O   UNL     1     -10.414   9.689  66.813  1.00  0.00    -0.230 OA 
BRANCH  28  31
HETATM   31  C   UNL     1     -11.095   9.766  69.333  1.00  0.00    -0.170 A  
HETATM   32  N   UNL     1     -11.740   7.682  72.927  1.00  0.00    -0.610 NA 
HETATM   33  H2  UNL     1     -10.816   7.380  73.235  1.00  0.00     0.000 HD 
HETATM   34  H1  UNL     1     -12.209   8.134  73.711  1.00  0.00     0.000 HD 
HETATM   35  C   UNL     1     -10.715   8.427  69.437  1.00  0.00    -0.162 A  
HETATM   36  C   UNL     1     -10.958   7.731  70.630  1.00  0.00    -0.255 A  
HETATM   37  C   UNL     1     -11.658  10.423  70.435  1.00  0.00    -0.423 A  
HETATM   38  C   UNL     1     -11.888   9.719  71.621  1.00  0.00    -0.429 A  
HETATM   39  C   UNL     1     -11.600   8.353  71.707  1.00  0.00    -0.308 A  
ENDBRANCH  28  31
ENDBRANCH   5  28
ENDBRANCH   4   5
TORSDOF 11
ENDMDL
MODEL      122
REMARK 921   NORMALIZED FREE ENERGY PREDICTED BY IDOCK:   -5.84 KCAL/MOL
REMARK 922        TOTAL FREE ENERGY PREDICTED BY IDOCK:  -11.36 KCAL/MOL
REMARK 923 INTER-LIGAND FREE ENERGY PREDICTED BY IDOCK:   -9.78 KCAL/MOL
REMARK 924 INTRA-LIGAND FREE ENERGY PREDICTED BY IDOCK:   -1.58 KCAL/MOL
REMARK 927      BINDING AFFINITY PREDICTED BY RF-SCORE:    0.00 PKD
ROOT
HETATM    1  C   UNL     1      -9.385   9.791  62.814  1.00  0.00    -0.156 C  
HETATM    2  C   UNL     1      -8.722   9.961  64.182  1.00  0.00    -0.224 C  
HETATM    3  C   UNL     1      -7.212  10.174  63.956  1.00  0.00    -0.106 C  
HETATM    4  C   UNL     1      -9.287  11.142  64.995  1.00  0.00    -0.207 C  
ENDROOT
BRANCH   4   5
HETATM    5  N   UNL     1     -10.778  11.121  65.314  1.00  0.00    -0.241 N  
BRANCH   5   6
HETATM    6  C   UNL     1     -11.047  11.044  66.837  1.00  0.00    -0.213 C  
BRANCH   6   7
HETATM    7  C   UNL     1      -9.809  10.751  67.756  1.00  0.00    -0.166 C  
HETATM    8  H   UNL     1      -8.854  11.700  69.172  1.00  0.00     0.000 HD 
HETATM    9  O   UNL     1      -9.604  11.877  68.616  1.00  0.00    -0.178 OA 
BRANCH   7  10
HETATM   10  C   UNL     1      -9.935   9.407  68.564  1.00  0.00    -0.173 C  
BRANCH  10  11
HETATM   11  N   UNL     1      -9.119   8.312  68.000  1.00  0.00    -0.137 N  
HETATM   12  O   UNL     1     -10.867   7.317  66.900  1.00  0.00    -0.355 OA 
HETATM   13  H   UNL     1      -8.120   8.277  68.201  1.00  0.00     0.000 HD 
HETATM   14  C   UNL     1      -9.686   7.342  67.211  1.00  0.00    -0.157 C  
BRANCH  14  15
HETATM   15  O   UNL     1      -8.775   6.398  66.840  1.00  0.00    -0.112 OA 
BRANCH  15  16
HETATM   16  C   UNL     1      -9.359   5.247  66.200  1.00  0.00    -0.156 C  
HETATM   17  C   UNL     1      -8.441   4.656  65.149  1.00  0.00    -0.130 C  
HETATM   18  O   UNL     1      -9.302   2.856  66.401  1.00  0.00    -0.131 OA 
HETATM   19  C   UNL     1      -8.916   3.222  65.073  1.00  0.00    -0.137 C  
HETATM   20  C   UNL     1      -9.561   4.061  67.141  1.00  0.00    -0.196 C  
ENDBRANCH  15  16
ENDBRANCH  14  15
ENDBRANCH  10  11
BRANCH  10  21
HETATM   21  C   UNL     1      -9.792   9.508  70.107  1.00  0.00    -0.288 C  
BRANCH  21  22
HETATM   22  C   UNL     1     -11.008   9.397  71.005  1.00  0.00    -0.409 A  
HETATM   23  C   UNL     1     -13.278  10.086  71.553  1.00  0.00    -0.497 A  
HETATM   24  C   UNL     1     -12.080  10.290  70.861  1.00  0.00    -0.468 A  
HETATM   25  C   UNL     1     -13.419   8.997  72.411  1.00  0.00    -0.524 A  
HETATM   26  C   UNL     1     -11.160   8.313  71.886  1.00  0.00    -0.357 A  
HETATM   27  C   UNL     1     -12.357   8.115  72.583  1.00  0.00    -0.222 A  
ENDBRANCH  21  22
ENDBRANCH  10  21
ENDBRANCH   7  10
ENDBRANCH   6   7
ENDBRANCH   5   6
BRANCH   5  28
HETATM   28  S   UNL     1     -11.578  12.521  64.606  1.00  0.00    -0.362 S  
HETATM   29  O   UNL     1     -10.971  12.822  63.331  1.00  0.00    -0.380 OA 
HETATM   30  O   UNL     1     -13.001  12.251  64.705  1.00  0.00    -0.713 OA 
BRANCH  28  31
HETATM   31  C   UNL     1     -11.210  13.885  65.675  1.00  0.00    -0.306 A  
HETATM   32  N   UNL     1     -10.290  17.083  68.244  1.00  0.00    -0.326 NA 
HETATM   33  H2  UNL     1     -10.062  16.655  69.140  1.00  0.00     0.000 HD 
HETATM   34  H1  UNL     1      -9.549  17.743  68.005  1.00  0.00     0.000 HD 
HETATM   35  C   UNL     1     -11.958  14.080  66.837  1.00  0.00    -0.479 A  
HETATM   36  C   UNL     1     -11.662  15.164  67.674  1.00  0.00    -0.233 A  
HETATM   37  C   UNL     1     -10.132  14.732  65.384  1.00  0.00    -0.406 A  
HETATM   38  C   UNL     1      -9.844  15.806  66.232  1.00  0.00    -0.320 A  
HETATM   39  C   UNL     1     -10.645  16.069  67.347  1.00  0.00    -0.316 A  
ENDBRANCH  28  31
ENDBRANCH   5  28
ENDBRANCH   4   5
TORSDOF 11
ENDMDL
MODEL      123
REMARK 921   NORMALIZED FREE ENERGY PREDICTED BY IDOCK:   -5.83 KCAL/MOL
REMARK 922        TOTAL FREE ENERGY PREDICTED BY IDOCK:  -11.36 KCAL/MOL
REMARK 923 INTER-LIGAND FREE ENERGY PREDICTED BY IDOCK:  -10.10 KCAL/MOL
REMARK 924 INTRA-LIGAND FREE ENERGY PREDICTED BY IDOCK:   -1.26 KCAL/MOL
REMARK 927      BINDING AFFINITY PREDICTED BY RF-SCORE:    0.00 PKD
ROOT
HETATM    1  C   UNL     1      -7.189  12.157  68.978  1.00  0.00    -0.037 C  
HETATM    2  C   UNL     1      -7.090  12.311  67.459  1.00  0.00    -0.142 C  
HETATM    3  C   UNL     1      -5.877  11.492  66.976  1.00  0.00    -0.120 C  
HETATM    4  C   UNL     1      -8.353  11.840  66.711  1.00  0.00    -0.165 C  
ENDROOT
BRANCH   4   5
HETATM    5  N   UNL     1      -9.668  12.526  67.061  1.00  0.00    -0.208 N  
BRANCH   5   6
HETATM    6  C   UNL     1      -9.899  13.806  66.221  1.00  0.00    -0.303 C  
BRANCH   6   7
HETATM    7  C   UNL     1     -10.764  14.935  66.883  1.00  0.00    -0.308 C  
HETATM    8  H   UNL     1     -12.672  15.282  67.130  1.00  0.00     0.000 HD 
HETATM    9  O   UNL     1     -12.148  14.598  66.729  1.00  0.00    -0.353 OA 
BRANCH   7  10
HETATM   10  C   UNL     1     -10.390  15.211  68.387  1.00  0.00    -0.229 C  
BRANCH  10  11
HETATM   11  N   UNL     1     -11.072  14.303  69.331  1.00  0.00    -0.303 N  
HETATM   12  O   UNL     1     -12.677  15.824  69.934  1.00  0.00    -0.182 OA 
HETATM   13  H   UNL     1     -10.720  13.354  69.458  1.00  0.00     0.000 HD 
HETATM   14  C   UNL     1     -12.173  14.716  70.039  1.00  0.00    -0.333 C  
BRANCH  14  15
HETATM   15  O   UNL     1     -12.617  13.749  70.892  1.00  0.00    -0.336 OA 
BRANCH  15  16
HETATM   16  C   UNL     1     -12.887  14.227  72.224  1.00  0.00    -0.340 C  
HETATM   17  C   UNL     1     -11.811  15.174  72.715  1.00  0.00    -0.464 C  
HETATM   18  O   UNL     1     -13.886  16.137  73.280  1.00  0.00    -0.559 OA 
HETATM   19  C   UNL     1     -12.546  15.986  73.759  1.00  0.00    -0.610 C  
HETATM   20  C   UNL     1     -14.138  15.099  72.319  1.00  0.00    -0.534 C  
ENDBRANCH  15  16
ENDBRANCH  14  15
ENDBRANCH  10  11
BRANCH  10  21
HETATM   21  C   UNL     1      -8.879  15.362  68.710  1.00  0.00    -0.196 C  
BRANCH  21  22
HETATM   22  C   UNL     1      -8.215  16.724  68.683  1.00  0.00    -0.252 A  
HETATM   23  C   UNL     1      -8.406  19.146  68.527  1.00  0.00    -0.399 A  
HETATM   24  C   UNL     1      -8.961  17.871  68.376  1.00  0.00    -0.285 A  
HETATM   25  C   UNL     1      -7.094  19.296  68.972  1.00  0.00    -0.391 A  
HETATM   26  C   UNL     1      -6.888  16.891  69.115  1.00  0.00    -0.238 A  
HETATM   27  C   UNL     1      -6.333  18.167  69.258  1.00  0.00    -0.257 A  
ENDBRANCH  21  22
ENDBRANCH  10  21
ENDBRANCH   7  10
ENDBRANCH   6   7
ENDBRANCH   5   6
BRANCH   5  28
HETATM   28  S   UNL     1     -11.015  11.406  66.878  1.00  0.00    -0.295 S  
HETATM   29  O   UNL     1     -12.046  11.741  67.832  1.00  0.00    -0.592 OA 
HETATM   30  O   UNL     1     -11.304  11.369  65.456  1.00  0.00    -0.153 OA 
BRANCH  28  31
HETATM   31  C   UNL     1     -10.392   9.815  67.346  1.00  0.00    -0.240 A  
HETATM   32  N   UNL     1      -8.976   6.014  68.452  1.00  0.00    -0.115 NA 
HETATM   33  H2  UNL     1      -9.740   5.580  68.969  1.00  0.00     0.000 HD 
HETATM   34  H1  UNL     1      -8.653   5.355  67.743  1.00  0.00     0.000 HD 
HETATM   35  C   UNL     1     -10.312   9.469  68.696  1.00  0.00    -0.229 A  
HETATM   36  C   UNL     1      -9.814   8.210  69.057  1.00  0.00    -0.176 A  
HETATM   37  C   UNL     1     -10.034   8.884  66.361  1.00  0.00    -0.354 A  
HETATM   38  C   UNL     1      -9.545   7.629  66.736  1.00  0.00    -0.269 A  
HETATM   39  C   UNL     1      -9.370   7.306  68.085  1.00  0.00    -0.131 A  
ENDBRANCH  28  31
ENDBRANCH   5  28
ENDBRANCH   4   5
TORSDOF 11
ENDMDL
MODEL      124
REMARK 921   NORMALIZED FREE ENERGY PREDICTED BY IDOCK:   -5.83 KCAL/MOL
REMARK 922        TOTAL FREE ENERGY PREDICTED BY IDOCK:  -11.35 KCAL/MOL
REMARK 923 INTER-LIGAND FREE ENERGY PREDICTED BY IDOCK:   -9.79 KCAL/MOL
REMARK 924 INTRA-LIGAND FREE ENERGY PREDICTED BY IDOCK:   -1.56 KCAL/MOL
REMARK 927      BINDING AFFINITY PREDICTED BY RF-SCORE:    0.00 PKD
ROOT
HETATM    1  C   UNL     1      -7.328  11.869  67.212  1.00  0.00    -0.146 C  
HETATM    2  C   UNL     1      -7.720  12.577  68.510  1.00  0.00    -0.113 C  
HETATM    3  C   UNL     1      -6.441  13.169  69.135  1.00  0.00    -0.107 C  
HETATM    4  C   UNL     1      -8.755  13.700  68.308  1.00  0.00    -0.171 C  
ENDROOT
BRANCH   4   5
HETATM    5  N   UNL     1     -10.093  13.314  67.687  1.00  0.00    -0.225 N  
BRANCH   5   6
HETATM    6  C   UNL     1     -10.691  12.042  68.336  1.00  0.00    -0.229 C  
BRANCH   6   7
HETATM    7  C   UNL     1     -11.147  10.902  67.360  1.00  0.00    -0.307 C  
HETATM    8  H   UNL     1     -11.362  10.709  65.427  1.00  0.00     0.000 HD 
HETATM    9  O   UNL     1     -11.086  11.399  66.018  1.00  0.00    -0.262 OA 
BRANCH   7  10
HETATM   10  C   UNL     1     -10.329   9.568  67.531  1.00  0.00    -0.248 C  
BRANCH  10  11
HETATM   11  N   UNL     1     -10.809   8.734  68.651  1.00  0.00    -0.435 N  
HETATM   12  O   UNL     1      -9.212   9.460  70.128  1.00  0.00    -0.198 OA 
HETATM   13  H   UNL     1     -11.622   8.132  68.518  1.00  0.00     0.000 HD 
HETATM   14  C   UNL     1     -10.177   8.756  69.870  1.00  0.00    -0.200 C  
BRANCH  14  15
HETATM   15  O   UNL     1     -10.740   7.876  70.747  1.00  0.00    -0.216 OA 
BRANCH  15  16
HETATM   16  C   UNL     1     -11.657   8.487  71.675  1.00  0.00    -0.299 C  
HETATM   17  C   UNL     1     -11.926   9.938  71.333  1.00  0.00    -0.489 C  
HETATM   18  O   UNL     1     -14.006   8.953  71.840  1.00  0.00    -0.407 OA 
HETATM   19  C   UNL     1     -13.276  10.177  71.972  1.00  0.00    -0.430 C  
HETATM   20  C   UNL     1     -13.062   7.890  71.631  1.00  0.00    -0.332 C  
ENDBRANCH  15  16
ENDBRANCH  14  15
ENDBRANCH  10  11
BRANCH  10  21
HETATM   21  C   UNL     1     -10.083   8.734  66.245  1.00  0.00    -0.254 C  
BRANCH  21  22
HETATM   22  C   UNL     1      -8.755   8.806  65.519  1.00  0.00    -0.217 A  
HETATM   23  C   UNL     1      -7.378   9.774  63.759  1.00  0.00    -0.129 A  
HETATM   24  C   UNL     1      -8.632   9.548  64.336  1.00  0.00    -0.213 A  
HETATM   25  C   UNL     1      -6.229   9.249  64.347  1.00  0.00    -0.077 A  
HETATM   26  C   UNL     1      -7.588   8.270  66.090  1.00  0.00    -0.085 A  
HETATM   27  C   UNL     1      -6.335   8.490  65.508  1.00  0.00    -0.055 A  
ENDBRANCH  21  22
ENDBRANCH  10  21
ENDBRANCH   7  10
ENDBRANCH   6   7
ENDBRANCH   5   6
BRANCH   5  28
HETATM   28  S   UNL     1     -11.227  14.658  67.781  1.00  0.00    -0.321 S  
HETATM   29  O   UNL     1     -10.542  15.883  67.442  1.00  0.00    -0.305 OA 
HETATM   30  O   UNL     1     -12.400  14.234  67.039  1.00  0.00    -0.386 OA 
BRANCH  28  31
HETATM   31  C   UNL     1     -11.684  14.790  69.487  1.00  0.00    -0.321 A  
HETATM   32  N   UNL     1     -12.707  15.086  73.555  1.00  0.00    -0.528 NA 
HETATM   33  H2  UNL     1     -12.169  14.357  74.023  1.00  0.00     0.000 HD 
HETATM   34  H1  UNL     1     -12.571  15.961  74.061  1.00  0.00     0.000 HD 
HETATM   35  C   UNL     1     -12.264  13.701  70.139  1.00  0.00    -0.413 A  
HETATM   36  C   UNL     1     -12.627  13.816  71.488  1.00  0.00    -0.405 A  
HETATM   37  C   UNL     1     -11.411  15.967  70.197  1.00  0.00    -0.369 A  
HETATM   38  C   UNL     1     -11.772  16.066  71.545  1.00  0.00    -0.554 A  
HETATM   39  C   UNL     1     -12.441  15.017  72.183  1.00  0.00    -0.344 A  
ENDBRANCH  28  31
ENDBRANCH   5  28
ENDBRANCH   4   5
TORSDOF 11
ENDMDL
MODEL      125
REMARK 921   NORMALIZED FREE ENERGY PREDICTED BY IDOCK:   -5.83 KCAL/MOL
REMARK 922        TOTAL FREE ENERGY PREDICTED BY IDOCK:  -11.35 KCAL/MOL
REMARK 923 INTER-LIGAND FREE ENERGY PREDICTED BY IDOCK:  -10.21 KCAL/MOL
REMARK 924 INTRA-LIGAND FREE ENERGY PREDICTED BY IDOCK:   -1.13 KCAL/MOL
REMARK 927      BINDING AFFINITY PREDICTED BY RF-SCORE:    0.00 PKD
ROOT
HETATM    1  C   UNL     1     -10.359  13.046  63.707  1.00  0.00     0.003 C  
HETATM    2  C   UNL     1     -10.641  14.060  64.816  1.00  0.00    -0.441 C  
HETATM    3  C   UNL     1     -12.045  14.650  64.577  1.00  0.00    -0.490 C  
HETATM    4  C   UNL     1     -10.578  13.455  66.232  1.00  0.00    -0.291 C  
ENDROOT
BRANCH   4   5
HETATM    5  N   UNL     1      -9.264  12.807  66.656  1.00  0.00    -0.228 N  
BRANCH   5   6
HETATM    6  C   UNL     1      -8.692  13.442  67.947  1.00  0.00    -0.187 C  
BRANCH   6   7
HETATM    7  C   UNL     1      -9.565  14.550  68.633  1.00  0.00    -0.219 C  
HETATM    8  H   UNL     1     -10.094  16.383  68.213  1.00  0.00     0.000 HD 
HETATM    9  O   UNL     1      -9.565  15.713  67.798  1.00  0.00    -0.209 OA 
BRANCH   7  10
HETATM   10  C   UNL     1     -11.025  14.072  68.978  1.00  0.00    -0.259 C  
BRANCH  10  11
HETATM   11  N   UNL     1     -11.062  13.029  70.023  1.00  0.00    -0.318 N  
HETATM   12  O   UNL     1     -12.580  11.709  68.924  1.00  0.00    -0.127 OA 
HETATM   13  H   UNL     1     -10.479  13.130  70.854  1.00  0.00     0.000 HD 
HETATM   14  C   UNL     1     -11.868  11.925  69.893  1.00  0.00    -0.343 C  
BRANCH  14  15
HETATM   15  O   UNL     1     -11.796  11.115  70.988  1.00  0.00    -0.250 OA 
BRANCH  15  16
HETATM   16  C   UNL     1     -12.448   9.842  70.813  1.00  0.00    -0.256 C  
HETATM   17  C   UNL     1     -11.461   8.693  70.832  1.00  0.00    -0.315 C  
HETATM   18  O   UNL     1     -13.290   8.052  72.172  1.00  0.00    -0.265 OA 
HETATM   19  C   UNL     1     -12.330   7.527  71.250  1.00  0.00    -0.327 C  
HETATM   20  C   UNL     1     -13.383   9.471  71.962  1.00  0.00    -0.452 C  
ENDBRANCH  15  16
ENDBRANCH  14  15
ENDBRANCH  10  11
BRANCH  10  21
HETATM   21  C   UNL     1     -12.080  15.183  69.223  1.00  0.00    -0.278 C  
BRANCH  21  22
HETATM   22  C   UNL     1     -12.544  15.512  70.628  1.00  0.00    -0.493 A  
HETATM   23  C   UNL     1     -14.123  15.167  72.448  1.00  0.00    -0.593 A  
HETATM   24  C   UNL     1     -13.771  15.026  71.102  1.00  0.00    -0.484 A  
HETATM   25  C   UNL     1     -13.264  15.809  73.338  1.00  0.00    -0.653 A  
HETATM   26  C   UNL     1     -11.696  16.171  71.533  1.00  0.00    -0.533 A  
HETATM   27  C   UNL     1     -12.054  16.318  72.878  1.00  0.00    -0.625 A  
ENDBRANCH  21  22
ENDBRANCH  10  21
ENDBRANCH   7  10
ENDBRANCH   6   7
ENDBRANCH   5   6
BRANCH   5  28
HETATM   28  S   UNL     1      -9.470  11.069  66.851  1.00  0.00    -0.179 S  
HETATM   29  O   UNL     1      -8.895  10.660  68.111  1.00  0.00    -0.127 OA 
HETATM   30  O   UNL     1     -10.865  10.803  66.551  1.00  0.00    -0.218 OA 
BRANCH  28  31
HETATM   31  C   UNL     1      -8.490  10.317  65.581  1.00  0.00    -0.160 A  
HETATM   32  N   UNL     1      -6.160   8.592  62.537  1.00  0.00    -0.087 NA 
HETATM   33  H2  UNL     1      -6.415   9.090  61.685  1.00  0.00     0.000 HD 
HETATM   34  H1  UNL     1      -5.143   8.577  62.608  1.00  0.00     0.000 HD 
HETATM   35  C   UNL     1      -9.113   9.711  64.489  1.00  0.00    -0.287 A  
HETATM   36  C   UNL     1      -8.329   9.114  63.492  1.00  0.00    -0.188 A  
HETATM   37  C   UNL     1      -7.092  10.381  65.645  1.00  0.00    -0.142 A  
HETATM   38  C   UNL     1      -6.322   9.788  64.639  1.00  0.00    -0.106 A  
HETATM   39  C   UNL     1      -6.933   9.094  63.589  1.00  0.00    -0.089 A  
ENDBRANCH  28  31
ENDBRANCH   5  28
ENDBRANCH   4   5
TORSDOF 11
ENDMDL
MODEL      126
REMARK 921   NORMALIZED FREE ENERGY PREDICTED BY IDOCK:   -5.81 KCAL/MOL
REMARK 922        TOTAL FREE ENERGY PREDICTED BY IDOCK:  -11.31 KCAL/MOL
REMARK 923 INTER-LIGAND FREE ENERGY PREDICTED BY IDOCK:  -10.86 KCAL/MOL
REMARK 924 INTRA-LIGAND FREE ENERGY PREDICTED BY IDOCK:   -0.46 KCAL/MOL
REMARK 927      BINDING AFFINITY PREDICTED BY RF-SCORE:    0.00 PKD
ROOT
HETATM    1  C   UNL     1     -10.490  12.228  64.764  1.00  0.00    -0.328 C  
HETATM    2  C   UNL     1     -11.398  13.292  64.146  1.00  0.00    -0.424 C  
HETATM    3  C   UNL     1     -12.309  12.599  63.113  1.00  0.00    -0.291 C  
HETATM    4  C   UNL     1     -12.270  14.031  65.179  1.00  0.00    -0.436 C  
ENDROOT
BRANCH   4   5
HETATM    5  N   UNL     1     -11.549  14.775  66.297  1.00  0.00    -0.336 N  
BRANCH   5   6
HETATM    6  C   UNL     1     -10.764  13.815  67.224  1.00  0.00    -0.283 C  
BRANCH   6   7
HETATM    7  C   UNL     1     -11.613  12.943  68.214  1.00  0.00    -0.335 C  
HETATM    8  H   UNL     1     -12.911  11.491  68.050  1.00  0.00     0.000 HD 
HETATM    9  O   UNL     1     -12.397  12.019  67.451  1.00  0.00    -0.340 OA 
BRANCH   7  10
HETATM   10  C   UNL     1     -10.746  12.216  69.308  1.00  0.00     0.020 C  
BRANCH  10  11
HETATM   11  N   UNL     1     -11.548  11.371  70.216  1.00  0.00    -0.475 N  
HETATM   12  O   UNL     1     -12.547  13.133  71.288  1.00  0.00    -0.357 OA 
HETATM   13  H   UNL     1     -11.479  10.355  70.147  1.00  0.00     0.000 HD 
HETATM   14  C   UNL     1     -12.384  11.930  71.150  1.00  0.00    -0.198 C  
BRANCH  14  15
HETATM   15  O   UNL     1     -12.988  10.981  71.921  1.00  0.00    -0.457 OA 
BRANCH  15  16
HETATM   16  C   UNL     1     -12.850   9.642  71.408  1.00  0.00    -0.379 C  
HETATM   17  C   UNL     1     -11.717   8.892  72.078  1.00  0.00    -0.438 C  
HETATM   18  O   UNL     1     -13.552   7.418  71.975  1.00  0.00    -0.237 OA 
HETATM   19  C   UNL     1     -12.124   7.448  71.884  1.00  0.00    -0.307 C  
HETATM   20  C   UNL     1     -14.046   8.743  71.716  1.00  0.00    -0.401 C  
ENDBRANCH  15  16
ENDBRANCH  14  15
ENDBRANCH  10  11
BRANCH  10  21
HETATM   21  C   UNL     1      -9.466  11.491  68.813  1.00  0.00    -0.099 C  
BRANCH  21  22
HETATM   22  C   UNL     1      -9.491  10.010  68.491  1.00  0.00    -0.150 A  
HETATM   23  C   UNL     1      -9.239   7.702  69.223  1.00  0.00    -0.145 A  
HETATM   24  C   UNL     1      -9.050   9.072  69.435  1.00  0.00    -0.146 A  
HETATM   25  C   UNL     1      -9.857   7.248  68.060  1.00  0.00    -0.167 A  
HETATM   26  C   UNL     1     -10.098   9.536  67.316  1.00  0.00    -0.272 A  
HETATM   27  C   UNL     1     -10.279   8.165  67.102  1.00  0.00    -0.366 A  
ENDBRANCH  21  22
ENDBRANCH  10  21
ENDBRANCH   7  10
ENDBRANCH   6   7
ENDBRANCH   5   6
BRANCH   5  28
HETATM   28  S   UNL     1     -10.485  16.009  65.629  1.00  0.00    -0.392 S  
HETATM   29  O   UNL     1      -9.149  15.473  65.512  1.00  0.00    -0.105 OA 
HETATM   30  O   UNL     1     -11.176  16.536  64.467  1.00  0.00    -0.775 OA 
BRANCH  28  31
HETATM   31  C   UNL     1     -10.408  17.296  66.844  1.00  0.00    -0.310 A  
HETATM   32  N   UNL     1     -10.161  20.362  69.710  1.00  0.00    -0.253 NA 
HETATM   33  H2  UNL     1      -9.201  20.339  70.050  1.00  0.00     0.000 HD 
HETATM   34  H1  UNL     1     -10.390  21.324  69.460  1.00  0.00     0.000 HD 
HETATM   35  C   UNL     1     -10.062  16.990  68.161  1.00  0.00    -0.308 A  
HETATM   36  C   UNL     1     -10.009  18.014  69.116  1.00  0.00    -0.201 A  
HETATM   37  C   UNL     1     -10.637  18.627  66.470  1.00  0.00    -0.409 A  
HETATM   38  C   UNL     1     -10.573  19.640  67.432  1.00  0.00    -0.589 A  
HETATM   39  C   UNL     1     -10.323  19.334  68.774  1.00  0.00    -0.170 A  
ENDBRANCH  28  31
ENDBRANCH   5  28
ENDBRANCH   4   5
TORSDOF 11
ENDMDL
MODEL      127
REMARK 921   NORMALIZED FREE ENERGY PREDICTED BY IDOCK:   -5.79 KCAL/MOL
REMARK 922        TOTAL FREE ENERGY PREDICTED BY IDOCK:  -11.29 KCAL/MOL
REMARK 923 INTER-LIGAND FREE ENERGY PREDICTED BY IDOCK:   -9.07 KCAL/MOL
REMARK 924 INTRA-LIGAND FREE ENERGY PREDICTED BY IDOCK:   -2.22 KCAL/MOL
REMARK 927      BINDING AFFINITY PREDICTED BY RF-SCORE:    0.00 PKD
ROOT
HETATM    1  C   UNL     1      -9.977  19.576  69.308  1.00  0.00    -0.344 C  
HETATM    2  C   UNL     1     -10.226  19.511  67.800  1.00  0.00    -0.550 C  
HETATM    3  C   UNL     1     -10.012  20.924  67.221  1.00  0.00    -0.195 C  
HETATM    4  C   UNL     1      -9.304  18.516  67.068  1.00  0.00    -0.288 C  
ENDROOT
BRANCH   4   5
HETATM    5  N   UNL     1      -9.362  17.058  67.509  1.00  0.00    -0.231 N  
BRANCH   5   6
HETATM    6  C   UNL     1     -10.755  16.429  67.262  1.00  0.00    -0.257 C  
BRANCH   6   7
HETATM    7  C   UNL     1     -11.145  15.207  68.166  1.00  0.00    -0.304 C  
HETATM    8  H   UNL     1     -12.212  14.937  69.781  1.00  0.00     0.000 HD 
HETATM    9  O   UNL     1     -11.976  15.677  69.233  1.00  0.00    -0.365 OA 
BRANCH   7  10
HETATM   10  C   UNL     1     -11.818  14.029  67.369  1.00  0.00    -0.409 C  
BRANCH  10  11
HETATM   11  N   UNL     1     -11.132  13.721  66.098  1.00  0.00    -0.295 N  
HETATM   12  O   UNL     1     -13.002  12.889  65.066  1.00  0.00    -0.777 OA 
HETATM   13  H   UNL     1     -10.138  13.932  66.001  1.00  0.00     0.000 HD 
HETATM   14  C   UNL     1     -11.809  13.155  65.047  1.00  0.00    -0.354 C  
BRANCH  14  15
HETATM   15  O   UNL     1     -10.983  12.901  63.992  1.00  0.00    -0.376 OA 
BRANCH  15  16
HETATM   16  C   UNL     1     -10.752  11.499  63.758  1.00  0.00    -0.408 C  
HETATM   17  C   UNL     1      -9.609  11.266  62.791  1.00  0.00    -0.327 C  
HETATM   18  O   UNL     1      -9.322   9.752  64.573  1.00  0.00    -0.261 OA 
HETATM   19  C   UNL     1      -9.153   9.871  63.157  1.00  0.00    -0.266 C  
HETATM   20  C   UNL     1     -10.272  10.744  64.996  1.00  0.00    -0.306 C  
ENDBRANCH  15  16
ENDBRANCH  14  15
ENDBRANCH  10  11
BRANCH  10  21
HETATM   21  C   UNL     1     -12.156  12.747  68.177  1.00  0.00    -0.158 C  
BRANCH  21  22
HETATM   22  C   UNL     1     -11.062  11.785  68.593  1.00  0.00    -0.289 A  
HETATM   23  C   UNL     1     -10.306   9.498  68.948  1.00  0.00    -0.225 A  
HETATM   24  C   UNL     1     -11.339  10.419  68.746  1.00  0.00    -0.275 A  
HETATM   25  C   UNL     1      -8.982   9.928  69.016  1.00  0.00    -0.160 A  
HETATM   26  C   UNL     1      -9.724  12.205  68.680  1.00  0.00    -0.090 A  
HETATM   27  C   UNL     1      -8.692  11.283  68.890  1.00  0.00    -0.053 A  
ENDBRANCH  21  22
ENDBRANCH  10  21
ENDBRANCH   7  10
ENDBRANCH   6   7
ENDBRANCH   5   6
BRANCH   5  28
HETATM   28  S   UNL     1      -8.102  16.123  66.709  1.00  0.00    -0.291 S  
HETATM   29  O   UNL     1      -8.713  15.101  65.892  1.00  0.00     0.015 OA 
HETATM   30  O   UNL     1      -7.200  17.099  66.125  1.00  0.00    -0.277 OA 
BRANCH  28  31
HETATM   31  C   UNL     1      -7.227  15.281  67.999  1.00  0.00    -0.128 A  
HETATM   32  N   UNL     1      -5.203  13.240  71.068  1.00  0.00    -0.149 NA 
HETATM   33  H2  UNL     1      -5.928  12.940  71.718  1.00  0.00     0.000 HD 
HETATM   34  H1  UNL     1      -4.611  12.438  70.854  1.00  0.00     0.000 HD 
HETATM   35  C   UNL     1      -7.321  15.736  69.315  1.00  0.00    -0.216 A  
HETATM   36  C   UNL     1      -6.621  15.066  70.329  1.00  0.00    -0.068 A  
HETATM   37  C   UNL     1      -6.488  14.126  67.707  1.00  0.00    -0.181 A  
HETATM   38  C   UNL     1      -5.801  13.464  68.729  1.00  0.00    -0.079 A  
HETATM   39  C   UNL     1      -5.809  13.964  70.035  1.00  0.00    -0.135 A  
ENDBRANCH  28  31
ENDBRANCH   5  28
ENDBRANCH   4   5
TORSDOF 11
ENDMDL
MODEL      128
REMARK 921   NORMALIZED FREE ENERGY PREDICTED BY IDOCK:   -5.79 KCAL/MOL
REMARK 922        TOTAL FREE ENERGY PREDICTED BY IDOCK:  -11.29 KCAL/MOL
REMARK 923 INTER-LIGAND FREE ENERGY PREDICTED BY IDOCK:   -9.95 KCAL/MOL
REMARK 924 INTRA-LIGAND FREE ENERGY PREDICTED BY IDOCK:   -1.34 KCAL/MOL
REMARK 927      BINDING AFFINITY PREDICTED BY RF-SCORE:    0.00 PKD
ROOT
HETATM    1  C   UNL     1     -12.401  13.774  65.290  1.00  0.00    -0.491 C  
HETATM    2  C   UNL     1     -11.089  12.987  65.295  1.00  0.00    -0.311 C  
HETATM    3  C   UNL     1     -10.672  12.747  63.830  1.00  0.00    -0.443 C  
HETATM    4  C   UNL     1      -9.945  13.705  66.038  1.00  0.00    -0.302 C  
ENDROOT
BRANCH   4   5
HETATM    5  N   UNL     1     -10.172  14.043  67.507  1.00  0.00    -0.243 N  
BRANCH   5   6
HETATM    6  C   UNL     1     -10.312  12.773  68.383  1.00  0.00    -0.243 C  
BRANCH   6   7
HETATM    7  C   UNL     1      -9.342  11.585  68.058  1.00  0.00    -0.175 C  
HETATM    8  H   UNL     1      -7.538  11.056  68.594  1.00  0.00     0.000 HD 
HETATM    9  O   UNL     1      -8.126  11.776  68.790  1.00  0.00    -0.129 OA 
BRANCH   7  10
HETATM   10  C   UNL     1      -9.974  10.169  68.326  1.00  0.00    -0.148 C  
BRANCH  10  11
HETATM   11  N   UNL     1     -10.819  10.131  69.537  1.00  0.00    -0.239 N  
HETATM   12  O   UNL     1      -9.164   9.321  70.901  1.00  0.00    -0.246 OA 
HETATM   13  H   UNL     1     -11.790  10.439  69.481  1.00  0.00     0.000 HD 
HETATM   14  C   UNL     1     -10.318   9.687  70.736  1.00  0.00    -0.286 C  
BRANCH  14  15
HETATM   15  O   UNL     1     -11.272   9.680  71.710  1.00  0.00    -0.323 OA 
BRANCH  15  16
HETATM   16  C   UNL     1     -11.730   8.361  72.066  1.00  0.00    -0.352 C  
HETATM   17  C   UNL     1     -11.624   7.393  70.905  1.00  0.00    -0.318 C  
HETATM   18  O   UNL     1     -10.804   6.276  72.811  1.00  0.00    -0.230 OA 
HETATM   19  C   UNL     1     -11.543   6.054  71.606  1.00  0.00    -0.199 C  
HETATM   20  C   UNL     1     -10.866   7.678  73.123  1.00  0.00    -0.382 C  
ENDBRANCH  15  16
ENDBRANCH  14  15
ENDBRANCH  10  11
BRANCH  10  21
HETATM   21  C   UNL     1     -10.653   9.471  67.117  1.00  0.00    -0.295 C  
BRANCH  21  22
HETATM   22  C   UNL     1     -10.216   8.088  66.677  1.00  0.00    -0.315 A  
HETATM   23  C   UNL     1      -8.478   6.612  65.824  1.00  0.00    -0.150 A  
HETATM   24  C   UNL     1      -8.969   7.899  66.066  1.00  0.00    -0.195 A  
HETATM   25  C   UNL     1      -9.232   5.494  66.175  1.00  0.00    -0.166 A  
HETATM   26  C   UNL     1     -10.971   6.951  67.010  1.00  0.00    -0.404 A  
HETATM   27  C   UNL     1     -10.482   5.664  66.761  1.00  0.00    -0.353 A  
ENDBRANCH  21  22
ENDBRANCH  10  21
ENDBRANCH   7  10
ENDBRANCH   6   7
ENDBRANCH   5   6
BRANCH   5  28
HETATM   28  S   UNL     1      -8.879  15.077  68.108  1.00  0.00    -0.172 S  
HETATM   29  O   UNL     1      -8.956  15.147  69.548  1.00  0.00    -0.209 OA 
HETATM   30  O   UNL     1      -7.670  14.615  67.451  1.00  0.00    -0.182 OA 
BRANCH  28  31
HETATM   31  C   UNL     1      -9.236  16.704  67.503  1.00  0.00    -0.207 A  
HETATM   32  N   UNL     1     -10.056  20.590  66.125  1.00  0.00    -0.515 NA 
HETATM   33  H2  UNL     1     -10.267  21.135  66.960  1.00  0.00     0.000 HD 
HETATM   34  H1  UNL     1      -9.367  21.100  65.573  1.00  0.00     0.000 HD 
HETATM   35  C   UNL     1     -10.481  17.282  67.755  1.00  0.00    -0.371 A  
HETATM   36  C   UNL     1     -10.756  18.567  67.269  1.00  0.00    -0.417 A  
HETATM   37  C   UNL     1      -8.250  17.431  66.823  1.00  0.00    -0.279 A  
HETATM   38  C   UNL     1      -8.536  18.715  66.350  1.00  0.00    -0.286 A  
HETATM   39  C   UNL     1      -9.810  19.268  66.511  1.00  0.00    -0.372 A  
ENDBRANCH  28  31
ENDBRANCH   5  28
ENDBRANCH   4   5
TORSDOF 11
ENDMDL
MODEL      129
REMARK 921   NORMALIZED FREE ENERGY PREDICTED BY IDOCK:   -5.79 KCAL/MOL
REMARK 922        TOTAL FREE ENERGY PREDICTED BY IDOCK:  -11.28 KCAL/MOL
REMARK 923 INTER-LIGAND FREE ENERGY PREDICTED BY IDOCK:   -9.17 KCAL/MOL
REMARK 924 INTRA-LIGAND FREE ENERGY PREDICTED BY IDOCK:   -2.11 KCAL/MOL
REMARK 927      BINDING AFFINITY PREDICTED BY RF-SCORE:    0.00 PKD
ROOT
HETATM    1  C   UNL     1      -7.529   3.288  68.205  1.00  0.00    -0.053 C  
HETATM    2  C   UNL     1      -8.389   3.796  67.047  1.00  0.00    -0.099 C  
HETATM    3  C   UNL     1      -8.811   2.580  66.198  1.00  0.00    -0.132 C  
HETATM    4  C   UNL     1      -9.647   4.560  67.504  1.00  0.00    -0.172 C  
ENDROOT
BRANCH   4   5
HETATM    5  N   UNL     1      -9.436   5.796  68.371  1.00  0.00    -0.120 N  
BRANCH   5   6
HETATM    6  C   UNL     1      -9.824   7.099  67.630  1.00  0.00    -0.147 C  
BRANCH   6   7
HETATM    7  C   UNL     1      -8.964   8.372  67.950  1.00  0.00    -0.137 C  
HETATM    8  H   UNL     1      -7.342   9.189  67.230  1.00  0.00     0.000 HD 
HETATM    9  O   UNL     1      -7.862   8.419  67.037  1.00  0.00    -0.094 OA 
BRANCH   7  10
HETATM   10  C   UNL     1      -9.796   9.708  67.938  1.00  0.00    -0.154 C  
BRANCH  10  11
HETATM   11  N   UNL     1     -10.105  10.187  66.576  1.00  0.00    -0.225 N  
HETATM   12  O   UNL     1      -8.469  11.793  66.561  1.00  0.00    -0.179 OA 
HETATM   13  H   UNL     1     -10.855   9.744  66.046  1.00  0.00     0.000 HD 
HETATM   14  C   UNL     1      -9.397  11.220  66.011  1.00  0.00    -0.214 C  
BRANCH  14  15
HETATM   15  O   UNL     1      -9.875  11.543  64.775  1.00  0.00    -0.242 OA 
BRANCH  15  16
HETATM   16  C   UNL     1     -11.116  12.274  64.804  1.00  0.00    -0.311 C  
HETATM   17  C   UNL     1     -10.894  13.758  65.011  1.00  0.00    -0.377 C  
HETATM   18  O   UNL     1     -12.496  13.533  63.298  1.00  0.00    -0.763 OA 
HETATM   19  C   UNL     1     -12.147  14.359  64.413  1.00  0.00    -0.470 C  
HETATM   20  C   UNL     1     -11.869  12.252  63.476  1.00  0.00    -0.514 C  
ENDBRANCH  15  16
ENDBRANCH  14  15
ENDBRANCH  10  11
BRANCH  10  21
HETATM   21  C   UNL     1     -11.034   9.764  68.872  1.00  0.00    -0.183 C  
BRANCH  21  22
HETATM   22  C   UNL     1     -11.406  11.048  69.587  1.00  0.00    -0.363 A  
HETATM   23  C   UNL     1     -11.717  13.462  69.534  1.00  0.00    -0.385 A  
HETATM   24  C   UNL     1     -11.211  12.289  68.965  1.00  0.00    -0.319 A  
HETATM   25  C   UNL     1     -12.412  13.416  70.741  1.00  0.00    -0.418 A  
HETATM   26  C   UNL     1     -12.095  11.020  70.812  1.00  0.00    -0.467 A  
HETATM   27  C   UNL     1     -12.594  12.195  71.384  1.00  0.00    -0.314 A  
ENDBRANCH  21  22
ENDBRANCH  10  21
ENDBRANCH   7  10
ENDBRANCH   6   7
ENDBRANCH   5   6
BRANCH   5  28
HETATM   28  S   UNL     1     -10.326   5.647  69.883  1.00  0.00    -0.302 S  
HETATM   29  O   UNL     1     -11.616   6.281  69.740  1.00  0.00    -0.436 OA 
HETATM   30  O   UNL     1     -10.224   4.250  70.263  1.00  0.00    -0.138 OA 
BRANCH  28  31
HETATM   31  C   UNL     1      -9.425   6.600  71.074  1.00  0.00    -0.164 A  
HETATM   32  N   UNL     1      -7.282   8.911  73.857  1.00  0.00    -0.385 NA 
HETATM   33  H2  UNL     1      -6.627   9.462  73.304  1.00  0.00     0.000 HD 
HETATM   34  H1  UNL     1      -7.771   9.538  74.496  1.00  0.00     0.000 HD 
HETATM   35  C   UNL     1      -8.038   6.469  71.164  1.00  0.00    -0.116 A  
HETATM   36  C   UNL     1      -7.334   7.223  72.113  1.00  0.00    -0.079 A  
HETATM   37  C   UNL     1     -10.097   7.525  71.885  1.00  0.00    -0.205 A  
HETATM   38  C   UNL     1      -9.381   8.276  72.823  1.00  0.00    -0.338 A  
HETATM   39  C   UNL     1      -8.005   8.085  72.989  1.00  0.00    -0.155 A  
ENDBRANCH  28  31
ENDBRANCH   5  28
ENDBRANCH   4   5
TORSDOF 11
ENDMDL
MODEL      130
REMARK 921   NORMALIZED FREE ENERGY PREDICTED BY IDOCK:   -5.79 KCAL/MOL
REMARK 922        TOTAL FREE ENERGY PREDICTED BY IDOCK:  -11.28 KCAL/MOL
REMARK 923 INTER-LIGAND FREE ENERGY PREDICTED BY IDOCK:   -9.21 KCAL/MOL
REMARK 924 INTRA-LIGAND FREE ENERGY PREDICTED BY IDOCK:   -2.06 KCAL/MOL
REMARK 927      BINDING AFFINITY PREDICTED BY RF-SCORE:    0.00 PKD
ROOT
HETATM    1  C   UNL     1      -8.985   9.683  64.072  1.00  0.00    -0.261 C  
HETATM    2  C   UNL     1      -8.724  10.123  65.513  1.00  0.00    -0.173 C  
HETATM    3  C   UNL     1      -7.210  10.368  65.669  1.00  0.00    -0.146 C  
HETATM    4  C   UNL     1      -9.491  11.399  65.914  1.00  0.00    -0.228 C  
ENDROOT
BRANCH   4   5
HETATM    5  N   UNL     1     -11.011  11.359  65.816  1.00  0.00    -0.237 N  
BRANCH   5   6
HETATM    6  C   UNL     1     -11.686  11.368  67.209  1.00  0.00    -0.039 C  
BRANCH   6   7
HETATM    7  C   UNL     1     -10.745  11.154  68.447  1.00  0.00    -0.198 C  
HETATM    8  H   UNL     1     -10.329  12.139  70.083  1.00  0.00     0.000 HD 
HETATM    9  O   UNL     1     -10.899  12.268  69.333  1.00  0.00    -0.109 OA 
BRANCH   7  10
HETATM   10  C   UNL     1     -10.978   9.781  69.180  1.00  0.00    -0.175 C  
BRANCH  10  11
HETATM   11  N   UNL     1      -9.878   8.819  68.971  1.00  0.00    -0.176 N  
HETATM   12  O   UNL     1     -10.880   7.762  67.200  1.00  0.00    -0.313 OA 
HETATM   13  H   UNL     1      -9.054   8.859  69.572  1.00  0.00     0.000 HD 
HETATM   14  C   UNL     1      -9.946   7.870  67.980  1.00  0.00    -0.177 C  
BRANCH  14  15
HETATM   15  O   UNL     1      -8.857   7.049  67.991  1.00  0.00    -0.125 OA 
BRANCH  15  16
HETATM   16  C   UNL     1      -8.550   6.508  69.291  1.00  0.00    -0.127 C  
HETATM   17  C   UNL     1      -9.434   5.327  69.636  1.00  0.00    -0.196 C  
HETATM   18  O   UNL     1      -7.233   4.739  70.237  1.00  0.00    -0.048 OA 
HETATM   19  C   UNL     1      -8.595   4.578  70.648  1.00  0.00    -0.094 C  
HETATM   20  C   UNL     1      -7.155   5.893  69.384  1.00  0.00    -0.065 C  
ENDBRANCH  15  16
ENDBRANCH  14  15
ENDBRANCH  10  11
BRANCH  10  21
HETATM   21  C   UNL     1     -11.418   9.853  70.666  1.00  0.00    -0.411 C  
BRANCH  21  22
HETATM   22  C   UNL     1     -11.392   8.615  71.541  1.00  0.00    -0.358 A  
HETATM   23  C   UNL     1     -12.157   6.346  71.985  1.00  0.00    -0.353 A  
HETATM   24  C   UNL     1     -12.291   7.563  71.309  1.00  0.00    -0.356 A  
HETATM   25  C   UNL     1     -11.135   6.165  72.914  1.00  0.00    -0.281 A  
HETATM   26  C   UNL     1     -10.376   8.422  72.492  1.00  0.00    -0.371 A  
HETATM   27  C   UNL     1     -10.249   7.206  73.173  1.00  0.00    -0.317 A  
ENDBRANCH  21  22
ENDBRANCH  10  21
ENDBRANCH   7  10
ENDBRANCH   6   7
ENDBRANCH   5   6
BRANCH   5  28
HETATM   28  S   UNL     1     -11.599  12.693  64.827  1.00  0.00    -0.350 S  
HETATM   29  O   UNL     1     -10.869  12.720  63.581  1.00  0.00    -0.412 OA 
HETATM   30  O   UNL     1     -13.046  12.581  64.837  1.00  0.00    -0.833 OA 
BRANCH  28  31
HETATM   31  C   UNL     1     -11.165  14.173  65.698  1.00  0.00    -0.308 A  
HETATM   32  N   UNL     1     -10.186  17.717  67.737  1.00  0.00    -0.344 NA 
HETATM   33  H2  UNL     1     -10.442  18.474  67.104  1.00  0.00     0.000 HD 
HETATM   34  H1  UNL     1     -10.587  17.916  68.653  1.00  0.00     0.000 HD 
HETATM   35  C   UNL     1     -10.242  15.062  65.143  1.00  0.00    -0.399 A  
HETATM   36  C   UNL     1      -9.901  16.228  65.842  1.00  0.00    -0.365 A  
HETATM   37  C   UNL     1     -11.789  14.480  66.915  1.00  0.00    -0.399 A  
HETATM   38  C   UNL     1     -11.445  15.650  67.598  1.00  0.00    -0.167 A  
HETATM   39  C   UNL     1     -10.452  16.500  67.100  1.00  0.00    -0.300 A  
ENDBRANCH  28  31
ENDBRANCH   5  28
ENDBRANCH   4   5
TORSDOF 11
ENDMDL
MODEL      131
REMARK 921   NORMALIZED FREE ENERGY PREDICTED BY IDOCK:   -5.78 KCAL/MOL
REMARK 922        TOTAL FREE ENERGY PREDICTED BY IDOCK:  -11.27 KCAL/MOL
REMARK 923 INTER-LIGAND FREE ENERGY PREDICTED BY IDOCK:   -9.41 KCAL/MOL
REMARK 924 INTRA-LIGAND FREE ENERGY PREDICTED BY IDOCK:   -1.86 KCAL/MOL
REMARK 927      BINDING AFFINITY PREDICTED BY RF-SCORE:    0.00 PKD
ROOT
HETATM    1  C   UNL     1     -10.468   8.018  66.867  1.00  0.00    -0.387 C  
HETATM    2  C   UNL     1      -9.373   8.959  66.362  1.00  0.00    -0.262 C  
HETATM    3  C   UNL     1      -8.480   8.169  65.384  1.00  0.00    -0.164 C  
HETATM    4  C   UNL     1      -9.920  10.212  65.651  1.00  0.00    -0.279 C  
ENDROOT
BRANCH   4   5
HETATM    5  N   UNL     1     -10.840  11.124  66.455  1.00  0.00    -0.256 N  
BRANCH   5   6
HETATM    6  C   UNL     1     -10.228  11.510  67.824  1.00  0.00    -0.182 C  
BRANCH   6   7
HETATM    7  C   UNL     1     -11.084  11.176  69.096  1.00  0.00    -0.248 C  
HETATM    8  H   UNL     1     -12.976  10.873  69.477  1.00  0.00     0.000 HD 
HETATM    9  O   UNL     1     -12.458  11.074  68.706  1.00  0.00    -0.468 OA 
BRANCH   7  10
HETATM   10  C   UNL     1     -10.592   9.893  69.862  1.00  0.00    -0.273 C  
BRANCH  10  11
HETATM   11  N   UNL     1      -9.291  10.083  70.536  1.00  0.00    -0.285 N  
HETATM   12  O   UNL     1      -8.295   8.273  69.544  1.00  0.00    -0.118 OA 
HETATM   13  H   UNL     1      -9.169  10.867  71.178  1.00  0.00     0.000 HD 
HETATM   14  C   UNL     1      -8.246   9.222  70.312  1.00  0.00    -0.172 C  
BRANCH  14  15
HETATM   15  O   UNL     1      -7.158   9.541  71.070  1.00  0.00    -0.250 OA 
BRANCH  15  16
HETATM   16  C   UNL     1      -6.648   8.440  71.846  1.00  0.00    -0.072 C  
HETATM   17  C   UNL     1      -5.291   8.749  72.445  1.00  0.00    -0.055 C  
HETATM   18  O   UNL     1      -6.577   7.738  74.141  1.00  0.00    -0.091 OA 
HETATM   19  C   UNL     1      -5.240   7.816  73.634  1.00  0.00    -0.045 C  
HETATM   20  C   UNL     1      -7.477   8.134  73.092  1.00  0.00    -0.130 C  
ENDBRANCH  15  16
ENDBRANCH  14  15
ENDBRANCH  10  11
BRANCH  10  21
HETATM   21  C   UNL     1     -11.629   9.191  70.780  1.00  0.00    -0.329 C  
BRANCH  21  22
HETATM   22  C   UNL     1     -11.355   7.810  71.341  1.00  0.00    -0.281 A  
HETATM   23  C   UNL     1     -10.685   5.497  70.981  1.00  0.00    -0.275 A  
HETATM   24  C   UNL     1     -11.118   6.729  70.480  1.00  0.00    -0.346 A  
HETATM   25  C   UNL     1     -10.496   5.321  72.351  1.00  0.00    -0.268 A  
HETATM   26  C   UNL     1     -11.176   7.612  72.720  1.00  0.00    -0.431 A  
HETATM   27  C   UNL     1     -10.750   6.377  73.221  1.00  0.00    -0.288 A  
ENDBRANCH  21  22
ENDBRANCH  10  21
ENDBRANCH   7  10
ENDBRANCH   6   7
ENDBRANCH   5   6
BRANCH   5  28
HETATM   28  S   UNL     1     -11.248  12.562  65.524  1.00  0.00    -0.327 S  
HETATM   29  O   UNL     1     -10.314  12.703  64.432  1.00  0.00    -0.340 OA 
HETATM   30  O   UNL     1     -12.675  12.476  65.272  1.00  0.00    -0.654 OA 
BRANCH  28  31
HETATM   31  C   UNL     1     -10.971  13.938  66.605  1.00  0.00    -0.301 A  
HETATM   32  N   UNL     1     -10.343  17.242  69.128  1.00  0.00    -0.328 NA 
HETATM   33  H2  UNL     1     -10.194  18.035  68.504  1.00  0.00     0.000 HD 
HETATM   34  H1  UNL     1     -11.044  17.505  69.821  1.00  0.00     0.000 HD 
HETATM   35  C   UNL     1      -9.772  14.649  66.533  1.00  0.00    -0.297 A  
HETATM   36  C   UNL     1      -9.560  15.733  67.396  1.00  0.00    -0.217 A  
HETATM   37  C   UNL     1     -11.977  14.346  67.492  1.00  0.00    -0.389 A  
HETATM   38  C   UNL     1     -11.754  15.434  68.342  1.00  0.00    -0.332 A  
HETATM   39  C   UNL     1     -10.521  16.095  68.347  1.00  0.00    -0.274 A  
ENDBRANCH  28  31
ENDBRANCH   5  28
ENDBRANCH   4   5
TORSDOF 11
ENDMDL
MODEL      132
REMARK 921   NORMALIZED FREE ENERGY PREDICTED BY IDOCK:   -5.78 KCAL/MOL
REMARK 922        TOTAL FREE ENERGY PREDICTED BY IDOCK:  -11.27 KCAL/MOL
REMARK 923 INTER-LIGAND FREE ENERGY PREDICTED BY IDOCK:   -9.75 KCAL/MOL
REMARK 924 INTRA-LIGAND FREE ENERGY PREDICTED BY IDOCK:   -1.51 KCAL/MOL
REMARK 927      BINDING AFFINITY PREDICTED BY RF-SCORE:    0.00 PKD
ROOT
HETATM    1  C   UNL     1      -6.424   9.950  70.401  1.00  0.00    -0.115 C  
HETATM    2  C   UNL     1      -6.950  10.179  68.983  1.00  0.00    -0.058 C  
HETATM    3  C   UNL     1      -6.054   9.388  68.009  1.00  0.00    -0.052 C  
HETATM    4  C   UNL     1      -8.416   9.743  68.795  1.00  0.00    -0.122 C  
ENDROOT
BRANCH   4   5
HETATM    5  N   UNL     1      -9.462  10.408  69.683  1.00  0.00    -0.148 N  
BRANCH   5   6
HETATM    6  C   UNL     1     -10.533  11.162  68.857  1.00  0.00    -0.207 C  
BRANCH   6   7
HETATM    7  C   UNL     1     -10.055  12.445  68.090  1.00  0.00    -0.224 C  
HETATM    8  H   UNL     1     -10.032  13.043  66.230  1.00  0.00     0.000 HD 
HETATM    9  O   UNL     1     -10.321  12.266  66.695  1.00  0.00    -0.213 OA 
BRANCH   7  10
HETATM   10  C   UNL     1     -10.685  13.776  68.645  1.00  0.00    -0.256 C  
BRANCH  10  11
HETATM   11  N   UNL     1     -10.605  14.898  67.688  1.00  0.00    -0.260 N  
HETATM   12  O   UNL     1      -8.528  15.586  68.371  1.00  0.00    -0.154 OA 
HETATM   13  H   UNL     1     -11.378  15.063  67.042  1.00  0.00     0.000 HD 
HETATM   14  C   UNL     1      -9.507  15.722  67.653  1.00  0.00    -0.218 C  
BRANCH  14  15
HETATM   15  O   UNL     1      -9.656  16.724  66.740  1.00  0.00    -0.231 OA 
BRANCH  15  16
HETATM   16  C   UNL     1      -9.325  18.030  67.251  1.00  0.00    -0.256 C  
HETATM   17  C   UNL     1      -9.576  19.119  66.228  1.00  0.00    -0.386 C  
HETATM   18  O   UNL     1     -10.435  19.892  68.281  1.00  0.00    -0.426 OA 
HETATM   19  C   UNL     1      -9.770  20.342  67.097  1.00  0.00    -0.452 C  
HETATM   20  C   UNL     1     -10.215  18.477  68.409  1.00  0.00    -0.372 C  
ENDBRANCH  15  16
ENDBRANCH  14  15
ENDBRANCH  10  11
BRANCH  10  21
HETATM   21  C   UNL     1     -12.089  13.662  69.296  1.00  0.00    -0.360 C  
BRANCH  21  22
HETATM   22  C   UNL     1     -12.393  14.362  70.606  1.00  0.00    -0.422 A  
HETATM   23  C   UNL     1     -13.378  14.307  72.832  1.00  0.00    -0.561 A  
HETATM   24  C   UNL     1     -13.237  13.763  71.552  1.00  0.00    -0.417 A  
HETATM   25  C   UNL     1     -12.690  15.468  73.183  1.00  0.00    -0.591 A  
HETATM   26  C   UNL     1     -11.719  15.540  70.970  1.00  0.00    -0.423 A  
HETATM   27  C   UNL     1     -11.867  16.088  72.249  1.00  0.00    -0.628 A  
ENDBRANCH  21  22
ENDBRANCH  10  21
ENDBRANCH   7  10
ENDBRANCH   6   7
ENDBRANCH   5   6
BRANCH   5  28
HETATM   28  S   UNL     1     -10.212   9.221  70.746  1.00  0.00    -0.305 S  
HETATM   29  O   UNL     1      -9.482   9.169  71.991  1.00  0.00    -0.323 OA 
HETATM   30  O   UNL     1     -11.632   9.521  70.730  1.00  0.00    -0.275 OA 
BRANCH  28  31
HETATM   31  C   UNL     1      -9.981   7.650  69.960  1.00  0.00    -0.190 A  
HETATM   32  N   UNL     1      -9.477   3.893  68.141  1.00  0.00    -0.172 NA 
HETATM   33  H2  UNL     1      -9.539   3.214  68.899  1.00  0.00     0.000 HD 
HETATM   34  H1  UNL     1     -10.098   3.594  67.390  1.00  0.00     0.000 HD 
HETATM   35  C   UNL     1      -8.923   6.826  70.348  1.00  0.00    -0.152 A  
HETATM   36  C   UNL     1      -8.746   5.587  69.718  1.00  0.00    -0.118 A  
HETATM   37  C   UNL     1     -10.894   7.209  68.992  1.00  0.00    -0.172 A  
HETATM   38  C   UNL     1     -10.709   5.967  68.376  1.00  0.00    -0.351 A  
HETATM   39  C   UNL     1      -9.599   5.176  68.687  1.00  0.00    -0.142 A  
ENDBRANCH  28  31
ENDBRANCH   5  28
ENDBRANCH   4   5
TORSDOF 11
ENDMDL
MODEL      133
REMARK 921   NORMALIZED FREE ENERGY PREDICTED BY IDOCK:   -5.77 KCAL/MOL
REMARK 922        TOTAL FREE ENERGY PREDICTED BY IDOCK:  -11.25 KCAL/MOL
REMARK 923 INTER-LIGAND FREE ENERGY PREDICTED BY IDOCK:   -9.45 KCAL/MOL
REMARK 924 INTRA-LIGAND FREE ENERGY PREDICTED BY IDOCK:   -1.80 KCAL/MOL
REMARK 927      BINDING AFFINITY PREDICTED BY RF-SCORE:    0.00 PKD
ROOT
HETATM    1  C   UNL     1      -7.007  11.161  66.292  1.00  0.00    -0.052 C  
HETATM    2  C   UNL     1      -7.623  12.071  67.356  1.00  0.00    -0.151 C  
HETATM    3  C   UNL     1      -6.517  13.008  67.880  1.00  0.00    -0.130 C  
HETATM    4  C   UNL     1      -8.801  12.916  66.833  1.00  0.00    -0.187 C  
ENDROOT
BRANCH   4   5
HETATM    5  N   UNL     1      -9.998  12.166  66.259  1.00  0.00    -0.224 N  
BRANCH   5   6
HETATM    6  C   UNL     1     -10.674  11.254  67.312  1.00  0.00    -0.251 C  
BRANCH   6   7
HETATM    7  C   UNL     1     -10.500   9.707  67.118  1.00  0.00    -0.249 C  
HETATM    8  H   UNL     1      -9.862   8.532  65.693  1.00  0.00     0.000 HD 
HETATM    9  O   UNL     1      -9.967   9.469  65.810  1.00  0.00    -0.300 OA 
BRANCH   7  10
HETATM   10  C   UNL     1      -9.631   9.029  68.241  1.00  0.00    -0.145 C  
BRANCH  10  11
HETATM   11  N   UNL     1     -10.423   8.610  69.414  1.00  0.00    -0.219 N  
HETATM   12  O   UNL     1      -8.902   9.366  70.954  1.00  0.00    -0.212 OA 
HETATM   13  H   UNL     1     -11.328   8.160  69.274  1.00  0.00     0.000 HD 
HETATM   14  C   UNL     1      -9.961   8.816  70.691  1.00  0.00    -0.198 C  
BRANCH  14  15
HETATM   15  O   UNL     1     -10.815   8.309  71.625  1.00  0.00    -0.232 OA 
BRANCH  15  16
HETATM   16  C   UNL     1     -12.203   8.389  71.249  1.00  0.00    -0.277 C  
HETATM   17  C   UNL     1     -12.960   7.125  71.600  1.00  0.00    -0.415 C  
HETATM   18  O   UNL     1     -14.311   8.940  72.257  1.00  0.00    -0.435 OA 
HETATM   19  C   UNL     1     -14.385   7.619  71.710  1.00  0.00    -0.452 C  
HETATM   20  C   UNL     1     -12.986   9.447  72.023  1.00  0.00    -0.423 C  
ENDBRANCH  15  16
ENDBRANCH  14  15
ENDBRANCH  10  11
BRANCH  10  21
HETATM   21  C   UNL     1      -8.639   7.927  67.782  1.00  0.00    -0.128 C  
BRANCH  21  22
HETATM   22  C   UNL     1      -9.090   6.485  67.653  1.00  0.00    -0.112 A  
HETATM   23  C   UNL     1      -9.931   4.668  66.268  1.00  0.00    -0.268 A  
HETATM   24  C   UNL     1      -9.681   6.030  66.466  1.00  0.00    -0.183 A  
HETATM   25  C   UNL     1      -9.608   3.742  67.258  1.00  0.00    -0.213 A  
HETATM   26  C   UNL     1      -8.785   5.541  68.648  1.00  0.00    -0.108 A  
HETATM   27  C   UNL     1      -9.043   4.180  68.451  1.00  0.00    -0.179 A  
ENDBRANCH  21  22
ENDBRANCH  10  21
ENDBRANCH   7  10
ENDBRANCH   6   7
ENDBRANCH   5   6
BRANCH   5  28
HETATM   28  S   UNL     1     -11.160  13.296  65.571  1.00  0.00    -0.285 S  
HETATM   29  O   UNL     1     -10.790  13.587  64.206  1.00  0.00    -0.391 OA 
HETATM   30  O   UNL     1     -12.469  12.752  65.885  1.00  0.00    -0.560 OA 
BRANCH  28  31
HETATM   31  C   UNL     1     -10.968  14.805  66.479  1.00  0.00    -0.325 A  
HETATM   32  N   UNL     1     -10.453  18.366  68.654  1.00  0.00    -0.396 NA 
HETATM   33  H2  UNL     1      -9.915  18.104  69.479  1.00  0.00     0.000 HD 
HETATM   34  H1  UNL     1     -10.007  19.176  68.223  1.00  0.00     0.000 HD 
HETATM   35  C   UNL     1     -11.459  14.900  67.782  1.00  0.00    -0.353 A  
HETATM   36  C   UNL     1     -11.307  16.100  68.491  1.00  0.00    -0.359 A  
HETATM   37  C   UNL     1     -10.274  15.882  65.910  1.00  0.00    -0.373 A  
HETATM   38  C   UNL     1     -10.124  17.070  66.631  1.00  0.00    -0.308 A  
HETATM   39  C   UNL     1     -10.694  17.211  67.900  1.00  0.00    -0.355 A  
ENDBRANCH  28  31
ENDBRANCH   5  28
ENDBRANCH   4   5
TORSDOF 11
ENDMDL
MODEL      134
REMARK 921   NORMALIZED FREE ENERGY PREDICTED BY IDOCK:   -5.74 KCAL/MOL
REMARK 922        TOTAL FREE ENERGY PREDICTED BY IDOCK:  -11.21 KCAL/MOL
REMARK 923 INTER-LIGAND FREE ENERGY PREDICTED BY IDOCK:   -9.36 KCAL/MOL
REMARK 924 INTRA-LIGAND FREE ENERGY PREDICTED BY IDOCK:   -1.84 KCAL/MOL
REMARK 927      BINDING AFFINITY PREDICTED BY RF-SCORE:    0.00 PKD
ROOT
HETATM    1  C   UNL     1      -6.845   3.792  66.329  1.00  0.00    -0.057 C  
HETATM    2  C   UNL     1      -6.839   4.947  65.326  1.00  0.00    -0.060 C  
HETATM    3  C   UNL     1      -6.419   4.383  63.954  1.00  0.00    -0.034 C  
HETATM    4  C   UNL     1      -8.204   5.650  65.192  1.00  0.00    -0.136 C  
ENDROOT
BRANCH   4   5
HETATM    5  N   UNL     1      -8.798   6.267  66.453  1.00  0.00    -0.139 N  
BRANCH   5   6
HETATM    6  C   UNL     1      -8.989   7.798  66.318  1.00  0.00    -0.174 C  
BRANCH   6   7
HETATM    7  C   UNL     1      -9.076   8.615  67.654  1.00  0.00    -0.134 C  
HETATM    8  H   UNL     1      -7.980   8.803  69.261  1.00  0.00     0.000 HD 
HETATM    9  O   UNL     1      -7.927   8.308  68.452  1.00  0.00    -0.115 OA 
BRANCH   7  10
HETATM   10  C   UNL     1      -9.241  10.164  67.431  1.00  0.00    -0.141 C  
BRANCH  10  11
HETATM   11  N   UNL     1     -10.089  10.495  66.267  1.00  0.00    -0.224 N  
HETATM   12  O   UNL     1      -8.330  10.824  64.834  1.00  0.00    -0.131 OA 
HETATM   13  H   UNL     1     -11.104  10.488  66.368  1.00  0.00     0.000 HD 
HETATM   14  C   UNL     1      -9.532  10.812  65.053  1.00  0.00    -0.241 C  
BRANCH  14  15
HETATM   15  O   UNL     1     -10.483  11.138  64.131  1.00  0.00    -0.333 OA 
BRANCH  15  16
HETATM   16  C   UNL     1     -11.374  12.185  64.560  1.00  0.00    -0.334 C  
HETATM   17  C   UNL     1     -10.659  13.512  64.709  1.00  0.00    -0.429 C  
HETATM   18  O   UNL     1     -12.683  13.944  63.584  1.00  0.00    -0.754 OA 
HETATM   19  C   UNL     1     -11.785  14.509  64.545  1.00  0.00    -0.410 C  
HETATM   20  C   UNL     1     -12.455  12.526  63.536  1.00  0.00    -0.459 C  
ENDBRANCH  15  16
ENDBRANCH  14  15
ENDBRANCH  10  11
BRANCH  10  21
HETATM   21  C   UNL     1      -9.604  11.012  68.679  1.00  0.00    -0.198 C  
BRANCH  21  22
HETATM   22  C   UNL     1     -10.680  10.550  69.642  1.00  0.00    -0.302 A  
HETATM   23  C   UNL     1     -11.319   9.274  71.614  1.00  0.00    -0.467 A  
HETATM   24  C   UNL     1     -10.396   9.574  70.607  1.00  0.00    -0.369 A  
HETATM   25  C   UNL     1     -12.545   9.933  71.664  1.00  0.00    -0.519 A  
HETATM   26  C   UNL     1     -11.927  11.195  69.696  1.00  0.00    -0.429 A  
HETATM   27  C   UNL     1     -12.852  10.888  70.700  1.00  0.00    -0.340 A  
ENDBRANCH  21  22
ENDBRANCH  10  21
ENDBRANCH   7  10
ENDBRANCH   6   7
ENDBRANCH   5   6
BRANCH   5  28
HETATM   28  S   UNL     1     -10.319   5.480  66.865  1.00  0.00    -0.286 S  
HETATM   29  O   UNL     1     -11.401   6.424  66.708  1.00  0.00    -0.257 OA 
HETATM   30  O   UNL     1     -10.320   4.223  66.138  1.00  0.00    -0.202 OA 
BRANCH  28  31
HETATM   31  C   UNL     1     -10.222   5.107  68.594  1.00  0.00    -0.122 A  
HETATM   32  N   UNL     1     -10.045   4.181  72.691  1.00  0.00    -0.160 NA 
HETATM   33  H2  UNL     1     -11.014   4.069  72.986  1.00  0.00     0.000 HD 
HETATM   34  H1  UNL     1      -9.514   3.373  73.017  1.00  0.00     0.000 HD 
HETATM   35  C   UNL     1     -10.848   5.940  69.522  1.00  0.00    -0.442 A  
HETATM   36  C   UNL     1     -10.762   5.639  70.888  1.00  0.00    -0.313 A  
HETATM   37  C   UNL     1      -9.566   3.945  69.024  1.00  0.00    -0.209 A  
HETATM   38  C   UNL     1      -9.493   3.654  70.390  1.00  0.00    -0.255 A  
HETATM   39  C   UNL     1     -10.033   4.530  71.336  1.00  0.00    -0.189 A  
ENDBRANCH  28  31
ENDBRANCH   5  28
ENDBRANCH   4   5
TORSDOF 11
ENDMDL
MODEL      135
REMARK 921   NORMALIZED FREE ENERGY PREDICTED BY IDOCK:   -5.72 KCAL/MOL
REMARK 922        TOTAL FREE ENERGY PREDICTED BY IDOCK:  -11.17 KCAL/MOL
REMARK 923 INTER-LIGAND FREE ENERGY PREDICTED BY IDOCK:   -9.20 KCAL/MOL
REMARK 924 INTRA-LIGAND FREE ENERGY PREDICTED BY IDOCK:   -1.96 KCAL/MOL
REMARK 927      BINDING AFFINITY PREDICTED BY RF-SCORE:    0.00 PKD
ROOT
HETATM    1  C   UNL     1      -6.281   7.566  67.553  1.00  0.00    -0.049 C  
HETATM    2  C   UNL     1      -7.736   7.956  67.287  1.00  0.00    -0.105 C  
HETATM    3  C   UNL     1      -8.283   7.030  66.184  1.00  0.00    -0.125 C  
HETATM    4  C   UNL     1      -8.637   7.852  68.533  1.00  0.00    -0.128 C  
ENDROOT
BRANCH   4   5
HETATM    5  N   UNL     1      -8.251   8.691  69.746  1.00  0.00    -0.117 N  
BRANCH   5   6
HETATM    6  C   UNL     1      -9.027  10.030  69.799  1.00  0.00    -0.185 C  
BRANCH   6   7
HETATM    7  C   UNL     1     -10.117  10.255  68.694  1.00  0.00    -0.174 C  
HETATM    8  H   UNL     1     -12.070  10.239  68.621  1.00  0.00     0.000 HD 
HETATM    9  O   UNL     1     -11.410  10.102  69.290  1.00  0.00    -0.217 OA 
BRANCH   7  10
HETATM   10  C   UNL     1      -9.973  11.631  67.944  1.00  0.00    -0.182 C  
BRANCH  10  11
HETATM   11  N   UNL     1     -10.006  12.794  68.855  1.00  0.00    -0.420 N  
HETATM   12  O   UNL     1     -11.959  13.646  68.009  1.00  0.00    -0.360 OA 
HETATM   13  H   UNL     1      -9.264  12.912  69.545  1.00  0.00     0.000 HD 
HETATM   14  C   UNL     1     -11.019  13.718  68.786  1.00  0.00    -0.264 C  
BRANCH  14  15
HETATM   15  O   UNL     1     -10.833  14.738  69.673  1.00  0.00    -0.254 OA 
BRANCH  15  16
HETATM   16  C   UNL     1     -11.964  14.974  70.532  1.00  0.00    -0.308 C  
HETATM   17  C   UNL     1     -12.377  13.725  71.282  1.00  0.00    -0.394 C  
HETATM   18  O   UNL     1     -12.396  15.497  72.835  1.00  0.00    -0.353 OA 
HETATM   19  C   UNL     1     -13.087  14.292  72.492  1.00  0.00    -0.461 C  
HETATM   20  C   UNL     1     -11.672  15.943  71.676  1.00  0.00    -0.485 C  
ENDBRANCH  15  16
ENDBRANCH  14  15
ENDBRANCH  10  11
BRANCH  10  21
HETATM   21  C   UNL     1      -8.829  11.738  66.900  1.00  0.00    -0.191 C  
BRANCH  21  22
HETATM   22  C   UNL     1      -9.077  11.402  65.443  1.00  0.00    -0.115 A  
HETATM   23  C   UNL     1      -8.596  10.014  63.502  1.00  0.00    -0.209 A  
HETATM   24  C   UNL     1      -8.266  10.469  64.783  1.00  0.00    -0.100 A  
HETATM   25  C   UNL     1      -9.733  10.496  62.855  1.00  0.00    -0.304 A  
HETATM   26  C   UNL     1     -10.211  11.890  64.772  1.00  0.00    -0.314 A  
HETATM   27  C   UNL     1     -10.535  11.440  63.487  1.00  0.00    -0.477 A  
ENDBRANCH  21  22
ENDBRANCH  10  21
ENDBRANCH   7  10
ENDBRANCH   6   7
ENDBRANCH   5   6
BRANCH   5  28
HETATM   28  S   UNL     1      -8.486   7.772  71.230  1.00  0.00    -0.123 S  
HETATM   29  O   UNL     1      -8.015   6.421  71.033  1.00  0.00    -0.111 OA 
HETATM   30  O   UNL     1      -7.944   8.599  72.294  1.00  0.00    -0.301 OA 
BRANCH  28  31
HETATM   31  C   UNL     1     -10.238   7.666  71.466  1.00  0.00    -0.184 A  
HETATM   32  N   UNL     1     -14.407   7.450  71.967  1.00  0.00    -0.618 NA 
HETATM   33  H2  UNL     1     -14.771   8.326  71.593  1.00  0.00     0.000 HD 
HETATM   34  H1  UNL     1     -14.938   6.681  71.560  1.00  0.00     0.000 HD 
HETATM   35  C   UNL     1     -10.895   8.624  72.240  1.00  0.00    -0.392 A  
HETATM   36  C   UNL     1     -12.281   8.529  72.425  1.00  0.00    -0.432 A  
HETATM   37  C   UNL     1     -10.972   6.657  70.828  1.00  0.00    -0.318 A  
HETATM   38  C   UNL     1     -12.355   6.578  71.015  1.00  0.00    -0.167 A  
HETATM   39  C   UNL     1     -13.011   7.473  71.866  1.00  0.00    -0.264 A  
ENDBRANCH  28  31
ENDBRANCH   5  28
ENDBRANCH   4   5
TORSDOF 11
ENDMDL
MODEL      136
REMARK 921   NORMALIZED FREE ENERGY PREDICTED BY IDOCK:   -5.70 KCAL/MOL
REMARK 922        TOTAL FREE ENERGY PREDICTED BY IDOCK:  -11.14 KCAL/MOL
REMARK 923 INTER-LIGAND FREE ENERGY PREDICTED BY IDOCK:   -9.22 KCAL/MOL
REMARK 924 INTRA-LIGAND FREE ENERGY PREDICTED BY IDOCK:   -1.92 KCAL/MOL
REMARK 927      BINDING AFFINITY PREDICTED BY RF-SCORE:    0.00 PKD
ROOT
HETATM    1  C   UNL     1      -9.644   8.345  66.126  1.00  0.00    -0.246 C  
HETATM    2  C   UNL     1      -8.990   9.395  65.226  1.00  0.00    -0.250 C  
HETATM    3  C   UNL     1      -8.230   8.656  64.106  1.00  0.00    -0.156 C  
HETATM    4  C   UNL     1      -9.998  10.376  64.595  1.00  0.00    -0.338 C  
ENDROOT
BRANCH   4   5
HETATM    5  N   UNL     1     -10.860  11.198  65.547  1.00  0.00    -0.188 N  
BRANCH   5   6
HETATM    6  C   UNL     1     -10.043  11.761  66.735  1.00  0.00    -0.209 C  
BRANCH   6   7
HETATM    7  C   UNL     1     -10.521  11.355  68.173  1.00  0.00    -0.187 C  
HETATM    8  H   UNL     1     -12.047  10.396  68.928  1.00  0.00     0.000 HD 
HETATM    9  O   UNL     1     -11.758  10.643  68.057  1.00  0.00    -0.495 OA 
BRANCH   7  10
HETATM   10  C   UNL     1      -9.445  10.541  68.983  1.00  0.00    -0.201 C  
BRANCH  10  11
HETATM   11  N   UNL     1      -8.238  11.330  69.300  1.00  0.00    -0.378 N  
HETATM   12  O   UNL     1      -6.819  10.012  68.075  1.00  0.00    -0.067 OA 
HETATM   13  H   UNL     1      -8.321  12.156  69.894  1.00  0.00     0.000 HD 
HETATM   14  C   UNL     1      -7.008  10.970  68.809  1.00  0.00    -0.081 C  
BRANCH  14  15
HETATM   15  O   UNL     1      -6.021  11.795  69.264  1.00  0.00    -0.064 OA 
BRANCH  15  16
HETATM   16  C   UNL     1      -6.403  13.183  69.317  1.00  0.00    -0.106 C  
HETATM   17  C   UNL     1      -5.701  13.922  70.438  1.00  0.00    -0.150 C  
HETATM   18  O   UNL     1      -5.595  15.302  68.531  1.00  0.00    -0.088 OA 
HETATM   19  C   UNL     1      -5.737  15.355  69.955  1.00  0.00    -0.132 C  
HETATM   20  C   UNL     1      -5.967  13.985  68.093  1.00  0.00    -0.126 C  
ENDBRANCH  15  16
ENDBRANCH  14  15
ENDBRANCH  10  11
BRANCH  10  21
HETATM   21  C   UNL     1      -9.959   9.739  70.209  1.00  0.00    -0.309 C  
BRANCH  21  22
HETATM   22  C   UNL     1     -10.067   8.228  70.155  1.00  0.00    -0.191 A  
HETATM   23  C   UNL     1     -11.440   6.220  70.260  1.00  0.00    -0.428 A  
HETATM   24  C   UNL     1     -11.272   7.591  70.482  1.00  0.00    -0.287 A  
HETATM   25  C   UNL     1     -10.402   5.462  69.722  1.00  0.00    -0.375 A  
HETATM   26  C   UNL     1      -9.024   7.447  69.629  1.00  0.00    -0.141 A  
HETATM   27  C   UNL     1      -9.191   6.074  69.414  1.00  0.00    -0.140 A  
ENDBRANCH  21  22
ENDBRANCH  10  21
ENDBRANCH   7  10
ENDBRANCH   6   7
ENDBRANCH   5   6
BRANCH   5  28
HETATM   28  S   UNL     1     -11.673  12.495  64.675  1.00  0.00    -0.380 S  
HETATM   29  O   UNL     1     -11.069  12.645  63.372  1.00  0.00    -0.450 OA 
HETATM   30  O   UNL     1     -13.093  12.228  64.808  1.00  0.00    -0.724 OA 
BRANCH  28  31
HETATM   31  C   UNL     1     -11.316  13.982  65.570  1.00  0.00    -0.313 A  
HETATM   32  N   UNL     1     -10.415  17.479  67.723  1.00  0.00    -0.369 NA 
HETATM   33  H2  UNL     1     -10.037  17.159  68.614  1.00  0.00     0.000 HD 
HETATM   34  H1  UNL     1      -9.779  18.177  67.336  1.00  0.00     0.000 HD 
HETATM   35  C   UNL     1     -11.932  14.219  66.800  1.00  0.00    -0.462 A  
HETATM   36  C   UNL     1     -11.646  15.400  67.499  1.00  0.00    -0.176 A  
HETATM   37  C   UNL     1     -10.372  14.891  65.072  1.00  0.00    -0.401 A  
HETATM   38  C   UNL     1     -10.092  16.062  65.783  1.00  0.00    -0.393 A  
HETATM   39  C   UNL     1     -10.774  16.357  66.968  1.00  0.00    -0.217 A  
ENDBRANCH  28  31
ENDBRANCH   5  28
ENDBRANCH   4   5
TORSDOF 11
ENDMDL
MODEL      137
REMARK 921   NORMALIZED FREE ENERGY PREDICTED BY IDOCK:   -5.68 KCAL/MOL
REMARK 922        TOTAL FREE ENERGY PREDICTED BY IDOCK:  -11.10 KCAL/MOL
REMARK 923 INTER-LIGAND FREE ENERGY PREDICTED BY IDOCK:   -9.44 KCAL/MOL
REMARK 924 INTRA-LIGAND FREE ENERGY PREDICTED BY IDOCK:   -1.66 KCAL/MOL
REMARK 927      BINDING AFFINITY PREDICTED BY RF-SCORE:    0.00 PKD
ROOT
HETATM    1  C   UNL     1     -10.356  13.305  64.377  1.00  0.00    -0.372 C  
HETATM    2  C   UNL     1     -10.111  11.796  64.331  1.00  0.00    -0.319 C  
HETATM    3  C   UNL     1      -9.786  11.410  62.874  1.00  0.00    -0.344 C  
HETATM    4  C   UNL     1      -8.963  11.332  65.249  1.00  0.00    -0.068 C  
ENDROOT
BRANCH   4   5
HETATM    5  N   UNL     1      -9.094  11.634  66.737  1.00  0.00    -0.180 N  
BRANCH   5   6
HETATM    6  C   UNL     1     -10.569  11.831  67.164  1.00  0.00    -0.231 C  
BRANCH   6   7
HETATM    7  C   UNL     1     -10.841  12.895  68.284  1.00  0.00    -0.242 C  
HETATM    8  H   UNL     1     -11.281  14.798  68.337  1.00  0.00     0.000 HD 
HETATM    9  O   UNL     1     -11.116  14.154  67.659  1.00  0.00    -0.269 OA 
BRANCH   7  10
HETATM   10  C   UNL     1     -11.978  12.473  69.286  1.00  0.00    -0.250 C  
BRANCH  10  11
HETATM   11  N   UNL     1     -11.495  11.609  70.382  1.00  0.00    -0.471 N  
HETATM   12  O   UNL     1     -13.333  10.239  70.372  1.00  0.00    -0.178 OA 
HETATM   13  H   UNL     1     -10.588  11.800  70.808  1.00  0.00     0.000 HD 
HETATM   14  C   UNL     1     -12.248  10.555  70.836  1.00  0.00    -0.388 C  
BRANCH  14  15
HETATM   15  O   UNL     1     -11.648   9.921  71.885  1.00  0.00    -0.200 OA 
BRANCH  15  16
HETATM   16  C   UNL     1     -11.021   8.674  71.529  1.00  0.00    -0.290 C  
HETATM   17  C   UNL     1      -9.543   8.668  71.860  1.00  0.00    -0.377 C  
HETATM   18  O   UNL     1     -10.417   6.601  72.578  1.00  0.00    -0.195 OA 
HETATM   19  C   UNL     1      -9.247   7.191  72.001  1.00  0.00    -0.134 C  
HETATM   20  C   UNL     1     -11.527   7.482  72.338  1.00  0.00    -0.315 C  
ENDBRANCH  15  16
ENDBRANCH  14  15
ENDBRANCH  10  11
BRANCH  10  21
HETATM   21  C   UNL     1     -12.907  13.605  69.800  1.00  0.00     0.354 C  
BRANCH  21  22
HETATM   22  C   UNL     1     -12.550  14.393  71.045  1.00  0.00    -0.419 A  
HETATM   23  C   UNL     1     -11.663  16.420  72.060  1.00  0.00    -0.434 A  
HETATM   24  C   UNL     1     -11.837  15.595  70.944  1.00  0.00    -0.428 A  
HETATM   25  C   UNL     1     -12.186  16.050  73.298  1.00  0.00    -0.632 A  
HETATM   26  C   UNL     1     -13.058  14.026  72.303  1.00  0.00    -0.516 A  
HETATM   27  C   UNL     1     -12.876  14.848  73.420  1.00  0.00    -0.638 A  
ENDBRANCH  21  22
ENDBRANCH  10  21
ENDBRANCH   7  10
ENDBRANCH   6   7
ENDBRANCH   5   6
BRANCH   5  28
HETATM   28  S   UNL     1      -8.329  10.367  67.692  1.00  0.00    -0.114 S  
HETATM   29  O   UNL     1      -6.938  10.261  67.316  1.00  0.00    -0.084 OA 
HETATM   30  O   UNL     1      -8.707  10.630  69.069  1.00  0.00    -0.153 OA 
BRANCH  28  31
HETATM   31  C   UNL     1      -9.102   8.851  67.198  1.00  0.00    -0.138 A  
HETATM   32  N   UNL     1     -10.907   5.223  66.079  1.00  0.00    -0.723 NA 
HETATM   33  H2  UNL     1     -10.240   4.497  66.337  1.00  0.00     0.000 HD 
HETATM   34  H1  UNL     1     -11.822   4.964  66.448  1.00  0.00     0.000 HD 
HETATM   35  C   UNL     1      -8.471   8.018  66.273  1.00  0.00    -0.138 A  
HETATM   36  C   UNL     1      -9.092   6.823  65.885  1.00  0.00    -0.049 A  
HETATM   37  C   UNL     1     -10.316   8.462  67.779  1.00  0.00    -0.297 A  
HETATM   38  C   UNL     1     -10.922   7.264  67.388  1.00  0.00    -0.257 A  
HETATM   39  C   UNL     1     -10.348   6.467  66.391  1.00  0.00     0.048 A  
ENDBRANCH  28  31
ENDBRANCH   5  28
ENDBRANCH   4   5
TORSDOF 11
ENDMDL
MODEL      138
REMARK 921   NORMALIZED FREE ENERGY PREDICTED BY IDOCK:   -5.68 KCAL/MOL
REMARK 922        TOTAL FREE ENERGY PREDICTED BY IDOCK:  -11.10 KCAL/MOL
REMARK 923 INTER-LIGAND FREE ENERGY PREDICTED BY IDOCK:   -9.47 KCAL/MOL
REMARK 924 INTRA-LIGAND FREE ENERGY PREDICTED BY IDOCK:   -1.62 KCAL/MOL
REMARK 927      BINDING AFFINITY PREDICTED BY RF-SCORE:    0.00 PKD
ROOT
HETATM    1  C   UNL     1     -12.635  12.796  64.994  1.00  0.00    -0.538 C  
HETATM    2  C   UNL     1     -11.196  12.284  64.926  1.00  0.00    -0.365 C  
HETATM    3  C   UNL     1     -10.729  12.371  63.459  1.00  0.00    -0.473 C  
HETATM    4  C   UNL     1     -10.219  13.075  65.818  1.00  0.00    -0.290 C  
ENDROOT
BRANCH   4   5
HETATM    5  N   UNL     1     -10.519  13.119  67.312  1.00  0.00    -0.242 N  
BRANCH   5   6
HETATM    6  C   UNL     1      -9.711  12.059  68.099  1.00  0.00    -0.199 C  
BRANCH   6   7
HETATM    7  C   UNL     1     -10.528  10.879  68.732  1.00  0.00    -0.200 C  
HETATM    8  H   UNL     1     -12.115   9.848  68.244  1.00  0.00     0.000 HD 
HETATM    9  O   UNL     1     -11.620  10.563  67.861  1.00  0.00    -0.461 OA 
BRANCH   7  10
HETATM   10  C   UNL     1      -9.651   9.614  69.059  1.00  0.00    -0.168 C  
BRANCH  10  11
HETATM   11  N   UNL     1      -8.851   9.766  70.291  1.00  0.00    -0.326 N  
HETATM   12  O   UNL     1      -6.889   9.065  69.334  1.00  0.00    -0.047 OA 
HETATM   13  H   UNL     1      -9.299  10.107  71.142  1.00  0.00     0.000 HD 
HETATM   14  C   UNL     1      -7.513   9.457  70.309  1.00  0.00    -0.128 C  
BRANCH  14  15
HETATM   15  O   UNL     1      -6.975   9.614  71.552  1.00  0.00    -0.316 OA 
BRANCH  15  16
HETATM   16  C   UNL     1      -6.281   8.449  72.037  1.00  0.00    -0.064 C  
HETATM   17  C   UNL     1      -5.503   8.739  73.305  1.00  0.00    -0.086 C  
HETATM   18  O   UNL     1      -6.618   6.689  73.634  1.00  0.00    -0.071 OA 
HETATM   19  C   UNL     1      -5.397   7.370  73.940  1.00  0.00    -0.046 C  
HETATM   20  C   UNL     1      -7.212   7.327  72.491  1.00  0.00    -0.071 C  
ENDBRANCH  15  16
ENDBRANCH  14  15
ENDBRANCH  10  11
BRANCH  10  21
HETATM   21  C   UNL     1     -10.363   8.237  68.991  1.00  0.00    -0.233 C  
BRANCH  21  22
HETATM   22  C   UNL     1     -10.809   7.534  70.258  1.00  0.00    -0.257 A  
HETATM   23  C   UNL     1     -12.442   7.269  72.044  1.00  0.00    -0.276 A  
HETATM   24  C   UNL     1     -11.909   8.010  70.984  1.00  0.00    -0.280 A  
HETATM   25  C   UNL     1     -11.874   6.048  72.405  1.00  0.00    -0.283 A  
HETATM   26  C   UNL     1     -10.238   6.309  70.644  1.00  0.00    -0.240 A  
HETATM   27  C   UNL     1     -10.767   5.573  71.709  1.00  0.00    -0.289 A  
ENDBRANCH  21  22
ENDBRANCH  10  21
ENDBRANCH   7  10
ENDBRANCH   6   7
ENDBRANCH   5   6
BRANCH   5  28
HETATM   28  S   UNL     1     -10.224  14.733  67.952  1.00  0.00    -0.230 S  
HETATM   29  O   UNL     1      -8.831  14.855  68.312  1.00  0.00    -0.161 OA 
HETATM   30  O   UNL     1     -10.827  15.649  67.000  1.00  0.00    -0.318 OA 
BRANCH  28  31
HETATM   31  C   UNL     1     -11.146  14.835  69.461  1.00  0.00    -0.279 A  
HETATM   32  N   UNL     1     -13.385  15.108  73.009  1.00  0.00    -0.481 NA 
HETATM   33  H2  UNL     1     -13.907  15.981  72.933  1.00  0.00     0.000 HD 
HETATM   34  H1  UNL     1     -14.034  14.366  73.270  1.00  0.00     0.000 HD 
HETATM   35  C   UNL     1     -10.962  15.923  70.317  1.00  0.00    -0.370 A  
HETATM   36  C   UNL     1     -11.692  15.992  71.511  1.00  0.00    -0.554 A  
HETATM   37  C   UNL     1     -12.101  13.856  69.766  1.00  0.00    -0.404 A  
HETATM   38  C   UNL     1     -12.828  13.942  70.958  1.00  0.00    -0.394 A  
HETATM   39  C   UNL     1     -12.584  14.974  71.869  1.00  0.00    -0.333 A  
ENDBRANCH  28  31
ENDBRANCH   5  28
ENDBRANCH   4   5
TORSDOF 11
ENDMDL
MODEL      139
REMARK 921   NORMALIZED FREE ENERGY PREDICTED BY IDOCK:   -5.66 KCAL/MOL
REMARK 922        TOTAL FREE ENERGY PREDICTED BY IDOCK:  -11.07 KCAL/MOL
REMARK 923 INTER-LIGAND FREE ENERGY PREDICTED BY IDOCK:   -9.45 KCAL/MOL
REMARK 924 INTRA-LIGAND FREE ENERGY PREDICTED BY IDOCK:   -1.61 KCAL/MOL
REMARK 927      BINDING AFFINITY PREDICTED BY RF-SCORE:    0.00 PKD
ROOT
HETATM    1  C   UNL     1      -6.995  11.816  66.947  1.00  0.00    -0.101 C  
HETATM    2  C   UNL     1      -7.531  13.014  67.732  1.00  0.00    -0.146 C  
HETATM    3  C   UNL     1      -6.336  13.916  68.099  1.00  0.00    -0.127 C  
HETATM    4  C   UNL     1      -8.573  13.841  66.953  1.00  0.00    -0.109 C  
ENDROOT
BRANCH   4   5
HETATM    5  N   UNL     1      -9.832  13.118  66.488  1.00  0.00    -0.260 N  
BRANCH   5   6
HETATM    6  C   UNL     1     -10.172  11.904  67.388  1.00  0.00    -0.196 C  
BRANCH   6   7
HETATM    7  C   UNL     1     -10.650  10.600  66.658  1.00  0.00    -0.214 C  
HETATM    8  H   UNL     1     -10.209   9.680  64.992  1.00  0.00     0.000 HD 
HETATM    9  O   UNL     1      -9.919  10.469  65.434  1.00  0.00    -0.252 OA 
BRANCH   7  10
HETATM   10  C   UNL     1     -10.542   9.309  67.550  1.00  0.00    -0.262 C  
BRANCH  10  11
HETATM   11  N   UNL     1      -9.797   8.213  66.897  1.00  0.00    -0.222 N  
HETATM   12  O   UNL     1     -11.367   6.609  67.361  1.00  0.00    -0.299 OA 
HETATM   13  H   UNL     1      -8.900   8.412  66.454  1.00  0.00     0.000 HD 
HETATM   14  C   UNL     1     -10.293   6.933  66.877  1.00  0.00    -0.262 C  
BRANCH  14  15
HETATM   15  O   UNL     1      -9.428   6.066  66.276  1.00  0.00    -0.159 OA 
BRANCH  15  16
HETATM   16  C   UNL     1      -8.808   5.139  67.187  1.00  0.00    -0.109 C  
HETATM   17  C   UNL     1      -9.352   3.735  67.025  1.00  0.00    -0.219 C  
HETATM   18  O   UNL     1      -7.009   3.550  67.188  1.00  0.00    -0.056 OA 
HETATM   19  C   UNL     1      -8.220   2.884  67.559  1.00  0.00    -0.081 C  
HETATM   20  C   UNL     1      -7.318   4.929  66.925  1.00  0.00    -0.085 C  
ENDBRANCH  15  16
ENDBRANCH  14  15
ENDBRANCH  10  11
BRANCH  10  21
HETATM   21  C   UNL     1     -10.104   9.516  69.024  1.00  0.00    -0.201 C  
BRANCH  21  22
HETATM   22  C   UNL     1     -11.125   9.502  70.144  1.00  0.00    -0.294 A  
HETATM   23  C   UNL     1     -12.917  10.613  71.361  1.00  0.00    -0.545 A  
HETATM   24  C   UNL     1     -11.848  10.661  70.461  1.00  0.00    -0.453 A  
HETATM   25  C   UNL     1     -13.271   9.412  71.972  1.00  0.00    -0.529 A  
HETATM   26  C   UNL     1     -11.483   8.301  70.780  1.00  0.00    -0.268 A  
HETATM   27  C   UNL     1     -12.548   8.257  71.687  1.00  0.00    -0.355 A  
ENDBRANCH  21  22
ENDBRANCH  10  21
ENDBRANCH   7  10
ENDBRANCH   6   7
ENDBRANCH   5   6
BRANCH   5  28
HETATM   28  S   UNL     1     -11.190  14.237  66.406  1.00  0.00    -0.345 S  
HETATM   29  O   UNL     1     -10.813  15.385  65.615  1.00  0.00    -0.331 OA 
HETATM   30  O   UNL     1     -12.341  13.431  66.042  1.00  0.00    -0.430 OA 
BRANCH  28  31
HETATM   31  C   UNL     1     -11.439  14.822  68.060  1.00  0.00    -0.331 A  
HETATM   32  N   UNL     1     -12.088  16.241  71.964  1.00  0.00    -0.610 NA 
HETATM   33  H2  UNL     1     -12.564  17.136  71.852  1.00  0.00     0.000 HD 
HETATM   34  H1  UNL     1     -12.610  15.681  72.638  1.00  0.00     0.000 HD 
HETATM   35  C   UNL     1     -10.890  16.043  68.455  1.00  0.00    -0.304 A  
HETATM   36  C   UNL     1     -11.089  16.496  69.767  1.00  0.00    -0.248 A  
HETATM   37  C   UNL     1     -12.234  14.089  68.951  1.00  0.00    -0.261 A  
HETATM   38  C   UNL     1     -12.429  14.556  70.254  1.00  0.00    -0.405 A  
HETATM   39  C   UNL     1     -11.806  15.729  70.692  1.00  0.00    -0.385 A  
ENDBRANCH  28  31
ENDBRANCH   5  28
ENDBRANCH   4   5
TORSDOF 11
ENDMDL
MODEL      140
REMARK 921   NORMALIZED FREE ENERGY PREDICTED BY IDOCK:   -5.66 KCAL/MOL
REMARK 922        TOTAL FREE ENERGY PREDICTED BY IDOCK:  -11.07 KCAL/MOL
REMARK 923 INTER-LIGAND FREE ENERGY PREDICTED BY IDOCK:  -10.11 KCAL/MOL
REMARK 924 INTRA-LIGAND FREE ENERGY PREDICTED BY IDOCK:   -0.96 KCAL/MOL
REMARK 927      BINDING AFFINITY PREDICTED BY RF-SCORE:    0.00 PKD
ROOT
HETATM    1  C   UNL     1     -12.089  14.734  69.359  1.00  0.00    -0.305 C  
HETATM    2  C   UNL     1     -11.423  13.358  69.383  1.00  0.00    -0.333 C  
HETATM    3  C   UNL     1     -12.207  12.466  70.367  1.00  0.00    -0.370 C  
HETATM    4  C   UNL     1     -11.376  12.674  68.003  1.00  0.00    -0.290 C  
ENDROOT
BRANCH   4   5
HETATM    5  N   UNL     1     -10.649  13.410  66.884  1.00  0.00    -0.271 N  
BRANCH   5   6
HETATM    6  C   UNL     1      -9.132  13.099  66.871  1.00  0.00    -0.229 C  
BRANCH   6   7
HETATM    7  C   UNL     1      -8.190  14.166  67.531  1.00  0.00    -0.186 C  
HETATM    8  H   UNL     1      -6.277  14.315  67.900  1.00  0.00     0.000 HD 
HETATM    9  O   UNL     1      -6.847  13.669  67.501  1.00  0.00    -0.169 OA 
BRANCH   7  10
HETATM   10  C   UNL     1      -8.305  15.593  66.877  1.00  0.00    -0.252 C  
BRANCH  10  11
HETATM   11  N   UNL     1      -9.312  16.452  67.532  1.00  0.00    -0.213 N  
HETATM   12  O   UNL     1     -10.487  16.872  65.609  1.00  0.00    -0.494 OA 
HETATM   13  H   UNL     1      -9.254  16.616  68.537  1.00  0.00     0.000 HD 
HETATM   14  C   UNL     1     -10.325  17.032  66.809  1.00  0.00    -0.302 C  
BRANCH  14  15
HETATM   15  O   UNL     1     -11.112  17.827  67.590  1.00  0.00    -0.201 OA 
BRANCH  15  16
HETATM   16  C   UNL     1     -10.927  19.236  67.355  1.00  0.00    -0.337 C  
HETATM   17  C   UNL     1      -9.858  19.826  68.252  1.00  0.00    -0.537 C  
HETATM   18  O   UNL     1      -9.484  20.674  66.087  1.00  0.00    -0.083 OA 
HETATM   19  C   UNL     1      -9.409  21.039  67.468  1.00  0.00    -0.054 C  
HETATM   20  C   UNL     1     -10.382  19.559  65.965  1.00  0.00    -0.511 C  
ENDBRANCH  15  16
ENDBRANCH  14  15
ENDBRANCH  10  11
BRANCH  10  21
HETATM   21  C   UNL     1      -6.974  16.347  66.616  1.00  0.00    -0.133 C  
BRANCH  21  22
HETATM   22  C   UNL     1      -6.507  17.439  67.558  1.00  0.00    -0.159 A  
HETATM   23  C   UNL     1      -6.234  19.808  68.049  1.00  0.00    -0.255 A  
HETATM   24  C   UNL     1      -6.485  18.777  67.138  1.00  0.00    -0.197 A  
HETATM   25  C   UNL     1      -5.986  19.519  69.389  1.00  0.00    -0.300 A  
HETATM   26  C   UNL     1      -6.238  17.163  68.909  1.00  0.00    -0.179 A  
HETATM   27  C   UNL     1      -5.980  18.195  69.817  1.00  0.00    -0.231 A  
ENDBRANCH  21  22
ENDBRANCH  10  21
ENDBRANCH   7  10
ENDBRANCH   6   7
ENDBRANCH   5   6
BRANCH   5  28
HETATM   28  S   UNL     1     -11.378  13.036  65.325  1.00  0.00    -0.305 S  
HETATM   29  O   UNL     1     -12.734  12.585  65.530  1.00  0.00    -0.583 OA 
HETATM   30  O   UNL     1     -11.097  14.179  64.475  1.00  0.00    -0.376 OA 
BRANCH  28  31
HETATM   31  C   UNL     1     -10.477  11.651  64.686  1.00  0.00    -0.302 A  
HETATM   32  N   UNL     1      -8.396   8.336  63.150  1.00  0.00    -0.372 NA 
HETATM   33  H2  UNL     1      -9.011   7.537  63.299  1.00  0.00     0.000 HD 
HETATM   34  H1  UNL     1      -8.084   8.325  62.179  1.00  0.00     0.000 HD 
HETATM   35  C   UNL     1     -10.161  10.580  65.523  1.00  0.00    -0.325 A  
HETATM   36  C   UNL     1      -9.444   9.490  65.010  1.00  0.00    -0.273 A  
HETATM   37  C   UNL     1     -10.132  11.605  63.328  1.00  0.00    -0.454 A  
HETATM   38  C   UNL     1      -9.422  10.509  62.828  1.00  0.00    -0.353 A  
HETATM   39  C   UNL     1      -9.016   9.474  63.677  1.00  0.00    -0.173 A  
ENDBRANCH  28  31
ENDBRANCH   5  28
ENDBRANCH   4   5
TORSDOF 11
ENDMDL
MODEL      141
REMARK 921   NORMALIZED FREE ENERGY PREDICTED BY IDOCK:   -5.65 KCAL/MOL
REMARK 922        TOTAL FREE ENERGY PREDICTED BY IDOCK:  -11.06 KCAL/MOL
REMARK 923 INTER-LIGAND FREE ENERGY PREDICTED BY IDOCK:   -9.55 KCAL/MOL
REMARK 924 INTRA-LIGAND FREE ENERGY PREDICTED BY IDOCK:   -1.51 KCAL/MOL
REMARK 927      BINDING AFFINITY PREDICTED BY RF-SCORE:    0.00 PKD
ROOT
HETATM    1  C   UNL     1      -9.237  15.750  66.074  1.00  0.00    -0.379 C  
HETATM    2  C   UNL     1      -8.469  15.265  67.304  1.00  0.00    -0.216 C  
HETATM    3  C   UNL     1      -7.936  16.504  68.052  1.00  0.00    -0.161 C  
HETATM    4  C   UNL     1      -9.323  14.418  68.267  1.00  0.00    -0.206 C  
ENDROOT
BRANCH   4   5
HETATM    5  N   UNL     1      -9.953  13.147  67.707  1.00  0.00    -0.221 N  
BRANCH   5   6
HETATM    6  C   UNL     1      -9.405  11.873  68.396  1.00  0.00    -0.184 C  
BRANCH   6   7
HETATM    7  C   UNL     1      -9.262  10.594  67.498  1.00  0.00    -0.143 C  
HETATM    8  H   UNL     1      -7.820   9.727  66.506  1.00  0.00     0.000 HD 
HETATM    9  O   UNL     1      -7.906  10.501  67.050  1.00  0.00    -0.110 OA 
BRANCH   7  10
HETATM   10  C   UNL     1      -9.740   9.274  68.209  1.00  0.00    -0.150 C  
BRANCH  10  11
HETATM   11  N   UNL     1      -9.025   8.071  67.738  1.00  0.00    -0.132 N  
HETATM   12  O   UNL     1     -10.904   7.036  66.929  1.00  0.00    -0.354 OA 
HETATM   13  H   UNL     1      -8.015   8.007  67.861  1.00  0.00     0.000 HD 
HETATM   14  C   UNL     1      -9.701   7.037  67.137  1.00  0.00    -0.161 C  
BRANCH  14  15
HETATM   15  O   UNL     1      -8.868   6.002  66.828  1.00  0.00    -0.116 OA 
BRANCH  15  16
HETATM   16  C   UNL     1      -9.366   5.148  65.781  1.00  0.00    -0.154 C  
HETATM   17  C   UNL     1      -8.372   5.001  64.647  1.00  0.00    -0.141 C  
HETATM   18  O   UNL     1      -9.212   2.849  65.109  1.00  0.00    -0.145 OA 
HETATM   19  C   UNL     1      -8.777   3.681  64.029  1.00  0.00    -0.095 C  
HETATM   20  C   UNL     1      -9.562   3.697  66.216  1.00  0.00    -0.130 C  
ENDBRANCH  15  16
ENDBRANCH  14  15
ENDBRANCH  10  11
BRANCH  10  21
HETATM   21  C   UNL     1      -9.851   9.319  69.757  1.00  0.00    -0.202 C  
BRANCH  21  22
HETATM   22  C   UNL     1     -11.114   8.856  70.455  1.00  0.00    -0.288 A  
HETATM   23  C   UNL     1     -12.525   7.036  71.245  1.00  0.00    -0.430 A  
HETATM   24  C   UNL     1     -11.469   7.500  70.454  1.00  0.00    -0.219 A  
HETATM   25  C   UNL     1     -13.253   7.921  72.038  1.00  0.00    -0.254 A  
HETATM   26  C   UNL     1     -11.868   9.739  71.247  1.00  0.00    -0.481 A  
HETATM   27  C   UNL     1     -12.929   9.274  72.032  1.00  0.00    -0.504 A  
ENDBRANCH  21  22
ENDBRANCH  10  21
ENDBRANCH   7  10
ENDBRANCH   6   7
ENDBRANCH   5   6
BRANCH   5  28
HETATM   28  S   UNL     1     -11.708  13.222  67.835  1.00  0.00    -0.358 S  
HETATM   29  O   UNL     1     -12.219  14.130  66.836  1.00  0.00    -0.439 OA 
HETATM   30  O   UNL     1     -12.157  11.842  67.882  1.00  0.00    -0.558 OA 
BRANCH  28  31
HETATM   31  C   UNL     1     -12.051  13.957  69.409  1.00  0.00    -0.337 A  
HETATM   32  N   UNL     1     -12.932  15.703  73.131  1.00  0.00    -0.482 NA 
HETATM   33  H2  UNL     1     -13.739  16.303  72.965  1.00  0.00     0.000 HD 
HETATM   34  H1  UNL     1     -13.127  15.119  73.944  1.00  0.00     0.000 HD 
HETATM   35  C   UNL     1     -12.023  15.346  69.549  1.00  0.00    -0.358 A  
HETATM   36  C   UNL     1     -12.291  15.919  70.800  1.00  0.00    -0.342 A  
HETATM   37  C   UNL     1     -12.407  13.150  70.498  1.00  0.00    -0.380 A  
HETATM   38  C   UNL     1     -12.679  13.735  71.738  1.00  0.00    -0.373 A  
HETATM   39  C   UNL     1     -12.560  15.117  71.916  1.00  0.00    -0.344 A  
ENDBRANCH  28  31
ENDBRANCH   5  28
ENDBRANCH   4   5
TORSDOF 11
ENDMDL
MODEL      142
REMARK 921   NORMALIZED FREE ENERGY PREDICTED BY IDOCK:   -5.65 KCAL/MOL
REMARK 922        TOTAL FREE ENERGY PREDICTED BY IDOCK:  -11.05 KCAL/MOL
REMARK 923 INTER-LIGAND FREE ENERGY PREDICTED BY IDOCK:   -8.89 KCAL/MOL
REMARK 924 INTRA-LIGAND FREE ENERGY PREDICTED BY IDOCK:   -2.17 KCAL/MOL
REMARK 927      BINDING AFFINITY PREDICTED BY RF-SCORE:    0.00 PKD
ROOT
HETATM    1  C   UNL     1     -11.315   7.212  70.238  1.00  0.00    -0.305 C  
HETATM    2  C   UNL     1     -11.421   8.493  71.067  1.00  0.00    -0.313 C  
HETATM    3  C   UNL     1     -11.561   8.090  72.549  1.00  0.00    -0.464 C  
HETATM    4  C   UNL     1     -10.208   9.430  70.907  1.00  0.00    -0.303 C  
ENDROOT
BRANCH   4   5
HETATM    5  N   UNL     1      -9.895   9.932  69.502  1.00  0.00    -0.210 N  
BRANCH   5   6
HETATM    6  C   UNL     1     -10.253  11.428  69.325  1.00  0.00     0.021 C  
BRANCH   6   7
HETATM    7  C   UNL     1     -11.288  11.774  68.197  1.00  0.00    -0.284 C  
HETATM    8  H   UNL     1     -13.027  11.090  67.627  1.00  0.00     0.000 HD 
HETATM    9  O   UNL     1     -12.401  10.880  68.310  1.00  0.00    -0.400 OA 
BRANCH   7  10
HETATM   10  C   UNL     1     -11.740  13.282  68.204  1.00  0.00    -0.362 C  
BRANCH  10  11
HETATM   11  N   UNL     1     -10.708  14.194  68.739  1.00  0.00    -0.251 N  
HETATM   12  O   UNL     1     -12.096  15.172  70.279  1.00  0.00    -0.296 OA 
HETATM   13  H   UNL     1      -9.764  14.163  68.355  1.00  0.00     0.000 HD 
HETATM   14  C   UNL     1     -11.001  15.082  69.744  1.00  0.00    -0.273 C  
BRANCH  14  15
HETATM   15  O   UNL     1      -9.929  15.867  70.053  1.00  0.00    -0.226 OA 
BRANCH  15  16
HETATM   16  C   UNL     1      -8.883  15.837  69.064  1.00  0.00    -0.236 C  
HETATM   17  C   UNL     1      -8.500  17.228  68.601  1.00  0.00    -0.260 C  
HETATM   18  O   UNL     1      -6.494  16.048  68.966  1.00  0.00    -0.130 OA 
HETATM   19  C   UNL     1      -7.085  17.028  68.106  1.00  0.00    -0.177 C  
HETATM   20  C   UNL     1      -7.553  15.308  69.596  1.00  0.00    -0.176 C  
ENDBRANCH  15  16
ENDBRANCH  14  15
ENDBRANCH  10  11
BRANCH  10  21
HETATM   21  C   UNL     1     -12.377  13.823  66.897  1.00  0.00    -0.328 C  
BRANCH  21  22
HETATM   22  C   UNL     1     -11.960  13.272  65.547  1.00  0.00    -0.445 A  
HETATM   23  C   UNL     1     -10.192  12.604  64.013  1.00  0.00    -0.363 A  
HETATM   24  C   UNL     1     -10.610  13.272  65.168  1.00  0.00    -0.342 A  
HETATM   25  C   UNL     1     -11.117  11.939  63.210  1.00  0.00    -0.390 A  
HETATM   26  C   UNL     1     -12.882  12.611  64.720  1.00  0.00    -0.349 A  
HETATM   27  C   UNL     1     -12.463  11.949  63.560  1.00  0.00    -0.609 A  
ENDBRANCH  21  22
ENDBRANCH  10  21
ENDBRANCH   7  10
ENDBRANCH   6   7
ENDBRANCH   5   6
BRANCH   5  28
HETATM   28  S   UNL     1      -8.203   9.642  69.107  1.00  0.00    -0.130 S  
HETATM   29  O   UNL     1      -7.504  10.905  69.057  1.00  0.00    -0.105 OA 
HETATM   30  O   UNL     1      -7.766   8.587  70.004  1.00  0.00    -0.081 OA 
BRANCH  28  31
HETATM   31  C   UNL     1      -8.192   8.992  67.459  1.00  0.00    -0.109 A  
HETATM   32  N   UNL     1      -8.111   7.488  63.535  1.00  0.00    -0.313 NA 
HETATM   33  H2  UNL     1      -7.771   8.256  62.956  1.00  0.00     0.000 HD 
HETATM   34  H1  UNL     1      -7.570   6.653  63.311  1.00  0.00     0.000 HD 
HETATM   35  C   UNL     1      -8.955   9.606  66.464  1.00  0.00    -0.171 A  
HETATM   36  C   UNL     1      -8.943   9.082  65.164  1.00  0.00    -0.216 A  
HETATM   37  C   UNL     1      -7.374   7.899  67.142  1.00  0.00    -0.091 A  
HETATM   38  C   UNL     1      -7.367   7.391  65.840  1.00  0.00    -0.075 A  
HETATM   39  C   UNL     1      -8.199   7.936  64.857  1.00  0.00    -0.124 A  
ENDBRANCH  28  31
ENDBRANCH   5  28
ENDBRANCH   4   5
TORSDOF 11
ENDMDL
MODEL      143
REMARK 921   NORMALIZED FREE ENERGY PREDICTED BY IDOCK:   -5.64 KCAL/MOL
REMARK 922        TOTAL FREE ENERGY PREDICTED BY IDOCK:  -11.04 KCAL/MOL
REMARK 923 INTER-LIGAND FREE ENERGY PREDICTED BY IDOCK:   -8.97 KCAL/MOL
REMARK 924 INTRA-LIGAND FREE ENERGY PREDICTED BY IDOCK:   -2.07 KCAL/MOL
REMARK 927      BINDING AFFINITY PREDICTED BY RF-SCORE:    0.00 PKD
ROOT
HETATM    1  C   UNL     1      -6.429  10.923  66.314  1.00  0.00    -0.129 C  
HETATM    2  C   UNL     1      -7.490  10.028  65.671  1.00  0.00    -0.137 C  
HETATM    3  C   UNL     1      -7.217   9.981  64.154  1.00  0.00    -0.132 C  
HETATM    4  C   UNL     1      -7.503   8.592  66.230  1.00  0.00    -0.090 C  
ENDROOT
BRANCH   4   5
HETATM    5  N   UNL     1      -7.747   8.427  67.726  1.00  0.00    -0.102 N  
BRANCH   5   6
HETATM    6  C   UNL     1      -9.133   8.971  68.153  1.00  0.00    -0.132 C  
BRANCH   6   7
HETATM    7  C   UNL     1      -9.167   9.887  69.425  1.00  0.00    -0.214 C  
HETATM    8  H   UNL     1      -8.210  11.477  70.039  1.00  0.00     0.000 HD 
HETATM    9  O   UNL     1      -8.189  10.922  69.268  1.00  0.00    -0.130 OA 
BRANCH   7  10
HETATM   10  C   UNL     1     -10.595  10.468  69.740  1.00  0.00    -0.227 C  
BRANCH  10  11
HETATM   11  N   UNL     1     -11.382  10.762  68.526  1.00  0.00    -0.279 N  
HETATM   12  O   UNL     1     -11.142  13.036  68.686  1.00  0.00    -0.245 OA 
HETATM   13  H   UNL     1     -11.775   9.992  67.984  1.00  0.00     0.000 HD 
HETATM   14  C   UNL     1     -11.593  12.055  68.115  1.00  0.00    -0.340 C  
BRANCH  14  15
HETATM   15  O   UNL     1     -12.387  12.110  67.007  1.00  0.00    -0.379 OA 
BRANCH  15  16
HETATM   16  C   UNL     1     -11.762  12.742  65.874  1.00  0.00    -0.414 C  
HETATM   17  C   UNL     1     -11.907  11.915  64.612  1.00  0.00    -0.282 C  
HETATM   18  O   UNL     1     -12.381  14.148  64.030  1.00  0.00    -0.647 OA 
HETATM   19  C   UNL     1     -11.771  12.957  63.524  1.00  0.00    -0.512 C  
HETATM   20  C   UNL     1     -12.423  14.056  65.464  1.00  0.00    -0.509 C  
ENDBRANCH  15  16
ENDBRANCH  14  15
ENDBRANCH  10  11
BRANCH  10  21
HETATM   21  C   UNL     1     -11.431   9.717  70.811  1.00  0.00    -0.417 C  
BRANCH  21  22
HETATM   22  C   UNL     1     -11.038   8.324  71.262  1.00  0.00    -0.296 A  
HETATM   23  C   UNL     1     -10.186   6.846  72.999  1.00  0.00    -0.243 A  
HETATM   24  C   UNL     1     -10.387   8.133  72.489  1.00  0.00    -0.401 A  
HETATM   25  C   UNL     1     -10.618   5.730  72.284  1.00  0.00    -0.264 A  
HETATM   26  C   UNL     1     -11.453   7.189  70.546  1.00  0.00    -0.334 A  
HETATM   27  C   UNL     1     -11.244   5.902  71.054  1.00  0.00    -0.280 A  
ENDBRANCH  21  22
ENDBRANCH  10  21
ENDBRANCH   7  10
ENDBRANCH   6   7
ENDBRANCH   5   6
BRANCH   5  28
HETATM   28  S   UNL     1      -7.564   6.741  68.198  1.00  0.00    -0.109 S  
HETATM   29  O   UNL     1      -6.203   6.323  67.952  1.00  0.00    -0.026 OA 
HETATM   30  O   UNL     1      -8.142   6.639  69.525  1.00  0.00    -0.121 OA 
BRANCH  28  31
HETATM   31  C   UNL     1      -8.585   5.810  67.089  1.00  0.00    -0.109 A  
HETATM   32  N   UNL     1     -11.010   3.552  64.501  1.00  0.00    -0.598 NA 
HETATM   33  H2  UNL     1     -10.712   2.584  64.626  1.00  0.00     0.000 HD 
HETATM   34  H1  UNL     1     -12.026   3.588  64.579  1.00  0.00     0.000 HD 
HETATM   35  C   UNL     1      -7.999   5.045  66.079  1.00  0.00    -0.107 A  
HETATM   36  C   UNL     1      -8.816   4.317  65.204  1.00  0.00    -0.134 A  
HETATM   37  C   UNL     1      -9.976   5.797  67.261  1.00  0.00    -0.178 A  
HETATM   38  C   UNL     1     -10.778   5.060  66.385  1.00  0.00    -0.242 A  
HETATM   39  C   UNL     1     -10.211   4.367  65.311  1.00  0.00    -0.210 A  
ENDBRANCH  28  31
ENDBRANCH   5  28
ENDBRANCH   4   5
TORSDOF 11
ENDMDL
MODEL      144
REMARK 921   NORMALIZED FREE ENERGY PREDICTED BY IDOCK:   -5.62 KCAL/MOL
REMARK 922        TOTAL FREE ENERGY PREDICTED BY IDOCK:  -11.00 KCAL/MOL
REMARK 923 INTER-LIGAND FREE ENERGY PREDICTED BY IDOCK:  -10.59 KCAL/MOL
REMARK 924 INTRA-LIGAND FREE ENERGY PREDICTED BY IDOCK:   -0.41 KCAL/MOL
REMARK 927      BINDING AFFINITY PREDICTED BY RF-SCORE:    0.00 PKD
ROOT
HETATM    1  C   UNL     1     -10.550  13.718  64.666  1.00  0.00    -0.443 C  
HETATM    2  C   UNL     1     -10.667  15.146  65.201  1.00  0.00    -0.442 C  
HETATM    3  C   UNL     1     -11.520  15.959  64.206  1.00  0.00    -0.197 C  
HETATM    4  C   UNL     1     -11.305  15.227  66.602  1.00  0.00    -0.170 C  
ENDROOT
BRANCH   4   5
HETATM    5  N   UNL     1     -10.610  14.472  67.730  1.00  0.00    -0.249 N  
BRANCH   5   6
HETATM    6  C   UNL     1     -10.516  12.953  67.443  1.00  0.00    -0.233 C  
BRANCH   6   7
HETATM    7  C   UNL     1     -11.831  12.119  67.638  1.00  0.00    -0.246 C  
HETATM    8  H   UNL     1     -12.799  10.763  66.617  1.00  0.00     0.000 HD 
HETATM    9  O   UNL     1     -12.003  11.268  66.499  1.00  0.00    -0.139 OA 
BRANCH   7  10
HETATM   10  C   UNL     1     -11.864  11.310  68.988  1.00  0.00    -0.352 C  
BRANCH  10  11
HETATM   11  N   UNL     1     -11.121  10.036  68.919  1.00  0.00    -0.372 N  
HETATM   12  O   UNL     1     -12.147   9.116  70.751  1.00  0.00    -0.254 OA 
HETATM   13  H   UNL     1     -10.438   9.893  68.175  1.00  0.00     0.000 HD 
HETATM   14  C   UNL     1     -11.334   9.042  69.842  1.00  0.00    -0.001 C  
BRANCH  14  15
HETATM   15  O   UNL     1     -10.511   7.974  69.634  1.00  0.00    -0.218 OA 
BRANCH  15  16
HETATM   16  C   UNL     1     -10.307   7.660  68.243  1.00  0.00    -0.198 C  
HETATM   17  C   UNL     1      -8.926   7.094  67.986  1.00  0.00    -0.127 C  
HETATM   18  O   UNL     1     -10.451   5.755  66.789  1.00  0.00    -0.234 OA 
HETATM   19  C   UNL     1      -9.131   6.302  66.713  1.00  0.00    -0.135 C  
HETATM   20  C   UNL     1     -11.206   6.536  67.731  1.00  0.00    -0.161 C  
ENDBRANCH  15  16
ENDBRANCH  14  15
ENDBRANCH  10  11
BRANCH  10  21
HETATM   21  C   UNL     1     -11.544  12.105  70.282  1.00  0.00    -0.105 C  
BRANCH  21  22
HETATM   22  C   UNL     1     -12.506  13.154  70.803  1.00  0.00    -0.389 A  
HETATM   23  C   UNL     1     -14.154  13.852  72.453  1.00  0.00    -0.586 A  
HETATM   24  C   UNL     1     -13.396  12.848  71.842  1.00  0.00    -0.530 A  
HETATM   25  C   UNL     1     -14.047  15.174  72.027  1.00  0.00    -0.659 A  
HETATM   26  C   UNL     1     -12.420  14.490  70.374  1.00  0.00    -0.407 A  
HETATM   27  C   UNL     1     -13.185  15.491  70.982  1.00  0.00    -0.539 A  
ENDBRANCH  21  22
ENDBRANCH  10  21
ENDBRANCH   7  10
ENDBRANCH   6   7
ENDBRANCH   5   6
BRANCH   5  28
HETATM   28  S   UNL     1      -9.013  15.151  68.032  1.00  0.00    -0.175 S  
HETATM   29  O   UNL     1      -8.680  14.980  69.427  1.00  0.00    -0.189 OA 
HETATM   30  O   UNL     1      -8.154  14.613  66.993  1.00  0.00    -0.201 OA 
BRANCH  28  31
HETATM   31  C   UNL     1      -9.167  16.895  67.760  1.00  0.00    -0.230 A  
HETATM   32  N   UNL     1      -9.585  21.022  67.076  1.00  0.00    -0.651 NA 
HETATM   33  H2  UNL     1      -9.961  21.104  66.132  1.00  0.00     0.000 HD 
HETATM   34  H1  UNL     1     -10.153  21.596  67.699  1.00  0.00     0.000 HD 
HETATM   35  C   UNL     1      -8.480  17.497  66.704  1.00  0.00    -0.288 A  
HETATM   36  C   UNL     1      -8.604  18.878  66.500  1.00  0.00    -0.309 A  
HETATM   37  C   UNL     1     -10.021  17.658  68.567  1.00  0.00    -0.368 A  
HETATM   38  C   UNL     1     -10.140  19.034  68.347  1.00  0.00    -0.471 A  
HETATM   39  C   UNL     1      -9.384  19.666  67.355  1.00  0.00    -0.326 A  
ENDBRANCH  28  31
ENDBRANCH   5  28
ENDBRANCH   4   5
TORSDOF 11
ENDMDL
MODEL      145
REMARK 921   NORMALIZED FREE ENERGY PREDICTED BY IDOCK:   -5.62 KCAL/MOL
REMARK 922        TOTAL FREE ENERGY PREDICTED BY IDOCK:  -11.00 KCAL/MOL
REMARK 923 INTER-LIGAND FREE ENERGY PREDICTED BY IDOCK:   -9.49 KCAL/MOL
REMARK 924 INTRA-LIGAND FREE ENERGY PREDICTED BY IDOCK:   -1.51 KCAL/MOL
REMARK 927      BINDING AFFINITY PREDICTED BY RF-SCORE:    0.00 PKD
ROOT
HETATM    1  C   UNL     1     -12.650  13.357  65.595  1.00  0.00    -0.496 C  
HETATM    2  C   UNL     1     -11.533  14.394  65.471  1.00  0.00    -0.340 C  
HETATM    3  C   UNL     1     -11.875  15.324  64.290  1.00  0.00    -0.235 C  
HETATM    4  C   UNL     1     -11.335  15.240  66.744  1.00  0.00    -0.183 C  
ENDROOT
BRANCH   4   5
HETATM    5  N   UNL     1     -10.998  14.495  68.031  1.00  0.00    -0.254 N  
BRANCH   5   6
HETATM    6  C   UNL     1     -10.155  13.225  67.766  1.00  0.00    -0.229 C  
BRANCH   6   7
HETATM    7  C   UNL     1     -10.606  11.915  68.502  1.00  0.00    -0.222 C  
HETATM    8  H   UNL     1     -12.309  11.104  69.012  1.00  0.00     0.000 HD 
HETATM    9  O   UNL     1     -12.036  11.897  68.566  1.00  0.00    -0.412 OA 
BRANCH   7  10
HETATM   10  C   UNL     1     -10.028  10.602  67.855  1.00  0.00    -0.166 C  
BRANCH  10  11
HETATM   11  N   UNL     1      -9.943   9.475  68.805  1.00  0.00    -0.169 N  
HETATM   12  O   UNL     1      -7.668   9.254  68.638  1.00  0.00    -0.083 OA 
HETATM   13  H   UNL     1     -10.794   9.127  69.248  1.00  0.00     0.000 HD 
HETATM   14  C   UNL     1      -8.738   8.889  69.102  1.00  0.00    -0.132 C  
BRANCH  14  15
HETATM   15  O   UNL     1      -8.885   7.835  69.955  1.00  0.00    -0.140 OA 
BRANCH  15  16
HETATM   16  C   UNL     1     -10.083   7.896  70.753  1.00  0.00    -0.192 C  
HETATM   17  C   UNL     1     -10.664   6.520  71.008  1.00  0.00    -0.289 C  
HETATM   18  O   UNL     1     -10.722   7.684  73.056  1.00  0.00    -0.335 OA 
HETATM   19  C   UNL     1     -11.458   6.734  72.278  1.00  0.00    -0.276 C  
HETATM   20  C   UNL     1      -9.847   8.405  72.173  1.00  0.00    -0.302 C  
ENDBRANCH  15  16
ENDBRANCH  14  15
ENDBRANCH  10  11
BRANCH  10  21
HETATM   21  C   UNL     1     -10.637  10.173  66.493  1.00  0.00    -0.179 C  
BRANCH  21  22
HETATM   22  C   UNL     1      -9.878  10.401  65.200  1.00  0.00    -0.378 A  
HETATM   23  C   UNL     1      -7.987   9.876  63.759  1.00  0.00    -0.148 A  
HETATM   24  C   UNL     1      -8.613   9.827  65.009  1.00  0.00    -0.178 A  
HETATM   25  C   UNL     1      -8.607  10.512  62.686  1.00  0.00    -0.234 A  
HETATM   26  C   UNL     1     -10.483  11.053  64.112  1.00  0.00    -0.434 A  
HETATM   27  C   UNL     1      -9.851  11.108  62.865  1.00  0.00    -0.323 A  
ENDBRANCH  21  22
ENDBRANCH  10  21
ENDBRANCH   7  10
ENDBRANCH   6   7
ENDBRANCH   5   6
BRANCH   5  28
HETATM   28  S   UNL     1     -10.179  15.565  69.165  1.00  0.00    -0.257 S  
HETATM   29  O   UNL     1     -11.128  16.036  70.146  1.00  0.00    -0.320 OA 
HETATM   30  O   UNL     1      -8.978  14.859  69.573  1.00  0.00    -0.107 OA 
BRANCH  28  31
HETATM   31  C   UNL     1      -9.681  16.982  68.224  1.00  0.00    -0.275 A  
HETATM   32  N   UNL     1      -8.545  20.327  65.945  1.00  0.00    -0.545 NA 
HETATM   33  H2  UNL     1      -8.628  20.033  64.972  1.00  0.00     0.000 HD 
HETATM   34  H1  UNL     1      -9.030  21.217  66.054  1.00  0.00     0.000 HD 
HETATM   35  C   UNL     1      -8.597  16.891  67.350  1.00  0.00    -0.214 A  
HETATM   36  C   UNL     1      -8.208  18.018  66.614  1.00  0.00    -0.285 A  
HETATM   37  C   UNL     1     -10.411  18.175  68.315  1.00  0.00    -0.377 A  
HETATM   38  C   UNL     1     -10.016  19.290  67.569  1.00  0.00    -0.460 A  
HETATM   39  C   UNL     1      -8.874  19.241  66.763  1.00  0.00    -0.317 A  
ENDBRANCH  28  31
ENDBRANCH   5  28
ENDBRANCH   4   5
TORSDOF 11
ENDMDL
MODEL      146
REMARK 921   NORMALIZED FREE ENERGY PREDICTED BY IDOCK:   -5.60 KCAL/MOL
REMARK 922        TOTAL FREE ENERGY PREDICTED BY IDOCK:  -10.97 KCAL/MOL
REMARK 923 INTER-LIGAND FREE ENERGY PREDICTED BY IDOCK:   -9.44 KCAL/MOL
REMARK 924 INTRA-LIGAND FREE ENERGY PREDICTED BY IDOCK:   -1.53 KCAL/MOL
REMARK 927      BINDING AFFINITY PREDICTED BY RF-SCORE:    0.00 PKD
ROOT
HETATM    1  C   UNL     1     -10.384  13.510  64.496  1.00  0.00    -0.381 C  
HETATM    2  C   UNL     1     -11.466  12.452  64.716  1.00  0.00    -0.375 C  
HETATM    3  C   UNL     1     -11.940  11.959  63.333  1.00  0.00    -0.528 C  
HETATM    4  C   UNL     1     -10.987  11.247  65.548  1.00  0.00    -0.131 C  
ENDROOT
BRANCH   4   5
HETATM    5  N   UNL     1     -10.466  11.532  66.953  1.00  0.00    -0.226 N  
BRANCH   5   6
HETATM    6  C   UNL     1     -11.576  12.070  67.888  1.00  0.00    -0.337 C  
BRANCH   6   7
HETATM    7  C   UNL     1     -11.547  13.607  68.202  1.00  0.00    -0.332 C  
HETATM    8  H   UNL     1     -12.364  15.212  67.445  1.00  0.00     0.000 HD 
HETATM    9  O   UNL     1     -12.382  14.282  67.254  1.00  0.00    -0.337 OA 
BRANCH   7  10
HETATM   10  C   UNL     1     -11.943  13.950  69.686  1.00  0.00    -0.342 C  
BRANCH  10  11
HETATM   11  N   UNL     1     -12.118  12.752  70.531  1.00  0.00    -0.508 N  
HETATM   12  O   UNL     1     -13.829  13.641  71.772  1.00  0.00    -0.360 OA 
HETATM   13  H   UNL     1     -11.528  11.935  70.373  1.00  0.00     0.000 HD 
HETATM   14  C   UNL     1     -13.064  12.720  71.526  1.00  0.00    -0.286 C  
BRANCH  14  15
HETATM   15  O   UNL     1     -13.025  11.548  72.222  1.00  0.00    -0.283 OA 
BRANCH  15  16
HETATM   16  C   UNL     1     -12.820  10.387  71.394  1.00  0.00    -0.452 C  
HETATM   17  C   UNL     1     -11.422   9.823  71.545  1.00  0.00    -0.393 C  
HETATM   18  O   UNL     1     -12.910   7.997  71.595  1.00  0.00    -0.318 OA 
HETATM   19  C   UNL     1     -11.609   8.378  71.136  1.00  0.00    -0.279 C  
HETATM   20  C   UNL     1     -13.684   9.192  71.792  1.00  0.00    -0.404 C  
ENDBRANCH  15  16
ENDBRANCH  14  15
ENDBRANCH  10  11
BRANCH  10  21
HETATM   21  C   UNL     1     -11.103  15.047  70.394  1.00  0.00    -0.263 C  
BRANCH  21  22
HETATM   22  C   UNL     1     -10.185  15.953  69.597  1.00  0.00    -0.280 A  
HETATM   23  C   UNL     1      -9.791  18.084  68.488  1.00  0.00    -0.383 A  
HETATM   24  C   UNL     1     -10.666  17.157  69.063  1.00  0.00    -0.219 A  
HETATM   25  C   UNL     1      -8.425  17.818  68.425  1.00  0.00    -0.295 A  
HETATM   26  C   UNL     1      -8.808  15.692  69.511  1.00  0.00    -0.213 A  
HETATM   27  C   UNL     1      -7.934  16.617  68.929  1.00  0.00    -0.236 A  
ENDBRANCH  21  22
ENDBRANCH  10  21
ENDBRANCH   7  10
ENDBRANCH   6   7
ENDBRANCH   5   6
BRANCH   5  28
HETATM   28  S   UNL     1      -9.716  10.092  67.635  1.00  0.00    -0.162 S  
HETATM   29  O   UNL     1      -9.081  10.433  68.886  1.00  0.00    -0.155 OA 
HETATM   30  O   UNL     1     -10.731   9.056  67.577  1.00  0.00    -0.267 OA 
BRANCH  28  31
HETATM   31  C   UNL     1      -8.418   9.641  66.516  1.00  0.00    -0.123 A  
HETATM   32  N   UNL     1      -5.379   8.588  63.810  1.00  0.00    -0.056 NA 
HETATM   33  H2  UNL     1      -5.860   8.199  62.999  1.00  0.00     0.000 HD 
HETATM   34  H1  UNL     1      -4.711   9.287  63.483  1.00  0.00     0.000 HD 
HETATM   35  C   UNL     1      -8.286   8.315  66.102  1.00  0.00    -0.119 A  
HETATM   36  C   UNL     1      -7.253   7.967  65.221  1.00  0.00    -0.064 A  
HETATM   37  C   UNL     1      -7.562  10.625  66.003  1.00  0.00    -0.142 A  
HETATM   38  C   UNL     1      -6.541  10.265  65.119  1.00  0.00    -0.121 A  
HETATM   39  C   UNL     1      -6.337   8.926  64.772  1.00  0.00    -0.066 A  
ENDBRANCH  28  31
ENDBRANCH   5  28
ENDBRANCH   4   5
TORSDOF 11
ENDMDL
MODEL      147
REMARK 921   NORMALIZED FREE ENERGY PREDICTED BY IDOCK:   -5.58 KCAL/MOL
REMARK 922        TOTAL FREE ENERGY PREDICTED BY IDOCK:  -10.93 KCAL/MOL
REMARK 923 INTER-LIGAND FREE ENERGY PREDICTED BY IDOCK:   -9.21 KCAL/MOL
REMARK 924 INTRA-LIGAND FREE ENERGY PREDICTED BY IDOCK:   -1.72 KCAL/MOL
REMARK 927      BINDING AFFINITY PREDICTED BY RF-SCORE:    0.00 PKD
ROOT
HETATM    1  C   UNL     1      -7.190  11.545  66.853  1.00  0.00    -0.137 C  
HETATM    2  C   UNL     1      -7.808  12.483  67.891  1.00  0.00    -0.144 C  
HETATM    3  C   UNL     1      -6.663  13.257  68.575  1.00  0.00    -0.092 C  
HETATM    4  C   UNL     1      -8.814  13.485  67.292  1.00  0.00    -0.224 C  
ENDROOT
BRANCH   4   5
HETATM    5  N   UNL     1     -10.020  12.910  66.558  1.00  0.00    -0.253 N  
BRANCH   5   6
HETATM    6  C   UNL     1     -10.835  11.940  67.448  1.00  0.00    -0.243 C  
BRANCH   6   7
HETATM    7  C   UNL     1     -11.003  10.473  66.918  1.00  0.00    -0.131 C  
HETATM    8  H   UNL     1     -10.408   9.467  65.351  1.00  0.00     0.000 HD 
HETATM    9  O   UNL     1     -10.306  10.356  65.672  1.00  0.00    -0.255 OA 
BRANCH   7  10
HETATM   10  C   UNL     1     -10.549   9.377  67.952  1.00  0.00    -0.237 C  
BRANCH  10  11
HETATM   11  N   UNL     1      -9.538   8.449  67.408  1.00  0.00    -0.150 N  
HETATM   12  O   UNL     1     -10.734   6.555  67.894  1.00  0.00    -0.224 OA 
HETATM   13  H   UNL     1      -8.682   8.823  66.998  1.00  0.00     0.000 HD 
HETATM   14  C   UNL     1      -9.732   7.090  67.445  1.00  0.00    -0.141 C  
BRANCH  14  15
HETATM   15  O   UNL     1      -8.660   6.413  66.943  1.00  0.00    -0.109 OA 
BRANCH  15  16
HETATM   16  C   UNL     1      -8.858   5.919  65.605  1.00  0.00    -0.118 C  
HETATM   17  C   UNL     1      -7.979   6.634  64.600  1.00  0.00    -0.113 C  
HETATM   18  O   UNL     1      -7.858   4.333  64.106  1.00  0.00    -0.082 OA 
HETATM   19  C   UNL     1      -7.874   5.621  63.481  1.00  0.00    -0.101 C  
HETATM   20  C   UNL     1      -8.427   4.465  65.419  1.00  0.00    -0.120 C  
ENDBRANCH  15  16
ENDBRANCH  14  15
ENDBRANCH  10  11
BRANCH  10  21
HETATM   21  C   UNL     1     -10.179   9.876  69.375  1.00  0.00    -0.231 C  
BRANCH  21  22
HETATM   22  C   UNL     1     -11.158   9.733  70.524  1.00  0.00    -0.384 A  
HETATM   23  C   UNL     1     -13.126  10.533  71.712  1.00  0.00    -0.570 A  
HETATM   24  C   UNL     1     -12.104  10.735  70.778  1.00  0.00    -0.473 A  
HETATM   25  C   UNL     1     -13.209   9.334  72.417  1.00  0.00    -0.501 A  
HETATM   26  C   UNL     1     -11.245   8.535  71.254  1.00  0.00    -0.321 A  
HETATM   27  C   UNL     1     -12.263   8.338  72.193  1.00  0.00    -0.418 A  
ENDBRANCH  21  22
ENDBRANCH  10  21
ENDBRANCH   7  10
ENDBRANCH   6   7
ENDBRANCH   5   6
BRANCH   5  28
HETATM   28  S   UNL     1     -11.043  14.206  65.945  1.00  0.00    -0.312 S  
HETATM   29  O   UNL     1     -10.723  14.448  64.558  1.00  0.00    -0.371 OA 
HETATM   30  O   UNL     1     -12.395  13.862  66.346  1.00  0.00    -0.448 OA 
BRANCH  28  31
HETATM   31  C   UNL     1     -10.568  15.663  66.834  1.00  0.00    -0.311 A  
HETATM   32  N   UNL     1      -9.503  19.149  68.929  1.00  0.00    -0.383 NA 
HETATM   33  H2  UNL     1      -9.948  19.915  68.425  1.00  0.00     0.000 HD 
HETATM   34  H1  UNL     1      -9.723  19.245  69.920  1.00  0.00     0.000 HD 
HETATM   35  C   UNL     1      -9.860  16.675  66.184  1.00  0.00    -0.340 A  
HETATM   36  C   UNL     1      -9.485  17.822  66.897  1.00  0.00    -0.271 A  
HETATM   37  C   UNL     1     -10.954  15.825  68.172  1.00  0.00    -0.330 A  
HETATM   38  C   UNL     1     -10.579  16.978  68.869  1.00  0.00    -0.328 A  
HETATM   39  C   UNL     1      -9.787  17.955  68.257  1.00  0.00    -0.348 A  
ENDBRANCH  28  31
ENDBRANCH   5  28
ENDBRANCH   4   5
TORSDOF 11
ENDMDL
MODEL      148
REMARK 921   NORMALIZED FREE ENERGY PREDICTED BY IDOCK:   -5.57 KCAL/MOL
REMARK 922        TOTAL FREE ENERGY PREDICTED BY IDOCK:  -10.92 KCAL/MOL
REMARK 923 INTER-LIGAND FREE ENERGY PREDICTED BY IDOCK:   -9.13 KCAL/MOL
REMARK 924 INTRA-LIGAND FREE ENERGY PREDICTED BY IDOCK:   -1.79 KCAL/MOL
REMARK 927      BINDING AFFINITY PREDICTED BY RF-SCORE:    0.00 PKD
ROOT
HETATM    1  C   UNL     1     -10.907   9.404  67.823  1.00  0.00    -0.223 C  
HETATM    2  C   UNL     1     -10.969  10.881  68.217  1.00  0.00    -0.293 C  
HETATM    3  C   UNL     1     -12.094  11.050  69.257  1.00  0.00    -0.363 C  
HETATM    4  C   UNL     1      -9.648  11.415  68.804  1.00  0.00    -0.129 C  
ENDROOT
BRANCH   4   5
HETATM    5  N   UNL     1      -8.406  11.325  67.924  1.00  0.00    -0.127 N  
BRANCH   5   6
HETATM    6  C   UNL     1      -7.969  12.711  67.390  1.00  0.00    -0.177 C  
BRANCH   6   7
HETATM    7  C   UNL     1      -8.292  13.949  68.298  1.00  0.00    -0.163 C  
HETATM    8  H   UNL     1      -7.277  15.430  69.068  1.00  0.00     0.000 HD 
HETATM    9  O   UNL     1      -7.081  14.680  68.518  1.00  0.00    -0.101 OA 
BRANCH   7  10
HETATM   10  C   UNL     1      -9.437  14.863  67.725  1.00  0.00    -0.203 C  
BRANCH  10  11
HETATM   11  N   UNL     1     -10.306  15.431  68.776  1.00  0.00    -0.222 N  
HETATM   12  O   UNL     1     -12.210  14.392  68.034  1.00  0.00    -0.281 OA 
HETATM   13  H   UNL     1      -9.903  16.050  69.480  1.00  0.00     0.000 HD 
HETATM   14  C   UNL     1     -11.647  15.140  68.820  1.00  0.00    -0.349 C  
BRANCH  14  15
HETATM   15  O   UNL     1     -12.276  15.806  69.830  1.00  0.00    -0.352 OA 
BRANCH  15  16
HETATM   16  C   UNL     1     -12.435  15.026  71.031  1.00  0.00    -0.338 C  
HETATM   17  C   UNL     1     -12.149  15.839  72.277  1.00  0.00    -0.574 C  
HETATM   18  O   UNL     1     -14.114  14.608  72.694  1.00  0.00    -0.491 OA 
HETATM   19  C   UNL     1     -12.932  15.095  73.336  1.00  0.00    -0.518 C  
HETATM   20  C   UNL     1     -13.871  14.570  71.278  1.00  0.00    -0.315 C  
ENDBRANCH  15  16
ENDBRANCH  14  15
ENDBRANCH  10  11
BRANCH  10  21
HETATM   21  C   UNL     1      -9.018  15.926  66.675  1.00  0.00    -0.301 C  
BRANCH  21  22
HETATM   22  C   UNL     1      -9.168  17.406  66.969  1.00  0.00    -0.252 A  
HETATM   23  C   UNL     1     -10.498  19.442  66.852  1.00  0.00    -0.569 A  
HETATM   24  C   UNL     1     -10.247  18.129  66.441  1.00  0.00    -0.405 A  
HETATM   25  C   UNL     1      -9.667  20.058  67.786  1.00  0.00    -0.528 A  
HETATM   26  C   UNL     1      -8.331  18.046  67.898  1.00  0.00    -0.249 A  
HETATM   27  C   UNL     1      -8.579  19.363  68.302  1.00  0.00    -0.376 A  
ENDBRANCH  21  22
ENDBRANCH  10  21
ENDBRANCH   7  10
ENDBRANCH   6   7
ENDBRANCH   5   6
BRANCH   5  28
HETATM   28  S   UNL     1      -7.089  10.546  68.797  1.00  0.00    -0.079 S  
HETATM   29  O   UNL     1      -6.062  10.156  67.859  1.00  0.00    -0.052 OA 
HETATM   30  O   UNL     1      -6.782  11.426  69.910  1.00  0.00    -0.122 OA 
BRANCH  28  31
HETATM   31  C   UNL     1      -7.763   9.048  69.460  1.00  0.00    -0.082 A  
HETATM   32  N   UNL     1      -9.423   5.512  71.013  1.00  0.00    -0.159 NA 
HETATM   33  H2  UNL     1     -10.351   5.771  71.347  1.00  0.00     0.000 HD 
HETATM   34  H1  UNL     1      -9.513   4.681  70.428  1.00  0.00     0.000 HD 
HETATM   35  C   UNL     1      -8.145   8.991  70.801  1.00  0.00    -0.194 A  
HETATM   36  C   UNL     1      -8.673   7.800  71.318  1.00  0.00    -0.140 A  
HETATM   37  C   UNL     1      -7.966   7.941  68.625  1.00  0.00    -0.124 A  
HETATM   38  C   UNL     1      -8.500   6.761  69.152  1.00  0.00    -0.128 A  
HETATM   39  C   UNL     1      -8.797   6.659  70.515  1.00  0.00    -0.152 A  
ENDBRANCH  28  31
ENDBRANCH   5  28
ENDBRANCH   4   5
TORSDOF 11
ENDMDL
MODEL      149
REMARK 921   NORMALIZED FREE ENERGY PREDICTED BY IDOCK:   -5.56 KCAL/MOL
REMARK 922        TOTAL FREE ENERGY PREDICTED BY IDOCK:  -10.90 KCAL/MOL
REMARK 923 INTER-LIGAND FREE ENERGY PREDICTED BY IDOCK:   -9.20 KCAL/MOL
REMARK 924 INTRA-LIGAND FREE ENERGY PREDICTED BY IDOCK:   -1.71 KCAL/MOL
REMARK 927      BINDING AFFINITY PREDICTED BY RF-SCORE:    0.00 PKD
ROOT
HETATM    1  C   UNL     1      -6.848   9.758  70.327  1.00  0.00    -0.123 C  
HETATM    2  C   UNL     1      -7.637   9.899  69.024  1.00  0.00    -0.086 C  
HETATM    3  C   UNL     1      -6.880   9.129  67.924  1.00  0.00    -0.069 C  
HETATM    4  C   UNL     1      -9.080   9.364  69.119  1.00  0.00    -0.148 C  
ENDROOT
BRANCH   4   5
HETATM    5  N   UNL     1      -9.990   9.996  70.166  1.00  0.00    -0.235 N  
BRANCH   5   6
HETATM    6  C   UNL     1     -11.054  10.924  69.529  1.00  0.00    -0.268 C  
BRANCH   6   7
HETATM    7  C   UNL     1     -10.658  11.627  68.184  1.00  0.00    -0.201 C  
HETATM    8  H   UNL     1     -11.465  11.835  66.416  1.00  0.00     0.000 HD 
HETATM    9  O   UNL     1     -11.705  11.409  67.231  1.00  0.00    -0.577 OA 
BRANCH   7  10
HETATM   10  C   UNL     1     -10.323  13.156  68.351  1.00  0.00    -0.253 C  
BRANCH  10  11
HETATM   11  N   UNL     1     -11.150  13.822  69.377  1.00  0.00    -0.398 N  
HETATM   12  O   UNL     1     -11.877  15.491  67.984  1.00  0.00    -0.277 OA 
HETATM   13  H   UNL     1     -11.198  13.428  70.317  1.00  0.00     0.000 HD 
HETATM   14  C   UNL     1     -11.856  14.963  69.086  1.00  0.00    -0.307 C  
BRANCH  14  15
HETATM   15  O   UNL     1     -12.508  15.447  70.181  1.00  0.00    -0.368 OA 
BRANCH  15  16
HETATM   16  C   UNL     1     -12.111  14.823  71.417  1.00  0.00    -0.344 C  
HETATM   17  C   UNL     1     -11.747  15.843  72.476  1.00  0.00    -0.564 C  
HETATM   18  O   UNL     1     -13.093  14.217  73.522  1.00  0.00    -0.486 OA 
HETATM   19  C   UNL     1     -11.971  15.074  73.759  1.00  0.00    -0.332 C  
HETATM   20  C   UNL     1     -13.238  14.051  72.102  1.00  0.00    -0.435 C  
ENDBRANCH  15  16
ENDBRANCH  14  15
ENDBRANCH  10  11
BRANCH  10  21
HETATM   21  C   UNL     1      -8.821  13.528  68.479  1.00  0.00    -0.086 C  
BRANCH  21  22
HETATM   22  C   UNL     1      -8.329  14.904  68.077  1.00  0.00    -0.147 A  
HETATM   23  C   UNL     1      -8.136  16.652  66.394  1.00  0.00    -0.359 A  
HETATM   24  C   UNL     1      -8.414  15.326  66.743  1.00  0.00    -0.290 A  
HETATM   25  C   UNL     1      -7.754  17.572  67.368  1.00  0.00    -0.213 A  
HETATM   26  C   UNL     1      -7.926  15.839  69.046  1.00  0.00    -0.214 A  
HETATM   27  C   UNL     1      -7.641  17.163  68.693  1.00  0.00    -0.258 A  
ENDBRANCH  21  22
ENDBRANCH  10  21
ENDBRANCH   7  10
ENDBRANCH   6   7
ENDBRANCH   5   6
BRANCH   5  28
HETATM   28  S   UNL     1     -10.754   8.751  71.149  1.00  0.00    -0.273 S  
HETATM   29  O   UNL     1     -10.185   8.777  72.476  1.00  0.00    -0.251 OA 
HETATM   30  O   UNL     1     -12.183   8.916  70.952  1.00  0.00    -0.252 OA 
BRANCH  28  31
HETATM   31  C   UNL     1     -10.283   7.203  70.428  1.00  0.00    -0.193 A  
HETATM   32  N   UNL     1      -9.119   3.562  68.677  1.00  0.00    -0.132 NA 
HETATM   33  H2  UNL     1      -8.881   3.789  67.712  1.00  0.00     0.000 HD 
HETATM   34  H1  UNL     1      -8.356   3.016  69.076  1.00  0.00     0.000 HD 
HETATM   35  C   UNL     1     -10.980   6.709  69.324  1.00  0.00    -0.346 A  
HETATM   36  C   UNL     1     -10.602   5.481  68.763  1.00  0.00    -0.236 A  
HETATM   37  C   UNL     1      -9.176   6.505  70.928  1.00  0.00    -0.155 A  
HETATM   38  C   UNL     1      -8.806   5.284  70.354  1.00  0.00    -0.146 A  
HETATM   39  C   UNL     1      -9.554   4.732  69.310  1.00  0.00    -0.173 A  
ENDBRANCH  28  31
ENDBRANCH   5  28
ENDBRANCH   4   5
TORSDOF 11
ENDMDL
MODEL      150
REMARK 921   NORMALIZED FREE ENERGY PREDICTED BY IDOCK:   -5.54 KCAL/MOL
REMARK 922        TOTAL FREE ENERGY PREDICTED BY IDOCK:  -10.88 KCAL/MOL
REMARK 923 INTER-LIGAND FREE ENERGY PREDICTED BY IDOCK:   -9.18 KCAL/MOL
REMARK 924 INTRA-LIGAND FREE ENERGY PREDICTED BY IDOCK:   -1.70 KCAL/MOL
REMARK 927      BINDING AFFINITY PREDICTED BY RF-SCORE:    0.00 PKD
ROOT
HETATM    1  C   UNL     1      -7.030  13.307  67.528  1.00  0.00    -0.152 C  
HETATM    2  C   UNL     1      -7.763  13.767  68.788  1.00  0.00    -0.080 C  
HETATM    3  C   UNL     1      -6.787  14.621  69.623  1.00  0.00    -0.163 C  
HETATM    4  C   UNL     1      -9.034  14.588  68.495  1.00  0.00    -0.188 C  
ENDROOT
BRANCH   4   5
HETATM    5  N   UNL     1     -10.123  13.916  67.665  1.00  0.00    -0.238 N  
BRANCH   5   6
HETATM    6  C   UNL     1     -11.357  13.539  68.520  1.00  0.00    -0.292 C  
BRANCH   6   7
HETATM    7  C   UNL     1     -11.769  12.025  68.531  1.00  0.00    -0.332 C  
HETATM    8  H   UNL     1     -12.143  10.660  67.184  1.00  0.00     0.000 HD 
HETATM    9  O   UNL     1     -11.894  11.577  67.177  1.00  0.00    -0.595 OA 
BRANCH   7  10
HETATM   10  C   UNL     1     -10.791  11.117  69.365  1.00  0.00    -0.216 C  
BRANCH  10  11
HETATM   11  N   UNL     1     -11.494  10.131  70.210  1.00  0.00    -0.285 N  
HETATM   12  O   UNL     1     -12.586  11.703  71.472  1.00  0.00    -0.317 OA 
HETATM   13  H   UNL     1     -11.351   9.135  70.044  1.00  0.00     0.000 HD 
HETATM   14  C   UNL     1     -12.337  10.535  71.216  1.00  0.00    -0.397 C  
BRANCH  14  15
HETATM   15  O   UNL     1     -12.840   9.474  71.910  1.00  0.00    -0.363 OA 
BRANCH  15  16
HETATM   16  C   UNL     1     -12.128   8.242  71.685  1.00  0.00    -0.306 C  
HETATM   17  C   UNL     1     -11.170   7.926  72.815  1.00  0.00    -0.466 C  
HETATM   18  O   UNL     1     -12.302   5.927  72.294  1.00  0.00    -0.206 OA 
HETATM   19  C   UNL     1     -11.026   6.424  72.709  1.00  0.00    -0.257 C  
HETATM   20  C   UNL     1     -13.027   7.007  71.683  1.00  0.00    -0.352 C  
ENDBRANCH  15  16
ENDBRANCH  14  15
ENDBRANCH  10  11
BRANCH  10  21
HETATM   21  C   UNL     1      -9.603  10.483  68.593  1.00  0.00    -0.171 C  
BRANCH  21  22
HETATM   22  C   UNL     1      -8.783   9.369  69.213  1.00  0.00    -0.145 A  
HETATM   23  C   UNL     1      -7.571   8.474  71.125  1.00  0.00    -0.104 A  
HETATM   24  C   UNL     1      -8.171   9.549  70.461  1.00  0.00    -0.203 A  
HETATM   25  C   UNL     1      -7.559   7.207  70.546  1.00  0.00    -0.089 A  
HETATM   26  C   UNL     1      -8.749   8.089  68.634  1.00  0.00    -0.131 A  
HETATM   27  C   UNL     1      -8.141   7.016  69.296  1.00  0.00    -0.120 A  
ENDBRANCH  21  22
ENDBRANCH  10  21
ENDBRANCH   7  10
ENDBRANCH   6   7
ENDBRANCH   5   6
BRANCH   5  28
HETATM   28  S   UNL     1     -10.588  14.943  66.312  1.00  0.00    -0.319 S  
HETATM   29  O   UNL     1      -9.922  14.485  65.116  1.00  0.00    -0.354 OA 
HETATM   30  O   UNL     1     -12.036  15.034  66.368  1.00  0.00    -0.145 OA 
BRANCH  28  31
HETATM   31  C   UNL     1      -9.931  16.549  66.671  1.00  0.00    -0.276 A  
HETATM   32  N   UNL     1      -8.335  20.332  67.574  1.00  0.00    -0.327 NA 
HETATM   33  H2  UNL     1      -8.212  20.341  68.586  1.00  0.00     0.000 HD 
HETATM   34  H1  UNL     1      -7.466  20.645  67.142  1.00  0.00     0.000 HD 
HETATM   35  C   UNL     1     -10.622  17.409  67.527  1.00  0.00    -0.330 A  
HETATM   36  C   UNL     1     -10.097  18.678  67.801  1.00  0.00    -0.408 A  
HETATM   37  C   UNL     1      -8.691  16.933  66.144  1.00  0.00    -0.280 A  
HETATM   38  C   UNL     1      -8.175  18.200  66.432  1.00  0.00    -0.282 A  
HETATM   39  C   UNL     1      -8.903  19.107  67.209  1.00  0.00    -0.289 A  
ENDBRANCH  28  31
ENDBRANCH   5  28
ENDBRANCH   4   5
TORSDOF 11
ENDMDL
MODEL      151
REMARK 921   NORMALIZED FREE ENERGY PREDICTED BY IDOCK:   -5.54 KCAL/MOL
REMARK 922        TOTAL FREE ENERGY PREDICTED BY IDOCK:  -10.87 KCAL/MOL
REMARK 923 INTER-LIGAND FREE ENERGY PREDICTED BY IDOCK:   -9.34 KCAL/MOL
REMARK 924 INTRA-LIGAND FREE ENERGY PREDICTED BY IDOCK:   -1.54 KCAL/MOL
REMARK 927      BINDING AFFINITY PREDICTED BY RF-SCORE:    0.00 PKD
ROOT
HETATM    1  C   UNL     1      -6.999  11.201  66.702  1.00  0.00    -0.142 C  
HETATM    2  C   UNL     1      -7.764  11.249  68.025  1.00  0.00    -0.108 C  
HETATM    3  C   UNL     1      -6.825  11.840  69.097  1.00  0.00    -0.106 C  
HETATM    4  C   UNL     1      -9.054  12.090  67.959  1.00  0.00    -0.188 C  
ENDROOT
BRANCH   4   5
HETATM    5  N   UNL     1     -10.110  11.668  66.944  1.00  0.00    -0.208 N  
BRANCH   5   6
HETATM    6  C   UNL     1     -11.032  10.551  67.492  1.00  0.00    -0.303 C  
BRANCH   6   7
HETATM    7  C   UNL     1     -10.637   9.075  67.136  1.00  0.00    -0.220 C  
HETATM    8  H   UNL     1      -9.384   8.212  65.910  1.00  0.00     0.000 HD 
HETATM    9  O   UNL     1      -9.623   9.106  66.125  1.00  0.00    -0.224 OA 
BRANCH   7  10
HETATM   10  C   UNL     1     -10.198   8.226  68.386  1.00  0.00    -0.209 C  
BRANCH  10  11
HETATM   11  N   UNL     1     -11.222   8.188  69.450  1.00  0.00    -0.426 N  
HETATM   12  O   UNL     1     -10.084   9.591  70.862  1.00  0.00    -0.286 OA 
HETATM   13  H   UNL     1     -12.067   7.635  69.312  1.00  0.00     0.000 HD 
HETATM   14  C   UNL     1     -11.052   8.885  70.620  1.00  0.00    -0.262 C  
BRANCH  14  15
HETATM   15  O   UNL     1     -12.082   8.672  71.489  1.00  0.00    -0.290 OA 
BRANCH  15  16
HETATM   16  C   UNL     1     -11.765   7.756  72.554  1.00  0.00    -0.339 C  
HETATM   17  C   UNL     1     -11.929   6.312  72.128  1.00  0.00    -0.338 C  
HETATM   18  O   UNL     1      -9.895   6.454  73.308  1.00  0.00    -0.159 OA 
HETATM   19  C   UNL     1     -11.010   5.585  73.084  1.00  0.00    -0.293 C  
HETATM   20  C   UNL     1     -10.297   7.793  72.975  1.00  0.00    -0.347 C  
ENDBRANCH  15  16
ENDBRANCH  14  15
ENDBRANCH  10  11
BRANCH  10  21
HETATM   21  C   UNL     1      -9.601   6.823  68.098  1.00  0.00    -0.122 C  
BRANCH  21  22
HETATM   22  C   UNL     1      -9.283   5.870  69.233  1.00  0.00    -0.134 A  
HETATM   23  C   UNL     1      -9.608   3.710  70.309  1.00  0.00    -0.246 A  
HETATM   24  C   UNL     1     -10.009   4.680  69.384  1.00  0.00    -0.249 A  
HETATM   25  C   UNL     1      -8.486   3.920  71.107  1.00  0.00    -0.099 A  
HETATM   26  C   UNL     1      -8.163   6.074  70.057  1.00  0.00    -0.122 A  
HETATM   27  C   UNL     1      -7.768   5.106  70.987  1.00  0.00    -0.095 A  
ENDBRANCH  21  22
ENDBRANCH  10  21
ENDBRANCH   7  10
ENDBRANCH   6   7
ENDBRANCH   5   6
BRANCH   5  28
HETATM   28  S   UNL     1     -11.054  13.061  66.424  1.00  0.00    -0.295 S  
HETATM   29  O   UNL     1     -10.249  13.882  65.550  1.00  0.00    -0.311 OA 
HETATM   30  O   UNL     1     -12.327  12.526  65.975  1.00  0.00    -0.615 OA 
BRANCH  28  31
HETATM   31  C   UNL     1     -11.353  14.019  67.884  1.00  0.00    -0.291 A  
HETATM   32  N   UNL     1     -12.003  16.273  71.373  1.00  0.00    -0.644 NA 
HETATM   33  H2  UNL     1     -11.559  15.745  72.123  1.00  0.00     0.000 HD 
HETATM   34  H1  UNL     1     -11.687  17.241  71.430  1.00  0.00     0.000 HD 
HETATM   35  C   UNL     1     -12.054  13.458  68.953  1.00  0.00    -0.289 A  
HETATM   36  C   UNL     1     -12.290  14.225  70.102  1.00  0.00    -0.413 A  
HETATM   37  C   UNL     1     -10.837  15.318  67.988  1.00  0.00    -0.288 A  
HETATM   38  C   UNL     1     -11.074  16.069  69.143  1.00  0.00    -0.317 A  
HETATM   39  C   UNL     1     -11.856  15.554  70.181  1.00  0.00    -0.356 A  
ENDBRANCH  28  31
ENDBRANCH   5  28
ENDBRANCH   4   5
TORSDOF 11
ENDMDL
MODEL      152
REMARK 921   NORMALIZED FREE ENERGY PREDICTED BY IDOCK:   -5.53 KCAL/MOL
REMARK 922        TOTAL FREE ENERGY PREDICTED BY IDOCK:  -10.86 KCAL/MOL
REMARK 923 INTER-LIGAND FREE ENERGY PREDICTED BY IDOCK:   -9.08 KCAL/MOL
REMARK 924 INTRA-LIGAND FREE ENERGY PREDICTED BY IDOCK:   -1.78 KCAL/MOL
REMARK 927      BINDING AFFINITY PREDICTED BY RF-SCORE:    0.00 PKD
ROOT
HETATM    1  C   UNL     1     -11.493  10.079  71.311  1.00  0.00    -0.390 C  
HETATM    2  C   UNL     1     -12.816  10.807  71.069  1.00  0.00    -0.480 C  
HETATM    3  C   UNL     1     -13.875  10.194  72.007  1.00  0.00    -0.063 C  
HETATM    4  C   UNL     1     -12.735  12.326  71.317  1.00  0.00    -0.251 C  
ENDROOT
BRANCH   4   5
HETATM    5  N   UNL     1     -11.728  13.116  70.488  1.00  0.00    -0.092 N  
BRANCH   5   6
HETATM    6  C   UNL     1     -11.851  12.809  68.976  1.00  0.00    -0.297 C  
BRANCH   6   7
HETATM    7  C   UNL     1     -10.992  11.617  68.428  1.00  0.00    -0.220 C  
HETATM    8  H   UNL     1     -11.251  10.175  67.135  1.00  0.00     0.000 HD 
HETATM    9  O   UNL     1     -11.772  10.897  67.467  1.00  0.00    -0.543 OA 
BRANCH   7  10
HETATM   10  C   UNL     1      -9.602  12.065  67.841  1.00  0.00    -0.196 C  
BRANCH  10  11
HETATM   11  N   UNL     1      -8.798  10.937  67.328  1.00  0.00    -0.134 N  
HETATM   12  O   UNL     1      -7.705  10.564  69.309  1.00  0.00    -0.121 OA 
HETATM   13  H   UNL     1      -8.915  10.636  66.361  1.00  0.00     0.000 HD 
HETATM   14  C   UNL     1      -7.895  10.288  68.134  1.00  0.00    -0.104 C  
BRANCH  14  15
HETATM   15  O   UNL     1      -7.219   9.317  67.454  1.00  0.00    -0.079 OA 
BRANCH  15  16
HETATM   16  C   UNL     1      -7.845   8.021  67.519  1.00  0.00    -0.118 C  
HETATM   17  C   UNL     1      -8.669   7.727  66.282  1.00  0.00    -0.174 C  
HETATM   18  O   UNL     1      -7.427   5.783  66.758  1.00  0.00    -0.081 OA 
HETATM   19  C   UNL     1      -8.698   6.215  66.262  1.00  0.00    -0.143 C  
HETATM   20  C   UNL     1      -6.851   6.861  67.514  1.00  0.00    -0.077 C  
ENDBRANCH  15  16
ENDBRANCH  14  15
ENDBRANCH  10  11
BRANCH  10  21
HETATM   21  C   UNL     1      -9.616  13.267  66.859  1.00  0.00    -0.249 C  
BRANCH  21  22
HETATM   22  C   UNL     1     -10.439  13.216  65.587  1.00  0.00    -0.290 A  
HETATM   23  C   UNL     1     -11.112  12.027  63.573  1.00  0.00    -0.519 A  
HETATM   24  C   UNL     1     -10.240  12.189  64.654  1.00  0.00    -0.312 A  
HETATM   25  C   UNL     1     -12.187  12.896  63.398  1.00  0.00    -0.574 A  
HETATM   26  C   UNL     1     -11.517  14.095  65.389  1.00  0.00    -0.325 A  
HETATM   27  C   UNL     1     -12.385  13.935  64.302  1.00  0.00    -0.390 A  
ENDBRANCH  21  22
ENDBRANCH  10  21
ENDBRANCH   7  10
ENDBRANCH   6   7
ENDBRANCH   5   6
BRANCH   5  28
HETATM   28  S   UNL     1     -11.900  14.842  70.793  1.00  0.00    -0.320 S  
HETATM   29  O   UNL     1     -13.259  15.242  70.514  1.00  0.00    -0.342 OA 
HETATM   30  O   UNL     1     -11.314  15.069  72.102  1.00  0.00    -0.364 OA 
BRANCH  28  31
HETATM   31  C   UNL     1     -10.878  15.652  69.594  1.00  0.00    -0.287 A  
HETATM   32  N   UNL     1      -8.456  17.520  66.709  1.00  0.00    -0.239 NA 
HETATM   33  H2  UNL     1      -7.895  16.773  66.301  1.00  0.00     0.000 HD 
HETATM   34  H1  UNL     1      -8.875  18.058  65.951  1.00  0.00     0.000 HD 
HETATM   35  C   UNL     1      -9.488  15.582  69.703  1.00  0.00    -0.244 A  
HETATM   36  C   UNL     1      -8.688  16.230  68.752  1.00  0.00    -0.244 A  
HETATM   37  C   UNL     1     -11.464  16.313  68.506  1.00  0.00    -0.272 A  
HETATM   38  C   UNL     1     -10.653  16.950  67.561  1.00  0.00    -0.307 A  
HETATM   39  C   UNL     1      -9.263  16.969  67.711  1.00  0.00    -0.236 A  
ENDBRANCH  28  31
ENDBRANCH   5  28
ENDBRANCH   4   5
TORSDOF 11
ENDMDL
MODEL      153
REMARK 921   NORMALIZED FREE ENERGY PREDICTED BY IDOCK:   -5.53 KCAL/MOL
REMARK 922        TOTAL FREE ENERGY PREDICTED BY IDOCK:  -10.86 KCAL/MOL
REMARK 923 INTER-LIGAND FREE ENERGY PREDICTED BY IDOCK:   -9.05 KCAL/MOL
REMARK 924 INTRA-LIGAND FREE ENERGY PREDICTED BY IDOCK:   -1.81 KCAL/MOL
REMARK 927      BINDING AFFINITY PREDICTED BY RF-SCORE:    0.00 PKD
ROOT
HETATM    1  C   UNL     1     -10.470  13.043  64.290  1.00  0.00    -0.424 C  
HETATM    2  C   UNL     1     -10.946  14.128  65.256  1.00  0.00    -0.339 C  
HETATM    3  C   UNL     1     -12.168  14.825  64.624  1.00  0.00    -0.405 C  
HETATM    4  C   UNL     1     -11.332  13.587  66.647  1.00  0.00    -0.322 C  
ENDROOT
BRANCH   4   5
HETATM    5  N   UNL     1     -10.253  12.850  67.432  1.00  0.00    -0.228 N  
BRANCH   5   6
HETATM    6  C   UNL     1      -9.626  13.738  68.535  1.00  0.00    -0.176 C  
BRANCH   6   7
HETATM    7  C   UNL     1      -9.473  15.264  68.207  1.00  0.00    -0.205 C  
HETATM    8  H   UNL     1      -9.523  16.932  69.223  1.00  0.00     0.000 HD 
HETATM    9  O   UNL     1      -9.615  16.008  69.422  1.00  0.00    -0.247 OA 
BRANCH   7  10
HETATM   10  C   UNL     1      -8.135  15.612  67.456  1.00  0.00    -0.160 C  
BRANCH  10  11
HETATM   11  N   UNL     1      -7.345  14.417  67.096  1.00  0.00    -0.287 N  
HETATM   12  O   UNL     1      -5.646  14.858  68.571  1.00  0.00    -0.089 OA 
HETATM   13  H   UNL     1      -7.701  13.774  66.388  1.00  0.00     0.000 HD 
HETATM   14  C   UNL     1      -6.139  14.158  67.699  1.00  0.00    -0.058 C  
BRANCH  14  15
HETATM   15  O   UNL     1      -5.547  13.041  67.187  1.00  0.00    -0.349 OA 
BRANCH  15  16
HETATM   16  C   UNL     1      -5.604  11.900  68.064  1.00  0.00    -0.049 C  
HETATM   17  C   UNL     1      -6.548  12.124  69.227  1.00  0.00    -0.104 C  
HETATM   18  O   UNL     1      -6.974   9.958  68.403  1.00  0.00    -0.066 OA 
HETATM   19  C   UNL     1      -6.923  10.712  69.619  1.00  0.00    -0.134 C  
HETATM   20  C   UNL     1      -6.202  10.655  67.411  1.00  0.00    -0.057 C  
ENDBRANCH  15  16
ENDBRANCH  14  15
ENDBRANCH  10  11
BRANCH  10  21
HETATM   21  C   UNL     1      -8.239  16.620  66.280  1.00  0.00    -0.365 C  
BRANCH  21  22
HETATM   22  C   UNL     1      -8.782  18.017  66.505  1.00  0.00    -0.279 A  
HETATM   23  C   UNL     1     -10.681  19.537  66.597  1.00  0.00    -0.552 A  
HETATM   24  C   UNL     1     -10.123  18.310  66.223  1.00  0.00    -0.389 A  
HETATM   25  C   UNL     1      -9.904  20.496  67.245  1.00  0.00    -0.581 A  
HETATM   26  C   UNL     1      -8.007  19.000  67.144  1.00  0.00    -0.271 A  
HETATM   27  C   UNL     1      -8.564  20.230  67.511  1.00  0.00    -0.389 A  
ENDBRANCH  21  22
ENDBRANCH  10  21
ENDBRANCH   7  10
ENDBRANCH   6   7
ENDBRANCH   5   6
BRANCH   5  28
HETATM   28  S   UNL     1     -10.899  11.362  68.118  1.00  0.00    -0.232 S  
HETATM   29  O   UNL     1     -10.420  11.215  69.472  1.00  0.00    -0.164 OA 
HETATM   30  O   UNL     1     -12.323  11.384  67.833  1.00  0.00    -0.380 OA 
BRANCH  28  31
HETATM   31  C   UNL     1     -10.180  10.042  67.181  1.00  0.00    -0.228 A  
HETATM   32  N   UNL     1      -8.530   6.903  64.923  1.00  0.00    -0.338 NA 
HETATM   33  H2  UNL     1      -9.310   6.281  64.712  1.00  0.00     0.000 HD 
HETATM   34  H1  UNL     1      -8.029   7.096  64.056  1.00  0.00     0.000 HD 
HETATM   35  C   UNL     1     -10.269   8.729  67.647  1.00  0.00    -0.298 A  
HETATM   36  C   UNL     1      -9.693   7.691  66.902  1.00  0.00    -0.277 A  
HETATM   37  C   UNL     1      -9.573  10.308  65.946  1.00  0.00    -0.263 A  
HETATM   38  C   UNL     1      -9.008   9.262  65.210  1.00  0.00    -0.260 A  
HETATM   39  C   UNL     1      -9.006   7.956  65.711  1.00  0.00    -0.080 A  
ENDBRANCH  28  31
ENDBRANCH   5  28
ENDBRANCH   4   5
TORSDOF 11
ENDMDL
MODEL      154
REMARK 921   NORMALIZED FREE ENERGY PREDICTED BY IDOCK:   -5.52 KCAL/MOL
REMARK 922        TOTAL FREE ENERGY PREDICTED BY IDOCK:  -10.84 KCAL/MOL
REMARK 923 INTER-LIGAND FREE ENERGY PREDICTED BY IDOCK:   -8.47 KCAL/MOL
REMARK 924 INTRA-LIGAND FREE ENERGY PREDICTED BY IDOCK:   -2.37 KCAL/MOL
REMARK 927      BINDING AFFINITY PREDICTED BY RF-SCORE:    0.00 PKD
ROOT
HETATM    1  C   UNL     1      -9.657   3.996  70.543  1.00  0.00    -0.261 C  
HETATM    2  C   UNL     1      -8.649   5.089  70.899  1.00  0.00    -0.129 C  
HETATM    3  C   UNL     1      -7.657   4.506  71.925  1.00  0.00    -0.083 C  
HETATM    4  C   UNL     1      -7.868   5.624  69.683  1.00  0.00    -0.091 C  
ENDROOT
BRANCH   4   5
HETATM    5  N   UNL     1      -8.679   6.234  68.546  1.00  0.00    -0.113 N  
BRANCH   5   6
HETATM    6  C   UNL     1      -9.064   7.707  68.830  1.00  0.00    -0.139 C  
BRANCH   6   7
HETATM    7  C   UNL     1     -10.594   8.052  68.802  1.00  0.00    -0.118 C  
HETATM    8  H   UNL     1     -12.253   7.123  69.254  1.00  0.00     0.000 HD 
HETATM    9  O   UNL     1     -11.326   6.914  69.271  1.00  0.00    -0.175 OA 
BRANCH   7  10
HETATM   10  C   UNL     1     -10.956   9.356  69.604  1.00  0.00    -0.197 C  
BRANCH  10  11
HETATM   11  N   UNL     1     -11.748  10.322  68.814  1.00  0.00    -0.519 N  
HETATM   12  O   UNL     1     -10.036  11.830  68.583  1.00  0.00    -0.216 OA 
HETATM   13  H   UNL     1     -12.719  10.108  68.588  1.00  0.00     0.000 HD 
HETATM   14  C   UNL     1     -11.196  11.501  68.380  1.00  0.00    -0.255 C  
BRANCH  14  15
HETATM   15  O   UNL     1     -12.106  12.272  67.718  1.00  0.00    -0.478 OA 
BRANCH  15  16
HETATM   16  C   UNL     1     -11.615  12.816  66.478  1.00  0.00    -0.376 C  
HETATM   17  C   UNL     1     -11.305  11.733  65.466  1.00  0.00    -0.283 C  
HETATM   18  O   UNL     1     -12.468  13.431  64.320  1.00  0.00    -0.587 OA 
HETATM   19  C   UNL     1     -11.418  12.474  64.152  1.00  0.00    -0.385 C  
HETATM   20  C   UNL     1     -12.646  13.658  65.729  1.00  0.00    -0.461 C  
ENDBRANCH  15  16
ENDBRANCH  14  15
ENDBRANCH  10  11
BRANCH  10  21
HETATM   21  C   UNL     1     -11.533   9.158  71.031  1.00  0.00    -0.372 C  
BRANCH  21  22
HETATM   22  C   UNL     1     -10.687   8.541  72.128  1.00  0.00    -0.426 A  
HETATM   23  C   UNL     1     -10.402   6.843  73.849  1.00  0.00    -0.398 A  
HETATM   24  C   UNL     1     -11.221   7.547  72.960  1.00  0.00    -0.373 A  
HETATM   25  C   UNL     1      -9.041   7.130  73.930  1.00  0.00    -0.252 A  
HETATM   26  C   UNL     1      -9.316   8.830  72.233  1.00  0.00    -0.223 A  
HETATM   27  C   UNL     1      -8.500   8.130  73.128  1.00  0.00    -0.279 A  
ENDBRANCH  21  22
ENDBRANCH  10  21
ENDBRANCH   7  10
ENDBRANCH   6   7
ENDBRANCH   5   6
BRANCH   5  28
HETATM   28  S   UNL     1      -7.804   6.098  67.023  1.00  0.00    -0.102 S  
HETATM   29  O   UNL     1      -6.637   5.270  67.218  1.00  0.00    -0.050 OA 
HETATM   30  O   UNL     1      -8.802   5.752  66.027  1.00  0.00    -0.141 OA 
BRANCH  28  31
HETATM   31  C   UNL     1      -7.212   7.727  66.655  1.00  0.00    -0.087 A  
HETATM   32  N   UNL     1      -5.768  11.565  65.730  1.00  0.00    -0.485 NA 
HETATM   33  H2  UNL     1      -4.806  11.427  65.422  1.00  0.00     0.000 HD 
HETATM   34  H1  UNL     1      -6.246  12.146  65.041  1.00  0.00     0.000 HD 
HETATM   35  C   UNL     1      -6.103   8.234  67.334  1.00  0.00    -0.052 A  
HETATM   36  C   UNL     1      -5.644   9.525  67.039  1.00  0.00    -0.047 A  
HETATM   37  C   UNL     1      -7.820   8.481  65.642  1.00  0.00    -0.102 A  
HETATM   38  C   UNL     1      -7.348   9.765  65.353  1.00  0.00    -0.118 A  
HETATM   39  C   UNL     1      -6.299  10.322  66.092  1.00  0.00    -0.094 A  
ENDBRANCH  28  31
ENDBRANCH   5  28
ENDBRANCH   4   5
TORSDOF 11
ENDMDL
MODEL      155
REMARK 921   NORMALIZED FREE ENERGY PREDICTED BY IDOCK:   -5.52 KCAL/MOL
REMARK 922        TOTAL FREE ENERGY PREDICTED BY IDOCK:  -10.84 KCAL/MOL
REMARK 923 INTER-LIGAND FREE ENERGY PREDICTED BY IDOCK:   -9.49 KCAL/MOL
REMARK 924 INTRA-LIGAND FREE ENERGY PREDICTED BY IDOCK:   -1.35 KCAL/MOL
REMARK 927      BINDING AFFINITY PREDICTED BY RF-SCORE:    0.00 PKD
ROOT
HETATM    1  C   UNL     1     -10.217  13.367  64.609  1.00  0.00    -0.338 C  
HETATM    2  C   UNL     1     -11.306  12.301  64.739  1.00  0.00    -0.371 C  
HETATM    3  C   UNL     1     -11.995  12.154  63.367  1.00  0.00    -0.578 C  
HETATM    4  C   UNL     1     -10.771  10.928  65.189  1.00  0.00    -0.139 C  
ENDROOT
BRANCH   4   5
HETATM    5  N   UNL     1     -10.041  10.867  66.527  1.00  0.00    -0.215 N  
BRANCH   5   6
HETATM    6  C   UNL     1     -10.959  10.365  67.668  1.00  0.00    -0.312 C  
BRANCH   6   7
HETATM    7  C   UNL     1     -11.481  11.447  68.678  1.00  0.00    -0.296 C  
HETATM    8  H   UNL     1     -12.567  13.067  68.565  1.00  0.00     0.000 HD 
HETATM    9  O   UNL     1     -12.251  12.412  67.954  1.00  0.00    -0.379 OA 
BRANCH   7  10
HETATM   10  C   UNL     1     -12.284  10.838  69.887  1.00  0.00    -0.313 C  
BRANCH  10  11
HETATM   11  N   UNL     1     -12.036   9.395  70.080  1.00  0.00    -0.460 N  
HETATM   12  O   UNL     1     -13.823   9.079  71.481  1.00  0.00    -0.380 OA 
HETATM   13  H   UNL     1     -11.249   8.953  69.605  1.00  0.00     0.000 HD 
HETATM   14  C   UNL     1     -12.847   8.640  70.891  1.00  0.00     0.145 C  
BRANCH  14  15
HETATM   15  O   UNL     1     -12.415   7.350  70.977  1.00  0.00    -0.314 OA 
BRANCH  15  16
HETATM   16  C   UNL     1     -11.075   7.218  71.489  1.00  0.00    -0.237 C  
HETATM   17  C   UNL     1     -10.954   7.744  72.904  1.00  0.00    -0.467 C  
HETATM   18  O   UNL     1      -9.805   5.689  72.834  1.00  0.00    -0.164 OA 
HETATM   19  C   UNL     1      -9.754   6.989  73.430  1.00  0.00    -0.218 C  
HETATM   20  C   UNL     1     -10.622   5.769  71.654  1.00  0.00    -0.245 C  
ENDBRANCH  15  16
ENDBRANCH  14  15
ENDBRANCH  10  11
BRANCH  10  21
HETATM   21  C   UNL     1     -12.230  11.625  71.224  1.00  0.00    -0.149 C  
BRANCH  21  22
HETATM   22  C   UNL     1     -12.773  13.038  71.312  1.00  0.00    -0.385 A  
HETATM   23  C   UNL     1     -14.334  14.626  72.296  1.00  0.00    -0.503 A  
HETATM   24  C   UNL     1     -13.930  13.309  72.055  1.00  0.00    -0.353 A  
HETATM   25  C   UNL     1     -13.597  15.693  71.786  1.00  0.00    -0.510 A  
HETATM   26  C   UNL     1     -12.049  14.124  70.790  1.00  0.00    -0.419 A  
HETATM   27  C   UNL     1     -12.459  15.441  71.026  1.00  0.00    -0.469 A  
ENDBRANCH  21  22
ENDBRANCH  10  21
ENDBRANCH   7  10
ENDBRANCH   6   7
ENDBRANCH   5   6
BRANCH   5  28
HETATM   28  S   UNL     1      -8.599   9.866  66.396  1.00  0.00    -0.129 S  
HETATM   29  O   UNL     1      -8.970   8.557  65.913  1.00  0.00    -0.173 OA 
HETATM   30  O   UNL     1      -7.625  10.671  65.682  1.00  0.00    -0.151 OA 
BRANCH  28  31
HETATM   31  C   UNL     1      -8.009   9.643  68.052  1.00  0.00    -0.097 A  
HETATM   32  N   UNL     1      -6.667   9.142  72.005  1.00  0.00    -0.300 NA 
HETATM   33  H2  UNL     1      -7.071   9.917  72.529  1.00  0.00     0.000 HD 
HETATM   34  H1  UNL     1      -6.857   8.277  72.511  1.00  0.00     0.000 HD 
HETATM   35  C   UNL     1      -7.249  10.644  68.660  1.00  0.00    -0.090 A  
HETATM   36  C   UNL     1      -6.783  10.458  69.969  1.00  0.00    -0.145 A  
HETATM   37  C   UNL     1      -8.353   8.490  68.770  1.00  0.00    -0.122 A  
HETATM   38  C   UNL     1      -7.886   8.320  70.077  1.00  0.00    -0.104 A  
HETATM   39  C   UNL     1      -7.045   9.271  70.664  1.00  0.00    -0.111 A  
ENDBRANCH  28  31
ENDBRANCH   5  28
ENDBRANCH   4   5
TORSDOF 11
ENDMDL
MODEL      156
REMARK 921   NORMALIZED FREE ENERGY PREDICTED BY IDOCK:   -5.50 KCAL/MOL
REMARK 922        TOTAL FREE ENERGY PREDICTED BY IDOCK:  -10.81 KCAL/MOL
REMARK 923 INTER-LIGAND FREE ENERGY PREDICTED BY IDOCK:  -10.02 KCAL/MOL
REMARK 924 INTRA-LIGAND FREE ENERGY PREDICTED BY IDOCK:   -0.79 KCAL/MOL
REMARK 927      BINDING AFFINITY PREDICTED BY RF-SCORE:    0.00 PKD
ROOT
HETATM    1  C   UNL     1     -12.522  11.241  71.282  1.00  0.00    -0.441 C  
HETATM    2  C   UNL     1     -12.257   9.793  71.698  1.00  0.00    -0.488 C  
HETATM    3  C   UNL     1     -13.517   9.266  72.414  1.00  0.00    -0.526 C  
HETATM    4  C   UNL     1     -11.919   8.866  70.514  1.00  0.00     0.017 C  
ENDROOT
BRANCH   4   5
HETATM    5  N   UNL     1     -10.703   9.230  69.669  1.00  0.00    -0.230 N  
BRANCH   5   6
HETATM    6  C   UNL     1     -10.551  10.761  69.495  1.00  0.00    -0.196 C  
BRANCH   6   7
HETATM    7  C   UNL     1     -10.733  11.325  68.042  1.00  0.00    -0.203 C  
HETATM    8  H   UNL     1     -12.239  11.658  66.842  1.00  0.00     0.000 HD 
HETATM    9  O   UNL     1     -12.129  11.316  67.722  1.00  0.00    -0.631 OA 
BRANCH   7  10
HETATM   10  C   UNL     1     -10.091  12.747  67.838  1.00  0.00    -0.231 C  
BRANCH  10  11
HETATM   11  N   UNL     1     -10.352  13.668  68.962  1.00  0.00    -0.421 N  
HETATM   12  O   UNL     1     -12.101  14.734  67.932  1.00  0.00    -0.288 OA 
HETATM   13  H   UNL     1      -9.780  13.608  69.804  1.00  0.00     0.000 HD 
HETATM   14  C   UNL     1     -11.354  14.605  68.890  1.00  0.00    -0.283 C  
BRANCH  14  15
HETATM   15  O   UNL     1     -11.393  15.389  70.005  1.00  0.00    -0.257 OA 
BRANCH  15  16
HETATM   16  C   UNL     1     -12.172  14.831  71.081  1.00  0.00    -0.325 C  
HETATM   17  C   UNL     1     -11.682  15.296  72.437  1.00  0.00    -0.538 C  
HETATM   18  O   UNL     1     -14.033  15.452  72.464  1.00  0.00    -0.519 OA 
HETATM   19  C   UNL     1     -12.914  15.137  73.299  1.00  0.00    -0.528 C  
HETATM   20  C   UNL     1     -13.624  15.304  71.094  1.00  0.00    -0.469 C  
ENDBRANCH  15  16
ENDBRANCH  14  15
ENDBRANCH  10  11
BRANCH  10  21
HETATM   21  C   UNL     1      -8.605  12.780  67.388  1.00  0.00    -0.194 C  
BRANCH  21  22
HETATM   22  C   UNL     1      -7.493  12.950  68.404  1.00  0.00    -0.124 A  
HETATM   23  C   UNL     1      -6.275  14.373  69.959  1.00  0.00    -0.158 A  
HETATM   24  C   UNL     1      -7.167  14.223  68.892  1.00  0.00    -0.125 A  
HETATM   25  C   UNL     1      -5.684  13.255  70.546  1.00  0.00    -0.176 A  
HETATM   26  C   UNL     1      -6.877  11.834  68.995  1.00  0.00    -0.106 A  
HETATM   27  C   UNL     1      -5.979  11.986  70.058  1.00  0.00    -0.159 A  
ENDBRANCH  21  22
ENDBRANCH  10  21
ENDBRANCH   7  10
ENDBRANCH   6   7
ENDBRANCH   5   6
BRANCH   5  28
HETATM   28  S   UNL     1      -9.242   8.530  70.359  1.00  0.00    -0.168 S  
HETATM   29  O   UNL     1      -8.537   7.794  69.335  1.00  0.00    -0.133 OA 
HETATM   30  O   UNL     1      -8.591   9.610  71.078  1.00  0.00    -0.218 OA 
BRANCH  28  31
HETATM   31  C   UNL     1      -9.788   7.338  71.551  1.00  0.00    -0.174 A  
HETATM   32  N   UNL     1     -11.021   4.491  74.387  1.00  0.00    -0.259 NA 
HETATM   33  H2  UNL     1     -10.381   3.705  74.279  1.00  0.00     0.000 HD 
HETATM   34  H1  UNL     1     -11.069   4.733  75.377  1.00  0.00     0.000 HD 
HETATM   35  C   UNL     1     -10.189   6.068  71.132  1.00  0.00    -0.257 A  
HETATM   36  C   UNL     1     -10.624   5.134  72.081  1.00  0.00    -0.273 A  
HETATM   37  C   UNL     1      -9.764   7.651  72.917  1.00  0.00    -0.282 A  
HETATM   38  C   UNL     1     -10.195   6.706  73.854  1.00  0.00    -0.379 A  
HETATM   39  C   UNL     1     -10.689   5.465  73.440  1.00  0.00    -0.276 A  
ENDBRANCH  28  31
ENDBRANCH   5  28
ENDBRANCH   4   5
TORSDOF 11
ENDMDL
MODEL      157
REMARK 921   NORMALIZED FREE ENERGY PREDICTED BY IDOCK:   -5.50 KCAL/MOL
REMARK 922        TOTAL FREE ENERGY PREDICTED BY IDOCK:  -10.80 KCAL/MOL
REMARK 923 INTER-LIGAND FREE ENERGY PREDICTED BY IDOCK:   -9.07 KCAL/MOL
REMARK 924 INTRA-LIGAND FREE ENERGY PREDICTED BY IDOCK:   -1.73 KCAL/MOL
REMARK 927      BINDING AFFINITY PREDICTED BY RF-SCORE:    0.00 PKD
ROOT
HETATM    1  C   UNL     1     -12.481  13.133  70.648  1.00  0.00    -0.363 C  
HETATM    2  C   UNL     1     -11.859  11.919  69.958  1.00  0.00    -0.407 C  
HETATM    3  C   UNL     1     -12.544  10.654  70.510  1.00  0.00    -0.433 C  
HETATM    4  C   UNL     1     -12.000  11.946  68.423  1.00  0.00    -0.182 C  
ENDROOT
BRANCH   4   5
HETATM    5  N   UNL     1     -11.391  13.135  67.687  1.00  0.00    -0.281 N  
BRANCH   5   6
HETATM    6  C   UNL     1      -9.921  13.388  68.103  1.00  0.00    -0.237 C  
BRANCH   6   7
HETATM    7  C   UNL     1      -9.483  14.885  68.263  1.00  0.00    -0.210 C  
HETATM    8  H   UNL     1      -9.238  16.127  69.752  1.00  0.00     0.000 HD 
HETATM    9  O   UNL     1      -9.504  15.220  69.655  1.00  0.00    -0.237 OA 
BRANCH   7  10
HETATM   10  C   UNL     1      -8.092  15.205  67.601  1.00  0.00    -0.162 C  
BRANCH  10  11
HETATM   11  N   UNL     1      -7.439  14.014  67.020  1.00  0.00    -0.280 N  
HETATM   12  O   UNL     1      -5.770  13.926  68.590  1.00  0.00    -0.078 OA 
HETATM   13  H   UNL     1      -7.838  13.578  66.189  1.00  0.00     0.000 HD 
HETATM   14  C   UNL     1      -6.304  13.485  67.583  1.00  0.00    -0.147 C  
BRANCH  14  15
HETATM   15  O   UNL     1      -5.831  12.426  66.865  1.00  0.00    -0.298 OA 
BRANCH  15  16
HETATM   16  C   UNL     1      -5.882  11.174  67.576  1.00  0.00    -0.048 C  
HETATM   17  C   UNL     1      -7.188  11.000  68.324  1.00  0.00    -0.085 C  
HETATM   18  O   UNL     1      -6.734   8.954  67.248  1.00  0.00    -0.064 OA 
HETATM   19  C   UNL     1      -7.293   9.495  68.449  1.00  0.00    -0.076 C  
HETATM   20  C   UNL     1      -5.881   9.951  66.661  1.00  0.00    -0.054 C  
ENDBRANCH  15  16
ENDBRANCH  14  15
ENDBRANCH  10  11
BRANCH  10  21
HETATM   21  C   UNL     1      -8.043  16.424  66.641  1.00  0.00    -0.321 C  
BRANCH  21  22
HETATM   22  C   UNL     1      -8.751  17.716  66.996  1.00  0.00    -0.254 A  
HETATM   23  C   UNL     1     -10.644  19.218  66.699  1.00  0.00    -0.530 A  
HETATM   24  C   UNL     1      -9.876  18.131  66.269  1.00  0.00    -0.311 A  
HETATM   25  C   UNL     1     -10.293  19.917  67.852  1.00  0.00    -0.545 A  
HETATM   26  C   UNL     1      -8.400  18.441  68.147  1.00  0.00    -0.301 A  
HETATM   27  C   UNL     1      -9.166  19.533  68.572  1.00  0.00    -0.413 A  
ENDBRANCH  21  22
ENDBRANCH  10  21
ENDBRANCH   7  10
ENDBRANCH   6   7
ENDBRANCH   5   6
BRANCH   5  28
HETATM   28  S   UNL     1     -11.519  12.911  65.945  1.00  0.00    -0.366 S  
HETATM   29  O   UNL     1     -12.892  12.622  65.602  1.00  0.00    -0.435 OA 
HETATM   30  O   UNL     1     -10.829  14.043  65.352  1.00  0.00    -0.302 OA 
BRANCH  28  31
HETATM   31  C   UNL     1     -10.587  11.452  65.572  1.00  0.00    -0.271 A  
HETATM   32  N   UNL     1      -8.329   8.007  64.730  1.00  0.00    -0.301 NA 
HETATM   33  H2  UNL     1      -7.354   8.291  64.828  1.00  0.00     0.000 HD 
HETATM   34  H1  UNL     1      -8.470   7.151  65.266  1.00  0.00     0.000 HD 
HETATM   35  C   UNL     1      -9.675  11.460  64.515  1.00  0.00    -0.268 A  
HETATM   36  C   UNL     1      -8.945  10.299  64.224  1.00  0.00    -0.261 A  
HETATM   37  C   UNL     1     -10.723  10.309  66.371  1.00  0.00    -0.103 A  
HETATM   38  C   UNL     1      -9.984   9.160  66.074  1.00  0.00    -0.293 A  
HETATM   39  C   UNL     1      -9.139   9.124  64.961  1.00  0.00    -0.156 A  
ENDBRANCH  28  31
ENDBRANCH   5  28
ENDBRANCH   4   5
TORSDOF 11
ENDMDL
MODEL      158
REMARK 921   NORMALIZED FREE ENERGY PREDICTED BY IDOCK:   -5.49 KCAL/MOL
REMARK 922        TOTAL FREE ENERGY PREDICTED BY IDOCK:  -10.79 KCAL/MOL
REMARK 923 INTER-LIGAND FREE ENERGY PREDICTED BY IDOCK:  -10.13 KCAL/MOL
REMARK 924 INTRA-LIGAND FREE ENERGY PREDICTED BY IDOCK:   -0.66 KCAL/MOL
REMARK 927      BINDING AFFINITY PREDICTED BY RF-SCORE:    0.00 PKD
ROOT
HETATM    1  C   UNL     1      -6.699   9.907  66.983  1.00  0.00    -0.075 C  
HETATM    2  C   UNL     1      -7.429   9.640  68.300  1.00  0.00    -0.077 C  
HETATM    3  C   UNL     1      -6.370   9.348  69.381  1.00  0.00    -0.044 C  
HETATM    4  C   UNL     1      -8.315  10.815  68.759  1.00  0.00    -0.147 C  
ENDROOT
BRANCH   4   5
HETATM    5  N   UNL     1      -9.423  11.265  67.814  1.00  0.00    -0.167 N  
BRANCH   5   6
HETATM    6  C   UNL     1      -8.871  11.701  66.435  1.00  0.00    -0.182 C  
BRANCH   6   7
HETATM    7  C   UNL     1      -9.661  12.831  65.687  1.00  0.00    -0.120 C  
HETATM    8  H   UNL     1     -11.226  12.916  64.520  1.00  0.00     0.000 HD 
HETATM    9  O   UNL     1     -10.748  12.231  64.973  1.00  0.00    -0.279 OA 
BRANCH   7  10
HETATM   10  C   UNL     1     -10.147  13.989  66.635  1.00  0.00    -0.276 C  
BRANCH  10  11
HETATM   11  N   UNL     1      -9.819  15.335  66.123  1.00  0.00    -0.285 N  
HETATM   12  O   UNL     1      -7.759  15.425  67.124  1.00  0.00    -0.192 OA 
HETATM   13  H   UNL     1     -10.489  15.821  65.527  1.00  0.00     0.000 HD 
HETATM   14  C   UNL     1      -8.628  15.941  66.437  1.00  0.00    -0.328 C  
BRANCH  14  15
HETATM   15  O   UNL     1      -8.546  17.197  65.912  1.00  0.00    -0.522 OA 
BRANCH  15  16
HETATM   16  C   UNL     1      -9.031  18.228  66.792  1.00  0.00    -0.284 C  
HETATM   17  C   UNL     1      -8.679  19.614  66.290  1.00  0.00    -0.401 C  
HETATM   18  O   UNL     1     -10.930  19.684  66.983  1.00  0.00    -0.462 OA 
HETATM   19  C   UNL     1      -9.738  20.475  66.944  1.00  0.00    -0.375 C  
HETATM   20  C   UNL     1     -10.555  18.301  66.868  1.00  0.00    -0.329 C  
ENDBRANCH  15  16
ENDBRANCH  14  15
ENDBRANCH  10  11
BRANCH  10  21
HETATM   21  C   UNL     1     -11.609  13.899  67.149  1.00  0.00    -0.391 C  
BRANCH  21  22
HETATM   22  C   UNL     1     -11.936  14.178  68.603  1.00  0.00    -0.373 A  
HETATM   23  C   UNL     1     -12.289  13.356  70.867  1.00  0.00    -0.436 A  
HETATM   24  C   UNL     1     -12.169  13.121  69.493  1.00  0.00    -0.214 A  
HETATM   25  C   UNL     1     -12.193  14.651  71.371  1.00  0.00    -0.411 A  
HETATM   26  C   UNL     1     -11.858  15.481  69.124  1.00  0.00    -0.373 A  
HETATM   27  C   UNL     1     -11.986  15.715  70.498  1.00  0.00    -0.417 A  
ENDBRANCH  21  22
ENDBRANCH  10  21
ENDBRANCH   7  10
ENDBRANCH   6   7
ENDBRANCH   5   6
BRANCH   5  28
HETATM   28  S   UNL     1     -10.630   9.996  67.632  1.00  0.00    -0.285 S  
HETATM   29  O   UNL     1     -11.909  10.595  67.332  1.00  0.00    -0.274 OA 
HETATM   30  O   UNL     1     -10.040   9.019  66.735  1.00  0.00    -0.232 OA 
BRANCH  28  31
HETATM   31  C   UNL     1     -10.788   9.241  69.227  1.00  0.00    -0.152 A  
HETATM   32  N   UNL     1     -11.102   7.475  73.029  1.00  0.00    -0.476 NA 
HETATM   33  H2  UNL     1     -10.152   7.202  73.281  1.00  0.00     0.000 HD 
HETATM   34  H1  UNL     1     -11.505   7.993  73.809  1.00  0.00     0.000 HD 
HETATM   35  C   UNL     1     -10.388   7.917  69.413  1.00  0.00    -0.220 A  
HETATM   36  C   UNL     1     -10.521   7.327  70.677  1.00  0.00    -0.226 A  
HETATM   37  C   UNL     1     -11.260   9.990  70.313  1.00  0.00    -0.379 A  
HETATM   38  C   UNL     1     -11.380   9.391  71.571  1.00  0.00    -0.464 A  
HETATM   39  C   UNL     1     -11.074   8.038  71.749  1.00  0.00    -0.260 A  
ENDBRANCH  28  31
ENDBRANCH   5  28
ENDBRANCH   4   5
TORSDOF 11
ENDMDL
MODEL      159
REMARK 921   NORMALIZED FREE ENERGY PREDICTED BY IDOCK:   -5.49 KCAL/MOL
REMARK 922        TOTAL FREE ENERGY PREDICTED BY IDOCK:  -10.79 KCAL/MOL
REMARK 923 INTER-LIGAND FREE ENERGY PREDICTED BY IDOCK:   -9.26 KCAL/MOL
REMARK 924 INTRA-LIGAND FREE ENERGY PREDICTED BY IDOCK:   -1.53 KCAL/MOL
REMARK 927      BINDING AFFINITY PREDICTED BY RF-SCORE:    0.00 PKD
ROOT
HETATM    1  C   UNL     1      -7.402  12.274  67.300  1.00  0.00    -0.140 C  
HETATM    2  C   UNL     1      -7.715  13.049  68.580  1.00  0.00    -0.069 C  
HETATM    3  C   UNL     1      -6.402  13.675  69.092  1.00  0.00    -0.103 C  
HETATM    4  C   UNL     1      -8.766  14.160  68.384  1.00  0.00    -0.178 C  
ENDROOT
BRANCH   4   5
HETATM    5  N   UNL     1     -10.137  13.739  67.868  1.00  0.00    -0.240 N  
BRANCH   5   6
HETATM    6  C   UNL     1     -10.675  12.485  68.598  1.00  0.00    -0.234 C  
BRANCH   6   7
HETATM    7  C   UNL     1     -11.346  11.384  67.704  1.00  0.00    -0.290 C  
HETATM    8  H   UNL     1     -11.793  11.191  65.811  1.00  0.00     0.000 HD 
HETATM    9  O   UNL     1     -11.387  11.857  66.353  1.00  0.00    -0.331 OA 
BRANCH   7  10
HETATM   10  C   UNL     1     -10.650   9.977  67.815  1.00  0.00    -0.261 C  
BRANCH  10  11
HETATM   11  N   UNL     1     -11.269   9.102  68.831  1.00  0.00    -0.431 N  
HETATM   12  O   UNL     1      -9.295   8.610  69.888  1.00  0.00    -0.155 OA 
HETATM   13  H   UNL     1     -12.278   8.959  68.822  1.00  0.00     0.000 HD 
HETATM   14  C   UNL     1     -10.505   8.479  69.787  1.00  0.00    -0.220 C  
BRANCH  14  15
HETATM   15  O   UNL     1     -11.260   7.676  70.591  1.00  0.00    -0.262 OA 
BRANCH  15  16
HETATM   16  C   UNL     1     -10.515   7.055  71.657  1.00  0.00    -0.199 C  
HETATM   17  C   UNL     1     -10.715   7.768  72.978  1.00  0.00    -0.446 C  
HETATM   18  O   UNL     1     -10.877   5.458  73.411  1.00  0.00    -0.257 OA 
HETATM   19  C   UNL     1     -10.404   6.681  73.984  1.00  0.00    -0.351 C  
HETATM   20  C   UNL     1     -10.986   5.641  71.990  1.00  0.00    -0.243 C  
ENDBRANCH  15  16
ENDBRANCH  14  15
ENDBRANCH  10  11
BRANCH  10  21
HETATM   21  C   UNL     1     -10.382   9.227  66.482  1.00  0.00    -0.270 C  
BRANCH  21  22
HETATM   22  C   UNL     1      -9.063   9.391  65.754  1.00  0.00    -0.249 A  
HETATM   23  C   UNL     1      -6.737   8.735  65.458  1.00  0.00    -0.071 A  
HETATM   24  C   UNL     1      -7.910   8.742  66.219  1.00  0.00    -0.102 A  
HETATM   25  C   UNL     1      -6.692   9.388  64.228  1.00  0.00    -0.095 A  
HETATM   26  C   UNL     1      -8.997  10.059  64.520  1.00  0.00    -0.261 A  
HETATM   27  C   UNL     1      -7.820  10.057  63.763  1.00  0.00    -0.152 A  
ENDBRANCH  21  22
ENDBRANCH  10  21
ENDBRANCH   7  10
ENDBRANCH   6   7
ENDBRANCH   5   6
BRANCH   5  28
HETATM   28  S   UNL     1     -11.279  15.075  67.995  1.00  0.00    -0.327 S  
HETATM   29  O   UNL     1     -10.582  16.319  67.767  1.00  0.00    -0.298 OA 
HETATM   30  O   UNL     1     -12.415  14.700  67.174  1.00  0.00    -0.093 OA 
BRANCH  28  31
HETATM   31  C   UNL     1     -11.814  15.099  69.684  1.00  0.00    -0.334 A  
HETATM   32  N   UNL     1     -13.140  15.189  73.672  1.00  0.00    -0.599 NA 
HETATM   33  H2  UNL     1     -13.648  16.067  73.770  1.00  0.00     0.000 HD 
HETATM   34  H1  UNL     1     -13.723  14.438  74.042  1.00  0.00     0.000 HD 
HETATM   35  C   UNL     1     -11.410  16.136  70.527  1.00  0.00    -0.392 A  
HETATM   36  C   UNL     1     -11.835  16.144  71.862  1.00  0.00    -0.605 A  
HETATM   37  C   UNL     1     -12.688  14.110  70.156  1.00  0.00    -0.227 A  
HETATM   38  C   UNL     1     -13.109  14.135  71.490  1.00  0.00    -0.424 A  
HETATM   39  C   UNL     1     -12.635  15.113  72.369  1.00  0.00    -0.351 A  
ENDBRANCH  28  31
ENDBRANCH   5  28
ENDBRANCH   4   5
TORSDOF 11
ENDMDL
MODEL      160
REMARK 921   NORMALIZED FREE ENERGY PREDICTED BY IDOCK:   -5.48 KCAL/MOL
REMARK 922        TOTAL FREE ENERGY PREDICTED BY IDOCK:  -10.77 KCAL/MOL
REMARK 923 INTER-LIGAND FREE ENERGY PREDICTED BY IDOCK:   -8.44 KCAL/MOL
REMARK 924 INTRA-LIGAND FREE ENERGY PREDICTED BY IDOCK:   -2.33 KCAL/MOL
REMARK 927      BINDING AFFINITY PREDICTED BY RF-SCORE:    0.00 PKD
ROOT
HETATM    1  C   UNL     1      -9.901   4.222  70.798  1.00  0.00    -0.265 C  
HETATM    2  C   UNL     1      -8.631   5.065  70.924  1.00  0.00    -0.129 C  
HETATM    3  C   UNL     1      -7.698   4.370  71.937  1.00  0.00    -0.084 C  
HETATM    4  C   UNL     1      -7.884   5.253  69.590  1.00  0.00    -0.073 C  
ENDROOT
BRANCH   4   5
HETATM    5  N   UNL     1      -8.648   5.917  68.450  1.00  0.00    -0.114 N  
BRANCH   5   6
HETATM    6  C   UNL     1      -9.002   7.391  68.766  1.00  0.00    -0.129 C  
BRANCH   6   7
HETATM    7  C   UNL     1     -10.503   7.809  68.582  1.00  0.00    -0.172 C  
HETATM    8  H   UNL     1     -12.242   6.993  68.938  1.00  0.00     0.000 HD 
HETATM    9  O   UNL     1     -11.333   6.740  69.049  1.00  0.00    -0.183 OA 
BRANCH   7  10
HETATM   10  C   UNL     1     -10.860   9.177  69.272  1.00  0.00    -0.132 C  
BRANCH  10  11
HETATM   11  N   UNL     1     -11.648  10.076  68.404  1.00  0.00    -0.499 N  
HETATM   12  O   UNL     1     -10.152  11.810  68.515  1.00  0.00    -0.206 OA 
HETATM   13  H   UNL     1     -12.532   9.749  68.014  1.00  0.00     0.000 HD 
HETATM   14  C   UNL     1     -11.208  11.344  68.113  1.00  0.00    -0.278 C  
BRANCH  14  15
HETATM   15  O   UNL     1     -12.104  12.025  67.343  1.00  0.00    -0.566 OA 
BRANCH  15  16
HETATM   16  C   UNL     1     -11.528  12.613  66.161  1.00  0.00    -0.365 C  
HETATM   17  C   UNL     1     -11.156  11.566  65.131  1.00  0.00    -0.260 C  
HETATM   18  O   UNL     1     -12.230  13.316  63.977  1.00  0.00    -0.495 OA 
HETATM   19  C   UNL     1     -11.177  12.357  63.842  1.00  0.00    -0.422 C  
HETATM   20  C   UNL     1     -12.501  13.491  65.377  1.00  0.00    -0.497 C  
ENDBRANCH  15  16
ENDBRANCH  14  15
ENDBRANCH  10  11
BRANCH  10  21
HETATM   21  C   UNL     1     -11.437   9.101  70.711  1.00  0.00    -0.337 C  
BRANCH  21  22
HETATM   22  C   UNL     1     -10.611   8.529  71.846  1.00  0.00    -0.392 A  
HETATM   23  C   UNL     1     -10.376   6.930  73.666  1.00  0.00    -0.397 A  
HETATM   24  C   UNL     1     -11.173   7.601  72.734  1.00  0.00    -0.431 A  
HETATM   25  C   UNL     1      -9.008   7.186  73.737  1.00  0.00    -0.227 A  
HETATM   26  C   UNL     1      -9.234   8.788  71.940  1.00  0.00    -0.320 A  
HETATM   27  C   UNL     1      -8.438   8.121  72.879  1.00  0.00    -0.259 A  
ENDBRANCH  21  22
ENDBRANCH  10  21
ENDBRANCH   7  10
ENDBRANCH   6   7
ENDBRANCH   5   6
BRANCH   5  28
HETATM   28  S   UNL     1      -7.736   5.800  66.947  1.00  0.00    -0.101 S  
HETATM   29  O   UNL     1      -7.591   7.118  66.375  1.00  0.00    -0.088 OA 
HETATM   30  O   UNL     1      -6.569   4.994  67.258  1.00  0.00    -0.050 OA 
BRANCH  28  31
HETATM   31  C   UNL     1      -8.753   4.874  65.831  1.00  0.00    -0.127 A  
HETATM   32  N   UNL     1     -11.157   2.722  63.135  1.00  0.00    -0.238 NA 
HETATM   33  H2  UNL     1     -11.638   3.428  62.578  1.00  0.00     0.000 HD 
HETATM   34  H1  UNL     1     -10.742   2.040  62.502  1.00  0.00     0.000 HD 
HETATM   35  C   UNL     1     -10.137   5.053  65.839  1.00  0.00    -0.194 A  
HETATM   36  C   UNL     1     -10.934   4.313  64.955  1.00  0.00    -0.026 A  
HETATM   37  C   UNL     1      -8.164   4.005  64.903  1.00  0.00    -0.097 A  
HETATM   38  C   UNL     1      -8.970   3.277  64.023  1.00  0.00    -0.097 A  
HETATM   39  C   UNL     1     -10.364   3.376  64.085  1.00  0.00    -0.192 A  
ENDBRANCH  28  31
ENDBRANCH   5  28
ENDBRANCH   4   5
TORSDOF 11
ENDMDL
MODEL      161
REMARK 921   NORMALIZED FREE ENERGY PREDICTED BY IDOCK:   -5.48 KCAL/MOL
REMARK 922        TOTAL FREE ENERGY PREDICTED BY IDOCK:  -10.77 KCAL/MOL
REMARK 923 INTER-LIGAND FREE ENERGY PREDICTED BY IDOCK:   -9.96 KCAL/MOL
REMARK 924 INTRA-LIGAND FREE ENERGY PREDICTED BY IDOCK:   -0.81 KCAL/MOL
REMARK 927      BINDING AFFINITY PREDICTED BY RF-SCORE:    0.00 PKD
ROOT
HETATM    1  C   UNL     1     -12.237  14.382  64.391  1.00  0.00    -0.481 C  
HETATM    2  C   UNL     1     -12.437  12.960  64.915  1.00  0.00    -0.540 C  
HETATM    3  C   UNL     1     -12.696  12.038  63.706  1.00  0.00    -0.516 C  
HETATM    4  C   UNL     1     -11.232  12.425  65.714  1.00  0.00    -0.333 C  
ENDROOT
BRANCH   4   5
HETATM    5  N   UNL     1     -10.808  13.212  66.949  1.00  0.00    -0.263 N  
BRANCH   5   6
HETATM    6  C   UNL     1     -12.014  13.876  67.658  1.00  0.00    -0.368 C  
BRANCH   6   7
HETATM    7  C   UNL     1     -11.721  15.194  68.457  1.00  0.00    -0.325 C  
HETATM    8  H   UNL     1     -11.475  15.674  70.335  1.00  0.00     0.000 HD 
HETATM    9  O   UNL     1     -11.652  14.876  69.852  1.00  0.00    -0.257 OA 
BRANCH   7  10
HETATM   10  C   UNL     1     -10.435  15.953  67.962  1.00  0.00    -0.274 C  
BRANCH  10  11
HETATM   11  N   UNL     1     -10.740  17.219  67.266  1.00  0.00    -0.271 N  
HETATM   12  O   UNL     1      -9.810  16.572  65.273  1.00  0.00    -0.488 OA 
HETATM   13  H   UNL     1     -11.229  17.961  67.766  1.00  0.00     0.000 HD 
HETATM   14  C   UNL     1     -10.377  17.412  65.956  1.00  0.00    -0.304 C  
BRANCH  14  15
HETATM   15  O   UNL     1     -10.701  18.663  65.520  1.00  0.00    -0.577 OA 
BRANCH  15  16
HETATM   16  C   UNL     1      -9.940  19.712  66.147  1.00  0.00    -0.463 C  
HETATM   17  C   UNL     1      -9.972  19.611  67.658  1.00  0.00    -0.510 C  
HETATM   18  O   UNL     1      -7.739  20.046  67.045  1.00  0.00    -0.270 OA 
HETATM   19  C   UNL     1      -8.706  20.337  68.059  1.00  0.00    -0.072 C  
HETATM   20  C   UNL     1      -8.441  19.635  65.860  1.00  0.00    -0.146 C  
ENDBRANCH  15  16
ENDBRANCH  14  15
ENDBRANCH  10  11
BRANCH  10  21
HETATM   21  C   UNL     1      -9.284  16.115  68.991  1.00  0.00    -0.252 C  
BRANCH  21  22
HETATM   22  C   UNL     1      -7.895  16.523  68.540  1.00  0.00    -0.210 A  
HETATM   23  C   UNL     1      -6.222  16.669  66.778  1.00  0.00    -0.134 A  
HETATM   24  C   UNL     1      -7.420  16.147  67.276  1.00  0.00    -0.219 A  
HETATM   25  C   UNL     1      -5.472  17.562  67.540  1.00  0.00    -0.144 A  
HETATM   26  C   UNL     1      -7.119  17.412  69.304  1.00  0.00    -0.142 A  
HETATM   27  C   UNL     1      -5.917  17.927  68.807  1.00  0.00    -0.192 A  
ENDBRANCH  21  22
ENDBRANCH  10  21
ENDBRANCH   7  10
ENDBRANCH   6   7
ENDBRANCH   5   6
BRANCH   5  28
HETATM   28  S   UNL     1      -9.918  12.178  68.062  1.00  0.00    -0.207 S  
HETATM   29  O   UNL     1      -8.661  12.806  68.393  1.00  0.00    -0.177 OA 
HETATM   30  O   UNL     1     -10.863  11.816  69.103  1.00  0.00    -0.224 OA 
BRANCH  28  31
HETATM   31  C   UNL     1      -9.525  10.709  67.153  1.00  0.00    -0.156 A  
HETATM   32  N   UNL     1      -8.631   7.244  64.946  1.00  0.00    -0.355 NA 
HETATM   33  H2  UNL     1      -9.477   7.033  64.418  1.00  0.00     0.000 HD 
HETATM   34  H1  UNL     1      -7.839   7.229  64.304  1.00  0.00     0.000 HD 
HETATM   35  C   UNL     1     -10.283   9.551  67.339  1.00  0.00    -0.285 A  
HETATM   36  C   UNL     1      -9.962   8.393  66.619  1.00  0.00    -0.354 A  
HETATM   37  C   UNL     1      -8.491  10.725  66.207  1.00  0.00    -0.161 A  
HETATM   38  C   UNL     1      -8.186   9.564  65.491  1.00  0.00    -0.126 A  
HETATM   39  C   UNL     1      -8.875   8.372  65.737  1.00  0.00    -0.165 A  
ENDBRANCH  28  31
ENDBRANCH   5  28
ENDBRANCH   4   5
TORSDOF 11
ENDMDL
MODEL      162
REMARK 921   NORMALIZED FREE ENERGY PREDICTED BY IDOCK:   -5.45 KCAL/MOL
REMARK 922        TOTAL FREE ENERGY PREDICTED BY IDOCK:  -10.73 KCAL/MOL
REMARK 923 INTER-LIGAND FREE ENERGY PREDICTED BY IDOCK:  -10.08 KCAL/MOL
REMARK 924 INTRA-LIGAND FREE ENERGY PREDICTED BY IDOCK:   -0.65 KCAL/MOL
REMARK 927      BINDING AFFINITY PREDICTED BY RF-SCORE:    0.00 PKD
ROOT
HETATM    1  C   UNL     1      -8.081   7.220  64.388  1.00  0.00    -0.065 C  
HETATM    2  C   UNL     1      -7.525   6.320  65.492  1.00  0.00    -0.083 C  
HETATM    3  C   UNL     1      -6.196   5.719  64.993  1.00  0.00    -0.036 C  
HETATM    4  C   UNL     1      -7.282   7.060  66.823  1.00  0.00    -0.076 C  
ENDROOT
BRANCH   4   5
HETATM    5  N   UNL     1      -8.482   7.736  67.475  1.00  0.00    -0.119 N  
BRANCH   5   6
HETATM    6  C   UNL     1      -8.995   8.938  66.645  1.00  0.00    -0.136 C  
BRANCH   6   7
HETATM    7  C   UNL     1      -8.443  10.352  67.041  1.00  0.00    -0.127 C  
HETATM    8  H   UNL     1      -7.143  11.611  66.302  1.00  0.00     0.000 HD 
HETATM    9  O   UNL     1      -7.478  10.754  66.063  1.00  0.00    -0.149 OA 
BRANCH   7  10
HETATM   10  C   UNL     1      -9.571  11.433  67.234  1.00  0.00    -0.174 C  
BRANCH  10  11
HETATM   11  N   UNL     1      -9.732  12.319  66.064  1.00  0.00    -0.245 N  
HETATM   12  O   UNL     1      -9.705  14.258  67.285  1.00  0.00    -0.226 OA 
HETATM   13  H   UNL     1      -9.797  11.911  65.131  1.00  0.00     0.000 HD 
HETATM   14  C   UNL     1      -9.797  13.682  66.212  1.00  0.00    -0.301 C  
BRANCH  14  15
HETATM   15  O   UNL     1     -10.002  14.311  65.019  1.00  0.00    -0.338 OA 
BRANCH  15  16
HETATM   16  C   UNL     1     -11.212  13.908  64.350  1.00  0.00    -0.329 C  
HETATM   17  C   UNL     1     -11.054  12.576  63.646  1.00  0.00    -0.523 C  
HETATM   18  O   UNL     1     -13.123  12.517  64.773  1.00  0.00    -0.853 OA 
HETATM   19  C   UNL     1     -12.480  12.076  63.572  1.00  0.00    -0.540 C  
HETATM   20  C   UNL     1     -12.371  13.622  65.303  1.00  0.00    -0.465 C  
ENDBRANCH  15  16
ENDBRANCH  14  15
ENDBRANCH  10  11
BRANCH  10  21
HETATM   21  C   UNL     1     -10.934  10.926  67.776  1.00  0.00    -0.339 C  
BRANCH  21  22
HETATM   22  C   UNL     1     -11.436  11.362  69.138  1.00  0.00    -0.365 A  
HETATM   23  C   UNL     1     -12.262  13.124  70.602  1.00  0.00    -0.402 A  
HETATM   24  C   UNL     1     -11.628  12.722  69.421  1.00  0.00    -0.361 A  
HETATM   25  C   UNL     1     -12.699  12.176  71.524  1.00  0.00    -0.348 A  
HETATM   26  C   UNL     1     -11.868  10.419  70.086  1.00  0.00    -0.379 A  
HETATM   27  C   UNL     1     -12.494  10.823  71.270  1.00  0.00    -0.504 A  
ENDBRANCH  21  22
ENDBRANCH  10  21
ENDBRANCH   7  10
ENDBRANCH   6   7
ENDBRANCH   5   6
BRANCH   5  28
HETATM   28  S   UNL     1      -9.772   6.569  67.749  1.00  0.00    -0.124 S  
HETATM   29  O   UNL     1     -10.877   6.865  66.868  1.00  0.00    -0.351 OA 
HETATM   30  O   UNL     1      -9.134   5.265  67.727  1.00  0.00    -0.109 OA 
BRANCH  28  31
HETATM   31  C   UNL     1     -10.350   6.861  69.398  1.00  0.00    -0.204 A  
HETATM   32  N   UNL     1     -11.690   7.497  73.332  1.00  0.00    -0.391 NA 
HETATM   33  H2  UNL     1     -11.842   6.567  73.721  1.00  0.00     0.000 HD 
HETATM   34  H1  UNL     1     -11.126   8.033  73.992  1.00  0.00     0.000 HD 
HETATM   35  C   UNL     1     -11.601   6.382  69.792  1.00  0.00    -0.397 A  
HETATM   36  C   UNL     1     -12.052   6.622  71.097  1.00  0.00    -0.391 A  
HETATM   37  C   UNL     1      -9.529   7.520  70.323  1.00  0.00    -0.165 A  
HETATM   38  C   UNL     1      -9.988   7.746  71.624  1.00  0.00    -0.213 A  
HETATM   39  C   UNL     1     -11.277   7.357  72.003  1.00  0.00    -0.251 A  
ENDBRANCH  28  31
ENDBRANCH   5  28
ENDBRANCH   4   5
TORSDOF 11
ENDMDL
MODEL      163
REMARK 921   NORMALIZED FREE ENERGY PREDICTED BY IDOCK:   -5.45 KCAL/MOL
REMARK 922        TOTAL FREE ENERGY PREDICTED BY IDOCK:  -10.72 KCAL/MOL
REMARK 923 INTER-LIGAND FREE ENERGY PREDICTED BY IDOCK:   -8.88 KCAL/MOL
REMARK 924 INTRA-LIGAND FREE ENERGY PREDICTED BY IDOCK:   -1.84 KCAL/MOL
REMARK 927      BINDING AFFINITY PREDICTED BY RF-SCORE:    0.00 PKD
ROOT
HETATM    1  C   UNL     1     -10.139   4.588  70.958  1.00  0.00    -0.222 C  
HETATM    2  C   UNL     1      -8.910   5.319  71.503  1.00  0.00    -0.144 C  
HETATM    3  C   UNL     1      -8.411   4.552  72.743  1.00  0.00    -0.107 C  
HETATM    4  C   UNL     1      -7.763   5.437  70.481  1.00  0.00    -0.084 C  
ENDROOT
BRANCH   4   5
HETATM    5  N   UNL     1      -8.065   6.158  69.172  1.00  0.00    -0.108 N  
BRANCH   5   6
HETATM    6  C   UNL     1      -8.229   7.685  69.373  1.00  0.00    -0.129 C  
BRANCH   6   7
HETATM    7  C   UNL     1      -9.332   8.393  68.512  1.00  0.00    -0.139 C  
HETATM    8  H   UNL     1     -11.063   7.890  67.755  1.00  0.00     0.000 HD 
HETATM    9  O   UNL     1     -10.394   7.461  68.277  1.00  0.00    -0.185 OA 
BRANCH   7  10
HETATM   10  C   UNL     1      -9.856   9.735  69.146  1.00  0.00    -0.188 C  
BRANCH  10  11
HETATM   11  N   UNL     1     -10.919  10.377  68.347  1.00  0.00    -0.247 N  
HETATM   12  O   UNL     1      -9.847  12.397  68.188  1.00  0.00    -0.203 OA 
HETATM   13  H   UNL     1     -11.747   9.840  68.090  1.00  0.00     0.000 HD 
HETATM   14  C   UNL     1     -10.810  11.686  67.947  1.00  0.00    -0.210 C  
BRANCH  14  15
HETATM   15  O   UNL     1     -11.919  12.101  67.270  1.00  0.00    -0.573 OA 
BRANCH  15  16
HETATM   16  C   UNL     1     -11.626  12.890  66.101  1.00  0.00    -0.372 C  
HETATM   17  C   UNL     1     -11.405  12.027  64.875  1.00  0.00    -0.366 C  
HETATM   18  O   UNL     1     -12.790  13.816  64.217  1.00  0.00    -0.624 OA 
HETATM   19  C   UNL     1     -11.729  12.979  63.745  1.00  0.00    -0.485 C  
HETATM   20  C   UNL     1     -12.786  13.777  65.654  1.00  0.00    -0.478 C  
ENDBRANCH  15  16
ENDBRANCH  14  15
ENDBRANCH  10  11
BRANCH  10  21
HETATM   21  C   UNL     1     -10.200   9.701  70.659  1.00  0.00    -0.346 C  
BRANCH  21  22
HETATM   22  C   UNL     1     -11.512   9.113  71.141  1.00  0.00    -0.388 A  
HETATM   23  C   UNL     1     -13.851   9.419  71.741  1.00  0.00    -0.357 A  
HETATM   24  C   UNL     1     -12.585   9.950  71.474  1.00  0.00    -0.513 A  
HETATM   25  C   UNL     1     -14.061   8.042  71.694  1.00  0.00    -0.516 A  
HETATM   26  C   UNL     1     -11.735   7.726  71.113  1.00  0.00    -0.304 A  
HETATM   27  C   UNL     1     -13.000   7.195  71.388  1.00  0.00    -0.419 A  
ENDBRANCH  21  22
ENDBRANCH  10  21
ENDBRANCH   7  10
ENDBRANCH   6   7
ENDBRANCH   5   6
BRANCH   5  28
HETATM   28  S   UNL     1      -6.817   5.815  67.978  1.00  0.00    -0.065 S  
HETATM   29  O   UNL     1      -6.074   7.023  67.704  1.00  0.00    -0.030 OA 
HETATM   30  O   UNL     1      -6.142   4.619  68.448  1.00  0.00    -0.028 OA 
BRANCH  28  31
HETATM   31  C   UNL     1      -7.674   5.400  66.483  1.00  0.00    -0.099 A  
HETATM   32  N   UNL     1      -9.744   4.474  62.944  1.00  0.00    -0.343 NA 
HETATM   33  H2  UNL     1     -10.689   4.831  63.081  1.00  0.00     0.000 HD 
HETATM   34  H1  UNL     1      -9.403   4.806  62.042  1.00  0.00     0.000 HD 
HETATM   35  C   UNL     1      -8.808   4.587  66.534  1.00  0.00    -0.112 A  
HETATM   36  C   UNL     1      -9.476   4.261  65.347  1.00  0.00    -0.177 A  
HETATM   37  C   UNL     1      -7.249   5.935  65.260  1.00  0.00    -0.073 A  
HETATM   38  C   UNL     1      -7.930   5.607  64.083  1.00  0.00    -0.121 A  
HETATM   39  C   UNL     1      -9.008   4.717  64.108  1.00  0.00    -0.126 A  
ENDBRANCH  28  31
ENDBRANCH   5  28
ENDBRANCH   4   5
TORSDOF 11
ENDMDL
MODEL      164
REMARK 921   NORMALIZED FREE ENERGY PREDICTED BY IDOCK:   -5.45 KCAL/MOL
REMARK 922        TOTAL FREE ENERGY PREDICTED BY IDOCK:  -10.72 KCAL/MOL
REMARK 923 INTER-LIGAND FREE ENERGY PREDICTED BY IDOCK:   -9.01 KCAL/MOL
REMARK 924 INTRA-LIGAND FREE ENERGY PREDICTED BY IDOCK:   -1.71 KCAL/MOL
REMARK 927      BINDING AFFINITY PREDICTED BY RF-SCORE:    0.00 PKD
ROOT
HETATM    1  C   UNL     1      -8.490  15.904  66.232  1.00  0.00    -0.302 C  
HETATM    2  C   UNL     1      -7.972  15.302  67.539  1.00  0.00    -0.197 C  
HETATM    3  C   UNL     1      -7.339  16.438  68.368  1.00  0.00    -0.168 C  
HETATM    4  C   UNL     1      -9.068  14.613  68.375  1.00  0.00    -0.192 C  
ENDROOT
BRANCH   4   5
HETATM    5  N   UNL     1      -9.824  13.462  67.721  1.00  0.00    -0.227 N  
BRANCH   5   6
HETATM    6  C   UNL     1      -9.575  12.116  68.442  1.00  0.00    -0.186 C  
BRANCH   6   7
HETATM    7  C   UNL     1      -9.934  10.813  67.645  1.00  0.00    -0.173 C  
HETATM    8  H   UNL     1      -9.007   9.628  66.398  1.00  0.00     0.000 HD 
HETATM    9  O   UNL     1      -8.790  10.417  66.881  1.00  0.00    -0.133 OA 
BRANCH   7  10
HETATM   10  C   UNL     1     -10.467   9.647  68.557  1.00  0.00    -0.212 C  
BRANCH  10  11
HETATM   11  N   UNL     1      -9.573   8.472  68.578  1.00  0.00    -0.150 N  
HETATM   12  O   UNL     1     -11.019   7.109  67.435  1.00  0.00    -0.274 OA 
HETATM   13  H   UNL     1      -8.657   8.546  69.022  1.00  0.00     0.000 HD 
HETATM   14  C   UNL     1      -9.954   7.282  68.008  1.00  0.00    -0.157 C  
BRANCH  14  15
HETATM   15  O   UNL     1      -9.011   6.313  68.183  1.00  0.00    -0.117 OA 
BRANCH  15  16
HETATM   16  C   UNL     1      -8.608   6.135  69.555  1.00  0.00    -0.127 C  
HETATM   17  C   UNL     1      -9.553   5.222  70.309  1.00  0.00    -0.241 C  
HETATM   18  O   UNL     1      -7.362   4.564  70.874  1.00  0.00    -0.049 OA 
HETATM   19  C   UNL     1      -8.676   4.698  71.425  1.00  0.00    -0.119 C  
HETATM   20  C   UNL     1      -7.276   5.405  69.712  1.00  0.00    -0.064 C  
ENDBRANCH  15  16
ENDBRANCH  14  15
ENDBRANCH  10  11
BRANCH  10  21
HETATM   21  C   UNL     1     -10.947  10.041  69.980  1.00  0.00    -0.352 C  
BRANCH  21  22
HETATM   22  C   UNL     1     -11.218   8.979  71.027  1.00  0.00    -0.361 A  
HETATM   23  C   UNL     1     -12.372   6.943  71.696  1.00  0.00    -0.413 A  
HETATM   24  C   UNL     1     -12.234   8.033  70.831  1.00  0.00    -0.122 A  
HETATM   25  C   UNL     1     -11.507   6.789  72.779  1.00  0.00    -0.170 A  
HETATM   26  C   UNL     1     -10.365   8.819  72.131  1.00  0.00    -0.378 A  
HETATM   27  C   UNL     1     -10.509   7.732  73.001  1.00  0.00    -0.432 A  
ENDBRANCH  21  22
ENDBRANCH  10  21
ENDBRANCH   7  10
ENDBRANCH   6   7
ENDBRANCH   5   6
BRANCH   5  28
HETATM   28  S   UNL     1     -11.547  13.823  67.645  1.00  0.00    -0.368 S  
HETATM   29  O   UNL     1     -11.752  14.996  66.828  1.00  0.00    -0.288 OA 
HETATM   30  O   UNL     1     -12.196  12.567  67.315  1.00  0.00    -0.454 OA 
BRANCH  28  31
HETATM   31  C   UNL     1     -12.025  14.264  69.292  1.00  0.00    -0.335 A  
HETATM   32  N   UNL     1     -13.226  15.307  73.184  1.00  0.00    -0.489 NA 
HETATM   33  H2  UNL     1     -14.088  15.839  73.069  1.00  0.00     0.000 HD 
HETATM   34  H1  UNL     1     -13.384  14.586  73.888  1.00  0.00     0.000 HD 
HETATM   35  C   UNL     1     -12.156  15.609  69.642  1.00  0.00    -0.329 A  
HETATM   36  C   UNL     1     -12.531  15.949  70.949  1.00  0.00    -0.352 A  
HETATM   37  C   UNL     1     -12.328  13.264  70.226  1.00  0.00    -0.334 A  
HETATM   38  C   UNL     1     -12.707  13.618  71.525  1.00  0.00    -0.420 A  
HETATM   39  C   UNL     1     -12.749  14.960  71.915  1.00  0.00    -0.326 A  
ENDBRANCH  28  31
ENDBRANCH   5  28
ENDBRANCH   4   5
TORSDOF 11
ENDMDL
MODEL      165
REMARK 921   NORMALIZED FREE ENERGY PREDICTED BY IDOCK:   -5.44 KCAL/MOL
REMARK 922        TOTAL FREE ENERGY PREDICTED BY IDOCK:  -10.71 KCAL/MOL
REMARK 923 INTER-LIGAND FREE ENERGY PREDICTED BY IDOCK:   -9.34 KCAL/MOL
REMARK 924 INTRA-LIGAND FREE ENERGY PREDICTED BY IDOCK:   -1.37 KCAL/MOL
REMARK 927      BINDING AFFINITY PREDICTED BY RF-SCORE:    0.00 PKD
ROOT
HETATM    1  C   UNL     1     -11.990  10.227  71.261  1.00  0.00    -0.457 C  
HETATM    2  C   UNL     1     -12.330   8.876  71.893  1.00  0.00    -0.445 C  
HETATM    3  C   UNL     1     -13.714   8.998  72.561  1.00  0.00    -0.499 C  
HETATM    4  C   UNL     1     -12.352   7.713  70.883  1.00  0.00    -0.130 C  
ENDROOT
BRANCH   4   5
HETATM    5  N   UNL     1     -11.069   7.438  70.107  1.00  0.00    -0.263 N  
BRANCH   5   6
HETATM    6  C   UNL     1     -10.494   8.721  69.459  1.00  0.00    -0.220 C  
BRANCH   6   7
HETATM    7  C   UNL     1      -9.838   8.561  68.042  1.00  0.00    -0.169 C  
HETATM    8  H   UNL     1     -10.365   7.781  66.330  1.00  0.00     0.000 HD 
HETATM    9  O   UNL     1     -10.762   7.878  67.188  1.00  0.00    -0.326 OA 
BRANCH   7  10
HETATM   10  C   UNL     1      -9.354   9.922  67.419  1.00  0.00    -0.137 C  
BRANCH  10  11
HETATM   11  N   UNL     1     -10.115  10.312  66.215  1.00  0.00    -0.232 N  
HETATM   12  O   UNL     1      -8.264  10.540  64.883  1.00  0.00    -0.168 OA 
HETATM   13  H   UNL     1     -11.133  10.366  66.260  1.00  0.00     0.000 HD 
HETATM   14  C   UNL     1      -9.475  10.601  65.035  1.00  0.00    -0.243 C  
BRANCH  14  15
HETATM   15  O   UNL     1     -10.352  10.990  64.066  1.00  0.00    -0.330 OA 
BRANCH  15  16
HETATM   16  C   UNL     1     -11.228  12.059  64.471  1.00  0.00    -0.332 C  
HETATM   17  C   UNL     1     -10.523  13.400  64.473  1.00  0.00    -0.431 C  
HETATM   18  O   UNL     1     -12.620  13.728  63.450  1.00  0.00    -0.842 OA 
HETATM   19  C   UNL     1     -11.671  14.371  64.306  1.00  0.00    -0.310 C  
HETATM   20  C   UNL     1     -12.376  12.312  63.495  1.00  0.00    -0.565 C  
ENDBRANCH  15  16
ENDBRANCH  14  15
ENDBRANCH  10  11
BRANCH  10  21
HETATM   21  C   UNL     1      -9.167  11.109  68.401  1.00  0.00    -0.175 C  
BRANCH  21  22
HETATM   22  C   UNL     1      -9.982  12.378  68.246  1.00  0.00    -0.224 A  
HETATM   23  C   UNL     1     -12.012  13.636  68.719  1.00  0.00    -0.394 A  
HETATM   24  C   UNL     1     -11.312  12.426  68.687  1.00  0.00    -0.332 A  
HETATM   25  C   UNL     1     -11.400  14.814  68.296  1.00  0.00    -0.319 A  
HETATM   26  C   UNL     1      -9.384  13.572  67.808  1.00  0.00    -0.213 A  
HETATM   27  C   UNL     1     -10.089  14.780  67.833  1.00  0.00    -0.221 A  
ENDBRANCH  21  22
ENDBRANCH  10  21
ENDBRANCH   7  10
ENDBRANCH   6   7
ENDBRANCH   5   6
BRANCH   5  28
HETATM   28  S   UNL     1      -9.872   6.672  71.148  1.00  0.00    -0.181 S  
HETATM   29  O   UNL     1      -8.825   7.620  71.446  1.00  0.00    -0.129 OA 
HETATM   30  O   UNL     1     -10.627   6.040  72.214  1.00  0.00    -0.202 OA 
BRANCH  28  31
HETATM   31  C   UNL     1      -9.130   5.390  70.175  1.00  0.00    -0.135 A  
HETATM   32  N   UNL     1      -7.351   2.394  67.823  1.00  0.00    -0.055 NA 
HETATM   33  H2  UNL     1      -7.476   2.698  66.857  1.00  0.00     0.000 HD 
HETATM   34  H1  UNL     1      -6.371   2.144  67.957  1.00  0.00     0.000 HD 
HETATM   35  C   UNL     1      -9.898   4.694  69.240  1.00  0.00    -0.260 A  
HETATM   36  C   UNL     1      -9.303   3.678  68.479  1.00  0.00    -0.226 A  
HETATM   37  C   UNL     1      -7.762   5.115  70.304  1.00  0.00    -0.071 A  
HETATM   38  C   UNL     1      -7.181   4.104  69.533  1.00  0.00    -0.050 A  
HETATM   39  C   UNL     1      -7.959   3.334  68.662  1.00  0.00    -0.057 A  
ENDBRANCH  28  31
ENDBRANCH   5  28
ENDBRANCH   4   5
TORSDOF 11
ENDMDL
MODEL      166
REMARK 921   NORMALIZED FREE ENERGY PREDICTED BY IDOCK:   -5.44 KCAL/MOL
REMARK 922        TOTAL FREE ENERGY PREDICTED BY IDOCK:  -10.70 KCAL/MOL
REMARK 923 INTER-LIGAND FREE ENERGY PREDICTED BY IDOCK:   -9.00 KCAL/MOL
REMARK 924 INTRA-LIGAND FREE ENERGY PREDICTED BY IDOCK:   -1.71 KCAL/MOL
REMARK 927      BINDING AFFINITY PREDICTED BY RF-SCORE:    0.00 PKD
ROOT
HETATM    1  C   UNL     1     -10.601   8.983  67.488  1.00  0.00    -0.306 C  
HETATM    2  C   UNL     1     -10.551  10.255  68.336  1.00  0.00    -0.247 C  
HETATM    3  C   UNL     1     -11.147   9.929  69.720  1.00  0.00    -0.294 C  
HETATM    4  C   UNL     1      -9.127  10.817  68.516  1.00  0.00    -0.170 C  
ENDROOT
BRANCH   4   5
HETATM    5  N   UNL     1      -8.360  11.192  67.252  1.00  0.00    -0.131 N  
BRANCH   5   6
HETATM    6  C   UNL     1      -8.179  12.723  67.113  1.00  0.00    -0.146 C  
BRANCH   6   7
HETATM    7  C   UNL     1      -8.290  13.567  68.431  1.00  0.00    -0.140 C  
HETATM    8  H   UNL     1      -7.039  14.277  69.754  1.00  0.00     0.000 HD 
HETATM    9  O   UNL     1      -6.972  13.766  68.956  1.00  0.00    -0.109 OA 
BRANCH   7  10
HETATM   10  C   UNL     1      -9.060  14.926  68.241  1.00  0.00    -0.179 C  
BRANCH  10  11
HETATM   11  N   UNL     1      -9.744  15.381  69.469  1.00  0.00    -0.284 N  
HETATM   12  O   UNL     1     -11.789  15.636  68.465  1.00  0.00    -0.355 OA 
HETATM   13  H   UNL     1      -9.218  15.451  70.340  1.00  0.00     0.000 HD 
HETATM   14  C   UNL     1     -11.077  15.711  69.455  1.00  0.00    -0.303 C  
BRANCH  14  15
HETATM   15  O   UNL     1     -11.499  16.158  70.673  1.00  0.00    -0.379 OA 
BRANCH  15  16
HETATM   16  C   UNL     1     -12.698  15.513  71.144  1.00  0.00    -0.463 C  
HETATM   17  C   UNL     1     -12.563  14.004  71.157  1.00  0.00    -0.445 C  
HETATM   18  O   UNL     1     -13.574  14.623  73.194  1.00  0.00    -0.569 OA 
HETATM   19  C   UNL     1     -13.584  13.596  72.196  1.00  0.00    -0.538 C  
HETATM   20  C   UNL     1     -13.018  15.812  72.607  1.00  0.00    -0.478 C  
ENDBRANCH  15  16
ENDBRANCH  14  15
ENDBRANCH  10  11
BRANCH  10  21
HETATM   21  C   UNL     1      -8.282  16.075  67.545  1.00  0.00    -0.171 C  
BRANCH  21  22
HETATM   22  C   UNL     1      -8.895  17.455  67.414  1.00  0.00    -0.230 A  
HETATM   23  C   UNL     1     -10.504  18.941  66.352  1.00  0.00    -0.505 A  
HETATM   24  C   UNL     1      -9.795  17.736  66.376  1.00  0.00    -0.328 A  
HETATM   25  C   UNL     1     -10.315  19.890  67.354  1.00  0.00    -0.565 A  
HETATM   26  C   UNL     1      -8.703  18.429  68.408  1.00  0.00    -0.337 A  
HETATM   27  C   UNL     1      -9.408  19.637  68.378  1.00  0.00    -0.425 A  
ENDBRANCH  21  22
ENDBRANCH  10  21
ENDBRANCH   7  10
ENDBRANCH   6   7
ENDBRANCH   5   6
BRANCH   5  28
HETATM   28  S   UNL     1      -6.803  10.371  67.211  1.00  0.00    -0.083 S  
HETATM   29  O   UNL     1      -5.969  10.982  66.202  1.00  0.00    -0.132 OA 
HETATM   30  O   UNL     1      -6.361  10.297  68.592  1.00  0.00    -0.051 OA 
BRANCH  28  31
HETATM   31  C   UNL     1      -7.136   8.721  66.660  1.00  0.00    -0.081 A  
HETATM   32  N   UNL     1      -7.992   4.813  65.366  1.00  0.00    -0.098 NA 
HETATM   33  H2  UNL     1      -8.739   4.483  65.977  1.00  0.00     0.000 HD 
HETATM   34  H1  UNL     1      -8.265   4.635  64.400  1.00  0.00     0.000 HD 
HETATM   35  C   UNL     1      -6.994   7.650  67.544  1.00  0.00    -0.081 A  
HETATM   36  C   UNL     1      -7.255   6.347  67.097  1.00  0.00    -0.075 A  
HETATM   37  C   UNL     1      -7.597   8.497  65.355  1.00  0.00    -0.088 A  
HETATM   38  C   UNL     1      -7.861   7.193  64.925  1.00  0.00    -0.126 A  
HETATM   39  C   UNL     1      -7.630   6.103  65.770  1.00  0.00    -0.084 A  
ENDBRANCH  28  31
ENDBRANCH   5  28
ENDBRANCH   4   5
TORSDOF 11
ENDMDL
MODEL      167
REMARK 921   NORMALIZED FREE ENERGY PREDICTED BY IDOCK:   -5.44 KCAL/MOL
REMARK 922        TOTAL FREE ENERGY PREDICTED BY IDOCK:  -10.70 KCAL/MOL
REMARK 923 INTER-LIGAND FREE ENERGY PREDICTED BY IDOCK:   -8.65 KCAL/MOL
REMARK 924 INTRA-LIGAND FREE ENERGY PREDICTED BY IDOCK:   -2.05 KCAL/MOL
REMARK 927      BINDING AFFINITY PREDICTED BY RF-SCORE:    0.00 PKD
ROOT
HETATM    1  C   UNL     1      -7.148  11.209  67.403  1.00  0.00    -0.102 C  
HETATM    2  C   UNL     1      -7.838  12.279  68.251  1.00  0.00    -0.153 C  
HETATM    3  C   UNL     1      -6.745  13.170  68.875  1.00  0.00    -0.099 C  
HETATM    4  C   UNL     1      -8.817  13.160  67.450  1.00  0.00    -0.204 C  
ENDROOT
BRANCH   4   5
HETATM    5  N   UNL     1      -9.970  12.457  66.744  1.00  0.00    -0.221 N  
BRANCH   5   6
HETATM    6  C   UNL     1     -10.831  11.621  67.723  1.00  0.00    -0.217 C  
BRANCH   6   7
HETATM    7  C   UNL     1     -10.983  10.094  67.397  1.00  0.00    -0.229 C  
HETATM    8  H   UNL     1     -10.279   8.867  66.049  1.00  0.00     0.000 HD 
HETATM    9  O   UNL     1     -10.187   9.792  66.246  1.00  0.00    -0.249 OA 
BRANCH   7  10
HETATM   10  C   UNL     1     -10.638   9.157  68.614  1.00  0.00    -0.174 C  
BRANCH  10  11
HETATM   11  N   UNL     1      -9.739   8.043  68.251  1.00  0.00    -0.160 N  
HETATM   12  O   UNL     1     -11.201   6.399  68.897  1.00  0.00    -0.343 OA 
HETATM   13  H   UNL     1      -8.823   8.247  67.851  1.00  0.00     0.000 HD 
HETATM   14  C   UNL     1     -10.117   6.737  68.446  1.00  0.00    -0.162 C  
BRANCH  14  15
HETATM   15  O   UNL     1      -9.125   5.867  68.098  1.00  0.00    -0.118 OA 
BRANCH  15  16
HETATM   16  C   UNL     1      -7.845   6.183  68.678  1.00  0.00    -0.101 C  
HETATM   17  C   UNL     1      -7.658   5.527  70.031  1.00  0.00    -0.077 C  
HETATM   18  O   UNL     1      -5.653   5.218  68.833  1.00  0.00    -0.013 OA 
HETATM   19  C   UNL     1      -6.152   5.457  70.153  1.00  0.00    -0.022 C  
HETATM   20  C   UNL     1      -6.662   5.622  67.892  1.00  0.00    -0.055 C  
ENDBRANCH  15  16
ENDBRANCH  14  15
ENDBRANCH  10  11
BRANCH  10  21
HETATM   21  C   UNL     1     -10.200   9.858  69.928  1.00  0.00    -0.298 C  
BRANCH  21  22
HETATM   22  C   UNL     1     -10.245   9.118  71.251  1.00  0.00    -0.400 A  
HETATM   23  C   UNL     1     -11.520   7.895  72.925  1.00  0.00    -0.357 A  
HETATM   24  C   UNL     1     -11.473   8.734  71.807  1.00  0.00    -0.413 A  
HETATM   25  C   UNL     1     -10.343   7.441  73.515  1.00  0.00    -0.405 A  
HETATM   26  C   UNL     1      -9.066   8.665  71.866  1.00  0.00    -0.326 A  
HETATM   27  C   UNL     1      -9.115   7.833  72.990  1.00  0.00    -0.269 A  
ENDBRANCH  21  22
ENDBRANCH  10  21
ENDBRANCH   7  10
ENDBRANCH   6   7
ENDBRANCH   5   6
BRANCH   5  28
HETATM   28  S   UNL     1     -10.964  13.624  65.877  1.00  0.00    -0.284 S  
HETATM   29  O   UNL     1     -10.457  13.776  64.533  1.00  0.00    -0.434 OA 
HETATM   30  O   UNL     1     -12.339  13.219  66.110  1.00  0.00    -0.412 OA 
BRANCH  28  31
HETATM   31  C   UNL     1     -10.712  15.178  66.690  1.00  0.00    -0.310 A  
HETATM   32  N   UNL     1     -10.056  18.840  68.648  1.00  0.00    -0.392 NA 
HETATM   33  H2  UNL     1      -9.631  18.597  69.542  1.00  0.00     0.000 HD 
HETATM   34  H1  UNL     1      -9.491  19.568  68.210  1.00  0.00     0.000 HD 
HETATM   35  C   UNL     1     -11.315  15.423  67.924  1.00  0.00    -0.328 A  
HETATM   36  C   UNL     1     -11.114  16.657  68.558  1.00  0.00    -0.301 A  
HETATM   37  C   UNL     1      -9.861  16.136  66.122  1.00  0.00    -0.358 A  
HETATM   38  C   UNL     1      -9.663  17.360  66.769  1.00  0.00    -0.293 A  
HETATM   39  C   UNL     1     -10.338  17.656  67.957  1.00  0.00    -0.375 A  
ENDBRANCH  28  31
ENDBRANCH   5  28
ENDBRANCH   4   5
TORSDOF 11
ENDMDL
MODEL      168
REMARK 921   NORMALIZED FREE ENERGY PREDICTED BY IDOCK:   -5.43 KCAL/MOL
REMARK 922        TOTAL FREE ENERGY PREDICTED BY IDOCK:  -10.69 KCAL/MOL
REMARK 923 INTER-LIGAND FREE ENERGY PREDICTED BY IDOCK:   -8.76 KCAL/MOL
REMARK 924 INTRA-LIGAND FREE ENERGY PREDICTED BY IDOCK:   -1.93 KCAL/MOL
REMARK 927      BINDING AFFINITY PREDICTED BY RF-SCORE:    0.00 PKD
ROOT
HETATM    1  C   UNL     1     -10.100   4.767  69.988  1.00  0.00    -0.308 C  
HETATM    2  C   UNL     1      -9.379   5.284  71.233  1.00  0.00    -0.187 C  
HETATM    3  C   UNL     1      -9.350   4.146  72.273  1.00  0.00    -0.171 C  
HETATM    4  C   UNL     1      -7.938   5.757  70.956  1.00  0.00    -0.115 C  
ENDROOT
BRANCH   4   5
HETATM    5  N   UNL     1      -7.755   6.878  69.939  1.00  0.00    -0.106 N  
BRANCH   5   6
HETATM    6  C   UNL     1      -8.491   8.173  70.360  1.00  0.00    -0.129 C  
BRANCH   6   7
HETATM    7  C   UNL     1      -9.328   8.899  69.249  1.00  0.00    -0.149 C  
HETATM    8  H   UNL     1     -10.619   8.360  67.885  1.00  0.00     0.000 HD 
HETATM    9  O   UNL     1     -10.112   7.921  68.557  1.00  0.00    -0.186 OA 
BRANCH   7  10
HETATM   10  C   UNL     1     -10.211  10.079  69.801  1.00  0.00    -0.250 C  
BRANCH  10  11
HETATM   11  N   UNL     1     -11.174  10.596  68.808  1.00  0.00    -0.262 N  
HETATM   12  O   UNL     1      -9.833  12.324  68.122  1.00  0.00    -0.201 OA 
HETATM   13  H   UNL     1     -12.068  10.121  68.681  1.00  0.00     0.000 HD 
HETATM   14  C   UNL     1     -10.885  11.707  68.054  1.00  0.00    -0.215 C  
BRANCH  14  15
HETATM   15  O   UNL     1     -11.925  12.050  67.241  1.00  0.00    -0.591 OA 
BRANCH  15  16
HETATM   16  C   UNL     1     -11.537  12.854  66.111  1.00  0.00    -0.372 C  
HETATM   17  C   UNL     1     -11.412  12.031  64.845  1.00  0.00    -0.352 C  
HETATM   18  O   UNL     1     -12.580  13.996  64.275  1.00  0.00    -0.670 OA 
HETATM   19  C   UNL     1     -11.620  13.067  63.762  1.00  0.00    -0.457 C  
HETATM   20  C   UNL     1     -12.586  13.889  65.708  1.00  0.00    -0.494 C  
ENDBRANCH  15  16
ENDBRANCH  14  15
ENDBRANCH  10  11
BRANCH  10  21
HETATM   21  C   UNL     1     -10.864   9.866  71.193  1.00  0.00    -0.226 C  
BRANCH  21  22
HETATM   22  C   UNL     1     -12.128   9.042  71.337  1.00  0.00    -0.392 A  
HETATM   23  C   UNL     1     -13.224   6.868  71.330  1.00  0.00    -0.287 A  
HETATM   24  C   UNL     1     -12.121   7.674  71.028  1.00  0.00    -0.282 A  
HETATM   25  C   UNL     1     -14.354   7.417  71.931  1.00  0.00    -0.520 A  
HETATM   26  C   UNL     1     -13.281   9.584  71.928  1.00  0.00    -0.524 A  
HETATM   27  C   UNL     1     -14.386   8.777  72.222  1.00  0.00    -0.468 A  
ENDBRANCH  21  22
ENDBRANCH  10  21
ENDBRANCH   7  10
ENDBRANCH   6   7
ENDBRANCH   5   6
BRANCH   5  28
HETATM   28  S   UNL     1      -6.043   7.190  69.669  1.00  0.00    -0.031 S  
HETATM   29  O   UNL     1      -5.484   7.823  70.841  1.00  0.00    -0.030 OA 
HETATM   30  O   UNL     1      -5.492   5.946  69.164  1.00  0.00    -0.004 OA 
BRANCH  28  31
HETATM   31  C   UNL     1      -5.966   8.387  68.365  1.00  0.00    -0.042 A  
HETATM   32  N   UNL     1      -5.720  11.206  65.256  1.00  0.00    -0.476 NA 
HETATM   33  H2  UNL     1      -4.750  11.522  65.252  1.00  0.00     0.000 HD 
HETATM   34  H1  UNL     1      -5.978  10.951  64.303  1.00  0.00     0.000 HD 
HETATM   35  C   UNL     1      -5.579   9.698  68.646  1.00  0.00    -0.036 A  
HETATM   36  C   UNL     1      -5.526  10.639  67.608  1.00  0.00    -0.043 A  
HETATM   37  C   UNL     1      -6.237   8.003  67.044  1.00  0.00    -0.055 A  
HETATM   38  C   UNL     1      -6.172   8.950  66.018  1.00  0.00    -0.056 A  
HETATM   39  C   UNL     1      -5.880  10.288  66.300  1.00  0.00    -0.070 A  
ENDBRANCH  28  31
ENDBRANCH   5  28
ENDBRANCH   4   5
TORSDOF 11
ENDMDL
MODEL      169
REMARK 921   NORMALIZED FREE ENERGY PREDICTED BY IDOCK:   -5.43 KCAL/MOL
REMARK 922        TOTAL FREE ENERGY PREDICTED BY IDOCK:  -10.68 KCAL/MOL
REMARK 923 INTER-LIGAND FREE ENERGY PREDICTED BY IDOCK:  -10.09 KCAL/MOL
REMARK 924 INTRA-LIGAND FREE ENERGY PREDICTED BY IDOCK:   -0.59 KCAL/MOL
REMARK 927      BINDING AFFINITY PREDICTED BY RF-SCORE:    0.00 PKD
ROOT
HETATM    1  C   UNL     1     -12.877  14.193  65.225  1.00  0.00    -0.370 C  
HETATM    2  C   UNL     1     -12.294  12.805  64.954  1.00  0.00    -0.551 C  
HETATM    3  C   UNL     1     -12.049  12.680  63.437  1.00  0.00    -0.614 C  
HETATM    4  C   UNL     1     -10.977  12.535  65.707  1.00  0.00    -0.292 C  
ENDROOT
BRANCH   4   5
HETATM    5  N   UNL     1     -11.012  12.623  67.228  1.00  0.00    -0.248 N  
BRANCH   5   6
HETATM    6  C   UNL     1     -12.123  13.577  67.731  1.00  0.00    -0.280 C  
BRANCH   6   7
HETATM    7  C   UNL     1     -11.675  14.734  68.691  1.00  0.00    -0.325 C  
HETATM    8  H   UNL     1     -11.128  14.877  70.562  1.00  0.00     0.000 HD 
HETATM    9  O   UNL     1     -11.400  14.176  69.980  1.00  0.00    -0.226 OA 
BRANCH   7  10
HETATM   10  C   UNL     1     -10.461  15.570  68.140  1.00  0.00    -0.259 C  
BRANCH  10  11
HETATM   11  N   UNL     1     -10.872  16.666  67.240  1.00  0.00    -0.223 N  
HETATM   12  O   UNL     1      -9.269  16.231  65.660  1.00  0.00    -0.444 OA 
HETATM   13  H   UNL     1     -11.662  17.258  67.498  1.00  0.00     0.000 HD 
HETATM   14  C   UNL     1     -10.209  16.901  66.061  1.00  0.00    -0.336 C  
BRANCH  14  15
HETATM   15  O   UNL     1     -10.710  17.988  65.407  1.00  0.00    -0.632 OA 
BRANCH  15  16
HETATM   16  C   UNL     1     -10.370  19.245  66.024  1.00  0.00    -0.475 C  
HETATM   17  C   UNL     1     -10.783  19.290  67.481  1.00  0.00    -0.571 C  
HETATM   18  O   UNL     1      -8.603  20.175  67.356  1.00  0.00    -0.325 OA 
HETATM   19  C   UNL     1      -9.844  20.329  68.053  1.00  0.00    -0.308 C  
HETATM   20  C   UNL     1      -8.866  19.494  66.118  1.00  0.00    -0.309 C  
ENDBRANCH  15  16
ENDBRANCH  14  15
ENDBRANCH  10  11
BRANCH  10  21
HETATM   21  C   UNL     1      -9.406  16.033  69.180  1.00  0.00    -0.251 C  
BRANCH  21  22
HETATM   22  C   UNL     1      -7.955  16.216  68.781  1.00  0.00    -0.216 A  
HETATM   23  C   UNL     1      -5.964  15.367  67.667  1.00  0.00    -0.130 A  
HETATM   24  C   UNL     1      -7.238  15.158  68.205  1.00  0.00    -0.112 A  
HETATM   25  C   UNL     1      -5.380  16.631  67.708  1.00  0.00    -0.141 A  
HETATM   26  C   UNL     1      -7.346  17.482  68.830  1.00  0.00    -0.260 A  
HETATM   27  C   UNL     1      -6.069  17.687  68.297  1.00  0.00    -0.165 A  
ENDBRANCH  21  22
ENDBRANCH  10  21
ENDBRANCH   7  10
ENDBRANCH   6   7
ENDBRANCH   5   6
BRANCH   5  28
HETATM   28  S   UNL     1     -11.196  11.020  67.934  1.00  0.00    -0.311 S  
HETATM   29  O   UNL     1     -12.228  11.060  68.943  1.00  0.00    -0.519 OA 
HETATM   30  O   UNL     1     -11.292  10.106  66.811  1.00  0.00     0.028 OA 
BRANCH  28  31
HETATM   31  C   UNL     1      -9.676  10.683  68.779  1.00  0.00    -0.189 A  
HETATM   32  N   UNL     1      -6.089   9.921  70.835  1.00  0.00    -0.130 NA 
HETATM   33  H2  UNL     1      -5.875  10.783  71.336  1.00  0.00     0.000 HD 
HETATM   34  H1  UNL     1      -6.022   9.143  71.491  1.00  0.00     0.000 HD 
HETATM   35  C   UNL     1      -8.549  11.466  68.523  1.00  0.00    -0.150 A  
HETATM   36  C   UNL     1      -7.349  11.188  69.193  1.00  0.00    -0.115 A  
HETATM   37  C   UNL     1      -9.621   9.668  69.744  1.00  0.00    -0.242 A  
HETATM   38  C   UNL     1      -8.419   9.407  70.410  1.00  0.00    -0.247 A  
HETATM   39  C   UNL     1      -7.259  10.120  70.094  1.00  0.00    -0.154 A  
ENDBRANCH  28  31
ENDBRANCH   5  28
ENDBRANCH   4   5
TORSDOF 11
ENDMDL
MODEL      170
REMARK 921   NORMALIZED FREE ENERGY PREDICTED BY IDOCK:   -5.41 KCAL/MOL
REMARK 922        TOTAL FREE ENERGY PREDICTED BY IDOCK:  -10.66 KCAL/MOL
REMARK 923 INTER-LIGAND FREE ENERGY PREDICTED BY IDOCK:   -9.56 KCAL/MOL
REMARK 924 INTRA-LIGAND FREE ENERGY PREDICTED BY IDOCK:   -1.10 KCAL/MOL
REMARK 927      BINDING AFFINITY PREDICTED BY RF-SCORE:    0.00 PKD
ROOT
HETATM    1  C   UNL     1     -11.987  14.144  64.471  1.00  0.00    -0.476 C  
HETATM    2  C   UNL     1     -12.080  12.628  64.654  1.00  0.00    -0.484 C  
HETATM    3  C   UNL     1     -12.589  12.019  63.332  1.00  0.00    -0.592 C  
HETATM    4  C   UNL     1     -10.738  11.972  65.034  1.00  0.00    -0.296 C  
ENDROOT
BRANCH   4   5
HETATM    5  N   UNL     1     -10.065  12.452  66.315  1.00  0.00    -0.235 N  
BRANCH   5   6
HETATM    6  C   UNL     1     -11.075  12.624  67.475  1.00  0.00    -0.272 C  
BRANCH   6   7
HETATM    7  C   UNL     1     -11.203  14.062  68.089  1.00  0.00    -0.275 C  
HETATM    8  H   UNL     1     -11.478  14.809  69.874  1.00  0.00     0.000 HD 
HETATM    9  O   UNL     1     -11.401  13.938  69.502  1.00  0.00    -0.261 OA 
BRANCH   7  10
HETATM   10  C   UNL     1      -9.987  15.000  67.744  1.00  0.00    -0.229 C  
BRANCH  10  11
HETATM   11  N   UNL     1     -10.401  16.342  67.288  1.00  0.00    -0.284 N  
HETATM   12  O   UNL     1     -10.726  17.171  69.401  1.00  0.00    -0.288 OA 
HETATM   13  H   UNL     1     -10.428  16.546  66.289  1.00  0.00     0.000 HD 
HETATM   14  C   UNL     1     -10.750  17.319  68.188  1.00  0.00    -0.363 C  
BRANCH  14  15
HETATM   15  O   UNL     1     -11.152  18.462  67.562  1.00  0.00    -0.256 OA 
BRANCH  15  16
HETATM   16  C   UNL     1     -10.118  19.458  67.451  1.00  0.00    -0.398 C  
HETATM   17  C   UNL     1      -9.013  19.243  68.465  1.00  0.00    -0.414 C  
HETATM   18  O   UNL     1      -7.974  19.715  66.403  1.00  0.00    -0.285 OA 
HETATM   19  C   UNL     1      -7.835  19.932  67.811  1.00  0.00    -0.294 C  
HETATM   20  C   UNL     1      -9.349  19.397  66.133  1.00  0.00    -0.300 C  
ENDBRANCH  15  16
ENDBRANCH  14  15
ENDBRANCH  10  11
BRANCH  10  21
HETATM   21  C   UNL     1      -8.841  15.065  68.789  1.00  0.00    -0.192 C  
BRANCH  21  22
HETATM   22  C   UNL     1      -7.545  15.785  68.472  1.00  0.00    -0.138 A  
HETATM   23  C   UNL     1      -6.063  16.808  66.835  1.00  0.00    -0.212 A  
HETATM   24  C   UNL     1      -7.154  15.990  67.142  1.00  0.00    -0.248 A  
HETATM   25  C   UNL     1      -5.335  17.423  67.852  1.00  0.00    -0.127 A  
HETATM   26  C   UNL     1      -6.792  16.399  69.488  1.00  0.00    -0.187 A  
HETATM   27  C   UNL     1      -5.696  17.212  69.179  1.00  0.00    -0.163 A  
ENDBRANCH  21  22
ENDBRANCH  10  21
ENDBRANCH   7  10
ENDBRANCH   6   7
ENDBRANCH   5   6
BRANCH   5  28
HETATM   28  S   UNL     1      -8.764  11.357  66.774  1.00  0.00    -0.178 S  
HETATM   29  O   UNL     1      -8.045  10.950  65.590  1.00  0.00    -0.145 OA 
HETATM   30  O   UNL     1      -8.075  12.006  67.874  1.00  0.00    -0.131 OA 
BRANCH  28  31
HETATM   31  C   UNL     1      -9.553   9.903  67.410  1.00  0.00    -0.155 A  
HETATM   32  N   UNL     1     -11.363   6.426  68.929  1.00  0.00    -0.579 NA 
HETATM   33  H2  UNL     1     -10.752   5.659  68.651  1.00  0.00     0.000 HD 
HETATM   34  H1  UNL     1     -11.558   6.337  69.926  1.00  0.00     0.000 HD 
HETATM   35  C   UNL     1      -9.940   8.884  66.538  1.00  0.00    -0.358 A  
HETATM   36  C   UNL     1     -10.567   7.740  67.050  1.00  0.00    -0.396 A  
HETATM   37  C   UNL     1      -9.734   9.752  68.791  1.00  0.00    -0.165 A  
HETATM   38  C   UNL     1     -10.355   8.602  69.288  1.00  0.00    -0.228 A  
HETATM   39  C   UNL     1     -10.835   7.617  68.418  1.00  0.00     0.044 A  
ENDBRANCH  28  31
ENDBRANCH   5  28
ENDBRANCH   4   5
TORSDOF 11
ENDMDL
MODEL      171
REMARK 921   NORMALIZED FREE ENERGY PREDICTED BY IDOCK:   -5.40 KCAL/MOL
REMARK 922        TOTAL FREE ENERGY PREDICTED BY IDOCK:  -10.65 KCAL/MOL
REMARK 923 INTER-LIGAND FREE ENERGY PREDICTED BY IDOCK:   -8.89 KCAL/MOL
REMARK 924 INTRA-LIGAND FREE ENERGY PREDICTED BY IDOCK:   -1.76 KCAL/MOL
REMARK 927      BINDING AFFINITY PREDICTED BY RF-SCORE:    0.00 PKD
ROOT
HETATM    1  C   UNL     1      -6.499  14.616  67.593  1.00  0.00    -0.157 C  
HETATM    2  C   UNL     1      -7.237  14.308  68.897  1.00  0.00    -0.125 C  
HETATM    3  C   UNL     1      -6.496  15.024  70.044  1.00  0.00    -0.160 C  
HETATM    4  C   UNL     1      -8.712  14.753  68.888  1.00  0.00    -0.161 C  
ENDROOT
BRANCH   4   5
HETATM    5  N   UNL     1      -9.614  14.159  67.811  1.00  0.00    -0.214 N  
BRANCH   5   6
HETATM    6  C   UNL     1     -10.198  12.789  68.231  1.00  0.00    -0.244 C  
BRANCH   6   7
HETATM    7  C   UNL     1      -9.864  11.567  67.305  1.00  0.00    -0.190 C  
HETATM    8  H   UNL     1      -9.099  11.322  65.523  1.00  0.00     0.000 HD 
HETATM    9  O   UNL     1      -9.301  12.062  66.084  1.00  0.00    -0.229 OA 
BRANCH   7  10
HETATM   10  C   UNL     1      -8.935  10.498  67.991  1.00  0.00    -0.135 C  
BRANCH  10  11
HETATM   11  N   UNL     1      -9.510   9.942  69.232  1.00  0.00    -0.196 N  
HETATM   12  O   UNL     1      -7.482   9.576  70.236  1.00  0.00    -0.107 OA 
HETATM   13  H   UNL     1     -10.523   9.875  69.330  1.00  0.00     0.000 HD 
HETATM   14  C   UNL     1      -8.702   9.513  70.256  1.00  0.00    -0.235 C  
BRANCH  14  15
HETATM   15  O   UNL     1      -9.426   8.986  71.285  1.00  0.00    -0.247 OA 
BRANCH  15  16
HETATM   16  C   UNL     1     -10.735   8.525  70.898  1.00  0.00    -0.224 C  
HETATM   17  C   UNL     1     -10.734   7.055  70.534  1.00  0.00    -0.262 C  
HETATM   18  O   UNL     1     -12.622   7.425  71.893  1.00  0.00    -0.312 OA 
HETATM   19  C   UNL     1     -12.175   6.661  70.769  1.00  0.00    -0.241 C  
HETATM   20  C   UNL     1     -11.758   8.566  72.031  1.00  0.00    -0.362 C  
ENDBRANCH  15  16
ENDBRANCH  14  15
ENDBRANCH  10  11
BRANCH  10  21
HETATM   21  C   UNL     1      -8.351   9.392  67.071  1.00  0.00    -0.127 C  
BRANCH  21  22
HETATM   22  C   UNL     1      -9.013   8.032  66.980  1.00  0.00    -0.156 A  
HETATM   23  C   UNL     1      -8.882   5.615  67.244  1.00  0.00    -0.106 A  
HETATM   24  C   UNL     1      -8.257   6.862  67.141  1.00  0.00    -0.118 A  
HETATM   25  C   UNL     1     -10.270   5.515  67.171  1.00  0.00    -0.260 A  
HETATM   26  C   UNL     1     -10.411   7.912  66.892  1.00  0.00    -0.400 A  
HETATM   27  C   UNL     1     -11.033   6.663  66.986  1.00  0.00    -0.463 A  
ENDBRANCH  21  22
ENDBRANCH  10  21
ENDBRANCH   7  10
ENDBRANCH   6   7
ENDBRANCH   5   6
BRANCH   5  28
HETATM   28  S   UNL     1     -10.900  15.287  67.394  1.00  0.00    -0.308 S  
HETATM   29  O   UNL     1     -11.386  14.986  66.068  1.00  0.00    -0.338 OA 
HETATM   30  O   UNL     1     -11.802  15.292  68.532  1.00  0.00    -0.338 OA 
BRANCH  28  31
HETATM   31  C   UNL     1     -10.137  16.884  67.302  1.00  0.00    -0.286 A  
HETATM   32  N   UNL     1      -8.280  20.651  67.127  1.00  0.00    -0.518 NA 
HETATM   33  H2  UNL     1      -7.921  20.821  68.066  1.00  0.00     0.000 HD 
HETATM   34  H1  UNL     1      -7.529  20.829  66.459  1.00  0.00     0.000 HD 
HETATM   35  C   UNL     1     -10.585  17.918  68.125  1.00  0.00    -0.351 A  
HETATM   36  C   UNL     1      -9.979  19.179  68.041  1.00  0.00    -0.458 A  
HETATM   37  C   UNL     1      -9.047  17.091  66.445  1.00  0.00    -0.300 A  
HETATM   38  C   UNL     1      -8.447  18.352  66.377  1.00  0.00    -0.264 A  
HETATM   39  C   UNL     1      -8.948  19.422  67.125  1.00  0.00    -0.297 A  
ENDBRANCH  28  31
ENDBRANCH   5  28
ENDBRANCH   4   5
TORSDOF 11
ENDMDL
MODEL      172
REMARK 921   NORMALIZED FREE ENERGY PREDICTED BY IDOCK:   -5.39 KCAL/MOL
REMARK 922        TOTAL FREE ENERGY PREDICTED BY IDOCK:  -10.63 KCAL/MOL
REMARK 923 INTER-LIGAND FREE ENERGY PREDICTED BY IDOCK:   -9.64 KCAL/MOL
REMARK 924 INTRA-LIGAND FREE ENERGY PREDICTED BY IDOCK:   -0.99 KCAL/MOL
REMARK 927      BINDING AFFINITY PREDICTED BY RF-SCORE:    0.00 PKD
ROOT
HETATM    1  C   UNL     1      -9.757  15.230  65.811  1.00  0.00    -0.385 C  
HETATM    2  C   UNL     1      -8.714  14.655  66.770  1.00  0.00    -0.233 C  
HETATM    3  C   UNL     1      -8.098  15.827  67.561  1.00  0.00    -0.179 C  
HETATM    4  C   UNL     1      -9.291  13.622  67.758  1.00  0.00    -0.218 C  
ENDROOT
BRANCH   4   5
HETATM    5  N   UNL     1      -9.959  12.387  67.165  1.00  0.00    -0.206 N  
BRANCH   5   6
HETATM    6  C   UNL     1      -9.321  11.075  67.683  1.00  0.00    -0.157 C  
BRANCH   6   7
HETATM    7  C   UNL     1      -9.733   9.753  66.944  1.00  0.00    -0.192 C  
HETATM    8  H   UNL     1      -9.091   8.750  65.395  1.00  0.00     0.000 HD 
HETATM    9  O   UNL     1      -8.841   9.550  65.843  1.00  0.00    -0.148 OA 
BRANCH   7  10
HETATM   10  C   UNL     1      -9.795   8.499  67.892  1.00  0.00    -0.170 C  
BRANCH  10  11
HETATM   11  N   UNL     1     -10.537   8.754  69.144  1.00  0.00    -0.307 N  
HETATM   12  O   UNL     1      -8.679   8.691  70.485  1.00  0.00    -0.139 OA 
HETATM   13  H   UNL     1     -11.548   8.887  69.109  1.00  0.00     0.000 HD 
HETATM   14  C   UNL     1      -9.887   8.815  70.352  1.00  0.00    -0.182 C  
BRANCH  14  15
HETATM   15  O   UNL     1     -10.758   9.003  71.385  1.00  0.00    -0.275 OA 
BRANCH  15  16
HETATM   16  C   UNL     1     -12.123   8.677  71.061  1.00  0.00    -0.215 C  
HETATM   17  C   UNL     1     -12.463   7.244  71.418  1.00  0.00    -0.418 C  
HETATM   18  O   UNL     1     -14.257   8.582  72.155  1.00  0.00    -0.424 OA 
HETATM   19  C   UNL     1     -13.965   7.300  71.589  1.00  0.00    -0.363 C  
HETATM   20  C   UNL     1     -13.149   9.455  71.882  1.00  0.00    -0.424 C  
ENDBRANCH  15  16
ENDBRANCH  14  15
ENDBRANCH  10  11
BRANCH  10  21
HETATM   21  C   UNL     1     -10.199   7.151  67.237  1.00  0.00    -0.315 C  
BRANCH  21  22
HETATM   22  C   UNL     1      -9.674   5.838  67.782  1.00  0.00    -0.130 A  
HETATM   23  C   UNL     1      -7.854   4.235  67.994  1.00  0.00    -0.079 A  
HETATM   24  C   UNL     1      -8.430   5.344  67.365  1.00  0.00    -0.106 A  
HETATM   25  C   UNL     1      -8.518   3.593  69.037  1.00  0.00    -0.101 A  
HETATM   26  C   UNL     1     -10.339   5.170  68.824  1.00  0.00    -0.162 A  
HETATM   27  C   UNL     1      -9.764   4.056  69.447  1.00  0.00    -0.205 A  
ENDBRANCH  21  22
ENDBRANCH  10  21
ENDBRANCH   7  10
ENDBRANCH   6   7
ENDBRANCH   5   6
BRANCH   5  28
HETATM   28  S   UNL     1     -11.691  12.410  67.486  1.00  0.00    -0.308 S  
HETATM   29  O   UNL     1     -12.372  13.032  66.374  1.00  0.00    -0.417 OA 
HETATM   30  O   UNL     1     -12.031  11.062  67.903  1.00  0.00    -0.620 OA 
BRANCH  28  31
HETATM   31  C   UNL     1     -11.914  13.482  68.879  1.00  0.00    -0.341 A  
HETATM   32  N   UNL     1     -12.510  16.031  72.168  1.00  0.00    -0.465 NA 
HETATM   33  H2  UNL     1     -13.216  16.702  71.867  1.00  0.00     0.000 HD 
HETATM   34  H1  UNL     1     -12.790  15.653  73.073  1.00  0.00     0.000 HD 
HETATM   35  C   UNL     1     -11.675  14.851  68.749  1.00  0.00    -0.353 A  
HETATM   36  C   UNL     1     -11.850  15.690  69.857  1.00  0.00    -0.374 A  
HETATM   37  C   UNL     1     -12.387  12.964  70.092  1.00  0.00    -0.249 A  
HETATM   38  C   UNL     1     -12.563  13.814  71.189  1.00  0.00    -0.452 A  
HETATM   39  C   UNL     1     -12.235  15.171  71.099  1.00  0.00    -0.331 A  
ENDBRANCH  28  31
ENDBRANCH   5  28
ENDBRANCH   4   5
TORSDOF 11
ENDMDL
MODEL      173
REMARK 921   NORMALIZED FREE ENERGY PREDICTED BY IDOCK:   -5.39 KCAL/MOL
REMARK 922        TOTAL FREE ENERGY PREDICTED BY IDOCK:  -10.62 KCAL/MOL
REMARK 923 INTER-LIGAND FREE ENERGY PREDICTED BY IDOCK:  -10.33 KCAL/MOL
REMARK 924 INTRA-LIGAND FREE ENERGY PREDICTED BY IDOCK:   -0.30 KCAL/MOL
REMARK 927      BINDING AFFINITY PREDICTED BY RF-SCORE:    0.00 PKD
ROOT
HETATM    1  C   UNL     1      -5.999  11.869  69.053  1.00  0.00    -0.066 C  
HETATM    2  C   UNL     1      -7.213  12.690  68.614  1.00  0.00    -0.108 C  
HETATM    3  C   UNL     1      -6.771  14.161  68.486  1.00  0.00    -0.101 C  
HETATM    4  C   UNL     1      -7.820  12.222  67.277  1.00  0.00    -0.171 C  
ENDROOT
BRANCH   4   5
HETATM    5  N   UNL     1      -8.309  10.781  67.199  1.00  0.00    -0.125 N  
BRANCH   5   6
HETATM    6  C   UNL     1      -9.600  10.558  68.024  1.00  0.00    -0.148 C  
BRANCH   6   7
HETATM    7  C   UNL     1     -10.686  11.687  67.948  1.00  0.00    -0.202 C  
HETATM    8  H   UNL     1     -12.551  11.807  67.376  1.00  0.00     0.000 HD 
HETATM    9  O   UNL     1     -11.893  11.123  67.421  1.00  0.00    -0.570 OA 
BRANCH   7  10
HETATM   10  C   UNL     1     -10.928  12.416  69.322  1.00  0.00    -0.087 C  
BRANCH  10  11
HETATM   11  N   UNL     1     -10.800  13.884  69.229  1.00  0.00    -0.399 N  
HETATM   12  O   UNL     1     -12.392  14.113  67.595  1.00  0.00    -0.273 OA 
HETATM   13  H   UNL     1     -10.138  14.370  69.834  1.00  0.00     0.000 HD 
HETATM   14  C   UNL     1     -11.559  14.606  68.341  1.00  0.00    -0.323 C  
BRANCH  14  15
HETATM   15  O   UNL     1     -11.250  15.934  68.375  1.00  0.00    -0.334 OA 
BRANCH  15  16
HETATM   16  C   UNL     1     -10.464  16.377  67.251  1.00  0.00    -0.303 C  
HETATM   17  C   UNL     1     -10.649  17.856  66.979  1.00  0.00    -0.287 C  
HETATM   18  O   UNL     1      -8.339  17.413  66.840  1.00  0.00    -0.214 OA 
HETATM   19  C   UNL     1      -9.370  18.214  66.254  1.00  0.00    -0.208 C  
HETATM   20  C   UNL     1      -8.958  16.287  67.485  1.00  0.00    -0.187 C  
ENDBRANCH  15  16
ENDBRANCH  14  15
ENDBRANCH  10  11
BRANCH  10  21
HETATM   21  C   UNL     1     -12.185  11.988  70.125  1.00  0.00    -0.309 C  
BRANCH  21  22
HETATM   22  C   UNL     1     -12.150  10.772  71.028  1.00  0.00    -0.452 A  
HETATM   23  C   UNL     1     -13.330   9.154  72.413  1.00  0.00    -0.527 A  
HETATM   24  C   UNL     1     -13.298  10.372  71.726  1.00  0.00    -0.456 A  
HETATM   25  C   UNL     1     -12.211   8.324  72.427  1.00  0.00    -0.412 A  
HETATM   26  C   UNL     1     -11.024   9.932  71.065  1.00  0.00    -0.360 A  
HETATM   27  C   UNL     1     -11.055   8.717  71.760  1.00  0.00    -0.417 A  
ENDBRANCH  21  22
ENDBRANCH  10  21
ENDBRANCH   7  10
ENDBRANCH   6   7
ENDBRANCH   5   6
BRANCH   5  28
HETATM   28  S   UNL     1      -8.549  10.302  65.520  1.00  0.00    -0.171 S  
HETATM   29  O   UNL     1      -7.312  10.478  64.795  1.00  0.00    -0.082 OA 
HETATM   30  O   UNL     1      -9.202   9.007  65.571  1.00  0.00    -0.215 OA 
BRANCH  28  31
HETATM   31  C   UNL     1      -9.701  11.465  64.843  1.00  0.00    -0.247 A  
HETATM   32  N   UNL     1     -12.472  14.219  63.291  1.00  0.00    -1.068 NA 
HETATM   33  H2  UNL     1     -13.376  13.937  63.669  1.00  0.00     0.000 HD 
HETATM   34  H1  UNL     1     -12.354  15.219  63.451  1.00  0.00     0.000 HD 
HETATM   35  C   UNL     1     -10.762  11.014  64.055  1.00  0.00    -0.331 A  
HETATM   36  C   UNL     1     -11.666  11.941  63.519  1.00  0.00    -0.550 A  
HETATM   37  C   UNL     1      -9.581  12.828  65.144  1.00  0.00     0.124 A  
HETATM   38  C   UNL     1     -10.494  13.742  64.608  1.00  0.00    -0.433 A  
HETATM   39  C   UNL     1     -11.504  13.314  63.740  1.00  0.00    -0.314 A  
ENDBRANCH  28  31
ENDBRANCH   5  28
ENDBRANCH   4   5
TORSDOF 11
ENDMDL
MODEL      174
REMARK 921   NORMALIZED FREE ENERGY PREDICTED BY IDOCK:   -5.38 KCAL/MOL
REMARK 922        TOTAL FREE ENERGY PREDICTED BY IDOCK:  -10.60 KCAL/MOL
REMARK 923 INTER-LIGAND FREE ENERGY PREDICTED BY IDOCK:   -9.13 KCAL/MOL
REMARK 924 INTRA-LIGAND FREE ENERGY PREDICTED BY IDOCK:   -1.47 KCAL/MOL
REMARK 927      BINDING AFFINITY PREDICTED BY RF-SCORE:    0.00 PKD
ROOT
HETATM    1  C   UNL     1     -12.746  12.875  65.055  1.00  0.00    -0.474 C  
HETATM    2  C   UNL     1     -11.316  12.334  65.072  1.00  0.00    -0.376 C  
HETATM    3  C   UNL     1     -10.785  12.345  63.625  1.00  0.00    -0.497 C  
HETATM    4  C   UNL     1     -10.363  13.147  65.970  1.00  0.00    -0.287 C  
ENDROOT
BRANCH   4   5
HETATM    5  N   UNL     1     -10.725  13.264  67.447  1.00  0.00    -0.256 N  
BRANCH   5   6
HETATM    6  C   UNL     1      -9.898  12.298  68.328  1.00  0.00    -0.217 C  
BRANCH   6   7
HETATM    7  C   UNL     1     -10.670  11.088  68.961  1.00  0.00    -0.219 C  
HETATM    8  H   UNL     1     -11.960   9.761  68.334  1.00  0.00     0.000 HD 
HETATM    9  O   UNL     1     -11.493  10.494  67.951  1.00  0.00    -0.417 OA 
BRANCH   7  10
HETATM   10  C   UNL     1      -9.725  10.033  69.648  1.00  0.00    -0.229 C  
BRANCH  10  11
HETATM   11  N   UNL     1     -10.376   8.725  69.862  1.00  0.00    -0.200 N  
HETATM   12  O   UNL     1     -11.147   9.235  71.960  1.00  0.00    -0.331 OA 
HETATM   13  H   UNL     1     -10.338   8.019  69.127  1.00  0.00     0.000 HD 
HETATM   14  C   UNL     1     -11.031   8.444  71.036  1.00  0.00    -0.246 C  
BRANCH  14  15
HETATM   15  O   UNL     1     -11.513   7.168  71.053  1.00  0.00    -0.273 OA 
BRANCH  15  16
HETATM   16  C   UNL     1     -10.758   6.274  71.893  1.00  0.00    -0.230 C  
HETATM   17  C   UNL     1     -11.652   5.489  72.833  1.00  0.00    -0.280 C  
HETATM   18  O   UNL     1     -10.099   3.966  71.928  1.00  0.00    -0.180 OA 
HETATM   19  C   UNL     1     -10.814   4.265  73.130  1.00  0.00    -0.219 C  
HETATM   20  C   UNL     1     -10.057   5.157  71.123  1.00  0.00    -0.222 C  
ENDBRANCH  15  16
ENDBRANCH  14  15
ENDBRANCH  10  11
BRANCH  10  21
HETATM   21  C   UNL     1      -8.299   9.885  69.053  1.00  0.00    -0.130 C  
BRANCH  21  22
HETATM   22  C   UNL     1      -7.159   9.355  69.899  1.00  0.00    -0.075 A  
HETATM   23  C   UNL     1      -5.295   9.777  71.406  1.00  0.00    -0.072 A  
HETATM   24  C   UNL     1      -6.236  10.236  70.478  1.00  0.00    -0.116 A  
HETATM   25  C   UNL     1      -5.251   8.430  71.758  1.00  0.00    -0.035 A  
HETATM   26  C   UNL     1      -7.093   7.996  70.252  1.00  0.00    -0.048 A  
HETATM   27  C   UNL     1      -6.145   7.538  71.174  1.00  0.00    -0.035 A  
ENDBRANCH  21  22
ENDBRANCH  10  21
ENDBRANCH   7  10
ENDBRANCH   6   7
ENDBRANCH   5   6
BRANCH   5  28
HETATM   28  S   UNL     1     -10.539  14.928  67.996  1.00  0.00    -0.253 S  
HETATM   29  O   UNL     1      -9.155  15.167  68.329  1.00  0.00    -0.175 OA 
HETATM   30  O   UNL     1     -11.216  15.746  67.006  1.00  0.00    -0.229 OA 
BRANCH  28  31
HETATM   31  C   UNL     1     -11.451  15.045  69.510  1.00  0.00    -0.294 A  
HETATM   32  N   UNL     1     -13.568  15.285  73.134  1.00  0.00    -0.549 NA 
HETATM   33  H2  UNL     1     -13.443  14.377  73.582  1.00  0.00     0.000 HD 
HETATM   34  H1  UNL     1     -13.350  16.012  73.815  1.00  0.00     0.000 HD 
HETATM   35  C   UNL     1     -12.498  14.158  69.763  1.00  0.00    -0.266 A  
HETATM   36  C   UNL     1     -13.216  14.261  70.962  1.00  0.00    -0.367 A  
HETATM   37  C   UNL     1     -11.084  15.991  70.478  1.00  0.00    -0.370 A  
HETATM   38  C   UNL     1     -11.805  16.078  71.673  1.00  0.00    -0.582 A  
HETATM   39  C   UNL     1     -12.916  15.259  71.897  1.00  0.00    -0.384 A  
ENDBRANCH  28  31
ENDBRANCH   5  28
ENDBRANCH   4   5
TORSDOF 11
ENDMDL
MODEL      175
REMARK 921   NORMALIZED FREE ENERGY PREDICTED BY IDOCK:   -5.37 KCAL/MOL
REMARK 922        TOTAL FREE ENERGY PREDICTED BY IDOCK:  -10.59 KCAL/MOL
REMARK 923 INTER-LIGAND FREE ENERGY PREDICTED BY IDOCK:   -9.93 KCAL/MOL
REMARK 924 INTRA-LIGAND FREE ENERGY PREDICTED BY IDOCK:   -0.66 KCAL/MOL
REMARK 927      BINDING AFFINITY PREDICTED BY RF-SCORE:    0.00 PKD
ROOT
HETATM    1  C   UNL     1      -6.795   8.410  68.159  1.00  0.00    -0.069 C  
HETATM    2  C   UNL     1      -7.103   8.022  69.605  1.00  0.00    -0.061 C  
HETATM    3  C   UNL     1      -5.857   7.325  70.188  1.00  0.00    -0.024 C  
HETATM    4  C   UNL     1      -7.478   9.223  70.496  1.00  0.00    -0.130 C  
ENDROOT
BRANCH   4   5
HETATM    5  N   UNL     1      -8.686  10.053  70.077  1.00  0.00    -0.156 N  
BRANCH   5   6
HETATM    6  C   UNL     1      -8.635  10.441  68.579  1.00  0.00    -0.134 C  
BRANCH   6   7
HETATM    7  C   UNL     1      -8.300  11.938  68.252  1.00  0.00    -0.159 C  
HETATM    8  H   UNL     1      -7.319  12.885  66.852  1.00  0.00     0.000 HD 
HETATM    9  O   UNL     1      -7.522  11.979  67.050  1.00  0.00    -0.148 OA 
BRANCH   7  10
HETATM   10  C   UNL     1      -9.572  12.859  68.162  1.00  0.00    -0.223 C  
BRANCH  10  11
HETATM   11  N   UNL     1      -9.314  14.139  67.472  1.00  0.00    -0.198 N  
HETATM   12  O   UNL     1     -10.394  15.422  69.036  1.00  0.00    -0.222 OA 
HETATM   13  H   UNL     1      -8.786  14.141  66.599  1.00  0.00     0.000 HD 
HETATM   14  C   UNL     1      -9.774  15.326  67.987  1.00  0.00    -0.211 C  
BRANCH  14  15
HETATM   15  O   UNL     1      -9.478  16.379  67.172  1.00  0.00    -0.226 OA 
BRANCH  15  16
HETATM   16  C   UNL     1     -10.275  17.552  67.425  1.00  0.00    -0.337 C  
HETATM   17  C   UNL     1      -9.560  18.540  68.323  1.00  0.00    -0.370 C  
HETATM   18  O   UNL     1     -10.520  19.779  66.564  1.00  0.00    -0.448 OA 
HETATM   19  C   UNL     1     -10.229  19.849  67.964  1.00  0.00    -0.436 C  
HETATM   20  C   UNL     1     -10.536  18.395  66.178  1.00  0.00    -0.395 C  
ENDBRANCH  15  16
ENDBRANCH  14  15
ENDBRANCH  10  11
BRANCH  10  21
HETATM   21  C   UNL     1     -10.884  12.187  67.675  1.00  0.00    -0.272 C  
BRANCH  21  22
HETATM   22  C   UNL     1     -11.284  12.239  66.214  1.00  0.00    -0.367 A  
HETATM   23  C   UNL     1     -12.413  13.389  64.390  1.00  0.00    -0.338 A  
HETATM   24  C   UNL     1     -12.180  13.215  65.758  1.00  0.00    -0.514 A  
HETATM   25  C   UNL     1     -11.766  12.581  63.457  1.00  0.00    -0.595 A  
HETATM   26  C   UNL     1     -10.652  11.421  65.262  1.00  0.00    -0.336 A  
HETATM   27  C   UNL     1     -10.892  11.591  63.894  1.00  0.00    -0.469 A  
ENDBRANCH  21  22
ENDBRANCH  10  21
ENDBRANCH   7  10
ENDBRANCH   6   7
ENDBRANCH   5   6
BRANCH   5  28
HETATM   28  S   UNL     1     -10.180   9.198  70.452  1.00  0.00    -0.242 S  
HETATM   29  O   UNL     1      -9.994   8.419  71.653  1.00  0.00    -0.193 OA 
HETATM   30  O   UNL     1     -11.233  10.194  70.369  1.00  0.00    -0.284 OA 
BRANCH  28  31
HETATM   31  C   UNL     1     -10.423   8.041  69.132  1.00  0.00    -0.208 A  
HETATM   32  N   UNL     1     -11.068   5.307  66.004  1.00  0.00    -0.793 NA 
HETATM   33  H2  UNL     1     -11.960   4.861  66.213  1.00  0.00     0.000 HD 
HETATM   34  H1  UNL     1     -11.085   5.624  65.035  1.00  0.00     0.000 HD 
HETATM   35  C   UNL     1     -10.560   6.682  69.415  1.00  0.00    -0.279 A  
HETATM   36  C   UNL     1     -10.748   5.773  68.365  1.00  0.00    -0.283 A  
HETATM   37  C   UNL     1     -10.536   8.498  67.812  1.00  0.00    -0.287 A  
HETATM   38  C   UNL     1     -10.730   7.581  66.774  1.00  0.00    -0.169 A  
HETATM   39  C   UNL     1     -10.773   6.208  67.034  1.00  0.00    -0.350 A  
ENDBRANCH  28  31
ENDBRANCH   5  28
ENDBRANCH   4   5
TORSDOF 11
ENDMDL
MODEL      176
REMARK 921   NORMALIZED FREE ENERGY PREDICTED BY IDOCK:   -5.35 KCAL/MOL
REMARK 922        TOTAL FREE ENERGY PREDICTED BY IDOCK:  -10.56 KCAL/MOL
REMARK 923 INTER-LIGAND FREE ENERGY PREDICTED BY IDOCK:   -9.13 KCAL/MOL
REMARK 924 INTRA-LIGAND FREE ENERGY PREDICTED BY IDOCK:   -1.43 KCAL/MOL
REMARK 927      BINDING AFFINITY PREDICTED BY RF-SCORE:    0.00 PKD
ROOT
HETATM    1  C   UNL     1     -10.936  15.598  70.648  1.00  0.00    -0.364 C  
HETATM    2  C   UNL     1     -11.790  14.458  70.092  1.00  0.00    -0.380 C  
HETATM    3  C   UNL     1     -13.206  14.590  70.688  1.00  0.00    -0.228 C  
HETATM    4  C   UNL     1     -11.884  14.455  68.553  1.00  0.00    -0.334 C  
ENDROOT
BRANCH   4   5
HETATM    5  N   UNL     1     -10.577  14.344  67.775  1.00  0.00    -0.245 N  
BRANCH   5   6
HETATM    6  C   UNL     1     -10.113  12.875  67.624  1.00  0.00    -0.221 C  
BRANCH   6   7
HETATM    7  C   UNL     1     -11.239  11.783  67.572  1.00  0.00    -0.291 C  
HETATM    8  H   UNL     1     -12.474  11.101  66.220  1.00  0.00     0.000 HD 
HETATM    9  O   UNL     1     -11.792  11.762  66.251  1.00  0.00    -0.501 OA 
BRANCH   7  10
HETATM   10  C   UNL     1     -10.751  10.359  68.030  1.00  0.00    -0.249 C  
BRANCH  10  11
HETATM   11  N   UNL     1      -9.842   9.717  67.058  1.00  0.00    -0.182 N  
HETATM   12  O   UNL     1     -10.907   7.688  67.110  1.00  0.00    -0.317 OA 
HETATM   13  H   UNL     1      -9.079  10.258  66.652  1.00  0.00     0.000 HD 
HETATM   14  C   UNL     1     -10.009   8.404  66.694  1.00  0.00    -0.284 C  
BRANCH  14  15
HETATM   15  O   UNL     1      -9.036   7.991  65.832  1.00  0.00    -0.170 OA 
BRANCH  15  16
HETATM   16  C   UNL     1      -7.706   8.062  66.380  1.00  0.00    -0.092 C  
HETATM   17  C   UNL     1      -6.832   6.923  65.897  1.00  0.00    -0.056 C  
HETATM   18  O   UNL     1      -5.543   8.890  65.750  1.00  0.00    -0.047 OA 
HETATM   19  C   UNL     1      -5.439   7.494  66.051  1.00  0.00    -0.028 C  
HETATM   20  C   UNL     1      -6.916   9.283  65.913  1.00  0.00    -0.089 C  
ENDBRANCH  15  16
ENDBRANCH  14  15
ENDBRANCH  10  11
BRANCH  10  21
HETATM   21  C   UNL     1     -10.229  10.238  69.486  1.00  0.00    -0.261 C  
BRANCH  21  22
HETATM   22  C   UNL     1     -10.741   9.144  70.403  1.00  0.00    -0.282 A  
HETATM   23  C   UNL     1     -10.400   6.995  71.495  1.00  0.00    -0.218 A  
HETATM   24  C   UNL     1     -10.044   7.934  70.521  1.00  0.00    -0.192 A  
HETATM   25  C   UNL     1     -11.467   7.245  72.356  1.00  0.00    -0.327 A  
HETATM   26  C   UNL     1     -11.825   9.374  71.267  1.00  0.00    -0.435 A  
HETATM   27  C   UNL     1     -12.185   8.431  72.236  1.00  0.00    -0.449 A  
ENDBRANCH  21  22
ENDBRANCH  10  21
ENDBRANCH   7  10
ENDBRANCH   6   7
ENDBRANCH   5   6
BRANCH   5  28
HETATM   28  S   UNL     1     -10.731  15.118  66.201  1.00  0.00    -0.333 S  
HETATM   29  O   UNL     1      -9.943  14.390  65.234  1.00  0.00    -0.356 OA 
HETATM   30  O   UNL     1     -12.155  15.316  65.998  1.00  0.00     0.166 OA 
BRANCH  28  31
HETATM   31  C   UNL     1      -9.980  16.714  66.367  1.00  0.00    -0.302 A  
HETATM   32  N   UNL     1      -8.201  20.495  66.828  1.00  0.00    -0.533 NA 
HETATM   33  H2  UNL     1      -8.613  20.887  67.673  1.00  0.00     0.000 HD 
HETATM   34  H1  UNL     1      -7.187  20.586  66.892  1.00  0.00     0.000 HD 
HETATM   35  C   UNL     1     -10.777  17.860  66.377  1.00  0.00    -0.114 A  
HETATM   36  C   UNL     1     -10.174  19.118  66.504  1.00  0.00    -0.506 A  
HETATM   37  C   UNL     1      -8.595  16.821  66.545  1.00  0.00    -0.312 A  
HETATM   38  C   UNL     1      -8.007  18.083  66.678  1.00  0.00    -0.278 A  
HETATM   39  C   UNL     1      -8.782  19.243  66.593  1.00  0.00    -0.324 A  
ENDBRANCH  28  31
ENDBRANCH   5  28
ENDBRANCH   4   5
TORSDOF 11
ENDMDL
MODEL      177
REMARK 921   NORMALIZED FREE ENERGY PREDICTED BY IDOCK:   -5.35 KCAL/MOL
REMARK 922        TOTAL FREE ENERGY PREDICTED BY IDOCK:  -10.55 KCAL/MOL
REMARK 923 INTER-LIGAND FREE ENERGY PREDICTED BY IDOCK:   -8.28 KCAL/MOL
REMARK 924 INTRA-LIGAND FREE ENERGY PREDICTED BY IDOCK:   -2.28 KCAL/MOL
REMARK 927      BINDING AFFINITY PREDICTED BY RF-SCORE:    0.00 PKD
ROOT
HETATM    1  C   UNL     1      -7.736   9.475  70.630  1.00  0.00    -0.151 C  
HETATM    2  C   UNL     1      -8.655   8.420  70.012  1.00  0.00    -0.131 C  
HETATM    3  C   UNL     1      -8.482   7.112  70.810  1.00  0.00    -0.133 C  
HETATM    4  C   UNL     1     -10.143   8.824  70.014  1.00  0.00    -0.190 C  
ENDROOT
BRANCH   4   5
HETATM    5  N   UNL     1     -10.518  10.107  69.280  1.00  0.00    -0.210 N  
BRANCH   5   6
HETATM    6  C   UNL     1     -10.749   9.867  67.768  1.00  0.00    -0.277 C  
BRANCH   6   7
HETATM    7  C   UNL     1      -9.967   8.673  67.118  1.00  0.00    -0.231 C  
HETATM    8  H   UNL     1     -10.436   6.940  66.346  1.00  0.00     0.000 HD 
HETATM    9  O   UNL     1     -10.909   7.663  66.740  1.00  0.00    -0.274 OA 
BRANCH   7  10
HETATM   10  C   UNL     1      -9.052   9.106  65.913  1.00  0.00    -0.205 C  
BRANCH  10  11
HETATM   11  N   UNL     1      -9.529  10.327  65.232  1.00  0.00    -0.218 N  
HETATM   12  O   UNL     1      -9.074   9.559  63.121  1.00  0.00    -0.244 OA 
HETATM   13  H   UNL     1      -9.900  11.098  65.787  1.00  0.00     0.000 HD 
HETATM   14  C   UNL     1      -9.480  10.439  63.865  1.00  0.00    -0.304 C  
BRANCH  14  15
HETATM   15  O   UNL     1      -9.915  11.661  63.443  1.00  0.00    -0.359 OA 
BRANCH  15  16
HETATM   16  C   UNL     1     -10.869  12.276  64.329  1.00  0.00    -0.348 C  
HETATM   17  C   UNL     1     -10.457  13.682  64.718  1.00  0.00    -0.436 C  
HETATM   18  O   UNL     1     -12.753  13.758  64.196  1.00  0.00    -0.664 OA 
HETATM   19  C   UNL     1     -11.780  14.319  65.082  1.00  0.00    -0.368 C  
HETATM   20  C   UNL     1     -12.234  12.517  63.688  1.00  0.00    -0.550 C  
ENDBRANCH  15  16
ENDBRANCH  14  15
ENDBRANCH  10  11
BRANCH  10  21
HETATM   21  C   UNL     1      -7.523   9.144  66.179  1.00  0.00    -0.095 C  
BRANCH  21  22
HETATM   22  C   UNL     1      -6.838   8.012  66.919  1.00  0.00    -0.073 A  
HETATM   23  C   UNL     1      -5.214   7.270  68.574  1.00  0.00    -0.021 A  
HETATM   24  C   UNL     1      -5.737   8.270  67.747  1.00  0.00    -0.039 A  
HETATM   25  C   UNL     1      -5.773   5.994  68.575  1.00  0.00    -0.012 A  
HETATM   26  C   UNL     1      -7.381   6.716  66.920  1.00  0.00    -0.082 A  
HETATM   27  C   UNL     1      -6.852   5.715  67.742  1.00  0.00    -0.060 A  
ENDBRANCH  21  22
ENDBRANCH  10  21
ENDBRANCH   7  10
ENDBRANCH   6   7
ENDBRANCH   5   6
BRANCH   5  28
HETATM   28  S   UNL     1     -11.934  10.847  70.021  1.00  0.00    -0.380 S  
HETATM   29  O   UNL     1     -13.100  10.546  69.223  1.00  0.00     0.241 OA 
HETATM   30  O   UNL     1     -11.881  10.479  71.424  1.00  0.00    -0.298 OA 
BRANCH  28  31
HETATM   31  C   UNL     1     -11.684  12.597  69.909  1.00  0.00    -0.250 A  
HETATM   32  N   UNL     1     -11.148  16.756  69.610  1.00  0.00    -0.359 NA 
HETATM   33  H2  UNL     1     -11.565  17.020  68.718  1.00  0.00     0.000 HD 
HETATM   34  H1  UNL     1     -11.511  17.379  70.332  1.00  0.00     0.000 HD 
HETATM   35  C   UNL     1     -10.957  13.129  68.843  1.00  0.00    -0.270 A  
HETATM   36  C   UNL     1     -10.760  14.514  68.765  1.00  0.00    -0.257 A  
HETATM   37  C   UNL     1     -12.264  13.450  70.857  1.00  0.00    -0.367 A  
HETATM   38  C   UNL     1     -12.065  14.831  70.764  1.00  0.00    -0.374 A  
HETATM   39  C   UNL     1     -11.258  15.369  69.755  1.00  0.00    -0.288 A  
ENDBRANCH  28  31
ENDBRANCH   5  28
ENDBRANCH   4   5
TORSDOF 11
ENDMDL
MODEL      178
REMARK 921   NORMALIZED FREE ENERGY PREDICTED BY IDOCK:   -5.35 KCAL/MOL
REMARK 922        TOTAL FREE ENERGY PREDICTED BY IDOCK:  -10.55 KCAL/MOL
REMARK 923 INTER-LIGAND FREE ENERGY PREDICTED BY IDOCK:   -8.45 KCAL/MOL
REMARK 924 INTRA-LIGAND FREE ENERGY PREDICTED BY IDOCK:   -2.11 KCAL/MOL
REMARK 927      BINDING AFFINITY PREDICTED BY RF-SCORE:    0.00 PKD
ROOT
HETATM    1  C   UNL     1      -9.603  10.086  64.653  1.00  0.00    -0.363 C  
HETATM    2  C   UNL     1      -8.351  10.162  65.529  1.00  0.00    -0.160 C  
HETATM    3  C   UNL     1      -7.130  10.322  64.601  1.00  0.00    -0.081 C  
HETATM    4  C   UNL     1      -8.378  11.325  66.540  1.00  0.00    -0.168 C  
ENDROOT
BRANCH   4   5
HETATM    5  N   UNL     1      -9.525  11.350  67.543  1.00  0.00    -0.166 N  
BRANCH   5   6
HETATM    6  C   UNL     1      -9.328  10.319  68.681  1.00  0.00    -0.162 C  
BRANCH   6   7
HETATM    7  C   UNL     1     -10.522   9.340  68.958  1.00  0.00    -0.216 C  
HETATM    8  H   UNL     1     -11.998   8.594  67.918  1.00  0.00     0.000 HD 
HETATM    9  O   UNL     1     -11.275   9.187  67.750  1.00  0.00     0.052 OA 
BRANCH   7  10
HETATM   10  C   UNL     1     -10.071   7.955  69.552  1.00  0.00    -0.195 C  
BRANCH  10  11
HETATM   11  N   UNL     1     -10.814   7.576  70.771  1.00  0.00    -0.237 N  
HETATM   12  O   UNL     1      -9.543   8.864  72.178  1.00  0.00    -0.301 OA 
HETATM   13  H   UNL     1     -11.604   6.935  70.698  1.00  0.00     0.000 HD 
HETATM   14  C   UNL     1     -10.458   8.075  72.000  1.00  0.00    -0.246 C  
BRANCH  14  15
HETATM   15  O   UNL     1     -11.234   7.560  72.997  1.00  0.00    -0.361 OA 
BRANCH  15  16
HETATM   16  C   UNL     1     -10.709   6.350  73.575  1.00  0.00    -0.244 C  
HETATM   17  C   UNL     1     -11.488   5.127  73.135  1.00  0.00    -0.348 C  
HETATM   18  O   UNL     1      -9.202   4.579  72.980  1.00  0.00    -0.119 OA 
HETATM   19  C   UNL     1     -10.476   4.017  73.310  1.00  0.00    -0.177 C  
HETATM   20  C   UNL     1      -9.298   6.008  73.102  1.00  0.00    -0.139 C  
ENDBRANCH  15  16
ENDBRANCH  14  15
ENDBRANCH  10  11
BRANCH  10  21
HETATM   21  C   UNL     1      -9.952   6.775  68.550  1.00  0.00    -0.149 C  
BRANCH  21  22
HETATM   22  C   UNL     1      -8.939   6.816  67.424  1.00  0.00    -0.115 A  
HETATM   23  C   UNL     1      -6.627   7.031  66.691  1.00  0.00    -0.052 A  
HETATM   24  C   UNL     1      -7.606   7.168  67.681  1.00  0.00    -0.110 A  
HETATM   25  C   UNL     1      -6.965   6.555  65.426  1.00  0.00    -0.052 A  
HETATM   26  C   UNL     1      -9.267   6.353  66.139  1.00  0.00    -0.132 A  
HETATM   27  C   UNL     1      -8.288   6.224  65.148  1.00  0.00    -0.119 A  
ENDBRANCH  21  22
ENDBRANCH  10  21
ENDBRANCH   7  10
ENDBRANCH   6   7
ENDBRANCH   5   6
BRANCH   5  28
HETATM   28  S   UNL     1      -9.734  12.972  68.198  1.00  0.00    -0.225 S  
HETATM   29  O   UNL     1     -10.783  12.953  69.191  1.00  0.00    -0.151 OA 
HETATM   30  O   UNL     1      -8.400  13.433  68.537  1.00  0.00    -0.151 OA 
BRANCH  28  31
HETATM   31  C   UNL     1     -10.327  13.966  66.857  1.00  0.00    -0.266 A  
HETATM   32  N   UNL     1     -11.773  16.360  63.717  1.00  0.00    -1.498 NA 
HETATM   33  H2  UNL     1     -12.739  16.574  63.962  1.00  0.00     0.000 HD 
HETATM   34  H1  UNL     1     -11.303  17.231  63.472  1.00  0.00     0.000 HD 
HETATM   35  C   UNL     1     -11.426  13.541  66.108  1.00  0.00    -0.348 A  
HETATM   36  C   UNL     1     -11.885  14.332  65.046  1.00  0.00    -0.396 A  
HETATM   37  C   UNL     1      -9.730  15.205  66.585  1.00  0.00    -0.274 A  
HETATM   38  C   UNL     1     -10.203  15.987  65.527  1.00  0.00    -0.389 A  
HETATM   39  C   UNL     1     -11.240  15.528  64.709  1.00  0.00    -0.390 A  
ENDBRANCH  28  31
ENDBRANCH   5  28
ENDBRANCH   4   5
TORSDOF 11
ENDMDL
MODEL      179
REMARK 921   NORMALIZED FREE ENERGY PREDICTED BY IDOCK:   -5.34 KCAL/MOL
REMARK 922        TOTAL FREE ENERGY PREDICTED BY IDOCK:  -10.55 KCAL/MOL
REMARK 923 INTER-LIGAND FREE ENERGY PREDICTED BY IDOCK:   -8.05 KCAL/MOL
REMARK 924 INTRA-LIGAND FREE ENERGY PREDICTED BY IDOCK:   -2.50 KCAL/MOL
REMARK 927      BINDING AFFINITY PREDICTED BY RF-SCORE:    0.00 PKD
ROOT
HETATM    1  C   UNL     1      -8.172  11.066  66.059  1.00  0.00    -0.129 C  
HETATM    2  C   UNL     1      -9.270  10.051  65.737  1.00  0.00    -0.222 C  
HETATM    3  C   UNL     1      -9.590  10.158  64.232  1.00  0.00    -0.354 C  
HETATM    4  C   UNL     1      -8.880   8.598  66.072  1.00  0.00    -0.178 C  
ENDROOT
BRANCH   4   5
HETATM    5  N   UNL     1      -8.514   8.289  67.519  1.00  0.00    -0.129 N  
BRANCH   5   6
HETATM    6  C   UNL     1      -9.737   8.390  68.464  1.00  0.00    -0.160 C  
BRANCH   6   7
HETATM    7  C   UNL     1      -9.568   9.288  69.739  1.00  0.00    -0.190 C  
HETATM    8  H   UNL     1      -8.280  10.620  70.360  1.00  0.00     0.000 HD 
HETATM    9  O   UNL     1      -8.382  10.076  69.588  1.00  0.00    -0.156 OA 
BRANCH   7  10
HETATM   10  C   UNL     1     -10.830  10.177  70.049  1.00  0.00    -0.307 C  
BRANCH  10  11
HETATM   11  N   UNL     1     -11.378  10.844  68.851  1.00  0.00    -0.264 N  
HETATM   12  O   UNL     1     -11.612  12.889  69.860  1.00  0.00    -0.262 OA 
HETATM   13  H   UNL     1     -11.493  10.312  67.988  1.00  0.00     0.000 HD 
HETATM   14  C   UNL     1     -11.735  12.170  68.880  1.00  0.00    -0.327 C  
BRANCH  14  15
HETATM   15  O   UNL     1     -12.269  12.575  67.692  1.00  0.00    -0.401 OA 
BRANCH  15  16
HETATM   16  C   UNL     1     -11.302  13.133  66.781  1.00  0.00    -0.316 C  
HETATM   17  C   UNL     1     -11.704  12.931  65.335  1.00  0.00    -0.413 C  
HETATM   18  O   UNL     1     -10.961  15.158  65.539  1.00  0.00    -0.335 OA 
HETATM   19  C   UNL     1     -10.964  14.050  64.633  1.00  0.00    -0.392 C  
HETATM   20  C   UNL     1     -11.189  14.654  66.865  1.00  0.00    -0.343 C  
ENDBRANCH  15  16
ENDBRANCH  14  15
ENDBRANCH  10  11
BRANCH  10  21
HETATM   21  C   UNL     1     -11.941   9.528  70.917  1.00  0.00    -0.372 C  
BRANCH  21  22
HETATM   22  C   UNL     1     -11.652   8.294  71.748  1.00  0.00    -0.356 A  
HETATM   23  C   UNL     1     -11.909   5.899  72.103  1.00  0.00    -0.247 A  
HETATM   24  C   UNL     1     -12.300   7.083  71.468  1.00  0.00    -0.420 A  
HETATM   25  C   UNL     1     -10.875   5.909  73.037  1.00  0.00    -0.300 A  
HETATM   26  C   UNL     1     -10.622   8.291  72.704  1.00  0.00    -0.378 A  
HETATM   27  C   UNL     1     -10.237   7.108  73.343  1.00  0.00    -0.367 A  
ENDBRANCH  21  22
ENDBRANCH  10  21
ENDBRANCH   7  10
ENDBRANCH   6   7
ENDBRANCH   5   6
BRANCH   5  28
HETATM   28  S   UNL     1      -7.759   6.703  67.639  1.00  0.00    -0.108 S  
HETATM   29  O   UNL     1      -8.735   5.687  67.320  1.00  0.00    -0.110 OA 
HETATM   30  O   UNL     1      -6.519   6.801  66.891  1.00  0.00    -0.040 OA 
BRANCH  28  31
HETATM   31  C   UNL     1      -7.346   6.487  69.348  1.00  0.00    -0.092 A  
HETATM   32  N   UNL     1      -6.314   5.936  73.386  1.00  0.00    -0.066 NA 
HETATM   33  H2  UNL     1      -5.943   4.988  73.444  1.00  0.00     0.000 HD 
HETATM   34  H1  UNL     1      -5.656   6.567  73.843  1.00  0.00     0.000 HD 
HETATM   35  C   UNL     1      -7.948   5.466  70.086  1.00  0.00    -0.085 A  
HETATM   36  C   UNL     1      -7.618   5.306  71.438  1.00  0.00    -0.098 A  
HETATM   37  C   UNL     1      -6.374   7.303  69.942  1.00  0.00    -0.035 A  
HETATM   38  C   UNL     1      -6.050   7.127  71.291  1.00  0.00    -0.036 A  
HETATM   39  C   UNL     1      -6.715   6.172  72.066  1.00  0.00    -0.064 A  
ENDBRANCH  28  31
ENDBRANCH   5  28
ENDBRANCH   4   5
TORSDOF 11
ENDMDL
MODEL      180
REMARK 921   NORMALIZED FREE ENERGY PREDICTED BY IDOCK:   -5.34 KCAL/MOL
REMARK 922        TOTAL FREE ENERGY PREDICTED BY IDOCK:  -10.55 KCAL/MOL
REMARK 923 INTER-LIGAND FREE ENERGY PREDICTED BY IDOCK:   -8.21 KCAL/MOL
REMARK 924 INTRA-LIGAND FREE ENERGY PREDICTED BY IDOCK:   -2.35 KCAL/MOL
REMARK 927      BINDING AFFINITY PREDICTED BY RF-SCORE:    0.00 PKD
ROOT
HETATM    1  C   UNL     1     -12.203  11.169  69.397  1.00  0.00    -0.329 C  
HETATM    2  C   UNL     1     -11.959  11.142  70.907  1.00  0.00    -0.362 C  
HETATM    3  C   UNL     1     -13.020  12.038  71.577  1.00  0.00    -0.407 C  
HETATM    4  C   UNL     1     -12.030   9.727  71.515  1.00  0.00    -0.407 C  
ENDROOT
BRANCH   4   5
HETATM    5  N   UNL     1     -11.060   8.685  70.971  1.00  0.00    -0.253 N  
BRANCH   5   6
HETATM    6  C   UNL     1      -9.585   9.135  71.104  1.00  0.00    -0.277 C  
BRANCH   6   7
HETATM    7  C   UNL     1      -8.912   9.730  69.817  1.00  0.00    -0.221 C  
HETATM    8  H   UNL     1      -7.086  10.092  69.226  1.00  0.00     0.000 HD 
HETATM    9  O   UNL     1      -7.493   9.733  70.005  1.00  0.00    -0.117 OA 
BRANCH   7  10
HETATM   10  C   UNL     1      -9.330   8.989  68.494  1.00  0.00    -0.139 C  
BRANCH  10  11
HETATM   11  N   UNL     1      -9.810   9.907  67.441  1.00  0.00    -0.172 N  
HETATM   12  O   UNL     1      -7.742  10.798  67.008  1.00  0.00    -0.112 OA 
HETATM   13  H   UNL     1     -10.799   9.913  67.193  1.00  0.00     0.000 HD 
HETATM   14  C   UNL     1      -8.944  10.753  66.793  1.00  0.00    -0.147 C  
BRANCH  14  15
HETATM   15  O   UNL     1      -9.594  11.553  65.899  1.00  0.00    -0.218 OA 
BRANCH  15  16
HETATM   16  C   UNL     1     -10.800  12.145  66.420  1.00  0.00    -0.271 C  
HETATM   17  C   UNL     1     -10.538  13.485  67.075  1.00  0.00    -0.269 C  
HETATM   18  O   UNL     1     -12.461  13.738  65.738  1.00  0.00    -0.455 OA 
HETATM   19  C   UNL     1     -11.886  14.164  66.977  1.00  0.00    -0.429 C  
HETATM   20  C   UNL     1     -11.814  12.518  65.340  1.00  0.00    -0.428 C  
ENDBRANCH  15  16
ENDBRANCH  14  15
ENDBRANCH  10  11
BRANCH  10  21
HETATM   21  C   UNL     1      -8.332   7.936  67.941  1.00  0.00    -0.126 C  
BRANCH  21  22
HETATM   22  C   UNL     1      -8.820   6.779  67.092  1.00  0.00    -0.119 A  
HETATM   23  C   UNL     1      -8.382   4.640  66.015  1.00  0.00    -0.114 A  
HETATM   24  C   UNL     1      -7.920   5.804  66.639  1.00  0.00    -0.102 A  
HETATM   25  C   UNL     1      -9.747   4.438  65.822  1.00  0.00    -0.213 A  
HETATM   26  C   UNL     1     -10.192   6.569  66.875  1.00  0.00    -0.279 A  
HETATM   27  C   UNL     1     -10.651   5.407  66.245  1.00  0.00    -0.268 A  
ENDBRANCH  21  22
ENDBRANCH  10  21
ENDBRANCH   7  10
ENDBRANCH   6   7
ENDBRANCH   5   6
BRANCH   5  28
HETATM   28  S   UNL     1     -11.314   7.134  71.766  1.00  0.00    -0.263 S  
HETATM   29  O   UNL     1     -10.986   7.257  73.167  1.00  0.00    -0.337 OA 
HETATM   30  O   UNL     1     -12.632   6.691  71.349  1.00  0.00    -0.325 OA 
BRANCH  28  31
HETATM   31  C   UNL     1     -10.123   6.026  71.065  1.00  0.00    -0.192 A  
HETATM   32  N   UNL     1      -7.313   3.350  69.447  1.00  0.00    -0.048 NA 
HETATM   33  H2  UNL     1      -6.955   2.819  70.240  1.00  0.00     0.000 HD 
HETATM   34  H1  UNL     1      -7.585   2.692  68.716  1.00  0.00     0.000 HD 
HETATM   35  C   UNL     1      -8.794   6.072  71.490  1.00  0.00    -0.139 A  
HETATM   36  C   UNL     1      -7.858   5.195  70.926  1.00  0.00    -0.096 A  
HETATM   37  C   UNL     1     -10.526   5.065  70.127  1.00  0.00    -0.235 A  
HETATM   38  C   UNL     1      -9.583   4.191  69.578  1.00  0.00    -0.274 A  
HETATM   39  C   UNL     1      -8.231   4.292  69.923  1.00  0.00    -0.062 A  
ENDBRANCH  28  31
ENDBRANCH   5  28
ENDBRANCH   4   5
TORSDOF 11
ENDMDL
MODEL      181
REMARK 921   NORMALIZED FREE ENERGY PREDICTED BY IDOCK:   -5.33 KCAL/MOL
REMARK 922        TOTAL FREE ENERGY PREDICTED BY IDOCK:  -10.54 KCAL/MOL
REMARK 923 INTER-LIGAND FREE ENERGY PREDICTED BY IDOCK:   -9.34 KCAL/MOL
REMARK 924 INTRA-LIGAND FREE ENERGY PREDICTED BY IDOCK:   -1.19 KCAL/MOL
REMARK 927      BINDING AFFINITY PREDICTED BY RF-SCORE:    0.00 PKD
ROOT
HETATM    1  C   UNL     1     -11.152  15.830  66.532  1.00  0.00    -0.079 C  
HETATM    2  C   UNL     1     -10.519  14.492  66.146  1.00  0.00    -0.303 C  
HETATM    3  C   UNL     1     -10.642  14.330  64.618  1.00  0.00    -0.364 C  
HETATM    4  C   UNL     1      -9.037  14.373  66.553  1.00  0.00    -0.205 C  
ENDROOT
BRANCH   4   5
HETATM    5  N   UNL     1      -8.707  14.518  68.034  1.00  0.00    -0.160 N  
BRANCH   5   6
HETATM    6  C   UNL     1      -8.767  13.163  68.780  1.00  0.00     0.162 C  
BRANCH   6   7
HETATM    7  C   UNL     1      -8.858  11.874  67.890  1.00  0.00    -0.172 C  
HETATM    8  H   UNL     1      -7.593  10.736  66.930  1.00  0.00     0.000 HD 
HETATM    9  O   UNL     1      -7.537  11.517  67.469  1.00  0.00    -0.107 OA 
BRANCH   7  10
HETATM   10  C   UNL     1      -9.596  10.677  68.597  1.00  0.00    -0.179 C  
BRANCH  10  11
HETATM   11  N   UNL     1     -10.529  11.114  69.655  1.00  0.00    -0.451 N  
HETATM   12  O   UNL     1     -12.307  11.399  68.237  1.00  0.00    -0.506 OA 
HETATM   13  H   UNL     1     -10.204  11.165  70.621  1.00  0.00     0.000 HD 
HETATM   14  C   UNL     1     -11.826  11.452  69.359  1.00  0.00    -0.351 C  
BRANCH  14  15
HETATM   15  O   UNL     1     -12.502  11.879  70.465  1.00  0.00    -0.287 OA 
BRANCH  15  16
HETATM   16  C   UNL     1     -12.231  13.248  70.819  1.00  0.00    -0.308 C  
HETATM   17  C   UNL     1     -11.996  14.114  69.597  1.00  0.00    -0.389 C  
HETATM   18  O   UNL     1     -13.423  15.320  71.032  1.00  0.00    -0.465 OA 
HETATM   19  C   UNL     1     -12.346  15.495  70.106  1.00  0.00    -0.353 C  
HETATM   20  C   UNL     1     -13.413  13.955  71.480  1.00  0.00    -0.309 C  
ENDBRANCH  15  16
ENDBRANCH  14  15
ENDBRANCH  10  11
BRANCH  10  21
HETATM   21  C   UNL     1     -10.225   9.603  67.670  1.00  0.00    -0.267 C  
BRANCH  21  22
HETATM   22  C   UNL     1      -9.975   9.630  66.175  1.00  0.00    -0.346 A  
HETATM   23  C   UNL     1     -10.107  10.808  64.049  1.00  0.00    -0.410 A  
HETATM   24  C   UNL     1     -10.483  10.673  65.389  1.00  0.00    -0.254 A  
HETATM   25  C   UNL     1      -9.229   9.894  63.468  1.00  0.00    -0.279 A  
HETATM   26  C   UNL     1      -9.104   8.707  65.571  1.00  0.00    -0.190 A  
HETATM   27  C   UNL     1      -8.735   8.838  64.228  1.00  0.00    -0.038 A  
ENDBRANCH  21  22
ENDBRANCH  10  21
ENDBRANCH   7  10
ENDBRANCH   6   7
ENDBRANCH   5   6
BRANCH   5  28
HETATM   28  S   UNL     1      -7.131  15.277  68.241  1.00  0.00    -0.123 S  
HETATM   29  O   UNL     1      -6.770  15.250  69.639  1.00  0.00    -0.157 OA 
HETATM   30  O   UNL     1      -6.270  14.673  67.241  1.00  0.00    -0.305 OA 
BRANCH  28  31
HETATM   31  C   UNL     1      -7.350  16.981  67.810  1.00  0.00    -0.160 A  
HETATM   32  N   UNL     1      -7.935  21.012  66.768  1.00  0.00    -0.519 NA 
HETATM   33  H2  UNL     1      -8.580  20.997  65.978  1.00  0.00     0.000 HD 
HETATM   34  H1  UNL     1      -8.284  21.680  67.455  1.00  0.00     0.000 HD 
HETATM   35  C   UNL     1      -7.014  17.424  66.529  1.00  0.00    -0.295 A  
HETATM   36  C   UNL     1      -7.187  18.774  66.198  1.00  0.00    -0.294 A  
HETATM   37  C   UNL     1      -7.915  17.872  68.734  1.00  0.00    -0.246 A  
HETATM   38  C   UNL     1      -8.088  19.215  68.388  1.00  0.00    -0.378 A  
HETATM   39  C   UNL     1      -7.666  19.691  67.142  1.00  0.00    -0.257 A  
ENDBRANCH  28  31
ENDBRANCH   5  28
ENDBRANCH   4   5
TORSDOF 11
ENDMDL
MODEL      182
REMARK 921   NORMALIZED FREE ENERGY PREDICTED BY IDOCK:   -5.33 KCAL/MOL
REMARK 922        TOTAL FREE ENERGY PREDICTED BY IDOCK:  -10.53 KCAL/MOL
REMARK 923 INTER-LIGAND FREE ENERGY PREDICTED BY IDOCK:   -9.00 KCAL/MOL
REMARK 924 INTRA-LIGAND FREE ENERGY PREDICTED BY IDOCK:   -1.53 KCAL/MOL
REMARK 927      BINDING AFFINITY PREDICTED BY RF-SCORE:    0.00 PKD
ROOT
HETATM    1  C   UNL     1     -11.607  15.429  72.091  1.00  0.00    -0.554 C  
HETATM    2  C   UNL     1     -12.491  14.209  71.827  1.00  0.00    -0.360 C  
HETATM    3  C   UNL     1     -13.830  14.423  72.561  1.00  0.00    -0.559 C  
HETATM    4  C   UNL     1     -12.764  13.961  70.330  1.00  0.00    -0.220 C  
ENDROOT
BRANCH   4   5
HETATM    5  N   UNL     1     -11.556  13.737  69.428  1.00  0.00    -0.292 N  
BRANCH   5   6
HETATM    6  C   UNL     1     -11.553  12.322  68.800  1.00  0.00    -0.330 C  
BRANCH   6   7
HETATM    7  C   UNL     1     -10.683  11.234  69.522  1.00  0.00    -0.095 C  
HETATM    8  H   UNL     1     -10.998   9.465  70.289  1.00  0.00     0.000 HD 
HETATM    9  O   UNL     1     -11.525  10.124  69.852  1.00  0.00    -0.253 OA 
BRANCH   7  10
HETATM   10  C   UNL     1      -9.421  10.791  68.693  1.00  0.00    -0.188 C  
BRANCH  10  11
HETATM   11  N   UNL     1      -9.437   9.358  68.334  1.00  0.00    -0.141 N  
HETATM   12  O   UNL     1      -7.471   8.869  69.407  1.00  0.00    -0.073 OA 
HETATM   13  H   UNL     1     -10.212   8.987  67.784  1.00  0.00     0.000 HD 
HETATM   14  C   UNL     1      -8.425   8.518  68.729  1.00  0.00    -0.123 C  
BRANCH  14  15
HETATM   15  O   UNL     1      -8.602   7.254  68.249  1.00  0.00    -0.123 OA 
BRANCH  15  16
HETATM   16  C   UNL     1      -9.193   6.349  69.201  1.00  0.00    -0.133 C  
HETATM   17  C   UNL     1      -9.358   6.988  70.565  1.00  0.00    -0.159 C  
HETATM   18  O   UNL     1     -11.364   5.845  70.094  1.00  0.00    -0.338 OA 
HETATM   19  C   UNL     1     -10.481   6.175  71.171  1.00  0.00    -0.230 C  
HETATM   20  C   UNL     1     -10.631   5.960  68.862  1.00  0.00    -0.288 C  
ENDBRANCH  15  16
ENDBRANCH  14  15
ENDBRANCH  10  11
BRANCH  10  21
HETATM   21  C   UNL     1      -9.027  11.690  67.491  1.00  0.00    -0.165 C  
BRANCH  21  22
HETATM   22  C   UNL     1      -9.366  11.277  66.072  1.00  0.00    -0.234 A  
HETATM   23  C   UNL     1     -10.458  11.765  63.952  1.00  0.00    -0.437 A  
HETATM   24  C   UNL     1     -10.277  12.025  65.314  1.00  0.00    -0.304 A  
HETATM   25  C   UNL     1      -9.742  10.745  63.329  1.00  0.00    -0.396 A  
HETATM   26  C   UNL     1      -8.663  10.242  65.434  1.00  0.00    -0.183 A  
HETATM   27  C   UNL     1      -8.850   9.978  64.073  1.00  0.00    -0.246 A  
ENDBRANCH  21  22
ENDBRANCH  10  21
ENDBRANCH   7  10
ENDBRANCH   6   7
ENDBRANCH   5   6
BRANCH   5  28
HETATM   28  S   UNL     1     -11.483  14.977  68.179  1.00  0.00    -0.345 S  
HETATM   29  O   UNL     1     -12.036  14.451  66.953  1.00  0.00    -0.410 OA 
HETATM   30  O   UNL     1     -12.030  16.177  68.785  1.00  0.00    -0.286 OA 
BRANCH  28  31
HETATM   31  C   UNL     1      -9.760  15.260  67.875  1.00  0.00    -0.211 A  
HETATM   32  N   UNL     1      -5.669  15.871  67.124  1.00  0.00    -0.335 NA 
HETATM   33  H2  UNL     1      -5.239  14.950  67.202  1.00  0.00     0.000 HD 
HETATM   34  H1  UNL     1      -5.361  16.298  66.251  1.00  0.00     0.000 HD 
HETATM   35  C   UNL     1      -8.818  14.928  68.850  1.00  0.00    -0.184 A  
HETATM   36  C   UNL     1      -7.458  15.160  68.602  1.00  0.00    -0.124 A  
HETATM   37  C   UNL     1      -9.341  15.762  66.636  1.00  0.00    -0.284 A  
HETATM   38  C   UNL     1      -7.980  15.982  66.400  1.00  0.00    -0.197 A  
HETATM   39  C   UNL     1      -7.035  15.745  67.403  1.00  0.00    -0.202 A  
ENDBRANCH  28  31
ENDBRANCH   5  28
ENDBRANCH   4   5
TORSDOF 11
ENDMDL
MODEL      183
REMARK 921   NORMALIZED FREE ENERGY PREDICTED BY IDOCK:   -5.32 KCAL/MOL
REMARK 922        TOTAL FREE ENERGY PREDICTED BY IDOCK:  -10.52 KCAL/MOL
REMARK 923 INTER-LIGAND FREE ENERGY PREDICTED BY IDOCK:   -9.94 KCAL/MOL
REMARK 924 INTRA-LIGAND FREE ENERGY PREDICTED BY IDOCK:   -0.58 KCAL/MOL
REMARK 927      BINDING AFFINITY PREDICTED BY RF-SCORE:    0.00 PKD
ROOT
HETATM    1  C   UNL     1      -8.325  15.313  66.896  1.00  0.00    -0.278 C  
HETATM    2  C   UNL     1      -8.149  14.732  68.300  1.00  0.00    -0.139 C  
HETATM    3  C   UNL     1      -7.970  15.907  69.283  1.00  0.00    -0.229 C  
HETATM    4  C   UNL     1      -9.336  13.863  68.758  1.00  0.00    -0.030 C  
ENDROOT
BRANCH   4   5
HETATM    5  N   UNL     1      -9.682  12.649  67.903  1.00  0.00    -0.210 N  
BRANCH   5   6
HETATM    6  C   UNL     1      -8.478  11.690  67.737  1.00  0.00    -0.144 C  
BRANCH   6   7
HETATM    7  C   UNL     1      -8.319  10.997  66.338  1.00  0.00    -0.165 C  
HETATM    8  H   UNL     1      -6.897  10.043  65.396  1.00  0.00     0.000 HD 
HETATM    9  O   UNL     1      -6.994  10.462  66.243  1.00  0.00    -0.104 OA 
BRANCH   7  10
HETATM   10  C   UNL     1      -9.416   9.906  66.052  1.00  0.00    -0.202 C  
BRANCH  10  11
HETATM   11  N   UNL     1     -10.475  10.376  65.135  1.00  0.00    -0.190 N  
HETATM   12  O   UNL     1      -9.040  10.850  63.411  1.00  0.00    -0.212 OA 
HETATM   13  H   UNL     1     -11.447  10.366  65.445  1.00  0.00     0.000 HD 
HETATM   14  C   UNL     1     -10.171  10.825  63.874  1.00  0.00    -0.309 C  
BRANCH  14  15
HETATM   15  O   UNL     1     -11.281  11.262  63.212  1.00  0.00    -0.238 OA 
BRANCH  15  16
HETATM   16  C   UNL     1     -11.672  12.605  63.558  1.00  0.00    -0.531 C  
HETATM   17  C   UNL     1     -12.808  12.625  64.559  1.00  0.00    -0.356 C  
HETATM   18  O   UNL     1     -11.230  14.220  65.277  1.00  0.00    -0.313 OA 
HETATM   19  C   UNL     1     -12.639  13.978  65.215  1.00  0.00    -0.470 C  
HETATM   20  C   UNL     1     -10.588  13.386  64.299  1.00  0.00    -0.341 C  
ENDBRANCH  15  16
ENDBRANCH  14  15
ENDBRANCH  10  11
BRANCH  10  21
HETATM   21  C   UNL     1      -8.907   8.489  65.679  1.00  0.00    -0.214 C  
BRANCH  21  22
HETATM   22  C   UNL     1      -9.340   7.276  66.478  1.00  0.00    -0.216 A  
HETATM   23  C   UNL     1      -8.787   5.146  67.521  1.00  0.00    -0.105 A  
HETATM   24  C   UNL     1      -8.474   6.185  66.639  1.00  0.00    -0.116 A  
HETATM   25  C   UNL     1      -9.977   5.173  68.246  1.00  0.00    -0.208 A  
HETATM   26  C   UNL     1     -10.544   7.280  67.203  1.00  0.00    -0.416 A  
HETATM   27  C   UNL     1     -10.859   6.236  68.080  1.00  0.00    -0.409 A  
ENDBRANCH  21  22
ENDBRANCH  10  21
ENDBRANCH   7  10
ENDBRANCH   6   7
ENDBRANCH   5   6
BRANCH   5  28
HETATM   28  S   UNL     1     -11.071  11.799  68.575  1.00  0.00    -0.262 S  
HETATM   29  O   UNL     1     -12.003  11.497  67.514  1.00  0.00    -0.629 OA 
HETATM   30  O   UNL     1     -10.521  10.741  69.402  1.00  0.00    -0.218 OA 
BRANCH  28  31
HETATM   31  C   UNL     1     -11.881  12.957  69.643  1.00  0.00    -0.320 A  
HETATM   32  N   UNL     1     -13.862  15.687  72.152  1.00  0.00    -0.490 NA 
HETATM   33  H2  UNL     1     -14.651  16.033  71.608  1.00  0.00     0.000 HD 
HETATM   34  H1  UNL     1     -14.205  15.395  73.067  1.00  0.00     0.000 HD 
HETATM   35  C   UNL     1     -12.023  14.288  69.247  1.00  0.00    -0.375 A  
HETATM   36  C   UNL     1     -12.661  15.198  70.101  1.00  0.00    -0.319 A  
HETATM   37  C   UNL     1     -12.428  12.525  70.859  1.00  0.00    -0.361 A  
HETATM   38  C   UNL     1     -13.068  13.442  71.698  1.00  0.00    -0.463 A  
HETATM   39  C   UNL     1     -13.133  14.797  71.356  1.00  0.00    -0.354 A  
ENDBRANCH  28  31
ENDBRANCH   5  28
ENDBRANCH   4   5
TORSDOF 11
ENDMDL
MODEL      184
REMARK 921   NORMALIZED FREE ENERGY PREDICTED BY IDOCK:   -5.32 KCAL/MOL
REMARK 922        TOTAL FREE ENERGY PREDICTED BY IDOCK:  -10.51 KCAL/MOL
REMARK 923 INTER-LIGAND FREE ENERGY PREDICTED BY IDOCK:   -9.80 KCAL/MOL
REMARK 924 INTRA-LIGAND FREE ENERGY PREDICTED BY IDOCK:   -0.71 KCAL/MOL
REMARK 927      BINDING AFFINITY PREDICTED BY RF-SCORE:    0.00 PKD
ROOT
HETATM    1  C   UNL     1     -11.773   6.522  70.706  1.00  0.00    -0.427 C  
HETATM    2  C   UNL     1     -10.983   7.801  70.986  1.00  0.00    -0.260 C  
HETATM    3  C   UNL     1     -10.911   7.992  72.514  1.00  0.00    -0.415 C  
HETATM    4  C   UNL     1      -9.555   7.780  70.407  1.00  0.00    -0.175 C  
ENDROOT
BRANCH   4   5
HETATM    5  N   UNL     1      -9.415   7.589  68.901  1.00  0.00    -0.145 N  
BRANCH   5   6
HETATM    6  C   UNL     1      -9.140   8.923  68.166  1.00  0.00    -0.140 C  
BRANCH   6   7
HETATM    7  C   UNL     1      -8.791  10.161  69.065  1.00  0.00    -0.166 C  
HETATM    8  H   UNL     1      -7.216  11.277  69.369  1.00  0.00     0.000 HD 
HETATM    9  O   UNL     1      -7.427  10.528  68.825  1.00  0.00    -0.084 OA 
BRANCH   7  10
HETATM   10  C   UNL     1      -9.771  11.376  68.866  1.00  0.00    -0.090 C  
BRANCH  10  11
HETATM   11  N   UNL     1      -9.555  12.093  67.593  1.00  0.00    -0.185 N  
HETATM   12  O   UNL     1     -10.665  10.549  66.312  1.00  0.00    -0.174 OA 
HETATM   13  H   UNL     1      -9.048  12.978  67.595  1.00  0.00     0.000 HD 
HETATM   14  C   UNL     1     -10.028  11.587  66.407  1.00  0.00    -0.209 C  
BRANCH  14  15
HETATM   15  O   UNL     1      -9.676  12.371  65.348  1.00  0.00    -0.217 OA 
BRANCH  15  16
HETATM   16  C   UNL     1     -10.795  12.815  64.556  1.00  0.00    -0.347 C  
HETATM   17  C   UNL     1     -11.199  11.787  63.520  1.00  0.00    -0.494 C  
HETATM   18  O   UNL     1     -13.182  12.571  64.522  1.00  0.00    -0.832 OA 
HETATM   19  C   UNL     1     -12.650  12.134  63.267  1.00  0.00    -0.368 C  
HETATM   20  C   UNL     1     -12.085  12.976  65.358  1.00  0.00    -0.444 C  
ENDBRANCH  15  16
ENDBRANCH  14  15
ENDBRANCH  10  11
BRANCH  10  21
HETATM   21  C   UNL     1     -11.275  11.106  69.137  1.00  0.00    -0.328 C  
BRANCH  21  22
HETATM   22  C   UNL     1     -11.990  11.796  70.282  1.00  0.00    -0.429 A  
HETATM   23  C   UNL     1     -12.866  13.837  71.281  1.00  0.00    -0.434 A  
HETATM   24  C   UNL     1     -12.058  13.195  70.337  1.00  0.00    -0.392 A  
HETATM   25  C   UNL     1     -13.609  13.091  72.194  1.00  0.00    -0.618 A  
HETATM   26  C   UNL     1     -12.732  11.059  71.221  1.00  0.00    -0.537 A  
HETATM   27  C   UNL     1     -13.535  11.702  72.169  1.00  0.00    -0.238 A  
ENDBRANCH  21  22
ENDBRANCH  10  21
ENDBRANCH   7  10
ENDBRANCH   6   7
ENDBRANCH   5   6
BRANCH   5  28
HETATM   28  S   UNL     1      -8.158   6.408  68.545  1.00  0.00    -0.110 S  
HETATM   29  O   UNL     1      -7.005   7.088  68.004  1.00  0.00    -0.077 OA 
HETATM   30  O   UNL     1      -8.043   5.586  69.736  1.00  0.00    -0.097 OA 
BRANCH  28  31
HETATM   31  C   UNL     1      -8.800   5.390  67.245  1.00  0.00    -0.105 A  
HETATM   32  N   UNL     1     -10.308   3.023  64.115  1.00  0.00    -0.361 NA 
HETATM   33  H2  UNL     1     -10.721   3.679  63.453  1.00  0.00     0.000 HD 
HETATM   34  H1  UNL     1      -9.695   2.391  63.601  1.00  0.00     0.000 HD 
HETATM   35  C   UNL     1     -10.162   5.427  66.940  1.00  0.00    -0.279 A  
HETATM   36  C   UNL     1     -10.661   4.615  65.913  1.00  0.00    -0.265 A  
HETATM   37  C   UNL     1      -7.933   4.592  66.486  1.00  0.00    -0.103 A  
HETATM   38  C   UNL     1      -8.444   3.792  65.459  1.00  0.00    -0.110 A  
HETATM   39  C   UNL     1      -9.818   3.747  65.207  1.00  0.00    -0.146 A  
ENDBRANCH  28  31
ENDBRANCH   5  28
ENDBRANCH   4   5
TORSDOF 11
ENDMDL
MODEL      185
REMARK 921   NORMALIZED FREE ENERGY PREDICTED BY IDOCK:   -5.30 KCAL/MOL
REMARK 922        TOTAL FREE ENERGY PREDICTED BY IDOCK:  -10.48 KCAL/MOL
REMARK 923 INTER-LIGAND FREE ENERGY PREDICTED BY IDOCK:   -9.15 KCAL/MOL
REMARK 924 INTRA-LIGAND FREE ENERGY PREDICTED BY IDOCK:   -1.34 KCAL/MOL
REMARK 927      BINDING AFFINITY PREDICTED BY RF-SCORE:    0.00 PKD
ROOT
HETATM    1  C   UNL     1      -6.623  11.072  69.585  1.00  0.00    -0.132 C  
HETATM    2  C   UNL     1      -6.994   9.698  69.025  1.00  0.00    -0.058 C  
HETATM    3  C   UNL     1      -5.691   8.984  68.615  1.00  0.00    -0.041 C  
HETATM    4  C   UNL     1      -7.765   8.815  70.026  1.00  0.00    -0.082 C  
ENDROOT
BRANCH   4   5
HETATM    5  N   UNL     1      -9.085   9.358  70.561  1.00  0.00    -0.253 N  
BRANCH   5   6
HETATM    6  C   UNL     1     -10.217   9.283  69.507  1.00  0.00    -0.207 C  
BRANCH   6   7
HETATM    7  C   UNL     1     -10.234  10.408  68.413  1.00  0.00    -0.165 C  
HETATM    8  H   UNL     1     -10.096  10.476  66.465  1.00  0.00     0.000 HD 
HETATM    9  O   UNL     1     -10.086   9.795  67.128  1.00  0.00    -0.186 OA 
BRANCH   7  10
HETATM   10  C   UNL     1     -11.507  11.330  68.483  1.00  0.00    -0.306 C  
BRANCH  10  11
HETATM   11  N   UNL     1     -11.615  12.074  69.754  1.00  0.00    -0.442 N  
HETATM   12  O   UNL     1     -13.209  10.693  70.651  1.00  0.00    -0.266 OA 
HETATM   13  H   UNL     1     -11.030  12.897  69.905  1.00  0.00     0.000 HD 
HETATM   14  C   UNL     1     -12.489  11.677  70.735  1.00  0.00    -0.330 C  
BRANCH  14  15
HETATM   15  O   UNL     1     -12.473  12.528  71.801  1.00  0.00    -0.058 OA 
BRANCH  15  16
HETATM   16  C   UNL     1     -12.957  13.850  71.497  1.00  0.00    -0.358 C  
HETATM   17  C   UNL     1     -14.253  14.159  72.219  1.00  0.00    -0.598 C  
HETATM   18  O   UNL     1     -12.873  16.057  72.437  1.00  0.00    -0.448 OA 
HETATM   19  C   UNL     1     -14.241  15.671  72.272  1.00  0.00    -0.448 C  
HETATM   20  C   UNL     1     -12.044  14.966  72.000  1.00  0.00    -0.359 C  
ENDBRANCH  15  16
ENDBRANCH  14  15
ENDBRANCH  10  11
BRANCH  10  21
HETATM   21  C   UNL     1     -11.779  12.234  67.252  1.00  0.00    -0.394 C  
BRANCH  21  22
HETATM   22  C   UNL     1     -11.244  13.652  67.199  1.00  0.00    -0.327 A  
HETATM   23  C   UNL     1     -11.292  15.941  68.025  1.00  0.00    -0.284 A  
HETATM   24  C   UNL     1     -11.878  14.676  67.917  1.00  0.00    -0.352 A  
HETATM   25  C   UNL     1     -10.073  16.208  67.406  1.00  0.00    -0.257 A  
HETATM   26  C   UNL     1     -10.023  13.941  66.567  1.00  0.00    -0.288 A  
HETATM   27  C   UNL     1      -9.442  15.210  66.670  1.00  0.00    -0.285 A  
ENDBRANCH  21  22
ENDBRANCH  10  21
ENDBRANCH   7  10
ENDBRANCH   6   7
ENDBRANCH   5   6
BRANCH   5  28
HETATM   28  S   UNL     1      -9.546   8.511  72.035  1.00  0.00    -0.318 S  
HETATM   29  O   UNL     1      -8.547   8.746  73.051  1.00  0.00    -0.382 OA 
HETATM   30  O   UNL     1     -10.937   8.856  72.268  1.00  0.00    -0.337 OA 
BRANCH  28  31
HETATM   31  C   UNL     1      -9.474   6.784  71.647  1.00  0.00    -0.155 A  
HETATM   32  N   UNL     1      -9.351   2.673  70.772  1.00  0.00    -0.135 NA 
HETATM   33  H2  UNL     1      -9.541   2.202  71.656  1.00  0.00     0.000 HD 
HETATM   34  H1  UNL     1      -9.962   2.277  70.058  1.00  0.00     0.000 HD 
HETATM   35  C   UNL     1      -8.553   5.962  72.299  1.00  0.00    -0.124 A  
HETATM   36  C   UNL     1      -8.500   4.598  71.982  1.00  0.00    -0.119 A  
HETATM   37  C   UNL     1     -10.379   6.233  70.730  1.00  0.00    -0.256 A  
HETATM   38  C   UNL     1     -10.320   4.869  70.428  1.00  0.00    -0.248 A  
HETATM   39  C   UNL     1      -9.339   4.054  71.002  1.00  0.00    -0.149 A  
ENDBRANCH  28  31
ENDBRANCH   5  28
ENDBRANCH   4   5
TORSDOF 11
ENDMDL
MODEL      186
REMARK 921   NORMALIZED FREE ENERGY PREDICTED BY IDOCK:   -5.30 KCAL/MOL
REMARK 922        TOTAL FREE ENERGY PREDICTED BY IDOCK:  -10.48 KCAL/MOL
REMARK 923 INTER-LIGAND FREE ENERGY PREDICTED BY IDOCK:   -7.95 KCAL/MOL
REMARK 924 INTRA-LIGAND FREE ENERGY PREDICTED BY IDOCK:   -2.53 KCAL/MOL
REMARK 927      BINDING AFFINITY PREDICTED BY RF-SCORE:    0.00 PKD
ROOT
HETATM    1  C   UNL     1     -11.294   5.853  72.579  1.00  0.00    -0.352 C  
HETATM    2  C   UNL     1     -10.111   4.948  72.926  1.00  0.00    -0.208 C  
HETATM    3  C   UNL     1     -10.665   3.672  73.591  1.00  0.00    -0.307 C  
HETATM    4  C   UNL     1      -9.258   4.556  71.704  1.00  0.00    -0.135 C  
ENDROOT
BRANCH   4   5
HETATM    5  N   UNL     1      -8.627   5.687  70.901  1.00  0.00    -0.127 N  
BRANCH   5   6
HETATM    6  C   UNL     1      -7.778   6.629  71.789  1.00  0.00    -0.097 C  
BRANCH   6   7
HETATM    7  C   UNL     1      -8.366   8.058  72.062  1.00  0.00    -0.139 C  
HETATM    8  H   UNL     1      -7.758   9.678  72.968  1.00  0.00     0.000 HD 
HETATM    9  O   UNL     1      -7.402   8.813  72.803  1.00  0.00    -0.344 OA 
BRANCH   7  10
HETATM   10  C   UNL     1      -8.823   8.807  70.755  1.00  0.00    -0.191 C  
BRANCH  10  11
HETATM   11  N   UNL     1      -7.859   8.674  69.644  1.00  0.00    -0.092 N  
HETATM   12  O   UNL     1      -7.665  10.930  69.288  1.00  0.00    -0.135 OA 
HETATM   13  H   UNL     1      -7.552   7.745  69.354  1.00  0.00     0.000 HD 
HETATM   14  C   UNL     1      -7.371   9.781  68.994  1.00  0.00    -0.078 C  
BRANCH  14  15
HETATM   15  O   UNL     1      -6.541   9.439  67.968  1.00  0.00    -0.061 OA 
BRANCH  15  16
HETATM   16  C   UNL     1      -7.205   9.336  66.693  1.00  0.00    -0.082 C  
HETATM   17  C   UNL     1      -7.353   7.896  66.246  1.00  0.00    -0.075 C  
HETATM   18  O   UNL     1      -9.418   8.957  65.844  1.00  0.00    -0.237 OA 
HETATM   19  C   UNL     1      -8.535   7.968  65.304  1.00  0.00    -0.117 C  
HETATM   20  C   UNL     1      -8.658   9.806  66.721  1.00  0.00    -0.128 C  
ENDBRANCH  15  16
ENDBRANCH  14  15
ENDBRANCH  10  11
BRANCH  10  21
HETATM   21  C   UNL     1     -10.285   8.568  70.293  1.00  0.00    -0.206 C  
BRANCH  21  22
HETATM   22  C   UNL     1     -11.390   9.524  70.697  1.00  0.00    -0.364 A  
HETATM   23  C   UNL     1     -13.219  10.099  72.198  1.00  0.00    -0.463 A  
HETATM   24  C   UNL     1     -12.314   9.162  71.688  1.00  0.00    -0.434 A  
HETATM   25  C   UNL     1     -13.226  11.406  71.716  1.00  0.00    -0.472 A  
HETATM   26  C   UNL     1     -11.420  10.841  70.210  1.00  0.00    -0.406 A  
HETATM   27  C   UNL     1     -12.332  11.775  70.716  1.00  0.00    -0.433 A  
ENDBRANCH  21  22
ENDBRANCH  10  21
ENDBRANCH   7  10
ENDBRANCH   6   7
ENDBRANCH   5   6
BRANCH   5  28
HETATM   28  S   UNL     1      -7.665   5.039  69.576  1.00  0.00    -0.068 S  
HETATM   29  O   UNL     1      -6.665   6.010  69.195  1.00  0.00    -0.055 OA 
HETATM   30  O   UNL     1      -7.280   3.702  69.987  1.00  0.00    -0.041 OA 
BRANCH  28  31
HETATM   31  C   UNL     1      -8.770   4.886  68.200  1.00  0.00    -0.102 A  
HETATM   32  N   UNL     1     -11.355   4.567  64.899  1.00  0.00    -1.065 NA 
HETATM   33  H2  UNL     1     -11.347   5.486  64.458  1.00  0.00     0.000 HD 
HETATM   34  H1  UNL     1     -11.191   3.863  64.179  1.00  0.00     0.000 HD 
HETATM   35  C   UNL     1      -9.892   5.712  68.114  1.00  0.00    -0.170 A  
HETATM   36  C   UNL     1     -10.763   5.581  67.024  1.00  0.00    -0.286 A  
HETATM   37  C   UNL     1      -8.487   3.978  67.171  1.00  0.00    -0.100 A  
HETATM   38  C   UNL     1      -9.361   3.862  66.086  1.00  0.00    -0.179 A  
HETATM   39  C   UNL     1     -10.539   4.615  66.035  1.00  0.00    -0.200 A  
ENDBRANCH  28  31
ENDBRANCH   5  28
ENDBRANCH   4   5
TORSDOF 11
ENDMDL
MODEL      187
REMARK 921   NORMALIZED FREE ENERGY PREDICTED BY IDOCK:   -5.30 KCAL/MOL
REMARK 922        TOTAL FREE ENERGY PREDICTED BY IDOCK:  -10.48 KCAL/MOL
REMARK 923 INTER-LIGAND FREE ENERGY PREDICTED BY IDOCK:   -9.28 KCAL/MOL
REMARK 924 INTRA-LIGAND FREE ENERGY PREDICTED BY IDOCK:   -1.20 KCAL/MOL
REMARK 927      BINDING AFFINITY PREDICTED BY RF-SCORE:    0.00 PKD
ROOT
HETATM    1  C   UNL     1      -6.855  13.009  67.368  1.00  0.00    -0.126 C  
HETATM    2  C   UNL     1      -7.435  13.532  68.682  1.00  0.00    -0.108 C  
HETATM    3  C   UNL     1      -6.328  14.321  69.411  1.00  0.00    -0.120 C  
HETATM    4  C   UNL     1      -8.666  14.440  68.492  1.00  0.00    -0.180 C  
ENDROOT
BRANCH   4   5
HETATM    5  N   UNL     1      -9.871  13.840  67.776  1.00  0.00    -0.228 N  
BRANCH   5   6
HETATM    6  C   UNL     1     -10.222  12.429  68.307  1.00  0.00    -0.229 C  
BRANCH   6   7
HETATM    7  C   UNL     1     -10.826  11.418  67.271  1.00  0.00    -0.263 C  
HETATM    8  H   UNL     1     -10.575  11.033  65.372  1.00  0.00     0.000 HD 
HETATM    9  O   UNL     1     -10.209  11.645  65.999  1.00  0.00    -0.218 OA 
BRANCH   7  10
HETATM   10  C   UNL     1     -10.710   9.915  67.723  1.00  0.00    -0.277 C  
BRANCH  10  11
HETATM   11  N   UNL     1      -9.943   9.082  66.774  1.00  0.00    -0.238 N  
HETATM   12  O   UNL     1      -7.896   9.634  67.647  1.00  0.00    -0.095 OA 
HETATM   13  H   UNL     1     -10.440   8.536  66.071  1.00  0.00     0.000 HD 
HETATM   14  C   UNL     1      -8.572   9.033  66.825  1.00  0.00    -0.123 C  
BRANCH  14  15
HETATM   15  O   UNL     1      -8.057   8.252  65.832  1.00  0.00    -0.095 OA 
BRANCH  15  16
HETATM   16  C   UNL     1      -7.437   8.999  64.768  1.00  0.00    -0.102 C  
HETATM   17  C   UNL     1      -6.259   8.260  64.168  1.00  0.00    -0.066 C  
HETATM   18  O   UNL     1      -7.518   9.120  62.372  1.00  0.00    -0.101 OA 
HETATM   19  C   UNL     1      -6.172   8.859  62.782  1.00  0.00    -0.091 C  
HETATM   20  C   UNL     1      -8.339   9.191  63.550  1.00  0.00    -0.188 C  
ENDBRANCH  15  16
ENDBRANCH  14  15
ENDBRANCH  10  11
BRANCH  10  21
HETATM   21  C   UNL     1     -10.290   9.662  69.195  1.00  0.00    -0.219 C  
BRANCH  21  22
HETATM   22  C   UNL     1     -11.318   9.264  70.236  1.00  0.00    -0.238 A  
HETATM   23  C   UNL     1     -12.102   7.677  71.907  1.00  0.00    -0.333 A  
HETATM   24  C   UNL     1     -11.279   7.991  70.821  1.00  0.00    -0.275 A  
HETATM   25  C   UNL     1     -12.987   8.626  72.417  1.00  0.00    -0.403 A  
HETATM   26  C   UNL     1     -12.227  10.204  70.750  1.00  0.00    -0.434 A  
HETATM   27  C   UNL     1     -13.055   9.886  71.833  1.00  0.00    -0.559 A  
ENDBRANCH  21  22
ENDBRANCH  10  21
ENDBRANCH   7  10
ENDBRANCH   6   7
ENDBRANCH   5   6
BRANCH   5  28
HETATM   28  S   UNL     1     -11.259  14.918  67.898  1.00  0.00    -0.326 S  
HETATM   29  O   UNL     1     -10.842  16.267  67.593  1.00  0.00    -0.327 OA 
HETATM   30  O   UNL     1     -12.319  14.280  67.140  1.00  0.00    -0.360 OA 
BRANCH  28  31
HETATM   31  C   UNL     1     -11.732  14.911  69.605  1.00  0.00    -0.320 A  
HETATM   32  N   UNL     1     -12.917  14.918  73.639  1.00  0.00    -0.529 NA 
HETATM   33  H2  UNL     1     -13.528  15.727  73.741  1.00  0.00     0.000 HD 
HETATM   34  H1  UNL     1     -13.387  14.107  74.043  1.00  0.00     0.000 HD 
HETATM   35  C   UNL     1     -11.433  16.007  70.415  1.00  0.00    -0.392 A  
HETATM   36  C   UNL     1     -11.808  15.990  71.765  1.00  0.00    -0.599 A  
HETATM   37  C   UNL     1     -12.457  13.830  70.127  1.00  0.00    -0.332 A  
HETATM   38  C   UNL     1     -12.831  13.830  71.474  1.00  0.00    -0.445 A  
HETATM   39  C   UNL     1     -12.453  14.878  72.319  1.00  0.00    -0.341 A  
ENDBRANCH  28  31
ENDBRANCH   5  28
ENDBRANCH   4   5
TORSDOF 11
ENDMDL
MODEL      188
REMARK 921   NORMALIZED FREE ENERGY PREDICTED BY IDOCK:   -5.30 KCAL/MOL
REMARK 922        TOTAL FREE ENERGY PREDICTED BY IDOCK:  -10.48 KCAL/MOL
REMARK 923 INTER-LIGAND FREE ENERGY PREDICTED BY IDOCK:   -6.95 KCAL/MOL
REMARK 924 INTRA-LIGAND FREE ENERGY PREDICTED BY IDOCK:   -3.53 KCAL/MOL
REMARK 927      BINDING AFFINITY PREDICTED BY RF-SCORE:    0.00 PKD
ROOT
HETATM    1  C   UNL     1      -7.956  12.669  68.369  1.00  0.00    -0.134 C  
HETATM    2  C   UNL     1      -6.676  12.148  69.023  1.00  0.00    -0.103 C  
HETATM    3  C   UNL     1      -6.038  13.309  69.812  1.00  0.00    -0.128 C  
HETATM    4  C   UNL     1      -6.911  10.957  69.971  1.00  0.00    -0.029 C  
ENDROOT
BRANCH   4   5
HETATM    5  N   UNL     1      -7.550   9.707  69.376  1.00  0.00    -0.088 N  
BRANCH   5   6
HETATM    6  C   UNL     1      -6.785   9.199  68.130  1.00  0.00    -0.061 C  
BRANCH   6   7
HETATM    7  C   UNL     1      -7.556   9.243  66.765  1.00  0.00    -0.090 C  
HETATM    8  H   UNL     1      -7.065   9.307  64.874  1.00  0.00     0.000 HD 
HETATM    9  O   UNL     1      -6.598   9.280  65.701  1.00  0.00    -0.067 OA 
BRANCH   7  10
HETATM   10  C   UNL     1      -8.587   8.067  66.589  1.00  0.00    -0.136 C  
BRANCH  10  11
HETATM   11  N   UNL     1      -8.085   6.775  67.100  1.00  0.00    -0.116 N  
HETATM   12  O   UNL     1      -8.654   5.591  65.222  1.00  0.00    -0.147 OA 
HETATM   13  H   UNL     1      -7.660   6.733  68.026  1.00  0.00     0.000 HD 
HETATM   14  C   UNL     1      -8.182   5.631  66.348  1.00  0.00    -0.107 C  
BRANCH  14  15
HETATM   15  O   UNL     1      -7.712   4.542  67.022  1.00  0.00    -0.088 OA 
BRANCH  15  16
HETATM   16  C   UNL     1      -8.287   4.377  68.332  1.00  0.00    -0.089 C  
HETATM   17  C   UNL     1      -9.422   3.374  68.332  1.00  0.00    -0.209 C  
HETATM   18  O   UNL     1      -8.084   2.898  70.212  1.00  0.00    -0.042 OA 
HETATM   19  C   UNL     1      -9.446   2.910  69.771  1.00  0.00    -0.097 C  
HETATM   20  C   UNL     1      -7.327   3.762  69.348  1.00  0.00    -0.052 C  
ENDBRANCH  15  16
ENDBRANCH  14  15
ENDBRANCH  10  11
BRANCH  10  21
HETATM   21  C   UNL     1     -10.045   8.347  67.040  1.00  0.00    -0.354 C  
BRANCH  21  22
HETATM   22  C   UNL     1     -10.640   9.736  66.917  1.00  0.00    -0.243 A  
HETATM   23  C   UNL     1     -11.577  11.717  67.979  1.00  0.00    -0.383 A  
HETATM   24  C   UNL     1     -11.195  10.372  68.036  1.00  0.00    -0.340 A  
HETATM   25  C   UNL     1     -11.424  12.442  66.799  1.00  0.00    -0.423 A  
HETATM   26  C   UNL     1     -10.507  10.477  65.730  1.00  0.00    -0.214 A  
HETATM   27  C   UNL     1     -10.897  11.819  65.672  1.00  0.00    -0.342 A  
ENDBRANCH  21  22
ENDBRANCH  10  21
ENDBRANCH   7  10
ENDBRANCH   6   7
ENDBRANCH   5   6
BRANCH   5  28
HETATM   28  S   UNL     1      -7.675   8.440  70.594  1.00  0.00    -0.090 S  
HETATM   29  O   UNL     1      -7.111   7.219  70.069  1.00  0.00    -0.062 OA 
HETATM   30  O   UNL     1      -7.166   9.025  71.822  1.00  0.00    -0.286 OA 
BRANCH  28  31
HETATM   31  C   UNL     1      -9.407   8.143  70.812  1.00  0.00    -0.158 A  
HETATM   32  N   UNL     1     -13.531   7.459  71.266  1.00  0.00    -0.574 NA 
HETATM   33  H2  UNL     1     -13.988   8.171  70.697  1.00  0.00     0.000 HD 
HETATM   34  H1  UNL     1     -13.934   6.552  71.031  1.00  0.00     0.000 HD 
HETATM   35  C   UNL     1     -10.224   9.145  71.339  1.00  0.00    -0.402 A  
HETATM   36  C   UNL     1     -11.593   8.900  71.512  1.00  0.00    -0.388 A  
HETATM   37  C   UNL     1      -9.967   6.926  70.402  1.00  0.00    -0.190 A  
HETATM   38  C   UNL     1     -11.336   6.697  70.575  1.00  0.00    -0.413 A  
HETATM   39  C   UNL     1     -12.147   7.655  71.190  1.00  0.00    -0.298 A  
ENDBRANCH  28  31
ENDBRANCH   5  28
ENDBRANCH   4   5
TORSDOF 11
ENDMDL
MODEL      189
REMARK 921   NORMALIZED FREE ENERGY PREDICTED BY IDOCK:   -5.29 KCAL/MOL
REMARK 922        TOTAL FREE ENERGY PREDICTED BY IDOCK:  -10.47 KCAL/MOL
REMARK 923 INTER-LIGAND FREE ENERGY PREDICTED BY IDOCK:   -8.61 KCAL/MOL
REMARK 924 INTRA-LIGAND FREE ENERGY PREDICTED BY IDOCK:   -1.86 KCAL/MOL
REMARK 927      BINDING AFFINITY PREDICTED BY RF-SCORE:    0.00 PKD
ROOT
HETATM    1  C   UNL     1     -11.110   7.696  71.191  1.00  0.00    -0.269 C  
HETATM    2  C   UNL     1     -10.122   8.390  72.130  1.00  0.00    -0.376 C  
HETATM    3  C   UNL     1     -10.197   7.690  73.501  1.00  0.00    -0.332 C  
HETATM    4  C   UNL     1      -8.667   8.361  71.622  1.00  0.00    -0.183 C  
ENDROOT
BRANCH   4   5
HETATM    5  N   UNL     1      -8.389   8.999  70.266  1.00  0.00    -0.139 N  
BRANCH   5   6
HETATM    6  C   UNL     1      -9.326  10.199  69.983  1.00  0.00    -0.013 C  
BRANCH   6   7
HETATM    7  C   UNL     1     -10.034  10.223  68.583  1.00  0.00    -0.173 C  
HETATM    8  H   UNL     1     -10.779   8.891  67.362  1.00  0.00     0.000 HD 
HETATM    9  O   UNL     1     -10.350   8.877  68.209  1.00  0.00    -0.199 OA 
BRANCH   7  10
HETATM   10  C   UNL     1     -11.299  11.158  68.538  1.00  0.00    -0.282 C  
BRANCH  10  11
HETATM   11  N   UNL     1     -11.543  11.865  69.812  1.00  0.00    -0.420 N  
HETATM   12  O   UNL     1     -13.225  10.463  70.489  1.00  0.00    -0.300 OA 
HETATM   13  H   UNL     1     -10.979  12.681  70.049  1.00  0.00     0.000 HD 
HETATM   14  C   UNL     1     -12.519  11.441  70.680  1.00  0.00    -0.327 C  
BRANCH  14  15
HETATM   15  O   UNL     1     -12.618  12.260  71.767  1.00  0.00    -0.176 OA 
BRANCH  15  16
HETATM   16  C   UNL     1     -12.931  13.627  71.437  1.00  0.00    -0.347 C  
HETATM   17  C   UNL     1     -14.262  14.060  72.017  1.00  0.00    -0.585 C  
HETATM   18  O   UNL     1     -12.733  15.805  72.426  1.00  0.00    -0.396 OA 
HETATM   19  C   UNL     1     -14.106  15.562  72.102  1.00  0.00    -0.526 C  
HETATM   20  C   UNL     1     -11.974  14.640  72.062  1.00  0.00    -0.222 C  
ENDBRANCH  15  16
ENDBRANCH  14  15
ENDBRANCH  10  11
BRANCH  10  21
HETATM   21  C   UNL     1     -11.421  12.103  67.313  1.00  0.00    -0.413 C  
BRANCH  21  22
HETATM   22  C   UNL     1     -10.973  13.549  67.403  1.00  0.00    -0.286 A  
HETATM   23  C   UNL     1     -11.456  15.858  68.003  1.00  0.00    -0.236 A  
HETATM   24  C   UNL     1     -11.890  14.556  67.737  1.00  0.00    -0.390 A  
HETATM   25  C   UNL     1     -10.102  16.179  67.925  1.00  0.00    -0.244 A  
HETATM   26  C   UNL     1      -9.614  13.892  67.313  1.00  0.00    -0.243 A  
HETATM   27  C   UNL     1      -9.182  15.197  67.572  1.00  0.00    -0.188 A  
ENDBRANCH  21  22
ENDBRANCH  10  21
ENDBRANCH   7  10
ENDBRANCH   6   7
ENDBRANCH   5   6
BRANCH   5  28
HETATM   28  S   UNL     1      -6.699   9.483  70.149  1.00  0.00    -0.092 S  
HETATM   29  O   UNL     1      -6.497  10.693  70.911  1.00  0.00    -0.350 OA 
HETATM   30  O   UNL     1      -5.928   8.288  70.437  1.00  0.00    -0.028 OA 
BRANCH  28  31
HETATM   31  C   UNL     1      -6.430   9.906  68.449  1.00  0.00    -0.054 A  
HETATM   32  N   UNL     1      -5.858  10.915  64.409  1.00  0.00    -0.373 NA 
HETATM   33  H2  UNL     1      -6.671  10.544  63.918  1.00  0.00     0.000 HD 
HETATM   34  H1  UNL     1      -5.732  11.889  64.131  1.00  0.00     0.000 HD 
HETATM   35  C   UNL     1      -6.358   8.899  67.485  1.00  0.00    -0.056 A  
HETATM   36  C   UNL     1      -6.140   9.242  66.144  1.00  0.00    -0.059 A  
HETATM   37  C   UNL     1      -6.348  11.251  68.066  1.00  0.00    -0.053 A  
HETATM   38  C   UNL     1      -6.138  11.580  66.723  1.00  0.00    -0.147 A  
HETATM   39  C   UNL     1      -5.967  10.578  65.762  1.00  0.00    -0.129 A  
ENDBRANCH  28  31
ENDBRANCH   5  28
ENDBRANCH   4   5
TORSDOF 11
ENDMDL
MODEL      190
REMARK 921   NORMALIZED FREE ENERGY PREDICTED BY IDOCK:   -5.27 KCAL/MOL
REMARK 922        TOTAL FREE ENERGY PREDICTED BY IDOCK:  -10.43 KCAL/MOL
REMARK 923 INTER-LIGAND FREE ENERGY PREDICTED BY IDOCK:  -10.70 KCAL/MOL
REMARK 924 INTRA-LIGAND FREE ENERGY PREDICTED BY IDOCK:    0.27 KCAL/MOL
REMARK 927      BINDING AFFINITY PREDICTED BY RF-SCORE:    0.00 PKD
ROOT
HETATM    1  C   UNL     1     -10.340  10.938  63.969  1.00  0.00    -0.417 C  
HETATM    2  C   UNL     1      -9.842  10.598  65.375  1.00  0.00    -0.325 C  
HETATM    3  C   UNL     1      -8.716   9.553  65.243  1.00  0.00    -0.193 C  
HETATM    4  C   UNL     1      -9.314  11.820  66.152  1.00  0.00    -0.225 C  
ENDROOT
BRANCH   4   5
HETATM    5  N   UNL     1     -10.282  12.975  66.378  1.00  0.00    -0.273 N  
BRANCH   5   6
HETATM    6  C   UNL     1     -10.548  13.776  65.079  1.00  0.00    -0.389 C  
BRANCH   6   7
HETATM    7  C   UNL     1      -9.920  15.211  64.997  1.00  0.00    -0.143 C  
HETATM    8  H   UNL     1     -10.527  16.981  64.433  1.00  0.00     0.000 HD 
HETATM    9  O   UNL     1     -10.908  16.112  64.483  1.00  0.00    -0.628 OA 
BRANCH   7  10
HETATM   10  C   UNL     1      -9.319  15.711  66.362  1.00  0.00    -0.300 C  
BRANCH  10  11
HETATM   11  N   UNL     1      -8.041  16.434  66.204  1.00  0.00    -0.267 N  
HETATM   12  O   UNL     1      -6.955  15.269  67.853  1.00  0.00    -0.117 OA 
HETATM   13  H   UNL     1      -7.962  17.162  65.494  1.00  0.00     0.000 HD 
HETATM   14  C   UNL     1      -6.959  16.140  66.996  1.00  0.00    -0.199 C  
BRANCH  14  15
HETATM   15  O   UNL     1      -5.899  16.956  66.726  1.00  0.00    -0.173 OA 
BRANCH  15  16
HETATM   16  C   UNL     1      -5.637  17.927  67.757  1.00  0.00    -0.144 C  
HETATM   17  C   UNL     1      -5.955  19.337  67.302  1.00  0.00    -0.180 C  
HETATM   18  O   UNL     1      -6.841  19.099  69.472  1.00  0.00    -0.286 OA 
HETATM   19  C   UNL     1      -6.209  20.051  68.611  1.00  0.00    -0.284 C  
HETATM   20  C   UNL     1      -6.542  17.782  68.979  1.00  0.00    -0.244 C  
ENDBRANCH  15  16
ENDBRANCH  14  15
ENDBRANCH  10  11
BRANCH  10  21
HETATM   21  C   UNL     1     -10.292  16.447  67.322  1.00  0.00    -0.287 C  
BRANCH  21  22
HETATM   22  C   UNL     1     -10.316  17.961  67.387  1.00  0.00    -0.383 A  
HETATM   23  C   UNL     1      -9.968  20.010  68.655  1.00  0.00    -0.432 A  
HETATM   24  C   UNL     1     -10.132  18.622  68.610  1.00  0.00    -0.412 A  
HETATM   25  C   UNL     1     -10.001  20.762  67.482  1.00  0.00    -0.337 A  
HETATM   26  C   UNL     1     -10.362  18.734  66.215  1.00  0.00    -0.497 A  
HETATM   27  C   UNL     1     -10.206  20.124  66.263  1.00  0.00    -0.541 A  
ENDBRANCH  21  22
ENDBRANCH  10  21
ENDBRANCH   7  10
ENDBRANCH   6   7
ENDBRANCH   5   6
BRANCH   5  28
HETATM   28  S   UNL     1     -11.791  12.387  67.071  1.00  0.00    -0.204 S  
HETATM   29  O   UNL     1     -12.886  12.745  66.200  1.00  0.00    -0.126 OA 
HETATM   30  O   UNL     1     -11.546  11.000  67.424  1.00  0.00    -0.525 OA 
BRANCH  28  31
HETATM   31  C   UNL     1     -12.023  13.296  68.574  1.00  0.00    -0.304 A  
HETATM   32  N   UNL     1     -12.508  15.463  72.144  1.00  0.00    -0.342 NA 
HETATM   33  H2  UNL     1     -11.666  15.281  72.688  1.00  0.00     0.000 HD 
HETATM   34  H1  UNL     1     -12.665  16.471  72.121  1.00  0.00     0.000 HD 
HETATM   35  C   UNL     1     -12.025  12.626  69.799  1.00  0.00    -0.365 A  
HETATM   36  C   UNL     1     -12.214  13.352  70.982  1.00  0.00    -0.312 A  
HETATM   37  C   UNL     1     -12.147  14.691  68.538  1.00  0.00    -0.229 A  
HETATM   38  C   UNL     1     -12.328  15.404  69.727  1.00  0.00    -0.288 A  
HETATM   39  C   UNL     1     -12.428  14.735  70.951  1.00  0.00    -0.328 A  
ENDBRANCH  28  31
ENDBRANCH   5  28
ENDBRANCH   4   5
TORSDOF 11
ENDMDL
MODEL      191
REMARK 921   NORMALIZED FREE ENERGY PREDICTED BY IDOCK:   -5.27 KCAL/MOL
REMARK 922        TOTAL FREE ENERGY PREDICTED BY IDOCK:  -10.42 KCAL/MOL
REMARK 923 INTER-LIGAND FREE ENERGY PREDICTED BY IDOCK:   -9.12 KCAL/MOL
REMARK 924 INTRA-LIGAND FREE ENERGY PREDICTED BY IDOCK:   -1.30 KCAL/MOL
REMARK 927      BINDING AFFINITY PREDICTED BY RF-SCORE:    0.00 PKD
ROOT
HETATM    1  C   UNL     1     -12.078  13.328  64.380  1.00  0.00    -0.471 C  
HETATM    2  C   UNL     1     -10.985  12.319  64.735  1.00  0.00    -0.346 C  
HETATM    3  C   UNL     1     -10.298  11.882  63.426  1.00  0.00    -0.481 C  
HETATM    4  C   UNL     1      -9.924  12.879  65.704  1.00  0.00    -0.235 C  
ENDROOT
BRANCH   4   5
HETATM    5  N   UNL     1     -10.412  13.379  67.059  1.00  0.00    -0.256 N  
BRANCH   5   6
HETATM    6  C   UNL     1     -10.765  12.215  68.016  1.00  0.00    -0.213 C  
BRANCH   6   7
HETATM    7  C   UNL     1      -9.799  10.979  68.007  1.00  0.00    -0.171 C  
HETATM    8  H   UNL     1      -8.265  10.385  69.062  1.00  0.00     0.000 HD 
HETATM    9  O   UNL     1      -8.850  11.133  69.068  1.00  0.00    -0.124 OA 
BRANCH   7  10
HETATM   10  C   UNL     1     -10.549   9.597  68.083  1.00  0.00    -0.226 C  
BRANCH  10  11
HETATM   11  N   UNL     1     -10.287   8.730  66.917  1.00  0.00    -0.282 N  
HETATM   12  O   UNL     1      -8.145   8.207  67.543  1.00  0.00    -0.119 OA 
HETATM   13  H   UNL     1     -11.021   8.587  66.223  1.00  0.00     0.000 HD 
HETATM   14  C   UNL     1      -9.072   8.112  66.753  1.00  0.00    -0.157 C  
BRANCH  14  15
HETATM   15  O   UNL     1      -9.018   7.404  65.588  1.00  0.00    -0.089 OA 
BRANCH  15  16
HETATM   16  C   UNL     1      -8.630   6.028  65.763  1.00  0.00    -0.155 C  
HETATM   17  C   UNL     1      -9.815   5.142  66.091  1.00  0.00    -0.204 C  
HETATM   18  O   UNL     1      -8.537   4.008  64.469  1.00  0.00    -0.105 OA 
HETATM   19  C   UNL     1      -9.340   3.781  65.631  1.00  0.00    -0.162 C  
HETATM   20  C   UNL     1      -8.097   5.377  64.488  1.00  0.00    -0.122 C  
ENDBRANCH  15  16
ENDBRANCH  14  15
ENDBRANCH  10  11
BRANCH  10  21
HETATM   21  C   UNL     1     -10.443   8.822  69.424  1.00  0.00    -0.228 C  
BRANCH  21  22
HETATM   22  C   UNL     1     -11.511   8.969  70.489  1.00  0.00    -0.248 A  
HETATM   23  C   UNL     1     -13.044  10.390  71.738  1.00  0.00    -0.567 A  
HETATM   24  C   UNL     1     -11.936  10.242  70.896  1.00  0.00    -0.473 A  
HETATM   25  C   UNL     1     -13.734   9.271  72.198  1.00  0.00    -0.517 A  
HETATM   26  C   UNL     1     -12.207   7.849  70.974  1.00  0.00    -0.214 A  
HETATM   27  C   UNL     1     -13.310   8.000  71.823  1.00  0.00    -0.370 A  
ENDBRANCH  21  22
ENDBRANCH  10  21
ENDBRANCH   7  10
ENDBRANCH   6   7
ENDBRANCH   5   6
BRANCH   5  28
HETATM   28  S   UNL     1      -9.217  14.448  67.787  1.00  0.00    -0.199 S  
HETATM   29  O   UNL     1      -9.387  14.445  69.221  1.00  0.00    -0.008 OA 
HETATM   30  O   UNL     1      -7.946  14.080  67.190  1.00  0.00    -0.157 OA 
BRANCH  28  31
HETATM   31  C   UNL     1      -9.623  16.081  67.234  1.00  0.00    -0.225 A  
HETATM   32  N   UNL     1     -10.530  19.958  65.884  1.00  0.00    -0.505 NA 
HETATM   33  H2  UNL     1      -9.630  20.424  65.772  1.00  0.00     0.000 HD 
HETATM   34  H1  UNL     1     -11.072  20.096  65.031  1.00  0.00     0.000 HD 
HETATM   35  C   UNL     1      -9.227  17.189  67.985  1.00  0.00    -0.250 A  
HETATM   36  C   UNL     1      -9.557  18.477  67.542  1.00  0.00    -0.303 A  
HETATM   37  C   UNL     1     -10.290  16.263  66.015  1.00  0.00    -0.363 A  
HETATM   38  C   UNL     1     -10.606  17.554  65.581  1.00  0.00    -0.144 A  
HETATM   39  C   UNL     1     -10.301  18.666  66.371  1.00  0.00    -0.432 A  
ENDBRANCH  28  31
ENDBRANCH   5  28
ENDBRANCH   4   5
TORSDOF 11
ENDMDL
MODEL      192
REMARK 921   NORMALIZED FREE ENERGY PREDICTED BY IDOCK:   -5.24 KCAL/MOL
REMARK 922        TOTAL FREE ENERGY PREDICTED BY IDOCK:  -10.37 KCAL/MOL
REMARK 923 INTER-LIGAND FREE ENERGY PREDICTED BY IDOCK:   -8.75 KCAL/MOL
REMARK 924 INTRA-LIGAND FREE ENERGY PREDICTED BY IDOCK:   -1.63 KCAL/MOL
REMARK 927      BINDING AFFINITY PREDICTED BY RF-SCORE:    0.00 PKD
ROOT
HETATM    1  C   UNL     1     -10.429   7.666  66.851  1.00  0.00    -0.388 C  
HETATM    2  C   UNL     1      -9.080   7.570  67.565  1.00  0.00    -0.130 C  
HETATM    3  C   UNL     1      -8.268   6.440  66.901  1.00  0.00    -0.110 C  
HETATM    4  C   UNL     1      -8.265   8.877  67.518  1.00  0.00    -0.109 C  
ENDROOT
BRANCH   4   5
HETATM    5  N   UNL     1      -8.908  10.122  68.120  1.00  0.00    -0.125 N  
BRANCH   5   6
HETATM    6  C   UNL     1      -8.716  10.193  69.654  1.00  0.00    -0.158 C  
BRANCH   6   7
HETATM    7  C   UNL     1      -8.656   8.824  70.419  1.00  0.00    -0.163 C  
HETATM    8  H   UNL     1      -7.289   7.810  71.380  1.00  0.00     0.000 HD 
HETATM    9  O   UNL     1      -7.326   8.639  70.917  1.00  0.00    -0.059 OA 
BRANCH   7  10
HETATM   10  C   UNL     1      -9.734   8.695  71.558  1.00  0.00    -0.263 C  
BRANCH  10  11
HETATM   11  N   UNL     1     -10.799   9.715  71.467  1.00  0.00    -0.261 N  
HETATM   12  O   UNL     1     -12.399   8.256  70.714  1.00  0.00    -0.119 OA 
HETATM   13  H   UNL     1     -10.594  10.679  71.732  1.00  0.00     0.000 HD 
HETATM   14  C   UNL     1     -12.058   9.387  71.030  1.00  0.00    -0.298 C  
BRANCH  14  15
HETATM   15  O   UNL     1     -12.872  10.479  70.968  1.00  0.00    -0.359 OA 
BRANCH  15  16
HETATM   16  C   UNL     1     -12.175  11.709  70.694  1.00  0.00    -0.366 C  
HETATM   17  C   UNL     1     -12.105  12.002  69.209  1.00  0.00    -0.249 C  
HETATM   18  O   UNL     1     -12.691  14.016  70.282  1.00  0.00    -0.318 OA 
HETATM   19  C   UNL     1     -11.931  13.505  69.183  1.00  0.00    -0.333 C  
HETATM   20  C   UNL     1     -12.890  12.950  71.224  1.00  0.00    -0.270 C  
ENDBRANCH  15  16
ENDBRANCH  14  15
ENDBRANCH  10  11
BRANCH  10  21
HETATM   21  C   UNL     1     -10.306   7.276  71.817  1.00  0.00    -0.215 C  
BRANCH  21  22
HETATM   22  C   UNL     1      -9.694   6.061  71.147  1.00  0.00    -0.206 A  
HETATM   23  C   UNL     1      -8.050   4.265  71.163  1.00  0.00    -0.077 A  
HETATM   24  C   UNL     1      -8.520   5.487  71.656  1.00  0.00    -0.131 A  
HETATM   25  C   UNL     1      -8.736   3.606  70.145  1.00  0.00    -0.122 A  
HETATM   26  C   UNL     1     -10.365   5.393  70.110  1.00  0.00    -0.361 A  
HETATM   27  C   UNL     1      -9.889   4.174  69.613  1.00  0.00    -0.208 A  
ENDBRANCH  21  22
ENDBRANCH  10  21
ENDBRANCH   7  10
ENDBRANCH   6   7
ENDBRANCH   5   6
BRANCH   5  28
HETATM   28  S   UNL     1      -8.283  11.574  67.343  1.00  0.00    -0.156 S  
HETATM   29  O   UNL     1      -8.293  12.663  68.292  1.00  0.00    -0.166 OA 
HETATM   30  O   UNL     1      -7.051  11.170  66.690  1.00  0.00    -0.133 OA 
BRANCH  28  31
HETATM   31  C   UNL     1      -9.453  11.994  66.081  1.00  0.00    -0.232 A  
HETATM   32  N   UNL     1     -12.280  12.978  63.129  1.00  0.00    -0.855 NA 
HETATM   33  H2  UNL     1     -13.088  12.386  63.319  1.00  0.00     0.000 HD 
HETATM   34  H1  UNL     1     -12.604  13.939  63.022  1.00  0.00     0.000 HD 
HETATM   35  C   UNL     1      -9.913  11.010  65.204  1.00  0.00    -0.333 A  
HETATM   36  C   UNL     1     -10.835  11.352  64.206  1.00  0.00    -0.416 A  
HETATM   37  C   UNL     1      -9.959  13.298  66.000  1.00  0.00    -0.297 A  
HETATM   38  C   UNL     1     -10.884  13.624  65.003  1.00  0.00    -0.358 A  
HETATM   39  C   UNL     1     -11.280  12.671  64.059  1.00  0.00    -0.406 A  
ENDBRANCH  28  31
ENDBRANCH   5  28
ENDBRANCH   4   5
TORSDOF 11
ENDMDL
MODEL      193
REMARK 921   NORMALIZED FREE ENERGY PREDICTED BY IDOCK:   -5.23 KCAL/MOL
REMARK 922        TOTAL FREE ENERGY PREDICTED BY IDOCK:  -10.37 KCAL/MOL
REMARK 923 INTER-LIGAND FREE ENERGY PREDICTED BY IDOCK:   -9.75 KCAL/MOL
REMARK 924 INTRA-LIGAND FREE ENERGY PREDICTED BY IDOCK:   -0.62 KCAL/MOL
REMARK 927      BINDING AFFINITY PREDICTED BY RF-SCORE:    0.00 PKD
ROOT
HETATM    1  C   UNL     1     -10.294  13.335  64.606  1.00  0.00    -0.394 C  
HETATM    2  C   UNL     1     -11.266  12.154  64.647  1.00  0.00    -0.374 C  
HETATM    3  C   UNL     1     -11.927  12.034  63.259  1.00  0.00    -0.477 C  
HETATM    4  C   UNL     1     -10.592  10.816  65.008  1.00  0.00    -0.173 C  
ENDROOT
BRANCH   4   5
HETATM    5  N   UNL     1      -9.868  10.738  66.347  1.00  0.00    -0.201 N  
BRANCH   5   6
HETATM    6  C   UNL     1     -10.802  10.261  67.487  1.00  0.00    -0.298 C  
BRANCH   6   7
HETATM    7  C   UNL     1     -11.385  11.371  68.430  1.00  0.00    -0.281 C  
HETATM    8  H   UNL     1     -12.591  12.894  68.229  1.00  0.00     0.000 HD 
HETATM    9  O   UNL     1     -12.239  12.222  67.657  1.00  0.00    -0.442 OA 
BRANCH   7  10
HETATM   10  C   UNL     1     -12.118  10.793  69.697  1.00  0.00    -0.289 C  
BRANCH  10  11
HETATM   11  N   UNL     1     -11.841   9.361  69.924  1.00  0.00    -0.439 N  
HETATM   12  O   UNL     1     -13.578   9.060  71.390  1.00  0.00    -0.346 OA 
HETATM   13  H   UNL     1     -11.063   8.916  69.437  1.00  0.00     0.000 HD 
HETATM   14  C   UNL     1     -12.615   8.618  70.782  1.00  0.00     0.171 C  
BRANCH  14  15
HETATM   15  O   UNL     1     -12.160   7.337  70.892  1.00  0.00    -0.320 OA 
BRANCH  15  16
HETATM   16  C   UNL     1     -11.793   6.963  72.234  1.00  0.00    -0.235 C  
HETATM   17  C   UNL     1     -10.987   5.681  72.265  1.00  0.00    -0.312 C  
HETATM   18  O   UNL     1      -9.922   7.199  73.718  1.00  0.00    -0.278 OA 
HETATM   19  C   UNL     1     -10.224   5.809  73.566  1.00  0.00    -0.213 C  
HETATM   20  C   UNL     1     -10.838   7.949  72.904  1.00  0.00    -0.386 C  
ENDBRANCH  15  16
ENDBRANCH  14  15
ENDBRANCH  10  11
BRANCH  10  21
HETATM   21  C   UNL     1     -12.007  11.625  71.003  1.00  0.00    -0.038 C  
BRANCH  21  22
HETATM   22  C   UNL     1     -12.656  12.991  71.108  1.00  0.00    -0.388 A  
HETATM   23  C   UNL     1     -14.239  14.481  72.204  1.00  0.00    -0.619 A  
HETATM   24  C   UNL     1     -13.751  13.193  71.959  1.00  0.00    -0.486 A  
HETATM   25  C   UNL     1     -13.650  15.585  71.591  1.00  0.00    -0.575 A  
HETATM   26  C   UNL     1     -12.083  14.112  70.484  1.00  0.00    -0.420 A  
HETATM   27  C   UNL     1     -12.578  15.399  70.724  1.00  0.00    -0.497 A  
ENDBRANCH  21  22
ENDBRANCH  10  21
ENDBRANCH   7  10
ENDBRANCH   6   7
ENDBRANCH   5   6
BRANCH   5  28
HETATM   28  S   UNL     1      -8.451   9.699  66.222  1.00  0.00    -0.120 S  
HETATM   29  O   UNL     1      -8.187   9.421  64.830  1.00  0.00    -0.128 OA 
HETATM   30  O   UNL     1      -7.438  10.315  67.061  1.00  0.00    -0.091 OA 
BRANCH  28  31
HETATM   31  C   UNL     1      -8.909   8.159  66.967  1.00  0.00    -0.132 A  
HETATM   32  N   UNL     1      -9.958   4.470  68.690  1.00  0.00    -0.094 NA 
HETATM   33  H2  UNL     1      -9.990   3.808  67.916  1.00  0.00     0.000 HD 
HETATM   34  H1  UNL     1      -9.390   4.066  69.435  1.00  0.00     0.000 HD 
HETATM   35  C   UNL     1     -10.073   7.506  66.557  1.00  0.00    -0.194 A  
HETATM   36  C   UNL     1     -10.429   6.290  67.155  1.00  0.00    -0.327 A  
HETATM   37  C   UNL     1      -8.075   7.568  67.926  1.00  0.00    -0.119 A  
HETATM   38  C   UNL     1      -8.440   6.351  68.510  1.00  0.00    -0.119 A  
HETATM   39  C   UNL     1      -9.650   5.735  68.177  1.00  0.00    -0.116 A  
ENDBRANCH  28  31
ENDBRANCH   5  28
ENDBRANCH   4   5
TORSDOF 11
ENDMDL
MODEL      194
REMARK 921   NORMALIZED FREE ENERGY PREDICTED BY IDOCK:   -5.22 KCAL/MOL
REMARK 922        TOTAL FREE ENERGY PREDICTED BY IDOCK:  -10.34 KCAL/MOL
REMARK 923 INTER-LIGAND FREE ENERGY PREDICTED BY IDOCK:  -10.62 KCAL/MOL
REMARK 924 INTRA-LIGAND FREE ENERGY PREDICTED BY IDOCK:    0.27 KCAL/MOL
REMARK 927      BINDING AFFINITY PREDICTED BY RF-SCORE:    0.00 PKD
ROOT
HETATM    1  C   UNL     1      -9.971  10.404  65.056  1.00  0.00    -0.399 C  
HETATM    2  C   UNL     1     -10.123  10.162  66.559  1.00  0.00    -0.296 C  
HETATM    3  C   UNL     1      -9.361   8.869  66.912  1.00  0.00    -0.213 C  
HETATM    4  C   UNL     1      -9.589  11.320  67.424  1.00  0.00    -0.169 C  
ENDROOT
BRANCH   4   5
HETATM    5  N   UNL     1     -10.213  12.695  67.213  1.00  0.00    -0.223 N  
BRANCH   5   6
HETATM    6  C   UNL     1     -10.159  13.137  65.730  1.00  0.00    -0.285 C  
BRANCH   6   7
HETATM    7  C   UNL     1      -9.798  14.640  65.458  1.00  0.00    -0.292 C  
HETATM    8  H   UNL     1     -10.795  16.291  65.146  1.00  0.00     0.000 HD 
HETATM    9  O   UNL     1     -11.014  15.381  65.311  1.00  0.00    -0.353 OA 
BRANCH   7  10
HETATM   10  C   UNL     1      -8.854  15.265  66.551  1.00  0.00    -0.300 C  
BRANCH  10  11
HETATM   11  N   UNL     1      -7.856  14.308  67.071  1.00  0.00    -0.353 N  
HETATM   12  O   UNL     1      -6.366  15.923  67.726  1.00  0.00    -0.125 OA 
HETATM   13  H   UNL     1      -8.049  13.308  67.027  1.00  0.00     0.000 HD 
HETATM   14  C   UNL     1      -6.672  14.746  67.611  1.00  0.00    -0.176 C  
BRANCH  14  15
HETATM   15  O   UNL     1      -5.870  13.705  67.980  1.00  0.00    -0.108 OA 
BRANCH  15  16
HETATM   16  C   UNL     1      -6.476  12.815  68.936  1.00  0.00    -0.091 C  
HETATM   17  C   UNL     1      -6.217  11.360  68.600  1.00  0.00    -0.048 C  
HETATM   18  O   UNL     1      -5.854  11.608  70.915  1.00  0.00    -0.340 OA 
HETATM   19  C   UNL     1      -6.363  10.685  69.946  1.00  0.00    -0.110 C  
HETATM   20  C   UNL     1      -5.879  12.924  70.338  1.00  0.00    -0.152 C  
ENDBRANCH  15  16
ENDBRANCH  14  15
ENDBRANCH  10  11
BRANCH  10  21
HETATM   21  C   UNL     1      -8.225  16.644  66.220  1.00  0.00    -0.365 C  
BRANCH  21  22
HETATM   22  C   UNL     1      -8.839  17.923  66.754  1.00  0.00    -0.271 A  
HETATM   23  C   UNL     1      -8.684  20.322  67.136  1.00  0.00    -0.429 A  
HETATM   24  C   UNL     1      -8.081  19.100  66.821  1.00  0.00    -0.285 A  
HETATM   25  C   UNL     1     -10.050  20.385  67.404  1.00  0.00    -0.500 A  
HETATM   26  C   UNL     1     -10.212  18.000  67.043  1.00  0.00    -0.367 A  
HETATM   27  C   UNL     1     -10.812  19.222  67.365  1.00  0.00    -0.554 A  
ENDBRANCH  21  22
ENDBRANCH  10  21
ENDBRANCH   7  10
ENDBRANCH   6   7
ENDBRANCH   5   6
BRANCH   5  28
HETATM   28  S   UNL     1     -11.869  12.718  67.813  1.00  0.00    -0.280 S  
HETATM   29  O   UNL     1     -12.733  13.281  66.803  1.00  0.00    -0.115 OA 
HETATM   30  O   UNL     1     -12.113  11.388  68.341  1.00  0.00    -0.575 OA 
BRANCH  28  31
HETATM   31  C   UNL     1     -11.877  13.851  69.175  1.00  0.00    -0.358 A  
HETATM   32  N   UNL     1     -11.835  16.520  72.423  1.00  0.00    -0.586 NA 
HETATM   33  H2  UNL     1     -11.275  16.064  73.142  1.00  0.00     0.000 HD 
HETATM   34  H1  UNL     1     -11.493  17.474  72.305  1.00  0.00     0.000 HD 
HETATM   35  C   UNL     1     -12.386  13.449  70.411  1.00  0.00    -0.382 A  
HETATM   36  C   UNL     1     -12.393  14.354  71.482  1.00  0.00    -0.427 A  
HETATM   37  C   UNL     1     -11.322  15.129  69.027  1.00  0.00    -0.307 A  
HETATM   38  C   UNL     1     -11.330  16.019  70.105  1.00  0.00    -0.369 A  
HETATM   39  C   UNL     1     -11.923  15.662  71.321  1.00  0.00    -0.415 A  
ENDBRANCH  28  31
ENDBRANCH   5  28
ENDBRANCH   4   5
TORSDOF 11
ENDMDL
MODEL      195
REMARK 921   NORMALIZED FREE ENERGY PREDICTED BY IDOCK:   -5.21 KCAL/MOL
REMARK 922        TOTAL FREE ENERGY PREDICTED BY IDOCK:  -10.33 KCAL/MOL
REMARK 923 INTER-LIGAND FREE ENERGY PREDICTED BY IDOCK:  -10.37 KCAL/MOL
REMARK 924 INTRA-LIGAND FREE ENERGY PREDICTED BY IDOCK:    0.03 KCAL/MOL
REMARK 927      BINDING AFFINITY PREDICTED BY RF-SCORE:    0.00 PKD
ROOT
HETATM    1  C   UNL     1     -10.190  12.212  64.681  1.00  0.00    -0.312 C  
HETATM    2  C   UNL     1     -11.195  13.298  64.294  1.00  0.00    -0.417 C  
HETATM    3  C   UNL     1     -12.253  12.661  63.370  1.00  0.00    -0.610 C  
HETATM    4  C   UNL     1     -11.898  13.943  65.504  1.00  0.00    -0.362 C  
ENDROOT
BRANCH   4   5
HETATM    5  N   UNL     1     -11.014  14.620  66.546  1.00  0.00    -0.313 N  
BRANCH   5   6
HETATM    6  C   UNL     1     -10.054  13.620  67.233  1.00  0.00    -0.239 C  
BRANCH   6   7
HETATM    7  C   UNL     1     -10.573  12.936  68.547  1.00  0.00    -0.253 C  
HETATM    8  H   UNL     1     -11.904  13.351  69.916  1.00  0.00     0.000 HD 
HETATM    9  O   UNL     1     -11.590  13.765  69.120  1.00  0.00    -0.272 OA 
BRANCH   7  10
HETATM   10  C   UNL     1     -11.069  11.459  68.330  1.00  0.00    -0.242 C  
BRANCH  10  11
HETATM   11  N   UNL     1      -9.966  10.478  68.282  1.00  0.00    -0.155 N  
HETATM   12  O   UNL     1     -10.749   9.401  66.415  1.00  0.00    -0.064 OA 
HETATM   13  H   UNL     1      -9.226  10.519  68.983  1.00  0.00     0.000 HD 
HETATM   14  C   UNL     1      -9.921   9.512  67.307  1.00  0.00    -0.189 C  
BRANCH  14  15
HETATM   15  O   UNL     1      -8.855   8.676  67.473  1.00  0.00    -0.133 OA 
BRANCH  15  16
HETATM   16  C   UNL     1      -8.832   8.011  68.751  1.00  0.00    -0.138 C  
HETATM   17  C   UNL     1      -9.962   7.012  68.891  1.00  0.00    -0.160 C  
HETATM   18  O   UNL     1      -8.012   5.964  69.697  1.00  0.00    -0.098 OA 
HETATM   19  C   UNL     1      -9.421   6.054  69.930  1.00  0.00    -0.151 C  
HETATM   20  C   UNL     1      -7.604   7.126  68.957  1.00  0.00    -0.100 C  
ENDBRANCH  15  16
ENDBRANCH  14  15
ENDBRANCH  10  11
BRANCH  10  21
HETATM   21  C   UNL     1     -12.239  10.979  69.231  1.00  0.00    -0.280 C  
BRANCH  21  22
HETATM   22  C   UNL     1     -11.967  10.193  70.498  1.00  0.00    -0.400 A  
HETATM   23  C   UNL     1     -12.802   8.862  72.358  1.00  0.00    -0.446 A  
HETATM   24  C   UNL     1     -13.029   9.740  71.293  1.00  0.00    -0.470 A  
HETATM   25  C   UNL     1     -11.509   8.433  72.653  1.00  0.00    -0.359 A  
HETATM   26  C   UNL     1     -10.668   9.765  70.818  1.00  0.00    -0.393 A  
HETATM   27  C   UNL     1     -10.441   8.892  71.889  1.00  0.00    -0.415 A  
ENDBRANCH  21  22
ENDBRANCH  10  21
ENDBRANCH   7  10
ENDBRANCH   6   7
ENDBRANCH   5   6
BRANCH   5  28
HETATM   28  S   UNL     1     -10.118  15.951  65.820  1.00  0.00    -0.369 S  
HETATM   29  O   UNL     1      -8.722  15.591  65.730  1.00  0.00    -0.030 OA 
HETATM   30  O   UNL     1     -10.865  16.327  64.634  1.00  0.00    -0.687 OA 
BRANCH  28  31
HETATM   31  C   UNL     1     -10.220  17.292  66.973  1.00  0.00    -0.320 A  
HETATM   32  N   UNL     1     -10.528  20.463  69.717  1.00  0.00    -0.448 NA 
HETATM   33  H2  UNL     1     -11.461  20.850  69.580  1.00  0.00     0.000 HD 
HETATM   34  H1  UNL     1     -10.390  20.300  70.714  1.00  0.00     0.000 HD 
HETATM   35  C   UNL     1     -10.459  18.589  66.513  1.00  0.00    -0.435 A  
HETATM   36  C   UNL     1     -10.533  19.644  67.432  1.00  0.00    -0.596 A  
HETATM   37  C   UNL     1     -10.119  17.044  68.349  1.00  0.00    -0.302 A  
HETATM   38  C   UNL     1     -10.202  18.106  69.255  1.00  0.00    -0.013 A  
HETATM   39  C   UNL     1     -10.344  19.421  68.801  1.00  0.00    -0.198 A  
ENDBRANCH  28  31
ENDBRANCH   5  28
ENDBRANCH   4   5
TORSDOF 11
ENDMDL
MODEL      196
REMARK 921   NORMALIZED FREE ENERGY PREDICTED BY IDOCK:   -5.21 KCAL/MOL
REMARK 922        TOTAL FREE ENERGY PREDICTED BY IDOCK:  -10.33 KCAL/MOL
REMARK 923 INTER-LIGAND FREE ENERGY PREDICTED BY IDOCK:   -8.42 KCAL/MOL
REMARK 924 INTRA-LIGAND FREE ENERGY PREDICTED BY IDOCK:   -1.91 KCAL/MOL
REMARK 927      BINDING AFFINITY PREDICTED BY RF-SCORE:    0.00 PKD
ROOT
HETATM    1  C   UNL     1      -7.222  10.898  66.545  1.00  0.00    -0.142 C  
HETATM    2  C   UNL     1      -7.785  11.723  67.702  1.00  0.00    -0.137 C  
HETATM    3  C   UNL     1      -6.608  12.444  68.390  1.00  0.00    -0.065 C  
HETATM    4  C   UNL     1      -8.833  12.765  67.262  1.00  0.00    -0.198 C  
ENDROOT
BRANCH   4   5
HETATM    5  N   UNL     1     -10.075  12.245  66.548  1.00  0.00    -0.212 N  
BRANCH   5   6
HETATM    6  C   UNL     1     -10.752  11.089  67.323  1.00  0.00    -0.265 C  
BRANCH   6   7
HETATM    7  C   UNL     1     -10.754   9.683  66.628  1.00  0.00    -0.032 C  
HETATM    8  H   UNL     1     -10.135   8.957  64.923  1.00  0.00     0.000 HD 
HETATM    9  O   UNL     1     -10.134   9.808  65.343  1.00  0.00    -0.305 OA 
BRANCH   7  10
HETATM   10  C   UNL     1     -10.086   8.554  67.497  1.00  0.00    -0.221 C  
BRANCH  10  11
HETATM   11  N   UNL     1     -10.764   8.342  68.792  1.00  0.00    -0.413 N  
HETATM   12  O   UNL     1      -9.026   9.148  70.052  1.00  0.00    -0.157 OA 
HETATM   13  H   UNL     1     -11.707   7.954  68.808  1.00  0.00     0.000 HD 
HETATM   14  C   UNL     1     -10.143   8.659  69.976  1.00  0.00    -0.189 C  
BRANCH  14  15
HETATM   15  O   UNL     1     -10.915   8.336  71.053  1.00  0.00    -0.235 OA 
BRANCH  15  16
HETATM   16  C   UNL     1     -10.497   7.135  71.729  1.00  0.00    -0.197 C  
HETATM   17  C   UNL     1     -10.479   7.308  73.234  1.00  0.00    -0.416 C  
HETATM   18  O   UNL     1     -11.496   5.230  72.793  1.00  0.00    -0.290 OA 
HETATM   19  C   UNL     1     -10.633   5.886  73.726  1.00  0.00    -0.254 C  
HETATM   20  C   UNL     1     -11.468   5.969  71.560  1.00  0.00    -0.216 C  
ENDBRANCH  15  16
ENDBRANCH  14  15
ENDBRANCH  10  11
BRANCH  10  21
HETATM   21  C   UNL     1      -9.772   7.216  66.776  1.00  0.00    -0.252 C  
BRANCH  21  22
HETATM   22  C   UNL     1      -8.339   6.808  66.493  1.00  0.00    -0.121 A  
HETATM   23  C   UNL     1      -6.341   6.995  65.115  1.00  0.00    -0.037 A  
HETATM   24  C   UNL     1      -7.710   7.206  65.305  1.00  0.00    -0.114 A  
HETATM   25  C   UNL     1      -5.581   6.370  66.103  1.00  0.00    -0.014 A  
HETATM   26  C   UNL     1      -7.564   6.165  67.472  1.00  0.00    -0.093 A  
HETATM   27  C   UNL     1      -6.195   5.948  67.278  1.00  0.00    -0.033 A  
ENDBRANCH  21  22
ENDBRANCH  10  21
ENDBRANCH   7  10
ENDBRANCH   6   7
ENDBRANCH   5   6
BRANCH   5  28
HETATM   28  S   UNL     1     -11.214  13.558  66.261  1.00  0.00    -0.303 S  
HETATM   29  O   UNL     1     -10.639  14.490  65.319  1.00  0.00    -0.331 OA 
HETATM   30  O   UNL     1     -12.489  12.920  65.988  1.00  0.00    -0.509 OA 
BRANCH  28  31
HETATM   31  C   UNL     1     -11.359  14.422  67.801  1.00  0.00    -0.312 A  
HETATM   32  N   UNL     1     -11.764  16.495  71.436  1.00  0.00    -0.613 NA 
HETATM   33  H2  UNL     1     -12.278  17.346  71.207  1.00  0.00     0.000 HD 
HETATM   34  H1  UNL     1     -12.215  16.053  72.237  1.00  0.00     0.000 HD 
HETATM   35  C   UNL     1     -10.826  15.705  67.932  1.00  0.00    -0.306 A  
HETATM   36  C   UNL     1     -10.942  16.379  69.155  1.00  0.00    -0.324 A  
HETATM   37  C   UNL     1     -12.059  13.841  68.867  1.00  0.00    -0.348 A  
HETATM   38  C   UNL     1     -12.173  14.528  70.080  1.00  0.00    -0.399 A  
HETATM   39  C   UNL     1     -11.560  15.773  70.255  1.00  0.00    -0.365 A  
ENDBRANCH  28  31
ENDBRANCH   5  28
ENDBRANCH   4   5
TORSDOF 11
ENDMDL
MODEL      197
REMARK 921   NORMALIZED FREE ENERGY PREDICTED BY IDOCK:   -5.20 KCAL/MOL
REMARK 922        TOTAL FREE ENERGY PREDICTED BY IDOCK:  -10.31 KCAL/MOL
REMARK 923 INTER-LIGAND FREE ENERGY PREDICTED BY IDOCK:   -9.79 KCAL/MOL
REMARK 924 INTRA-LIGAND FREE ENERGY PREDICTED BY IDOCK:   -0.52 KCAL/MOL
REMARK 927      BINDING AFFINITY PREDICTED BY RF-SCORE:    0.00 PKD
ROOT
HETATM    1  C   UNL     1     -10.299  13.696  64.852  1.00  0.00    -0.408 C  
HETATM    2  C   UNL     1     -10.573  15.119  65.344  1.00  0.00    -0.410 C  
HETATM    3  C   UNL     1     -11.519  15.798  64.333  1.00  0.00    -0.268 C  
HETATM    4  C   UNL     1     -11.205  15.172  66.748  1.00  0.00    -0.285 C  
ENDROOT
BRANCH   4   5
HETATM    5  N   UNL     1     -10.421  14.537  67.891  1.00  0.00    -0.240 N  
BRANCH   5   6
HETATM    6  C   UNL     1     -10.250  13.009  67.702  1.00  0.00    -0.216 C  
BRANCH   6   7
HETATM    7  C   UNL     1     -11.489  12.114  68.055  1.00  0.00    -0.319 C  
HETATM    8  H   UNL     1     -12.968  11.308  67.064  1.00  0.00     0.000 HD 
HETATM    9  O   UNL     1     -12.218  11.850  66.850  1.00  0.00    -0.493 OA 
BRANCH   7  10
HETATM   10  C   UNL     1     -11.109  10.791  68.816  1.00  0.00    -0.259 C  
BRANCH  10  11
HETATM   11  N   UNL     1      -9.751  10.306  68.494  1.00  0.00    -0.156 N  
HETATM   12  O   UNL     1     -10.474   8.525  67.244  1.00  0.00    -0.276 OA 
HETATM   13  H   UNL     1      -8.940  10.814  68.847  1.00  0.00     0.000 HD 
HETATM   14  C   UNL     1      -9.564   9.182  67.728  1.00  0.00    -0.146 C  
BRANCH  14  15
HETATM   15  O   UNL     1      -8.242   8.876  67.595  1.00  0.00    -0.109 OA 
BRANCH  15  16
HETATM   16  C   UNL     1      -7.931   7.501  67.893  1.00  0.00    -0.119 C  
HETATM   17  C   UNL     1      -6.467   7.188  67.661  1.00  0.00    -0.048 C  
HETATM   18  O   UNL     1      -7.062   6.210  69.720  1.00  0.00    -0.068 OA 
HETATM   19  C   UNL     1      -6.243   5.997  68.566  1.00  0.00    -0.032 C  
HETATM   20  C   UNL     1      -8.097   7.143  69.368  1.00  0.00    -0.130 C  
ENDBRANCH  15  16
ENDBRANCH  14  15
ENDBRANCH  10  11
BRANCH  10  21
HETATM   21  C   UNL     1     -11.394  10.760  70.341  1.00  0.00    -0.342 C  
BRANCH  21  22
HETATM   22  C   UNL     1     -12.092   9.572  70.974  1.00  0.00    -0.398 A  
HETATM   23  C   UNL     1     -14.138   8.534  71.789  1.00  0.00    -0.515 A  
HETATM   24  C   UNL     1     -13.431   9.669  71.377  1.00  0.00    -0.403 A  
HETATM   25  C   UNL     1     -13.514   7.288  71.819  1.00  0.00    -0.373 A  
HETATM   26  C   UNL     1     -11.472   8.312  71.025  1.00  0.00    -0.303 A  
HETATM   27  C   UNL     1     -12.179   7.179  71.445  1.00  0.00    -0.399 A  
ENDBRANCH  21  22
ENDBRANCH  10  21
ENDBRANCH   7  10
ENDBRANCH   6   7
ENDBRANCH   5   6
BRANCH   5  28
HETATM   28  S   UNL     1      -8.856  15.323  68.076  1.00  0.00    -0.172 S  
HETATM   29  O   UNL     1      -8.448  15.252  69.459  1.00  0.00    -0.247 OA 
HETATM   30  O   UNL     1      -8.016  14.778  67.025  1.00  0.00    -0.200 OA 
BRANCH  28  31
HETATM   31  C   UNL     1      -9.127  17.037  67.717  1.00  0.00    -0.228 A  
HETATM   32  N   UNL     1      -9.713  21.119  66.898  1.00  0.00    -0.446 NA 
HETATM   33  H2  UNL     1      -9.325  21.615  67.699  1.00  0.00     0.000 HD 
HETATM   34  H1  UNL     1      -9.335  21.536  66.047  1.00  0.00     0.000 HD 
HETATM   35  C   UNL     1      -9.891  17.817  68.586  1.00  0.00    -0.359 A  
HETATM   36  C   UNL     1     -10.104  19.171  68.292  1.00  0.00    -0.499 A  
HETATM   37  C   UNL     1      -8.528  17.622  66.593  1.00  0.00    -0.285 A  
HETATM   38  C   UNL     1      -8.743  18.975  66.315  1.00  0.00    -0.281 A  
HETATM   39  C   UNL     1      -9.585  19.744  67.125  1.00  0.00    -0.361 A  
ENDBRANCH  28  31
ENDBRANCH   5  28
ENDBRANCH   4   5
TORSDOF 11
ENDMDL
MODEL      198
REMARK 921   NORMALIZED FREE ENERGY PREDICTED BY IDOCK:   -5.19 KCAL/MOL
REMARK 922        TOTAL FREE ENERGY PREDICTED BY IDOCK:  -10.29 KCAL/MOL
REMARK 923 INTER-LIGAND FREE ENERGY PREDICTED BY IDOCK:   -8.34 KCAL/MOL
REMARK 924 INTRA-LIGAND FREE ENERGY PREDICTED BY IDOCK:   -1.96 KCAL/MOL
REMARK 927      BINDING AFFINITY PREDICTED BY RF-SCORE:    0.00 PKD
ROOT
HETATM    1  C   UNL     1      -8.621   6.306  67.696  1.00  0.00    -0.114 C  
HETATM    2  C   UNL     1     -10.111   6.620  67.551  1.00  0.00    -0.202 C  
HETATM    3  C   UNL     1     -10.755   5.498  66.711  1.00  0.00    -0.329 C  
HETATM    4  C   UNL     1     -10.849   6.733  68.899  1.00  0.00    -0.243 C  
ENDROOT
BRANCH   4   5
HETATM    5  N   UNL     1     -10.349   7.786  69.882  1.00  0.00    -0.218 N  
BRANCH   5   6
HETATM    6  C   UNL     1     -10.435   9.217  69.297  1.00  0.00    -0.221 C  
BRANCH   6   7
HETATM    7  C   UNL     1      -9.171  10.128  69.479  1.00  0.00    -0.204 C  
HETATM    8  H   UNL     1      -7.329   9.873  70.078  1.00  0.00     0.000 HD 
HETATM    9  O   UNL     1      -8.094   9.321  69.968  1.00  0.00    -0.102 OA 
BRANCH   7  10
HETATM   10  C   UNL     1      -8.774  10.915  68.176  1.00  0.00    -0.133 C  
BRANCH  10  11
HETATM   11  N   UNL     1      -9.758  10.765  67.084  1.00  0.00    -0.168 N  
HETATM   12  O   UNL     1      -8.182  10.543  65.434  1.00  0.00    -0.158 OA 
HETATM   13  H   UNL     1     -10.754  10.783  67.301  1.00  0.00     0.000 HD 
HETATM   14  C   UNL     1      -9.352  10.600  65.783  1.00  0.00    -0.186 C  
BRANCH  14  15
HETATM   15  O   UNL     1     -10.412  10.536  64.928  1.00  0.00    -0.301 OA 
BRANCH  15  16
HETATM   16  C   UNL     1     -11.269  11.692  64.976  1.00  0.00    -0.210 C  
HETATM   17  C   UNL     1     -10.556  12.947  64.515  1.00  0.00    -0.403 C  
HETATM   18  O   UNL     1     -12.680  12.949  63.495  1.00  0.00    -0.709 OA 
HETATM   19  C   UNL     1     -11.702  13.825  64.064  1.00  0.00    -0.328 C  
HETATM   20  C   UNL     1     -12.444  11.625  64.002  1.00  0.00    -0.059 C  
ENDBRANCH  15  16
ENDBRANCH  14  15
ENDBRANCH  10  11
BRANCH  10  21
HETATM   21  C   UNL     1      -8.330  12.391  68.363  1.00  0.00    -0.137 C  
BRANCH  21  22
HETATM   22  C   UNL     1      -9.204  13.529  67.875  1.00  0.00    -0.211 A  
HETATM   23  C   UNL     1     -11.198  14.901  68.138  1.00  0.00    -0.310 A  
HETATM   24  C   UNL     1     -10.464  13.751  68.447  1.00  0.00    -0.256 A  
HETATM   25  C   UNL     1     -10.691  15.840  67.242  1.00  0.00    -0.313 A  
HETATM   26  C   UNL     1      -8.713  14.477  66.961  1.00  0.00    -0.256 A  
HETATM   27  C   UNL     1      -9.452  15.623  66.647  1.00  0.00    -0.282 A  
ENDBRANCH  21  22
ENDBRANCH  10  21
ENDBRANCH   7  10
ENDBRANCH   6   7
ENDBRANCH   5   6
BRANCH   5  28
HETATM   28  S   UNL     1     -11.232   7.678  71.402  1.00  0.00    -0.251 S  
HETATM   29  O   UNL     1     -10.933   8.837  72.210  1.00  0.00    -0.359 OA 
HETATM   30  O   UNL     1     -12.601   7.359  71.039  1.00  0.00    -0.304 OA 
BRANCH  28  31
HETATM   31  C   UNL     1     -10.559   6.280  72.257  1.00  0.00    -0.213 A  
HETATM   32  N   UNL     1      -8.969   2.926  74.231  1.00  0.00    -0.078 NA 
HETATM   33  H2  UNL     1      -9.442   2.120  73.822  1.00  0.00     0.000 HD 
HETATM   34  H1  UNL     1      -7.964   2.747  74.222  1.00  0.00     0.000 HD 
HETATM   35  C   UNL     1     -11.403   5.432  72.977  1.00  0.00    -0.355 A  
HETATM   36  C   UNL     1     -10.861   4.331  73.654  1.00  0.00    -0.358 A  
HETATM   37  C   UNL     1      -9.191   5.993  72.164  1.00  0.00    -0.148 A  
HETATM   38  C   UNL     1      -8.664   4.887  72.840  1.00  0.00    -0.117 A  
HETATM   39  C   UNL     1      -9.483   4.086  73.642  1.00  0.00    -0.102 A  
ENDBRANCH  28  31
ENDBRANCH   5  28
ENDBRANCH   4   5
TORSDOF 11
ENDMDL
MODEL      199
REMARK 921   NORMALIZED FREE ENERGY PREDICTED BY IDOCK:   -5.18 KCAL/MOL
REMARK 922        TOTAL FREE ENERGY PREDICTED BY IDOCK:  -10.28 KCAL/MOL
REMARK 923 INTER-LIGAND FREE ENERGY PREDICTED BY IDOCK:   -8.85 KCAL/MOL
REMARK 924 INTRA-LIGAND FREE ENERGY PREDICTED BY IDOCK:   -1.43 KCAL/MOL
REMARK 927      BINDING AFFINITY PREDICTED BY RF-SCORE:    0.00 PKD
ROOT
HETATM    1  C   UNL     1     -11.141   9.609  68.095  1.00  0.00    -0.109 C  
HETATM    2  C   UNL     1     -11.071  10.991  68.746  1.00  0.00    -0.293 C  
HETATM    3  C   UNL     1     -11.868  10.937  70.065  1.00  0.00    -0.428 C  
HETATM    4  C   UNL     1      -9.633  11.460  69.040  1.00  0.00     0.014 C  
ENDROOT
BRANCH   4   5
HETATM    5  N   UNL     1      -8.678  11.568  67.856  1.00  0.00    -0.139 N  
BRANCH   5   6
HETATM    6  C   UNL     1      -8.395  13.039  67.468  1.00  0.00    -0.184 C  
BRANCH   6   7
HETATM    7  C   UNL     1      -9.015  14.143  68.395  1.00  0.00    -0.189 C  
HETATM    8  H   UNL     1      -8.326  15.491  69.630  1.00  0.00     0.000 HD 
HETATM    9  O   UNL     1      -7.950  14.823  69.069  1.00  0.00    -0.150 OA 
BRANCH   7  10
HETATM   10  C   UNL     1      -9.962  15.141  67.631  1.00  0.00    -0.229 C  
BRANCH  10  11
HETATM   11  N   UNL     1     -11.169  14.491  67.082  1.00  0.00    -0.321 N  
HETATM   12  O   UNL     1     -10.996  15.475  65.019  1.00  0.00    -0.402 OA 
HETATM   13  H   UNL     1     -11.702  13.848  67.667  1.00  0.00     0.000 HD 
HETATM   14  C   UNL     1     -11.584  14.739  65.797  1.00  0.00    -0.290 C  
BRANCH  14  15
HETATM   15  O   UNL     1     -12.745  14.085  65.506  1.00  0.00    -0.520 OA 
BRANCH  15  16
HETATM   16  C   UNL     1     -12.549  12.812  64.861  1.00  0.00    -0.470 C  
HETATM   17  C   UNL     1     -12.016  12.967  63.452  1.00  0.00    -0.612 C  
HETATM   18  O   UNL     1     -10.770  11.248  64.474  1.00  0.00    -0.332 OA 
HETATM   19  C   UNL     1     -11.331  11.639  63.216  1.00  0.00    -0.191 C  
HETATM   20  C   UNL     1     -11.465  11.957  65.514  1.00  0.00    -0.252 C  
ENDBRANCH  15  16
ENDBRANCH  14  15
ENDBRANCH  10  11
BRANCH  10  21
HETATM   21  C   UNL     1     -10.293  16.475  68.353  1.00  0.00    -0.294 C  
BRANCH  21  22
HETATM   22  C   UNL     1      -9.777  17.795  67.816  1.00  0.00    -0.285 A  
HETATM   23  C   UNL     1     -10.067  19.720  66.355  1.00  0.00    -0.600 A  
HETATM   24  C   UNL     1     -10.417  18.422  66.738  1.00  0.00    -0.415 A  
HETATM   25  C   UNL     1      -9.060  20.407  67.031  1.00  0.00    -0.459 A  
HETATM   26  C   UNL     1      -8.753  18.493  68.478  1.00  0.00    -0.352 A  
HETATM   27  C   UNL     1      -8.398  19.789  68.088  1.00  0.00    -0.326 A  
ENDBRANCH  21  22
ENDBRANCH  10  21
ENDBRANCH   7  10
ENDBRANCH   6   7
ENDBRANCH   5   6
BRANCH   5  28
HETATM   28  S   UNL     1      -7.178  10.709  68.194  1.00  0.00    -0.088 S  
HETATM   29  O   UNL     1      -6.500  10.428  66.951  1.00  0.00    -0.070 OA 
HETATM   30  O   UNL     1      -6.520  11.467  69.243  1.00  0.00    -0.075 OA 
BRANCH  28  31
HETATM   31  C   UNL     1      -7.656   9.144  68.874  1.00  0.00    -0.076 A  
HETATM   32  N   UNL     1      -8.853   5.449  70.483  1.00  0.00    -0.132 NA 
HETATM   33  H2  UNL     1      -9.695   5.648  71.023  1.00  0.00     0.000 HD 
HETATM   34  H1  UNL     1      -9.043   4.655  69.872  1.00  0.00     0.000 HD 
HETATM   35  C   UNL     1      -7.741   8.984  70.258  1.00  0.00    -0.098 A  
HETATM   36  C   UNL     1      -8.115   7.741  70.787  1.00  0.00    -0.102 A  
HETATM   37  C   UNL     1      -8.002   8.086  68.023  1.00  0.00    -0.128 A  
HETATM   38  C   UNL     1      -8.380   6.854  68.565  1.00  0.00    -0.121 A  
HETATM   39  C   UNL     1      -8.377   6.651  69.948  1.00  0.00    -0.132 A  
ENDBRANCH  28  31
ENDBRANCH   5  28
ENDBRANCH   4   5
TORSDOF 11
ENDMDL
MODEL      200
REMARK 921   NORMALIZED FREE ENERGY PREDICTED BY IDOCK:   -5.17 KCAL/MOL
REMARK 922        TOTAL FREE ENERGY PREDICTED BY IDOCK:  -10.26 KCAL/MOL
REMARK 923 INTER-LIGAND FREE ENERGY PREDICTED BY IDOCK:   -7.93 KCAL/MOL
REMARK 924 INTRA-LIGAND FREE ENERGY PREDICTED BY IDOCK:   -2.33 KCAL/MOL
REMARK 927      BINDING AFFINITY PREDICTED BY RF-SCORE:    0.00 PKD
ROOT
HETATM    1  C   UNL     1      -6.722   5.248  67.523  1.00  0.00    -0.055 C  
HETATM    2  C   UNL     1      -7.695   5.487  66.368  1.00  0.00    -0.099 C  
HETATM    3  C   UNL     1      -7.531   4.332  65.360  1.00  0.00    -0.077 C  
HETATM    4  C   UNL     1      -9.169   5.569  66.813  1.00  0.00    -0.129 C  
ENDROOT
BRANCH   4   5
HETATM    5  N   UNL     1      -9.533   6.650  67.825  1.00  0.00    -0.121 N  
BRANCH   5   6
HETATM    6  C   UNL     1     -10.443   7.741  67.209  1.00  0.00    -0.322 C  
BRANCH   6   7
HETATM    7  C   UNL     1      -9.820   9.173  67.061  1.00  0.00    -0.207 C  
HETATM    8  H   UNL     1      -9.917  10.619  65.750  1.00  0.00     0.000 HD 
HETATM    9  O   UNL     1     -10.294   9.751  65.839  1.00  0.00    -0.214 OA 
BRANCH   7  10
HETATM   10  C   UNL     1     -10.094  10.106  68.299  1.00  0.00    -0.156 C  
BRANCH  10  11
HETATM   11  N   UNL     1      -9.035  11.113  68.512  1.00  0.00    -0.164 N  
HETATM   12  O   UNL     1      -7.682   9.715  69.726  1.00  0.00    -0.099 OA 
HETATM   13  H   UNL     1      -9.143  12.046  68.115  1.00  0.00     0.000 HD 
HETATM   14  C   UNL     1      -7.907  10.811  69.235  1.00  0.00    -0.122 C  
BRANCH  14  15
HETATM   15  O   UNL     1      -7.083  11.891  69.359  1.00  0.00    -0.059 OA 
BRANCH  15  16
HETATM   16  C   UNL     1      -7.207  12.844  68.286  1.00  0.00    -0.112 C  
HETATM   17  C   UNL     1      -7.730  14.180  68.772  1.00  0.00    -0.121 C  
HETATM   18  O   UNL     1      -5.936  14.633  67.313  1.00  0.00    -0.300 OA 
HETATM   19  C   UNL     1      -7.215  15.134  67.717  1.00  0.00    -0.167 C  
HETATM   20  C   UNL     1      -5.871  13.240  67.662  1.00  0.00    -0.103 C  
ENDBRANCH  15  16
ENDBRANCH  14  15
ENDBRANCH  10  11
BRANCH  10  21
HETATM   21  C   UNL     1     -11.515  10.721  68.405  1.00  0.00    -0.358 C  
BRANCH  21  22
HETATM   22  C   UNL     1     -11.980  11.375  69.691  1.00  0.00    -0.416 A  
HETATM   23  C   UNL     1     -12.518  13.395  70.940  1.00  0.00    -0.439 A  
HETATM   24  C   UNL     1     -11.924  12.768  69.839  1.00  0.00    -0.368 A  
HETATM   25  C   UNL     1     -13.163  12.640  71.917  1.00  0.00    -0.504 A  
HETATM   26  C   UNL     1     -12.620  10.626  70.693  1.00  0.00    -0.454 A  
HETATM   27  C   UNL     1     -13.207  11.254  71.797  1.00  0.00    -0.480 A  
ENDBRANCH  21  22
ENDBRANCH  10  21
ENDBRANCH   7  10
ENDBRANCH   6   7
ENDBRANCH   5   6
BRANCH   5  28
HETATM   28  S   UNL     1     -10.288   5.933  69.245  1.00  0.00    -0.276 S  
HETATM   29  O   UNL     1     -11.690   6.277  69.264  1.00  0.00    -0.262 OA 
HETATM   30  O   UNL     1      -9.864   4.545  69.256  1.00  0.00    -0.192 OA 
BRANCH  28  31
HETATM   31  C   UNL     1      -9.553   6.735  70.644  1.00  0.00    -0.169 A  
HETATM   32  N   UNL     1      -7.835   8.590  74.003  1.00  0.00    -0.404 NA 
HETATM   33  H2  UNL     1      -8.496   8.438  74.764  1.00  0.00     0.000 HD 
HETATM   34  H1  UNL     1      -6.905   8.321  74.325  1.00  0.00     0.000 HD 
HETATM   35  C   UNL     1     -10.234   7.765  71.293  1.00  0.00    -0.218 A  
HETATM   36  C   UNL     1      -9.643   8.397  72.395  1.00  0.00    -0.373 A  
HETATM   37  C   UNL     1      -8.315   6.296  71.133  1.00  0.00    -0.124 A  
HETATM   38  C   UNL     1      -7.740   6.931  72.238  1.00  0.00    -0.093 A  
HETATM   39  C   UNL     1      -8.367   8.027  72.838  1.00  0.00    -0.172 A  
ENDBRANCH  28  31
ENDBRANCH   5  28
ENDBRANCH   4   5
TORSDOF 11
ENDMDL
MODEL      201
REMARK 921   NORMALIZED FREE ENERGY PREDICTED BY IDOCK:   -5.17 KCAL/MOL
REMARK 922        TOTAL FREE ENERGY PREDICTED BY IDOCK:  -10.26 KCAL/MOL
REMARK 923 INTER-LIGAND FREE ENERGY PREDICTED BY IDOCK:   -9.81 KCAL/MOL
REMARK 924 INTRA-LIGAND FREE ENERGY PREDICTED BY IDOCK:   -0.45 KCAL/MOL
REMARK 927      BINDING AFFINITY PREDICTED BY RF-SCORE:    0.00 PKD
ROOT
HETATM    1  C   UNL     1      -7.201  13.371  67.493  1.00  0.00    -0.163 C  
HETATM    2  C   UNL     1      -7.414  11.894  67.826  1.00  0.00    -0.121 C  
HETATM    3  C   UNL     1      -6.655  11.585  69.132  1.00  0.00    -0.102 C  
HETATM    4  C   UNL     1      -8.897  11.511  67.997  1.00  0.00    -0.158 C  
ENDROOT
BRANCH   4   5
HETATM    5  N   UNL     1      -9.821  11.753  66.809  1.00  0.00    -0.196 N  
BRANCH   5   6
HETATM    6  C   UNL     1      -9.700  13.195  66.261  1.00  0.00    -0.265 C  
BRANCH   6   7
HETATM    7  C   UNL     1     -10.967  14.109  66.398  1.00  0.00    -0.311 C  
HETATM    8  H   UNL     1     -12.901  13.832  66.450  1.00  0.00     0.000 HD 
HETATM    9  O   UNL     1     -12.134  13.279  66.367  1.00  0.00    -0.403 OA 
BRANCH   7  10
HETATM   10  C   UNL     1     -10.937  15.034  67.671  1.00  0.00    -0.305 C  
BRANCH  10  11
HETATM   11  N   UNL     1     -11.129  14.291  68.933  1.00  0.00    -0.251 N  
HETATM   12  O   UNL     1     -12.362  15.940  69.941  1.00  0.00    -0.290 OA 
HETATM   13  H   UNL     1     -10.732  13.357  69.030  1.00  0.00     0.000 HD 
HETATM   14  C   UNL     1     -11.834  14.839  69.976  1.00  0.00    -0.311 C  
BRANCH  14  15
HETATM   15  O   UNL     1     -11.848  14.016  71.064  1.00  0.00    -0.283 OA 
BRANCH  15  16
HETATM   16  C   UNL     1     -12.724  12.882  70.923  1.00  0.00    -0.207 C  
HETATM   17  C   UNL     1     -11.971  11.628  70.529  1.00  0.00    -0.413 C  
HETATM   18  O   UNL     1     -13.478  11.018  72.234  1.00  0.00    -0.328 OA 
HETATM   19  C   UNL     1     -12.885  10.530  71.026  1.00  0.00    -0.407 C  
HETATM   20  C   UNL     1     -13.383  12.452  72.232  1.00  0.00    -0.321 C  
ENDBRANCH  15  16
ENDBRANCH  14  15
ENDBRANCH  10  11
BRANCH  10  21
HETATM   21  C   UNL     1      -9.768  16.051  67.763  1.00  0.00    -0.221 C  
BRANCH  21  22
HETATM   22  C   UNL     1     -10.009  17.530  67.536  1.00  0.00    -0.315 A  
HETATM   23  C   UNL     1      -9.751  19.834  68.279  1.00  0.00    -0.499 A  
HETATM   24  C   UNL     1      -9.707  18.461  68.540  1.00  0.00    -0.386 A  
HETATM   25  C   UNL     1     -10.110  20.300  67.016  1.00  0.00    -0.567 A  
HETATM   26  C   UNL     1     -10.385  18.015  66.272  1.00  0.00    -0.384 A  
HETATM   27  C   UNL     1     -10.436  19.390  66.015  1.00  0.00    -0.596 A  
ENDBRANCH  21  22
ENDBRANCH  10  21
ENDBRANCH   7  10
ENDBRANCH   6   7
ENDBRANCH   5   6
BRANCH   5  28
HETATM   28  S   UNL     1      -9.514  10.572  65.539  1.00  0.00    -0.236 S  
HETATM   29  O   UNL     1     -10.524  10.700  64.515  1.00  0.00    -0.345 OA 
HETATM   30  O   UNL     1      -8.105  10.705  65.212  1.00  0.00    -0.153 OA 
BRANCH  28  31
HETATM   31  C   UNL     1      -9.749   8.982  66.285  1.00  0.00    -0.275 A  
HETATM   32  N   UNL     1     -10.264   5.227  68.104  1.00  0.00    -0.162 NA 
HETATM   33  H2  UNL     1      -9.364   5.005  68.528  1.00  0.00     0.000 HD 
HETATM   34  H1  UNL     1     -10.993   5.085  68.803  1.00  0.00     0.000 HD 
HETATM   35  C   UNL     1      -8.953   7.905  65.891  1.00  0.00    -0.166 A  
HETATM   36  C   UNL     1      -9.149   6.650  66.483  1.00  0.00    -0.167 A  
HETATM   37  C   UNL     1     -10.692   8.820  67.308  1.00  0.00    -0.217 A  
HETATM   38  C   UNL     1     -10.872   7.564  67.895  1.00  0.00    -0.128 A  
HETATM   39  C   UNL     1     -10.150   6.456  67.444  1.00  0.00    -0.158 A  
ENDBRANCH  28  31
ENDBRANCH   5  28
ENDBRANCH   4   5
TORSDOF 11
ENDMDL
MODEL      202
REMARK 921   NORMALIZED FREE ENERGY PREDICTED BY IDOCK:   -5.16 KCAL/MOL
REMARK 922        TOTAL FREE ENERGY PREDICTED BY IDOCK:  -10.26 KCAL/MOL
REMARK 923 INTER-LIGAND FREE ENERGY PREDICTED BY IDOCK:   -8.98 KCAL/MOL
REMARK 924 INTRA-LIGAND FREE ENERGY PREDICTED BY IDOCK:   -1.27 KCAL/MOL
REMARK 927      BINDING AFFINITY PREDICTED BY RF-SCORE:    0.00 PKD
ROOT
HETATM    1  C   UNL     1      -5.747   7.970  69.286  1.00  0.00    -0.033 C  
HETATM    2  C   UNL     1      -6.400   9.093  68.480  1.00  0.00    -0.053 C  
HETATM    3  C   UNL     1      -5.866   9.016  67.035  1.00  0.00    -0.046 C  
HETATM    4  C   UNL     1      -7.940   9.018  68.458  1.00  0.00    -0.103 C  
ENDROOT
BRANCH   4   5
HETATM    5  N   UNL     1      -8.660   9.068  69.801  1.00  0.00    -0.130 N  
BRANCH   5   6
HETATM    6  C   UNL     1      -9.851  10.057  69.787  1.00  0.00    -0.235 C  
BRANCH   6   7
HETATM    7  C   UNL     1     -10.158  10.769  68.423  1.00  0.00    -0.169 C  
HETATM    8  H   UNL     1     -11.286  10.404  66.870  1.00  0.00     0.000 HD 
HETATM    9  O   UNL     1     -11.100   9.973  67.696  1.00  0.00    -0.285 OA 
BRANCH   7  10
HETATM   10  C   UNL     1     -10.646  12.256  68.589  1.00  0.00    -0.224 C  
BRANCH  10  11
HETATM   11  N   UNL     1     -10.360  13.095  67.408  1.00  0.00    -0.237 N  
HETATM   12  O   UNL     1      -8.484  14.058  68.308  1.00  0.00    -0.158 OA 
HETATM   13  H   UNL     1     -10.972  13.042  66.594  1.00  0.00     0.000 HD 
HETATM   14  C   UNL     1      -9.282  13.946  67.390  1.00  0.00    -0.224 C  
BRANCH  14  15
HETATM   15  O   UNL     1      -9.229  14.668  66.234  1.00  0.00    -0.278 OA 
BRANCH  15  16
HETATM   16  C   UNL     1     -10.251  15.677  66.130  1.00  0.00    -0.311 C  
HETATM   17  C   UNL     1      -9.669  17.075  66.113  1.00  0.00    -0.283 C  
HETATM   18  O   UNL     1     -11.312  16.994  64.427  1.00  0.00    -1.140 OA 
HETATM   19  C   UNL     1     -10.748  17.868  65.410  1.00  0.00     0.123 C  
HETATM   20  C   UNL     1     -11.015  15.641  64.808  1.00  0.00    -0.400 C  
ENDBRANCH  15  16
ENDBRANCH  14  15
ENDBRANCH  10  11
BRANCH  10  21
HETATM   21  C   UNL     1     -12.093  12.458  69.113  1.00  0.00    -0.195 C  
BRANCH  21  22
HETATM   22  C   UNL     1     -12.376  13.410  70.258  1.00  0.00    -0.354 A  
HETATM   23  C   UNL     1     -13.257  13.796  72.494  1.00  0.00    -0.599 A  
HETATM   24  C   UNL     1     -13.145  12.994  71.353  1.00  0.00    -0.336 A  
HETATM   25  C   UNL     1     -12.616  15.032  72.552  1.00  0.00    -0.442 A  
HETATM   26  C   UNL     1     -11.748  14.666  70.325  1.00  0.00    -0.355 A  
HETATM   27  C   UNL     1     -11.868  15.470  71.464  1.00  0.00    -0.472 A  
ENDBRANCH  21  22
ENDBRANCH  10  21
ENDBRANCH   7  10
ENDBRANCH   6   7
ENDBRANCH   5   6
BRANCH   5  28
HETATM   28  S   UNL     1      -9.189   7.457  70.275  1.00  0.00    -0.154 S  
HETATM   29  O   UNL     1      -8.064   6.723  70.806  1.00  0.00    -0.115 OA 
HETATM   30  O   UNL     1     -10.387   7.656  71.071  1.00  0.00    -0.202 OA 
BRANCH  28  31
HETATM   31  C   UNL     1      -9.664   6.639  68.777  1.00  0.00    -0.130 A  
HETATM   32  N   UNL     1     -10.815   4.647  65.258  1.00  0.00    -0.727 NA 
HETATM   33  H2  UNL     1     -10.715   3.654  65.464  1.00  0.00     0.000 HD 
HETATM   34  H1  UNL     1     -11.739   4.801  64.855  1.00  0.00     0.000 HD 
HETATM   35  C   UNL     1      -8.757   5.802  68.124  1.00  0.00    -0.107 A  
HETATM   36  C   UNL     1      -9.140   5.163  66.937  1.00  0.00    -0.116 A  
HETATM   37  C   UNL     1     -10.966   6.786  68.280  1.00  0.00    -0.270 A  
HETATM   38  C   UNL     1     -11.336   6.137  67.098  1.00  0.00     0.024 A  
HETATM   39  C   UNL     1     -10.408   5.373  66.383  1.00  0.00    -0.247 A  
ENDBRANCH  28  31
ENDBRANCH   5  28
ENDBRANCH   4   5
TORSDOF 11
ENDMDL
MODEL      203
REMARK 921   NORMALIZED FREE ENERGY PREDICTED BY IDOCK:   -5.13 KCAL/MOL
REMARK 922        TOTAL FREE ENERGY PREDICTED BY IDOCK:  -10.20 KCAL/MOL
REMARK 923 INTER-LIGAND FREE ENERGY PREDICTED BY IDOCK:   -9.38 KCAL/MOL
REMARK 924 INTRA-LIGAND FREE ENERGY PREDICTED BY IDOCK:   -0.81 KCAL/MOL
REMARK 927      BINDING AFFINITY PREDICTED BY RF-SCORE:    0.00 PKD
ROOT
HETATM    1  C   UNL     1      -7.882  20.130  68.042  1.00  0.00    -0.241 C  
HETATM    2  C   UNL     1      -9.233  19.456  67.801  1.00  0.00    -0.382 C  
HETATM    3  C   UNL     1      -9.893  20.132  66.582  1.00  0.00    -0.588 C  
HETATM    4  C   UNL     1      -9.126  17.939  67.545  1.00  0.00    -0.245 C  
ENDROOT
BRANCH   4   5
HETATM    5  N   UNL     1      -8.485  17.091  68.638  1.00  0.00    -0.259 N  
BRANCH   5   6
HETATM    6  C   UNL     1      -9.421  15.955  69.117  1.00  0.00    -0.260 C  
BRANCH   6   7
HETATM    7  C   UNL     1     -10.745  15.744  68.303  1.00  0.00    -0.281 C  
HETATM    8  H   UNL     1     -11.239  15.688  66.413  1.00  0.00     0.000 HD 
HETATM    9  O   UNL     1     -10.437  15.816  66.906  1.00  0.00    -0.304 OA 
BRANCH   7  10
HETATM   10  C   UNL     1     -11.501  14.414  68.671  1.00  0.00    -0.287 C  
BRANCH  10  11
HETATM   11  N   UNL     1     -12.606  14.621  69.629  1.00  0.00    -0.576 N  
HETATM   12  O   UNL     1     -12.424  12.545  70.585  1.00  0.00    -0.319 OA 
HETATM   13  H   UNL     1     -13.102  15.512  69.638  1.00  0.00     0.000 HD 
HETATM   14  C   UNL     1     -12.975  13.633  70.509  1.00  0.00     0.002 C  
BRANCH  14  15
HETATM   15  O   UNL     1     -14.047  14.005  71.265  1.00  0.00    -0.194 OA 
BRANCH  15  16
HETATM   16  C   UNL     1     -13.700  14.418  72.601  1.00  0.00    -0.445 C  
HETATM   17  C   UNL     1     -12.201  14.509  72.795  1.00  0.00    -0.186 C  
HETATM   18  O   UNL     1     -13.140  16.437  73.771  1.00  0.00    -0.662 OA 
HETATM   19  C   UNL     1     -12.081  15.490  73.941  1.00  0.00    -0.513 C  
HETATM   20  C   UNL     1     -14.147  15.839  72.938  1.00  0.00    -0.242 C  
ENDBRANCH  15  16
ENDBRANCH  14  15
ENDBRANCH  10  11
BRANCH  10  21
HETATM   21  C   UNL     1     -11.918  13.500  67.488  1.00  0.00    -0.385 C  
BRANCH  21  22
HETATM   22  C   UNL     1     -11.091  12.283  67.122  1.00  0.00    -0.330 A  
HETATM   23  C   UNL     1      -9.321  11.276  65.788  1.00  0.00    -0.245 A  
HETATM   24  C   UNL     1     -10.220  12.321  66.024  1.00  0.00    -0.267 A  
HETATM   25  C   UNL     1      -9.289  10.170  66.635  1.00  0.00    -0.195 A  
HETATM   26  C   UNL     1     -11.059  11.154  67.957  1.00  0.00    -0.334 A  
HETATM   27  C   UNL     1     -10.164  10.105  67.715  1.00  0.00    -0.232 A  
ENDBRANCH  21  22
ENDBRANCH  10  21
ENDBRANCH   7  10
ENDBRANCH   6   7
ENDBRANCH   5   6
BRANCH   5  28
HETATM   28  S   UNL     1      -6.942  16.443  68.090  1.00  0.00    -0.137 S  
HETATM   29  O   UNL     1      -7.003  16.212  66.666  1.00  0.00    -0.211 OA 
HETATM   30  O   UNL     1      -5.928  17.312  68.657  1.00  0.00    -0.155 OA 
BRANCH  28  31
HETATM   31  C   UNL     1      -6.783  14.853  68.854  1.00  0.00    -0.100 A  
HETATM   32  N   UNL     1      -6.467  11.085  70.692  1.00  0.00    -0.477 NA 
HETATM   33  H2  UNL     1      -6.991  11.163  71.563  1.00  0.00     0.000 HD 
HETATM   34  H1  UNL     1      -6.775  10.244  70.205  1.00  0.00     0.000 HD 
HETATM   35  C   UNL     1      -6.202  14.743  70.118  1.00  0.00    -0.166 A  
HETATM   36  C   UNL     1      -6.076  13.481  70.713  1.00  0.00    -0.022 A  
HETATM   37  C   UNL     1      -7.291  13.714  68.215  1.00  0.00    -0.119 A  
HETATM   38  C   UNL     1      -7.165  12.461  68.822  1.00  0.00    -0.094 A  
HETATM   39  C   UNL     1      -6.499  12.325  70.045  1.00  0.00     0.069 A  
ENDBRANCH  28  31
ENDBRANCH   5  28
ENDBRANCH   4   5
TORSDOF 11
ENDMDL
MODEL      204
REMARK 921   NORMALIZED FREE ENERGY PREDICTED BY IDOCK:   -5.13 KCAL/MOL
REMARK 922        TOTAL FREE ENERGY PREDICTED BY IDOCK:  -10.19 KCAL/MOL
REMARK 923 INTER-LIGAND FREE ENERGY PREDICTED BY IDOCK:   -9.31 KCAL/MOL
REMARK 924 INTRA-LIGAND FREE ENERGY PREDICTED BY IDOCK:   -0.88 KCAL/MOL
REMARK 927      BINDING AFFINITY PREDICTED BY RF-SCORE:    0.00 PKD
ROOT
HETATM    1  C   UNL     1     -10.886  18.340  67.724  1.00  0.00    -0.257 C  
HETATM    2  C   UNL     1     -10.185  18.509  66.376  1.00  0.00    -0.449 C  
HETATM    3  C   UNL     1     -10.610  19.868  65.785  1.00  0.00    -0.490 C  
HETATM    4  C   UNL     1      -8.648  18.454  66.471  1.00  0.00    -0.273 C  
ENDROOT
BRANCH   4   5
HETATM    5  N   UNL     1      -8.029  17.185  67.046  1.00  0.00    -0.189 N  
BRANCH   5   6
HETATM    6  C   UNL     1      -8.447  15.922  66.253  1.00  0.00    -0.267 C  
BRANCH   6   7
HETATM    7  C   UNL     1      -9.067  14.744  67.083  1.00  0.00    -0.217 C  
HETATM    8  H   UNL     1      -9.721  14.502  68.908  1.00  0.00     0.000 HD 
HETATM    9  O   UNL     1      -9.346  15.215  68.406  1.00  0.00    -0.187 OA 
BRANCH   7  10
HETATM   10  C   UNL     1     -10.335  14.102  66.407  1.00  0.00    -0.287 C  
BRANCH  10  11
HETATM   11  N   UNL     1     -10.169  12.665  66.109  1.00  0.00    -0.253 N  
HETATM   12  O   UNL     1     -10.003  12.957  63.842  1.00  0.00    -0.324 OA 
HETATM   13  H   UNL     1     -10.159  11.992  66.875  1.00  0.00     0.000 HD 
HETATM   14  C   UNL     1     -10.026  12.222  64.818  1.00  0.00    -0.190 C  
BRANCH  14  15
HETATM   15  O   UNL     1      -9.942  10.862  64.756  1.00  0.00    -0.257 OA 
BRANCH  15  16
HETATM   16  C   UNL     1      -8.790  10.383  64.037  1.00  0.00    -0.212 C  
HETATM   17  C   UNL     1      -7.552  10.343  64.910  1.00  0.00    -0.074 C  
HETATM   18  O   UNL     1      -7.608   8.321  63.701  1.00  0.00    -0.118 OA 
HETATM   19  C   UNL     1      -6.701   9.300  64.219  1.00  0.00    -0.087 C  
HETATM   20  C   UNL     1      -8.907   8.926  63.593  1.00  0.00     0.095 C  
ENDBRANCH  15  16
ENDBRANCH  14  15
ENDBRANCH  10  11
BRANCH  10  21
HETATM   21  C   UNL     1     -11.705  14.407  67.069  1.00  0.00    -0.420 C  
BRANCH  21  22
HETATM   22  C   UNL     1     -11.876  14.312  68.572  1.00  0.00    -0.382 A  
HETATM   23  C   UNL     1     -12.571  15.331  70.671  1.00  0.00    -0.471 A  
HETATM   24  C   UNL     1     -12.231  15.444  69.319  1.00  0.00    -0.219 A  
HETATM   25  C   UNL     1     -12.547  14.089  71.302  1.00  0.00    -0.444 A  
HETATM   26  C   UNL     1     -11.841  13.069  69.227  1.00  0.00    -0.370 A  
HETATM   27  C   UNL     1     -12.173  12.959  70.582  1.00  0.00    -0.386 A  
ENDBRANCH  21  22
ENDBRANCH  10  21
ENDBRANCH   7  10
ENDBRANCH   6   7
ENDBRANCH   5   6
BRANCH   5  28
HETATM   28  S   UNL     1      -6.275  17.330  67.113  1.00  0.00    -0.179 S  
HETATM   29  O   UNL     1      -5.699  16.031  67.371  1.00  0.00    -0.205 OA 
HETATM   30  O   UNL     1      -5.899  18.087  65.933  1.00  0.00    -0.177 OA 
BRANCH  28  31
HETATM   31  C   UNL     1      -5.923  18.330  68.533  1.00  0.00    -0.187 A  
HETATM   32  N   UNL     1      -5.154  20.701  71.919  1.00  0.00    -0.507 NA 
HETATM   33  H2  UNL     1      -5.977  21.292  72.028  1.00  0.00     0.000 HD 
HETATM   34  H1  UNL     1      -4.948  20.267  72.819  1.00  0.00     0.000 HD 
HETATM   35  C   UNL     1      -5.896  19.720  68.416  1.00  0.00    -0.259 A  
HETATM   36  C   UNL     1      -5.612  20.502  69.543  1.00  0.00    -0.389 A  
HETATM   37  C   UNL     1      -5.730  17.728  69.784  1.00  0.00    -0.241 A  
HETATM   38  C   UNL     1      -5.455  18.521  70.902  1.00  0.00    -0.190 A  
HETATM   39  C   UNL     1      -5.329  19.908  70.779  1.00  0.00    -0.248 A  
ENDBRANCH  28  31
ENDBRANCH   5  28
ENDBRANCH   4   5
TORSDOF 11
ENDMDL
MODEL      205
REMARK 921   NORMALIZED FREE ENERGY PREDICTED BY IDOCK:   -5.13 KCAL/MOL
REMARK 922        TOTAL FREE ENERGY PREDICTED BY IDOCK:  -10.19 KCAL/MOL
REMARK 923 INTER-LIGAND FREE ENERGY PREDICTED BY IDOCK:   -8.39 KCAL/MOL
REMARK 924 INTRA-LIGAND FREE ENERGY PREDICTED BY IDOCK:   -1.80 KCAL/MOL
REMARK 927      BINDING AFFINITY PREDICTED BY RF-SCORE:    0.00 PKD
ROOT
HETATM    1  C   UNL     1     -12.943  13.595  65.734  1.00  0.00    -0.252 C  
HETATM    2  C   UNL     1     -11.616  13.071  65.183  1.00  0.00    -0.357 C  
HETATM    3  C   UNL     1     -11.612  13.295  63.658  1.00  0.00    -0.376 C  
HETATM    4  C   UNL     1     -10.381  13.755  65.801  1.00  0.00    -0.307 C  
ENDROOT
BRANCH   4   5
HETATM    5  N   UNL     1     -10.211  13.655  67.313  1.00  0.00    -0.244 N  
BRANCH   5   6
HETATM    6  C   UNL     1      -8.877  12.976  67.706  1.00  0.00    -0.188 C  
BRANCH   6   7
HETATM    7  C   UNL     1      -8.981  11.613  68.475  1.00  0.00    -0.138 C  
HETATM    8  H   UNL     1     -10.361  10.258  68.753  1.00  0.00     0.000 HD 
HETATM    9  O   UNL     1     -10.298  11.084  68.288  1.00  0.00    -0.166 OA 
BRANCH   7  10
HETATM   10  C   UNL     1      -7.867  10.579  68.069  1.00  0.00    -0.105 C  
BRANCH  10  11
HETATM   11  N   UNL     1      -8.326   9.176  68.134  1.00  0.00    -0.120 N  
HETATM   12  O   UNL     1      -8.195   9.037  70.419  1.00  0.00    -0.115 OA 
HETATM   13  H   UNL     1      -8.564   8.686  67.272  1.00  0.00     0.000 HD 
HETATM   14  C   UNL     1      -8.436   8.523  69.337  1.00  0.00    -0.127 C  
BRANCH  14  15
HETATM   15  O   UNL     1      -8.822   7.225  69.173  1.00  0.00    -0.136 OA 
BRANCH  15  16
HETATM   16  C   UNL     1      -9.205   6.899  67.824  1.00  0.00    -0.119 C  
HETATM   17  C   UNL     1      -9.067   5.417  67.538  1.00  0.00    -0.107 C  
HETATM   18  O   UNL     1     -11.139   6.099  66.648  1.00  0.00    -0.284 OA 
HETATM   19  C   UNL     1     -10.042   5.214  66.399  1.00  0.00    -0.239 C  
HETATM   20  C   UNL     1     -10.686   7.136  67.535  1.00  0.00    -0.274 C  
ENDBRANCH  15  16
ENDBRANCH  14  15
ENDBRANCH  10  11
BRANCH  10  21
HETATM   21  C   UNL     1      -7.084  10.877  66.763  1.00  0.00    -0.129 C  
BRANCH  21  22
HETATM   22  C   UNL     1      -7.499  10.244  65.450  1.00  0.00    -0.145 A  
HETATM   23  C   UNL     1      -9.181   9.917  63.720  1.00  0.00    -0.289 A  
HETATM   24  C   UNL     1      -8.826  10.334  65.007  1.00  0.00    -0.209 A  
HETATM   25  C   UNL     1      -8.219   9.390  62.860  1.00  0.00    -0.165 A  
HETATM   26  C   UNL     1      -6.544   9.695  64.578  1.00  0.00    -0.102 A  
HETATM   27  C   UNL     1      -6.901   9.272  63.293  1.00  0.00    -0.090 A  
ENDBRANCH  21  22
ENDBRANCH  10  21
ENDBRANCH   7  10
ENDBRANCH   6   7
ENDBRANCH   5   6
BRANCH   5  28
HETATM   28  S   UNL     1     -10.346  15.247  68.054  1.00  0.00    -0.247 S  
HETATM   29  O   UNL     1      -9.028  15.722  68.405  1.00  0.00    -0.178 OA 
HETATM   30  O   UNL     1     -11.201  16.020  67.171  1.00  0.00    -0.171 OA 
BRANCH  28  31
HETATM   31  C   UNL     1     -11.218  15.004  69.577  1.00  0.00    -0.276 A  
HETATM   32  N   UNL     1     -13.342  14.450  73.162  1.00  0.00    -0.612 NA 
HETATM   33  H2  UNL     1     -14.025  15.206  73.192  1.00  0.00     0.000 HD 
HETATM   34  H1  UNL     1     -13.826  13.571  73.347  1.00  0.00     0.000 HD 
HETATM   35  C   UNL     1     -11.217  16.008  70.547  1.00  0.00    -0.397 A  
HETATM   36  C   UNL     1     -11.905  15.804  71.751  1.00  0.00    -0.549 A  
HETATM   37  C   UNL     1     -11.954  13.830  69.783  1.00  0.00    -0.406 A  
HETATM   38  C   UNL     1     -12.642  13.643  70.986  1.00  0.00    -0.441 A  
HETATM   39  C   UNL     1     -12.570  14.599  72.004  1.00  0.00    -0.334 A  
ENDBRANCH  28  31
ENDBRANCH   5  28
ENDBRANCH   4   5
TORSDOF 11
ENDMDL
MODEL      206
REMARK 921   NORMALIZED FREE ENERGY PREDICTED BY IDOCK:   -5.12 KCAL/MOL
REMARK 922        TOTAL FREE ENERGY PREDICTED BY IDOCK:  -10.18 KCAL/MOL
REMARK 923 INTER-LIGAND FREE ENERGY PREDICTED BY IDOCK:   -8.76 KCAL/MOL
REMARK 924 INTRA-LIGAND FREE ENERGY PREDICTED BY IDOCK:   -1.42 KCAL/MOL
REMARK 927      BINDING AFFINITY PREDICTED BY RF-SCORE:    0.00 PKD
ROOT
HETATM    1  C   UNL     1      -6.523  11.057  68.484  1.00  0.00    -0.054 C  
HETATM    2  C   UNL     1      -7.393   9.995  69.157  1.00  0.00    -0.087 C  
HETATM    3  C   UNL     1      -6.783   9.684  70.538  1.00  0.00    -0.119 C  
HETATM    4  C   UNL     1      -8.862  10.428  69.336  1.00  0.00    -0.123 C  
ENDROOT
BRANCH   4   5
HETATM    5  N   UNL     1      -9.640  10.791  68.076  1.00  0.00    -0.160 N  
BRANCH   5   6
HETATM    6  C   UNL     1     -10.677   9.706  67.699  1.00  0.00    -0.262 C  
BRANCH   6   7
HETATM    7  C   UNL     1     -10.252   8.683  66.587  1.00  0.00    -0.273 C  
HETATM    8  H   UNL     1      -8.723   8.462  65.391  1.00  0.00     0.000 HD 
HETATM    9  O   UNL     1      -8.981   9.082  66.064  1.00  0.00    -0.160 OA 
BRANCH   7  10
HETATM   10  C   UNL     1     -10.244   7.189  67.082  1.00  0.00    -0.257 C  
BRANCH  10  11
HETATM   11  N   UNL     1      -9.941   6.224  66.006  1.00  0.00    -0.390 N  
HETATM   12  O   UNL     1      -7.683   6.203  66.396  1.00  0.00    -0.099 OA 
HETATM   13  H   UNL     1     -10.702   5.848  65.440  1.00  0.00     0.000 HD 
HETATM   14  C   UNL     1      -8.652   5.824  65.756  1.00  0.00    -0.149 C  
BRANCH  14  15
HETATM   15  O   UNL     1      -8.584   4.975  64.690  1.00  0.00    -0.144 OA 
BRANCH  15  16
HETATM   16  C   UNL     1      -9.668   4.028  64.631  1.00  0.00    -0.185 C  
HETATM   17  C   UNL     1     -10.299   3.974  63.255  1.00  0.00    -0.135 C  
HETATM   18  O   UNL     1     -10.029   1.748  63.977  1.00  0.00    -0.132 OA 
HETATM   19  C   UNL     1     -10.914   2.592  63.234  1.00  0.00    -0.199 C  
HETATM   20  C   UNL     1      -9.226   2.580  64.830  1.00  0.00    -0.137 C  
ENDBRANCH  15  16
ENDBRANCH  14  15
ENDBRANCH  10  11
BRANCH  10  21
HETATM   21  C   UNL     1      -9.444   6.890  68.378  1.00  0.00    -0.128 C  
BRANCH  21  22
HETATM   22  C   UNL     1     -10.140   6.838  69.723  1.00  0.00    -0.198 A  
HETATM   23  C   UNL     1     -10.119   7.301  72.113  1.00  0.00    -0.207 A  
HETATM   24  C   UNL     1      -9.445   7.166  70.895  1.00  0.00    -0.160 A  
HETATM   25  C   UNL     1     -11.496   7.096  72.182  1.00  0.00    -0.306 A  
HETATM   26  C   UNL     1     -11.525   6.619  69.811  1.00  0.00    -0.388 A  
HETATM   27  C   UNL     1     -12.198   6.747  71.032  1.00  0.00    -0.405 A  
ENDBRANCH  21  22
ENDBRANCH  10  21
ENDBRANCH   7  10
ENDBRANCH   6   7
ENDBRANCH   5   6
BRANCH   5  28
HETATM   28  S   UNL     1     -10.417  12.361  68.264  1.00  0.00    -0.228 S  
HETATM   29  O   UNL     1     -11.558  12.225  69.138  1.00  0.00    -0.275 OA 
HETATM   30  O   UNL     1      -9.348  13.292  68.578  1.00  0.00    -0.182 OA 
BRANCH  28  31
HETATM   31  C   UNL     1     -11.052  12.784  66.665  1.00  0.00    -0.276 A  
HETATM   32  N   UNL     1     -12.522  13.844  62.872  1.00  0.00    -0.877 NA 
HETATM   33  H2  UNL     1     -12.545  14.863  62.865  1.00  0.00     0.000 HD 
HETATM   34  H1  UNL     1     -12.049  13.527  62.026  1.00  0.00     0.000 HD 
HETATM   35  C   UNL     1     -12.227  13.530  66.559  1.00  0.00    -0.433 A  
HETATM   36  C   UNL     1     -12.725  13.856  65.291  1.00  0.00    -0.485 A  
HETATM   37  C   UNL     1     -10.346  12.420  65.511  1.00  0.00    -0.298 A  
HETATM   38  C   UNL     1     -10.851  12.759  64.252  1.00  0.00    -0.419 A  
HETATM   39  C   UNL     1     -12.076  13.422  64.129  1.00  0.00    -0.433 A  
ENDBRANCH  28  31
ENDBRANCH   5  28
ENDBRANCH   4   5
TORSDOF 11
ENDMDL
MODEL      207
REMARK 921   NORMALIZED FREE ENERGY PREDICTED BY IDOCK:   -5.12 KCAL/MOL
REMARK 922        TOTAL FREE ENERGY PREDICTED BY IDOCK:  -10.18 KCAL/MOL
REMARK 923 INTER-LIGAND FREE ENERGY PREDICTED BY IDOCK:   -8.61 KCAL/MOL
REMARK 924 INTRA-LIGAND FREE ENERGY PREDICTED BY IDOCK:   -1.57 KCAL/MOL
REMARK 927      BINDING AFFINITY PREDICTED BY RF-SCORE:    0.00 PKD
ROOT
HETATM    1  C   UNL     1      -8.162   9.364  70.510  1.00  0.00    -0.221 C  
HETATM    2  C   UNL     1      -8.113   7.842  70.646  1.00  0.00    -0.103 C  
HETATM    3  C   UNL     1      -6.962   7.486  71.608  1.00  0.00    -0.061 C  
HETATM    4  C   UNL     1      -9.425   7.229  71.173  1.00  0.00    -0.156 C  
ENDROOT
BRANCH   4   5
HETATM    5  N   UNL     1     -10.690   7.481  70.360  1.00  0.00    -0.234 N  
BRANCH   5   6
HETATM    6  C   UNL     1     -11.084   6.255  69.501  1.00  0.00    -0.408 C  
BRANCH   6   7
HETATM    7  C   UNL     1      -9.953   5.621  68.618  1.00  0.00    -0.162 C  
HETATM    8  H   UNL     1      -9.130   3.858  68.440  1.00  0.00     0.000 HD 
HETATM    9  O   UNL     1      -9.815   4.241  68.975  1.00  0.00    -0.165 OA 
BRANCH   7  10
HETATM   10  C   UNL     1     -10.184   5.811  67.073  1.00  0.00    -0.213 C  
BRANCH  10  11
HETATM   11  N   UNL     1     -10.745   7.133  66.729  1.00  0.00    -0.520 N  
HETATM   12  O   UNL     1      -8.775   8.264  67.036  1.00  0.00    -0.123 OA 
HETATM   13  H   UNL     1     -11.728   7.208  66.467  1.00  0.00     0.000 HD 
HETATM   14  C   UNL     1      -9.965   8.262  66.757  1.00  0.00    -0.285 C  
BRANCH  14  15
HETATM   15  O   UNL     1     -10.685   9.382  66.461  1.00  0.00    -0.107 OA 
BRANCH  15  16
HETATM   16  C   UNL     1      -9.899  10.444  65.888  1.00  0.00    -0.235 C  
HETATM   17  C   UNL     1     -10.646  11.173  64.790  1.00  0.00    -0.371 C  
HETATM   18  O   UNL     1      -9.628  12.816  66.137  1.00  0.00    -0.254 OA 
HETATM   19  C   UNL     1      -9.967  12.525  64.777  1.00  0.00    -0.153 C  
HETATM   20  C   UNL     1      -9.597  11.578  66.866  1.00  0.00    -0.187 C  
ENDBRANCH  15  16
ENDBRANCH  14  15
ENDBRANCH  10  11
BRANCH  10  21
HETATM   21  C   UNL     1      -9.009   5.414  66.140  1.00  0.00    -0.142 C  
BRANCH  21  22
HETATM   22  C   UNL     1      -9.213   4.408  65.025  1.00  0.00    -0.157 A  
HETATM   23  C   UNL     1     -10.705   3.281  63.466  1.00  0.00    -0.252 A  
HETATM   24  C   UNL     1     -10.506   4.062  64.609  1.00  0.00    -0.208 A  
HETATM   25  C   UNL     1      -9.615   2.820  62.729  1.00  0.00    -0.092 A  
HETATM   26  C   UNL     1      -8.124   3.922  64.282  1.00  0.00    -0.090 A  
HETATM   27  C   UNL     1      -8.324   3.134  63.143  1.00  0.00    -0.085 A  
ENDBRANCH  21  22
ENDBRANCH  10  21
ENDBRANCH   7  10
ENDBRANCH   6   7
ENDBRANCH   5   6
BRANCH   5  28
HETATM   28  S   UNL     1     -12.016   7.959  71.416  1.00  0.00    -0.310 S  
HETATM   29  O   UNL     1     -13.237   7.340  70.956  1.00  0.00    -0.283 OA 
HETATM   30  O   UNL     1     -11.538   7.741  72.769  1.00  0.00    -0.362 OA 
BRANCH  28  31
HETATM   31  C   UNL     1     -12.217   9.704  71.186  1.00  0.00    -0.350 A  
HETATM   32  N   UNL     1     -12.751  13.833  70.605  1.00  0.00    -0.293 NA 
HETATM   33  H2  UNL     1     -13.174  13.925  69.682  1.00  0.00     0.000 HD 
HETATM   34  H1  UNL     1     -13.300  14.383  71.266  1.00  0.00     0.000 HD 
HETATM   35  C   UNL     1     -11.595  10.340  70.111  1.00  0.00    -0.376 A  
HETATM   36  C   UNL     1     -11.756  11.722  69.940  1.00  0.00    -0.399 A  
HETATM   37  C   UNL     1     -13.047  10.434  72.048  1.00  0.00    -0.521 A  
HETATM   38  C   UNL     1     -13.204  11.811  71.861  1.00  0.00    -0.468 A  
HETATM   39  C   UNL     1     -12.509  12.477  70.847  1.00  0.00    -0.269 A  
ENDBRANCH  28  31
ENDBRANCH   5  28
ENDBRANCH   4   5
TORSDOF 11
ENDMDL
MODEL      208
REMARK 921   NORMALIZED FREE ENERGY PREDICTED BY IDOCK:   -5.12 KCAL/MOL
REMARK 922        TOTAL FREE ENERGY PREDICTED BY IDOCK:  -10.18 KCAL/MOL
REMARK 923 INTER-LIGAND FREE ENERGY PREDICTED BY IDOCK:   -8.04 KCAL/MOL
REMARK 924 INTRA-LIGAND FREE ENERGY PREDICTED BY IDOCK:   -2.14 KCAL/MOL
REMARK 927      BINDING AFFINITY PREDICTED BY RF-SCORE:    0.00 PKD
ROOT
HETATM    1  C   UNL     1      -7.492   7.365  69.307  1.00  0.00    -0.092 C  
HETATM    2  C   UNL     1      -7.401   8.810  68.814  1.00  0.00    -0.083 C  
HETATM    3  C   UNL     1      -6.292   9.518  69.617  1.00  0.00    -0.040 C  
HETATM    4  C   UNL     1      -7.092   8.926  67.308  1.00  0.00    -0.083 C  
ENDROOT
BRANCH   4   5
HETATM    5  N   UNL     1      -8.074   8.274  66.342  1.00  0.00    -0.103 N  
BRANCH   5   6
HETATM    6  C   UNL     1      -9.031   9.306  65.698  1.00  0.00    -0.199 C  
BRANCH   6   7
HETATM    7  C   UNL     1     -10.367   9.601  66.466  1.00  0.00    -0.194 C  
HETATM    8  H   UNL     1     -11.581   8.588  67.614  1.00  0.00     0.000 HD 
HETATM    9  O   UNL     1     -10.773   8.409  67.149  1.00  0.00    -0.291 OA 
BRANCH   7  10
HETATM   10  C   UNL     1     -10.271  10.834  67.439  1.00  0.00    -0.204 C  
BRANCH  10  11
HETATM   11  N   UNL     1      -9.816  12.068  66.767  1.00  0.00    -0.201 N  
HETATM   12  O   UNL     1      -8.362  12.669  68.434  1.00  0.00    -0.163 OA 
HETATM   13  H   UNL     1     -10.198  12.312  65.853  1.00  0.00     0.000 HD 
HETATM   14  C   UNL     1      -8.888  12.892  67.355  1.00  0.00    -0.199 C  
BRANCH  14  15
HETATM   15  O   UNL     1      -8.648  14.002  66.598  1.00  0.00    -0.119 OA 
BRANCH  15  16
HETATM   16  C   UNL     1      -9.696  14.987  66.662  1.00  0.00    -0.258 C  
HETATM   17  C   UNL     1      -9.169  16.351  67.059  1.00  0.00    -0.236 C  
HETATM   18  O   UNL     1     -10.656  16.684  65.262  1.00  0.00    -0.596 OA 
HETATM   19  C   UNL     1     -10.214  17.283  66.485  1.00  0.00    -0.325 C  
HETATM   20  C   UNL     1     -10.341  15.283  65.309  1.00  0.00    -0.401 C  
ENDBRANCH  15  16
ENDBRANCH  14  15
ENDBRANCH  10  11
BRANCH  10  21
HETATM   21  C   UNL     1     -11.492  11.087  68.363  1.00  0.00    -0.378 C  
BRANCH  21  22
HETATM   22  C   UNL     1     -11.553  10.475  69.749  1.00  0.00    -0.368 A  
HETATM   23  C   UNL     1     -12.872   9.735  71.656  1.00  0.00    -0.519 A  
HETATM   24  C   UNL     1     -12.759  10.456  70.463  1.00  0.00    -0.355 A  
HETATM   25  C   UNL     1     -11.779   9.036  72.163  1.00  0.00    -0.366 A  
HETATM   26  C   UNL     1     -10.455   9.778  70.280  1.00  0.00    -0.345 A  
HETATM   27  C   UNL     1     -10.568   9.064  71.479  1.00  0.00    -0.415 A  
ENDBRANCH  21  22
ENDBRANCH  10  21
ENDBRANCH   7  10
ENDBRANCH   6   7
ENDBRANCH   5   6
BRANCH   5  28
HETATM   28  S   UNL     1      -7.209   7.366  65.105  1.00  0.00    -0.069 S  
HETATM   29  O   UNL     1      -7.187   8.132  63.881  1.00  0.00    -0.084 OA 
HETATM   30  O   UNL     1      -5.973   6.930  65.730  1.00  0.00    -0.033 OA 
BRANCH  28  31
HETATM   31  C   UNL     1      -8.190   5.926  64.782  1.00  0.00    -0.129 A  
HETATM   32  N   UNL     1     -10.563   2.549  63.986  1.00  0.00    -0.413 NA 
HETATM   33  H2  UNL     1     -11.528   2.873  64.055  1.00  0.00     0.000 HD 
HETATM   34  H1  UNL     1     -10.458   2.036  63.111  1.00  0.00     0.000 HD 
HETATM   35  C   UNL     1      -9.091   5.468  65.744  1.00  0.00    -0.152 A  
HETATM   36  C   UNL     1      -9.860   4.326  65.482  1.00  0.00    -0.221 A  
HETATM   37  C   UNL     1      -8.102   5.282  63.540  1.00  0.00    -0.115 A  
HETATM   38  C   UNL     1      -8.880   4.148  63.289  1.00  0.00    -0.116 A  
HETATM   39  C   UNL     1      -9.716   3.622  64.280  1.00  0.00    -0.175 A  
ENDBRANCH  28  31
ENDBRANCH   5  28
ENDBRANCH   4   5
TORSDOF 11
ENDMDL
MODEL      209
REMARK 921   NORMALIZED FREE ENERGY PREDICTED BY IDOCK:   -5.11 KCAL/MOL
REMARK 922        TOTAL FREE ENERGY PREDICTED BY IDOCK:  -10.16 KCAL/MOL
REMARK 923 INTER-LIGAND FREE ENERGY PREDICTED BY IDOCK:   -9.48 KCAL/MOL
REMARK 924 INTRA-LIGAND FREE ENERGY PREDICTED BY IDOCK:   -0.69 KCAL/MOL
REMARK 927      BINDING AFFINITY PREDICTED BY RF-SCORE:    0.00 PKD
ROOT
HETATM    1  C   UNL     1     -10.967   9.355  71.561  1.00  0.00    -0.429 C  
HETATM    2  C   UNL     1     -12.302   9.865  71.015  1.00  0.00    -0.451 C  
HETATM    3  C   UNL     1     -13.365   9.689  72.118  1.00  0.00    -0.545 C  
HETATM    4  C   UNL     1     -12.262  11.342  70.577  1.00  0.00    -0.383 C  
ENDROOT
BRANCH   4   5
HETATM    5  N   UNL     1     -11.258  11.722  69.495  1.00  0.00    -0.228 N  
BRANCH   5   6
HETATM    6  C   UNL     1     -11.372  10.811  68.248  1.00  0.00    -0.309 C  
BRANCH   6   7
HETATM    7  C   UNL     1     -10.309   9.665  68.115  1.00  0.00    -0.209 C  
HETATM    8  H   UNL     1     -10.063   8.103  66.967  1.00  0.00     0.000 HD 
HETATM    9  O   UNL     1     -10.706   8.797  67.048  1.00  0.00    -0.262 OA 
BRANCH   7  10
HETATM   10  C   UNL     1      -8.839  10.194  67.928  1.00  0.00    -0.125 C  
BRANCH  10  11
HETATM   11  N   UNL     1      -7.874   9.124  67.602  1.00  0.00    -0.096 N  
HETATM   12  O   UNL     1      -7.553   8.485  69.779  1.00  0.00    -0.079 OA 
HETATM   13  H   UNL     1      -7.630   8.949  66.627  1.00  0.00     0.000 HD 
HETATM   14  C   UNL     1      -7.302   8.361  68.590  1.00  0.00    -0.088 C  
BRANCH  14  15
HETATM   15  O   UNL     1      -6.403   7.470  68.083  1.00  0.00    -0.045 OA 
BRANCH  15  16
HETATM   16  C   UNL     1      -6.991   6.220  67.674  1.00  0.00    -0.075 C  
HETATM   17  C   UNL     1      -6.967   6.049  66.169  1.00  0.00    -0.062 C  
HETATM   18  O   UNL     1      -6.280   3.999  67.106  1.00  0.00    -0.033 OA 
HETATM   19  C   UNL     1      -7.024   4.545  66.012  1.00  0.00    -0.066 C  
HETATM   20  C   UNL     1      -6.209   4.994  68.141  1.00  0.00    -0.035 C  
ENDBRANCH  15  16
ENDBRANCH  14  15
ENDBRANCH  10  11
BRANCH  10  21
HETATM   21  C   UNL     1      -8.658  11.440  67.020  1.00  0.00    -0.157 C  
BRANCH  21  22
HETATM   22  C   UNL     1      -9.309  11.502  65.653  1.00  0.00    -0.221 A  
HETATM   23  C   UNL     1      -9.681  10.507  63.462  1.00  0.00    -0.374 A  
HETATM   24  C   UNL     1      -8.960  10.577  64.658  1.00  0.00    -0.229 A  
HETATM   25  C   UNL     1     -10.752  11.369  63.233  1.00  0.00    -0.332 A  
HETATM   26  C   UNL     1     -10.380  12.375  65.401  1.00  0.00    -0.303 A  
HETATM   27  C   UNL     1     -11.096  12.309  64.200  1.00  0.00    -0.423 A  
ENDBRANCH  21  22
ENDBRANCH  10  21
ENDBRANCH   7  10
ENDBRANCH   6   7
ENDBRANCH   5   6
BRANCH   5  28
HETATM   28  S   UNL     1     -11.443  13.416  69.051  1.00  0.00    -0.320 S  
HETATM   29  O   UNL     1     -10.144  13.978  68.764  1.00  0.00    -0.229 OA 
HETATM   30  O   UNL     1     -12.501  13.449  68.058  1.00  0.00    -0.042 OA 
BRANCH  28  31
HETATM   31  C   UNL     1     -12.038  14.238  70.504  1.00  0.00    -0.343 A  
HETATM   32  N   UNL     1     -13.424  16.138  73.988  1.00  0.00    -0.812 NA 
HETATM   33  H2  UNL     1     -13.648  15.385  74.638  1.00  0.00     0.000 HD 
HETATM   34  H1  UNL     1     -12.840  16.819  74.475  1.00  0.00     0.000 HD 
HETATM   35  C   UNL     1     -13.328  13.978  70.971  1.00  0.00    -0.241 A  
HETATM   36  C   UNL     1     -13.792  14.636  72.118  1.00  0.00    -0.569 A  
HETATM   37  C   UNL     1     -11.196  15.102  71.215  1.00  0.00    -0.326 A  
HETATM   38  C   UNL     1     -11.669  15.747  72.362  1.00  0.00    -0.577 A  
HETATM   39  C   UNL     1     -12.990  15.570  72.786  1.00  0.00    -0.457 A  
ENDBRANCH  28  31
ENDBRANCH   5  28
ENDBRANCH   4   5
TORSDOF 11
ENDMDL
MODEL      210
REMARK 921   NORMALIZED FREE ENERGY PREDICTED BY IDOCK:   -5.10 KCAL/MOL
REMARK 922        TOTAL FREE ENERGY PREDICTED BY IDOCK:  -10.16 KCAL/MOL
REMARK 923 INTER-LIGAND FREE ENERGY PREDICTED BY IDOCK:   -7.86 KCAL/MOL
REMARK 924 INTRA-LIGAND FREE ENERGY PREDICTED BY IDOCK:   -2.30 KCAL/MOL
REMARK 927      BINDING AFFINITY PREDICTED BY RF-SCORE:    0.00 PKD
ROOT
HETATM    1  C   UNL     1      -7.286   8.795  69.850  1.00  0.00    -0.052 C  
HETATM    2  C   UNL     1      -7.028   9.798  68.724  1.00  0.00    -0.066 C  
HETATM    3  C   UNL     1      -5.733  10.565  69.058  1.00  0.00    -0.040 C  
HETATM    4  C   UNL     1      -6.889   9.142  67.337  1.00  0.00    -0.077 C  
ENDROOT
BRANCH   4   5
HETATM    5  N   UNL     1      -8.071   8.323  66.830  1.00  0.00    -0.103 N  
BRANCH   5   6
HETATM    6  C   UNL     1      -9.152   9.210  66.166  1.00  0.00    -0.187 C  
BRANCH   6   7
HETATM    7  C   UNL     1     -10.612   9.075  66.723  1.00  0.00    -0.131 C  
HETATM    8  H   UNL     1     -11.664   7.671  67.584  1.00  0.00     0.000 HD 
HETATM    9  O   UNL     1     -10.780   7.753  67.247  1.00  0.00    -0.307 OA 
BRANCH   7  10
HETATM   10  C   UNL     1     -10.983  10.179  67.781  1.00  0.00    -0.277 C  
BRANCH  10  11
HETATM   11  N   UNL     1     -10.840   9.717  69.176  1.00  0.00    -0.296 N  
HETATM   12  O   UNL     1     -12.715  10.799  69.931  1.00  0.00    -0.245 OA 
HETATM   13  H   UNL     1     -10.060   9.109  69.426  1.00  0.00     0.000 HD 
HETATM   14  C   UNL     1     -11.740  10.093  70.143  1.00  0.00    -0.256 C  
BRANCH  14  15
HETATM   15  O   UNL     1     -11.397   9.605  71.369  1.00  0.00    -0.361 OA 
BRANCH  15  16
HETATM   16  C   UNL     1     -11.038   8.210  71.361  1.00  0.00    -0.247 C  
HETATM   17  C   UNL     1     -10.211   7.830  72.572  1.00  0.00    -0.320 C  
HETATM   18  O   UNL     1     -11.831   6.143  72.288  1.00  0.00    -0.319 OA 
HETATM   19  C   UNL     1     -10.472   6.345  72.690  1.00  0.00    -0.210 C  
HETATM   20  C   UNL     1     -12.234   7.270  71.491  1.00  0.00    -0.352 C  
ENDBRANCH  15  16
ENDBRANCH  14  15
ENDBRANCH  10  11
BRANCH  10  21
HETATM   21  C   UNL     1     -10.363  11.586  67.565  1.00  0.00    -0.220 C  
BRANCH  21  22
HETATM   22  C   UNL     1     -10.879  12.498  66.469  1.00  0.00    -0.287 A  
HETATM   23  C   UNL     1     -10.724  13.325  64.185  1.00  0.00    -0.350 A  
HETATM   24  C   UNL     1     -10.169  12.636  65.268  1.00  0.00    -0.302 A  
HETATM   25  C   UNL     1     -11.988  13.900  64.289  1.00  0.00    -0.477 A  
HETATM   26  C   UNL     1     -12.146  13.097  66.564  1.00  0.00    -0.423 A  
HETATM   27  C   UNL     1     -12.696  13.793  65.482  1.00  0.00    -0.530 A  
ENDBRANCH  21  22
ENDBRANCH  10  21
ENDBRANCH   7  10
ENDBRANCH   6   7
ENDBRANCH   5   6
BRANCH   5  28
HETATM   28  S   UNL     1      -7.521   7.070  65.721  1.00  0.00    -0.084 S  
HETATM   29  O   UNL     1      -8.135   7.274  64.430  1.00  0.00    -0.132 OA 
HETATM   30  O   UNL     1      -6.077   7.030  65.859  1.00  0.00    -0.034 OA 
BRANCH  28  31
HETATM   31  C   UNL     1      -8.168   5.545  66.351  1.00  0.00    -0.106 A  
HETATM   32  N   UNL     1      -9.763   1.951  67.837  1.00  0.00    -0.383 NA 
HETATM   33  H2  UNL     1     -10.614   2.216  68.333  1.00  0.00     0.000 HD 
HETATM   34  H1  UNL     1      -9.986   1.182  67.205  1.00  0.00     0.000 HD 
HETATM   35  C   UNL     1      -8.344   5.379  67.726  1.00  0.00    -0.099 A  
HETATM   36  C   UNL     1      -8.851   4.168  68.215  1.00  0.00    -0.133 A  
HETATM   37  C   UNL     1      -8.555   4.529  65.467  1.00  0.00    -0.123 A  
HETATM   38  C   UNL     1      -9.066   3.328  65.968  1.00  0.00    -0.151 A  
HETATM   39  C   UNL     1      -9.158   3.113  67.347  1.00  0.00    -0.176 A  
ENDBRANCH  28  31
ENDBRANCH   5  28
ENDBRANCH   4   5
TORSDOF 11
ENDMDL
MODEL      211
REMARK 921   NORMALIZED FREE ENERGY PREDICTED BY IDOCK:   -5.10 KCAL/MOL
REMARK 922        TOTAL FREE ENERGY PREDICTED BY IDOCK:  -10.14 KCAL/MOL
REMARK 923 INTER-LIGAND FREE ENERGY PREDICTED BY IDOCK:   -8.55 KCAL/MOL
REMARK 924 INTRA-LIGAND FREE ENERGY PREDICTED BY IDOCK:   -1.59 KCAL/MOL
REMARK 927      BINDING AFFINITY PREDICTED BY RF-SCORE:    0.00 PKD
ROOT
HETATM    1  C   UNL     1     -11.204  11.515  67.173  1.00  0.00    -0.365 C  
HETATM    2  C   UNL     1     -10.618  12.799  67.763  1.00  0.00    -0.231 C  
HETATM    3  C   UNL     1     -11.656  13.392  68.737  1.00  0.00    -0.363 C  
HETATM    4  C   UNL     1      -9.287  12.580  68.510  1.00  0.00    -0.082 C  
ENDROOT
BRANCH   4   5
HETATM    5  N   UNL     1      -8.131  11.984  67.714  1.00  0.00    -0.139 N  
BRANCH   5   6
HETATM    6  C   UNL     1      -7.080  13.053  67.326  1.00  0.00    -0.044 C  
BRANCH   6   7
HETATM    7  C   UNL     1      -7.038  14.350  68.207  1.00  0.00    -0.112 C  
HETATM    8  H   UNL     1      -5.864  15.071  69.592  1.00  0.00     0.000 HD 
HETATM    9  O   UNL     1      -5.889  14.285  69.059  1.00  0.00    -0.086 OA 
BRANCH   7  10
HETATM   10  C   UNL     1      -7.073  15.680  67.365  1.00  0.00    -0.207 C  
BRANCH  10  11
HETATM   11  N   UNL     1      -8.443  16.140  67.064  1.00  0.00    -0.190 N  
HETATM   12  O   UNL     1      -9.090  16.265  69.260  1.00  0.00    -0.251 OA 
HETATM   13  H   UNL     1      -8.724  16.279  66.093  1.00  0.00     0.000 HD 
HETATM   14  C   UNL     1      -9.345  16.383  68.071  1.00  0.00    -0.216 C  
BRANCH  14  15
HETATM   15  O   UNL     1     -10.565  16.745  67.579  1.00  0.00    -0.323 OA 
BRANCH  15  16
HETATM   16  C   UNL     1     -10.766  18.170  67.514  1.00  0.00    -0.345 C  
HETATM   17  C   UNL     1      -9.739  18.925  68.333  1.00  0.00    -0.432 C  
HETATM   18  O   UNL     1      -9.935  20.047  66.271  1.00  0.00    -0.436 OA 
HETATM   19  C   UNL     1      -9.728  20.283  67.667  1.00  0.00    -0.417 C  
HETATM   20  C   UNL     1     -10.545  18.755  66.121  1.00  0.00    -0.377 C  
ENDBRANCH  15  16
ENDBRANCH  14  15
ENDBRANCH  10  11
BRANCH  10  21
HETATM   21  C   UNL     1      -6.162  16.837  67.855  1.00  0.00    -0.148 C  
BRANCH  21  22
HETATM   22  C   UNL     1      -6.329  18.239  67.304  1.00  0.00    -0.190 A  
HETATM   23  C   UNL     1      -6.111  20.646  67.598  1.00  0.00    -0.316 A  
HETATM   24  C   UNL     1      -6.142  19.354  68.133  1.00  0.00    -0.235 A  
HETATM   25  C   UNL     1      -6.281  20.846  66.229  1.00  0.00    -0.309 A  
HETATM   26  C   UNL     1      -6.515  18.458  65.929  1.00  0.00    -0.290 A  
HETATM   27  C   UNL     1      -6.492  19.751  65.396  1.00  0.00    -0.300 A  
ENDBRANCH  21  22
ENDBRANCH  10  21
ENDBRANCH   7  10
ENDBRANCH   6   7
ENDBRANCH   5   6
BRANCH   5  28
HETATM   28  S   UNL     1      -7.382  10.666  68.610  1.00  0.00    -0.102 S  
HETATM   29  O   UNL     1      -6.518   9.920  67.726  1.00  0.00    -0.062 OA 
HETATM   30  O   UNL     1      -6.862  11.264  69.826  1.00  0.00    -0.126 OA 
BRANCH  28  31
HETATM   31  C   UNL     1      -8.702   9.575  69.065  1.00  0.00    -0.142 A  
HETATM   32  N   UNL     1     -11.877   7.030  70.120  1.00  0.00    -0.592 NA 
HETATM   33  H2  UNL     1     -12.636   7.648  70.407  1.00  0.00     0.000 HD 
HETATM   34  H1  UNL     1     -12.247   6.357  69.450  1.00  0.00     0.000 HD 
HETATM   35  C   UNL     1      -9.220   9.612  70.360  1.00  0.00    -0.258 A  
HETATM   36  C   UNL     1     -10.261   8.741  70.712  1.00  0.00    -0.262 A  
HETATM   37  C   UNL     1      -9.262   8.716  68.109  1.00  0.00    -0.142 A  
HETATM   38  C   UNL     1     -10.305   7.858  68.472  1.00  0.00    -0.229 A  
HETATM   39  C   UNL     1     -10.768   7.817  69.791  1.00  0.00    -0.236 A  
ENDBRANCH  28  31
ENDBRANCH   5  28
ENDBRANCH   4   5
TORSDOF 11
ENDMDL
MODEL      212
REMARK 921   NORMALIZED FREE ENERGY PREDICTED BY IDOCK:   -5.09 KCAL/MOL
REMARK 922        TOTAL FREE ENERGY PREDICTED BY IDOCK:  -10.13 KCAL/MOL
REMARK 923 INTER-LIGAND FREE ENERGY PREDICTED BY IDOCK:   -9.89 KCAL/MOL
REMARK 924 INTRA-LIGAND FREE ENERGY PREDICTED BY IDOCK:   -0.25 KCAL/MOL
REMARK 927      BINDING AFFINITY PREDICTED BY RF-SCORE:    0.00 PKD
ROOT
HETATM    1  C   UNL     1      -6.262  12.265  69.324  1.00  0.00    -0.098 C  
HETATM    2  C   UNL     1      -7.151  13.033  68.345  1.00  0.00    -0.103 C  
HETATM    3  C   UNL     1      -6.423  14.337  67.962  1.00  0.00    -0.158 C  
HETATM    4  C   UNL     1      -7.483  12.240  67.066  1.00  0.00    -0.063 C  
ENDROOT
BRANCH   4   5
HETATM    5  N   UNL     1      -8.199  10.905  67.238  1.00  0.00    -0.121 N  
BRANCH   5   6
HETATM    6  C   UNL     1      -9.366  10.996  68.251  1.00  0.00    -0.172 C  
BRANCH   6   7
HETATM    7  C   UNL     1      -9.497   9.819  69.280  1.00  0.00    -0.194 C  
HETATM    8  H   UNL     1      -8.877   9.467  71.099  1.00  0.00     0.000 HD 
HETATM    9  O   UNL     1      -8.797  10.180  70.476  1.00  0.00     0.102 OA 
BRANCH   7  10
HETATM   10  C   UNL     1     -10.988   9.406  69.571  1.00  0.00    -0.173 C  
BRANCH  10  11
HETATM   11  N   UNL     1     -11.234   7.961  69.391  1.00  0.00    -0.435 N  
HETATM   12  O   UNL     1     -10.245   7.349  71.366  1.00  0.00    -0.188 OA 
HETATM   13  H   UNL     1     -11.723   7.636  68.556  1.00  0.00     0.000 HD 
HETATM   14  C   UNL     1     -10.816   7.049  70.328  1.00  0.00    -0.254 C  
BRANCH  14  15
HETATM   15  O   UNL     1     -11.092   5.769  69.946  1.00  0.00    -0.360 OA 
BRANCH  15  16
HETATM   16  C   UNL     1      -9.923   5.000  69.603  1.00  0.00    -0.241 C  
HETATM   17  C   UNL     1      -9.782   3.765  70.469  1.00  0.00    -0.230 C  
HETATM   18  O   UNL     1      -9.354   3.102  68.249  1.00  0.00    -0.177 OA 
HETATM   19  C   UNL     1      -8.947   2.852  69.598  1.00  0.00    -0.106 C  
HETATM   20  C   UNL     1      -9.979   4.395  68.202  1.00  0.00     0.001 C  
ENDBRANCH  15  16
ENDBRANCH  14  15
ENDBRANCH  10  11
BRANCH  10  21
HETATM   21  C   UNL     1     -11.616   9.947  70.883  1.00  0.00    -0.456 C  
BRANCH  21  22
HETATM   22  C   UNL     1     -12.276  11.310  70.920  1.00  0.00    -0.460 A  
HETATM   23  C   UNL     1     -13.641  12.947  72.098  1.00  0.00    -0.589 A  
HETATM   24  C   UNL     1     -13.170  11.638  71.949  1.00  0.00    -0.475 A  
HETATM   25  C   UNL     1     -13.238  13.945  71.213  1.00  0.00    -0.352 A  
HETATM   26  C   UNL     1     -11.892  12.324  70.026  1.00  0.00    -0.372 A  
HETATM   27  C   UNL     1     -12.370  13.631  70.172  1.00  0.00    -0.372 A  
ENDBRANCH  21  22
ENDBRANCH  10  21
ENDBRANCH   7  10
ENDBRANCH   6   7
ENDBRANCH   5   6
BRANCH   5  28
HETATM   28  S   UNL     1      -8.767  10.307  65.681  1.00  0.00    -0.170 S  
HETATM   29  O   UNL     1      -7.660  10.266  64.755  1.00  0.00    -0.143 OA 
HETATM   30  O   UNL     1      -9.531   9.108  65.977  1.00  0.00    -0.216 OA 
BRANCH  28  31
HETATM   31  C   UNL     1      -9.893  11.530  65.070  1.00  0.00    -0.257 A  
HETATM   32  N   UNL     1     -12.519  14.452  63.573  1.00  0.00    -1.090 NA 
HETATM   33  H2  UNL     1     -11.923  15.217  63.258  1.00  0.00     0.000 HD 
HETATM   34  H1  UNL     1     -13.174  14.225  62.824  1.00  0.00     0.000 HD 
HETATM   35  C   UNL     1      -9.910  12.806  65.637  1.00  0.00    -0.190 A  
HETATM   36  C   UNL     1     -10.807  13.766  65.150  1.00  0.00    -0.349 A  
HETATM   37  C   UNL     1     -10.724  11.236  63.981  1.00  0.00    -0.444 A  
HETATM   38  C   UNL     1     -11.610  12.206  63.501  1.00  0.00    -0.562 A  
HETATM   39  C   UNL     1     -11.705  13.455  64.122  1.00  0.00    -0.419 A  
ENDBRANCH  28  31
ENDBRANCH   5  28
ENDBRANCH   4   5
TORSDOF 11
ENDMDL
MODEL      213
REMARK 921   NORMALIZED FREE ENERGY PREDICTED BY IDOCK:   -5.08 KCAL/MOL
REMARK 922        TOTAL FREE ENERGY PREDICTED BY IDOCK:  -10.11 KCAL/MOL
REMARK 923 INTER-LIGAND FREE ENERGY PREDICTED BY IDOCK:   -8.55 KCAL/MOL
REMARK 924 INTRA-LIGAND FREE ENERGY PREDICTED BY IDOCK:   -1.56 KCAL/MOL
REMARK 927      BINDING AFFINITY PREDICTED BY RF-SCORE:    0.00 PKD
ROOT
HETATM    1  C   UNL     1     -11.579  14.103  69.014  1.00  0.00    -0.342 C  
HETATM    2  C   UNL     1     -11.150  13.096  67.945  1.00  0.00    -0.288 C  
HETATM    3  C   UNL     1     -12.092  13.256  66.735  1.00  0.00    -0.403 C  
HETATM    4  C   UNL     1      -9.691  13.275  67.483  1.00  0.00    -0.224 C  
ENDROOT
BRANCH   4   5
HETATM    5  N   UNL     1      -8.604  13.163  68.545  1.00  0.00    -0.110 N  
BRANCH   5   6
HETATM    6  C   UNL     1      -7.882  11.794  68.498  1.00  0.00    -0.144 C  
BRANCH   6   7
HETATM    7  C   UNL     1      -8.098  10.929  67.207  1.00  0.00    -0.123 C  
HETATM    8  H   UNL     1      -6.963  10.217  65.785  1.00  0.00     0.000 HD 
HETATM    9  O   UNL     1      -6.832  10.741  66.567  1.00  0.00    -0.113 OA 
BRANCH   7  10
HETATM   10  C   UNL     1      -8.827   9.562  67.485  1.00  0.00    -0.125 C  
BRANCH  10  11
HETATM   11  N   UNL     1      -9.523   9.530  68.787  1.00  0.00    -0.145 N  
HETATM   12  O   UNL     1     -10.020   7.294  68.684  1.00  0.00    -0.158 OA 
HETATM   13  H   UNL     1      -9.594  10.384  69.339  1.00  0.00     0.000 HD 
HETATM   14  C   UNL     1     -10.076   8.367  69.265  1.00  0.00    -0.202 C  
BRANCH  14  15
HETATM   15  O   UNL     1     -10.717   8.564  70.452  1.00  0.00    -0.219 OA 
BRANCH  15  16
HETATM   16  C   UNL     1     -10.302   7.660  71.494  1.00  0.00    -0.196 C  
HETATM   17  C   UNL     1      -9.189   8.243  72.341  1.00  0.00    -0.326 C  
HETATM   18  O   UNL     1     -10.744   7.273  73.821  1.00  0.00    -0.353 OA 
HETATM   19  C   UNL     1      -9.341   7.486  73.642  1.00  0.00    -0.277 C  
HETATM   20  C   UNL     1     -11.383   7.393  72.539  1.00  0.00    -0.313 C  
ENDBRANCH  15  16
ENDBRANCH  14  15
ENDBRANCH  10  11
BRANCH  10  21
HETATM   21  C   UNL     1      -9.707   8.997  66.337  1.00  0.00    -0.337 C  
BRANCH  21  22
HETATM   22  C   UNL     1      -9.518   9.475  64.911  1.00  0.00    -0.230 A  
HETATM   23  C   UNL     1      -9.856  11.184  63.211  1.00  0.00    -0.415 A  
HETATM   24  C   UNL     1     -10.165  10.634  64.459  1.00  0.00    -0.399 A  
HETATM   25  C   UNL     1      -8.908  10.578  62.389  1.00  0.00    -0.299 A  
HETATM   26  C   UNL     1      -8.576   8.866  64.064  1.00  0.00    -0.122 A  
HETATM   27  C   UNL     1      -8.274   9.414  62.812  1.00  0.00    -0.162 A  
ENDBRANCH  21  22
ENDBRANCH  10  21
ENDBRANCH   7  10
ENDBRANCH   6   7
ENDBRANCH   5   6
BRANCH   5  28
HETATM   28  S   UNL     1      -7.450  14.484  68.387  1.00  0.00    -0.127 S  
HETATM   29  O   UNL     1      -6.901  14.795  69.686  1.00  0.00    -0.154 OA 
HETATM   30  O   UNL     1      -6.582  14.117  67.283  1.00  0.00    -0.274 OA 
BRANCH  28  31
HETATM   31  C   UNL     1      -8.394  15.897  67.887  1.00  0.00    -0.153 A  
HETATM   32  N   UNL     1     -10.689  19.212  66.694  1.00  0.00    -0.412 NA 
HETATM   33  H2  UNL     1     -11.372  18.845  66.031  1.00  0.00     0.000 HD 
HETATM   34  H1  UNL     1     -11.184  19.776  67.385  1.00  0.00     0.000 HD 
HETATM   35  C   UNL     1      -8.438  16.264  66.540  1.00  0.00    -0.338 A  
HETATM   36  C   UNL     1      -9.184  17.386  66.155  1.00  0.00    -0.171 A  
HETATM   37  C   UNL     1      -9.142  16.611  68.832  1.00  0.00    -0.238 A  
HETATM   38  C   UNL     1      -9.888  17.725  68.433  1.00  0.00    -0.347 A  
HETATM   39  C   UNL     1      -9.863  18.160  67.104  1.00  0.00    -0.317 A  
ENDBRANCH  28  31
ENDBRANCH   5  28
ENDBRANCH   4   5
TORSDOF 11
ENDMDL
MODEL      214
REMARK 921   NORMALIZED FREE ENERGY PREDICTED BY IDOCK:   -5.07 KCAL/MOL
REMARK 922        TOTAL FREE ENERGY PREDICTED BY IDOCK:  -10.11 KCAL/MOL
REMARK 923 INTER-LIGAND FREE ENERGY PREDICTED BY IDOCK:   -9.00 KCAL/MOL
REMARK 924 INTRA-LIGAND FREE ENERGY PREDICTED BY IDOCK:   -1.11 KCAL/MOL
REMARK 927      BINDING AFFINITY PREDICTED BY RF-SCORE:    0.00 PKD
ROOT
HETATM    1  C   UNL     1      -5.686   6.159  65.361  1.00  0.00    -0.024 C  
HETATM    2  C   UNL     1      -7.086   6.254  64.753  1.00  0.00    -0.057 C  
HETATM    3  C   UNL     1      -7.061   5.538  63.387  1.00  0.00    -0.043 C  
HETATM    4  C   UNL     1      -8.183   5.629  65.636  1.00  0.00    -0.126 C  
ENDROOT
BRANCH   4   5
HETATM    5  N   UNL     1      -8.358   6.197  67.040  1.00  0.00    -0.106 N  
BRANCH   5   6
HETATM    6  C   UNL     1      -9.525   7.211  67.117  1.00  0.00    -0.147 C  
BRANCH   6   7
HETATM    7  C   UNL     1      -9.163   8.667  67.576  1.00  0.00    -0.133 C  
HETATM    8  H   UNL     1      -7.718   9.934  67.222  1.00  0.00     0.000 HD 
HETATM    9  O   UNL     1      -7.938   9.053  66.944  1.00  0.00    -0.103 OA 
BRANCH   7  10
HETATM   10  C   UNL     1     -10.313   9.709  67.318  1.00  0.00    -0.249 C  
BRANCH  10  11
HETATM   11  N   UNL     1     -11.287   9.785  68.425  1.00  0.00    -0.517 N  
HETATM   12  O   UNL     1      -9.697   9.917  70.071  1.00  0.00    -0.236 OA 
HETATM   13  H   UNL     1     -12.286   9.772  68.217  1.00  0.00     0.000 HD 
HETATM   14  C   UNL     1     -10.870   9.872  69.730  1.00  0.00    -0.269 C  
BRANCH  14  15
HETATM   15  O   UNL     1     -11.922   9.875  70.598  1.00  0.00    -0.271 OA 
BRANCH  15  16
HETATM   16  C   UNL     1     -12.702  11.085  70.561  1.00  0.00    -0.247 C  
HETATM   17  C   UNL     1     -13.106  11.543  71.947  1.00  0.00    -0.492 C  
HETATM   18  O   UNL     1     -12.364  13.451  70.782  1.00  0.00    -0.353 OA 
HETATM   19  C   UNL     1     -13.331  13.026  71.747  1.00  0.00    -0.378 C  
HETATM   20  C   UNL     1     -11.928  12.297  70.045  1.00  0.00    -0.304 C  
ENDBRANCH  15  16
ENDBRANCH  14  15
ENDBRANCH  10  11
BRANCH  10  21
HETATM   21  C   UNL     1      -9.879  11.115  66.824  1.00  0.00    -0.230 C  
BRANCH  21  22
HETATM   22  C   UNL     1     -10.718  11.873  65.814  1.00  0.00    -0.327 A  
HETATM   23  C   UNL     1     -11.623  12.062  63.562  1.00  0.00    -0.553 A  
HETATM   24  C   UNL     1     -10.719  11.493  64.465  1.00  0.00    -0.390 A  
HETATM   25  C   UNL     1     -12.529  13.031  63.989  1.00  0.00    -0.369 A  
HETATM   26  C   UNL     1     -11.626  12.863  66.226  1.00  0.00    -0.424 A  
HETATM   27  C   UNL     1     -12.525  13.437  65.320  1.00  0.00    -0.532 A  
ENDBRANCH  21  22
ENDBRANCH  10  21
ENDBRANCH   7  10
ENDBRANCH   6   7
ENDBRANCH   5   6
BRANCH   5  28
HETATM   28  S   UNL     1      -8.580   4.897  68.207  1.00  0.00    -0.102 S  
HETATM   29  O   UNL     1      -9.556   3.962  67.698  1.00  0.00    -0.186 OA 
HETATM   30  O   UNL     1      -7.243   4.455  68.561  1.00  0.00    -0.058 OA 
BRANCH  28  31
HETATM   31  C   UNL     1      -9.300   5.648  69.641  1.00  0.00    -0.138 A  
HETATM   32  N   UNL     1     -10.990   7.376  73.081  1.00  0.00    -0.475 NA 
HETATM   33  H2  UNL     1     -11.339   6.594  73.634  1.00  0.00     0.000 HD 
HETATM   34  H1  UNL     1     -10.431   7.975  73.688  1.00  0.00     0.000 HD 
HETATM   35  C   UNL     1     -10.651   5.446  69.927  1.00  0.00    -0.351 A  
HETATM   36  C   UNL     1     -11.213   6.048  71.061  1.00  0.00    -0.332 A  
HETATM   37  C   UNL     1      -8.501   6.395  70.517  1.00  0.00    -0.138 A  
HETATM   38  C   UNL     1      -9.074   6.984  71.649  1.00  0.00    -0.139 A  
HETATM   39  C   UNL     1     -10.446   6.870  71.895  1.00  0.00    -0.201 A  
ENDBRANCH  28  31
ENDBRANCH   5  28
ENDBRANCH   4   5
TORSDOF 11
ENDMDL
MODEL      215
REMARK 921   NORMALIZED FREE ENERGY PREDICTED BY IDOCK:   -5.07 KCAL/MOL
REMARK 922        TOTAL FREE ENERGY PREDICTED BY IDOCK:  -10.10 KCAL/MOL
REMARK 923 INTER-LIGAND FREE ENERGY PREDICTED BY IDOCK:   -8.66 KCAL/MOL
REMARK 924 INTRA-LIGAND FREE ENERGY PREDICTED BY IDOCK:   -1.44 KCAL/MOL
REMARK 927      BINDING AFFINITY PREDICTED BY RF-SCORE:    0.00 PKD
ROOT
HETATM    1  C   UNL     1      -6.982   7.865  67.175  1.00  0.00    -0.074 C  
HETATM    2  C   UNL     1      -7.308   9.284  66.708  1.00  0.00    -0.086 C  
HETATM    3  C   UNL     1      -7.157   9.327  65.174  1.00  0.00    -0.090 C  
HETATM    4  C   UNL     1      -8.728   9.746  67.092  1.00  0.00    -0.132 C  
ENDROOT
BRANCH   4   5
HETATM    5  N   UNL     1      -9.078   9.763  68.575  1.00  0.00    -0.127 N  
BRANCH   5   6
HETATM    6  C   UNL     1      -9.462  11.180  69.068  1.00  0.00    -0.058 C  
BRANCH   6   7
HETATM    7  C   UNL     1     -10.246  12.087  68.056  1.00  0.00    -0.198 C  
HETATM    8  H   UNL     1     -11.897  11.938  67.022  1.00  0.00     0.000 HD 
HETATM    9  O   UNL     1     -11.423  11.388  67.635  1.00  0.00    -0.376 OA 
BRANCH   7  10
HETATM   10  C   UNL     1     -10.581  13.515  68.626  1.00  0.00    -0.244 C  
BRANCH  10  11
HETATM   11  N   UNL     1      -9.898  14.604  67.900  1.00  0.00    -0.215 N  
HETATM   12  O   UNL     1      -8.925  15.503  69.771  1.00  0.00    -0.240 OA 
HETATM   13  H   UNL     1     -10.002  14.675  66.888  1.00  0.00     0.000 HD 
HETATM   14  C   UNL     1      -9.124  15.523  68.566  1.00  0.00    -0.196 C  
BRANCH  14  15
HETATM   15  O   UNL     1      -8.630  16.474  67.722  1.00  0.00    -0.175 OA 
BRANCH  15  16
HETATM   16  C   UNL     1      -9.591  17.481  67.355  1.00  0.00    -0.265 C  
HETATM   17  C   UNL     1      -9.837  18.468  68.478  1.00  0.00    -0.414 C  
HETATM   18  O   UNL     1      -9.609  19.723  66.497  1.00  0.00    -0.353 OA 
HETATM   19  C   UNL     1     -10.327  19.691  67.735  1.00  0.00    -0.454 C  
HETATM   20  C   UNL     1      -9.116  18.400  66.230  1.00  0.00    -0.201 C  
ENDBRANCH  15  16
ENDBRANCH  14  15
ENDBRANCH  10  11
BRANCH  10  21
HETATM   21  C   UNL     1     -12.080  13.830  68.876  1.00  0.00    -0.348 C  
BRANCH  21  22
HETATM   22  C   UNL     1     -12.593  14.086  70.279  1.00  0.00    -0.354 A  
HETATM   23  C   UNL     1     -13.288  13.223  72.447  1.00  0.00    -0.616 A  
HETATM   24  C   UNL     1     -12.990  13.018  71.096  1.00  0.00    -0.265 A  
HETATM   25  C   UNL     1     -13.209  14.499  73.000  1.00  0.00    -0.575 A  
HETATM   26  C   UNL     1     -12.534  15.370  70.847  1.00  0.00    -0.474 A  
HETATM   27  C   UNL     1     -12.840  15.574  72.197  1.00  0.00    -0.492 A  
ENDBRANCH  21  22
ENDBRANCH  10  21
ENDBRANCH   7  10
ENDBRANCH   6   7
ENDBRANCH   5   6
BRANCH   5  28
HETATM   28  S   UNL     1     -10.366   8.611  68.916  1.00  0.00    -0.194 S  
HETATM   29  O   UNL     1     -11.247   9.165  69.918  1.00  0.00    -0.206 OA 
HETATM   30  O   UNL     1     -10.880   8.202  67.622  1.00  0.00    -0.167 OA 
BRANCH  28  31
HETATM   31  C   UNL     1      -9.581   7.206  69.656  1.00  0.00    -0.154 A  
HETATM   32  N   UNL     1      -7.673   3.870  71.361  1.00  0.00    -0.059 NA 
HETATM   33  H2  UNL     1      -7.355   3.307  70.572  1.00  0.00     0.000 HD 
HETATM   34  H1  UNL     1      -6.890   3.993  72.003  1.00  0.00     0.000 HD 
HETATM   35  C   UNL     1     -10.054   5.922  69.385  1.00  0.00    -0.260 A  
HETATM   36  C   UNL     1      -9.429   4.816  69.978  1.00  0.00    -0.240 A  
HETATM   37  C   UNL     1      -8.451   7.381  70.466  1.00  0.00    -0.137 A  
HETATM   38  C   UNL     1      -7.833   6.269  71.046  1.00  0.00    -0.111 A  
HETATM   39  C   UNL     1      -8.355   4.985  70.860  1.00  0.00    -0.112 A  
ENDBRANCH  28  31
ENDBRANCH   5  28
ENDBRANCH   4   5
TORSDOF 11
ENDMDL
MODEL      216
REMARK 921   NORMALIZED FREE ENERGY PREDICTED BY IDOCK:   -5.07 KCAL/MOL
REMARK 922        TOTAL FREE ENERGY PREDICTED BY IDOCK:  -10.10 KCAL/MOL
REMARK 923 INTER-LIGAND FREE ENERGY PREDICTED BY IDOCK:   -9.06 KCAL/MOL
REMARK 924 INTRA-LIGAND FREE ENERGY PREDICTED BY IDOCK:   -1.04 KCAL/MOL
REMARK 927      BINDING AFFINITY PREDICTED BY RF-SCORE:    0.00 PKD
ROOT
HETATM    1  C   UNL     1      -8.044   8.963  71.013  1.00  0.00    -0.205 C  
HETATM    2  C   UNL     1      -8.476   7.880  72.003  1.00  0.00    -0.169 C  
HETATM    3  C   UNL     1      -7.388   7.768  73.090  1.00  0.00    -0.125 C  
HETATM    4  C   UNL     1      -9.835   8.166  72.670  1.00  0.00    -0.294 C  
ENDROOT
BRANCH   4   5
HETATM    5  N   UNL     1     -11.043   8.323  71.754  1.00  0.00    -0.261 N  
BRANCH   5   6
HETATM    6  C   UNL     1     -10.667   8.971  70.399  1.00  0.00    -0.227 C  
BRANCH   6   7
HETATM    7  C   UNL     1     -11.621  10.097  69.868  1.00  0.00    -0.223 C  
HETATM    8  H   UNL     1     -12.745  11.480  70.670  1.00  0.00     0.000 HD 
HETATM    9  O   UNL     1     -12.167  10.798  70.991  1.00  0.00    -0.342 OA 
BRANCH   7  10
HETATM   10  C   UNL     1     -10.930  11.072  68.844  1.00  0.00    -0.227 C  
BRANCH  10  11
HETATM   11  N   UNL     1     -10.118  10.368  67.831  1.00  0.00    -0.166 N  
HETATM   12  O   UNL     1      -8.175  11.471  68.342  1.00  0.00    -0.140 OA 
HETATM   13  H   UNL     1     -10.555   9.658  67.243  1.00  0.00     0.000 HD 
HETATM   14  C   UNL     1      -8.785  10.655  67.668  1.00  0.00    -0.121 C  
BRANCH  14  15
HETATM   15  O   UNL     1      -8.235   9.936  66.648  1.00  0.00    -0.119 OA 
BRANCH  15  16
HETATM   16  C   UNL     1      -9.093   9.811  65.497  1.00  0.00    -0.196 C  
HETATM   17  C   UNL     1      -9.111  11.075  64.662  1.00  0.00    -0.138 C  
HETATM   18  O   UNL     1      -8.908   9.265  63.167  1.00  0.00    -0.221 OA 
HETATM   19  C   UNL     1      -9.510  10.557  63.298  1.00  0.00    -0.325 C  
HETATM   20  C   UNL     1      -8.610   8.774  64.485  1.00  0.00    -0.099 C  
ENDBRANCH  15  16
ENDBRANCH  14  15
ENDBRANCH  10  11
BRANCH  10  21
HETATM   21  C   UNL     1     -11.829  12.169  68.214  1.00  0.00    -0.361 C  
BRANCH  21  22
HETATM   22  C   UNL     1     -11.433  12.841  66.914  1.00  0.00    -0.396 A  
HETATM   23  C   UNL     1     -11.983  13.467  64.627  1.00  0.00    -0.441 A  
HETATM   24  C   UNL     1     -12.237  12.707  65.773  1.00  0.00    -0.427 A  
HETATM   25  C   UNL     1     -10.915  14.361  64.596  1.00  0.00    -0.367 A  
HETATM   26  C   UNL     1     -10.350  13.734  66.863  1.00  0.00    -0.266 A  
HETATM   27  C   UNL     1     -10.093  14.488  65.712  1.00  0.00    -0.365 A  
ENDBRANCH  21  22
ENDBRANCH  10  21
ENDBRANCH   7  10
ENDBRANCH   6   7
ENDBRANCH   5   6
BRANCH   5  28
HETATM   28  S   UNL     1     -11.835   6.769  71.507  1.00  0.00    -0.349 S  
HETATM   29  O   UNL     1     -11.595   5.925  72.654  1.00  0.00    -0.290 OA 
HETATM   30  O   UNL     1     -13.188   7.081  71.085  1.00  0.00    -0.324 OA 
BRANCH  28  31
HETATM   31  C   UNL     1     -11.002   6.010  70.139  1.00  0.00    -0.359 A  
HETATM   32  N   UNL     1      -8.974   4.254  66.903  1.00  0.00    -0.117 NA 
HETATM   33  H2  UNL     1      -8.468   5.016  66.453  1.00  0.00     0.000 HD 
HETATM   34  H1  UNL     1      -8.325   3.482  67.055  1.00  0.00     0.000 HD 
HETATM   35  C   UNL     1     -11.259   6.448  68.839  1.00  0.00    -0.385 A  
HETATM   36  C   UNL     1     -10.599   5.838  67.763  1.00  0.00    -0.310 A  
HETATM   37  C   UNL     1     -10.044   5.013  70.368  1.00  0.00    -0.330 A  
HETATM   38  C   UNL     1      -9.388   4.419  69.285  1.00  0.00    -0.223 A  
HETATM   39  C   UNL     1      -9.707   4.780  67.973  1.00  0.00    -0.147 A  
ENDBRANCH  28  31
ENDBRANCH   5  28
ENDBRANCH   4   5
TORSDOF 11
ENDMDL
MODEL      217
REMARK 921   NORMALIZED FREE ENERGY PREDICTED BY IDOCK:   -5.06 KCAL/MOL
REMARK 922        TOTAL FREE ENERGY PREDICTED BY IDOCK:  -10.08 KCAL/MOL
REMARK 923 INTER-LIGAND FREE ENERGY PREDICTED BY IDOCK:   -8.60 KCAL/MOL
REMARK 924 INTRA-LIGAND FREE ENERGY PREDICTED BY IDOCK:   -1.48 KCAL/MOL
REMARK 927      BINDING AFFINITY PREDICTED BY RF-SCORE:    0.00 PKD
ROOT
HETATM    1  C   UNL     1      -8.122   5.581  68.214  1.00  0.00    -0.096 C  
HETATM    2  C   UNL     1      -9.090   6.254  67.240  1.00  0.00    -0.116 C  
HETATM    3  C   UNL     1      -9.552   5.194  66.219  1.00  0.00    -0.174 C  
HETATM    4  C   UNL     1     -10.325   6.869  67.927  1.00  0.00    -0.195 C  
ENDROOT
BRANCH   4   5
HETATM    5  N   UNL     1     -10.074   7.938  68.986  1.00  0.00    -0.195 N  
BRANCH   5   6
HETATM    6  C   UNL     1     -10.633   9.318  68.564  1.00  0.00    -0.183 C  
BRANCH   6   7
HETATM    7  C   UNL     1      -9.793  10.575  68.984  1.00  0.00    -0.212 C  
HETATM    8  H   UNL     1      -7.898  10.978  69.238  1.00  0.00     0.000 HD 
HETATM    9  O   UNL     1      -8.407  10.217  68.984  1.00  0.00    -0.118 OA 
BRANCH   7  10
HETATM   10  C   UNL     1     -10.074  11.842  68.093  1.00  0.00    -0.192 C  
BRANCH  10  11
HETATM   11  N   UNL     1      -9.664  13.106  68.737  1.00  0.00    -0.418 N  
HETATM   12  O   UNL     1     -11.760  14.034  68.690  1.00  0.00    -0.310 OA 
HETATM   13  H   UNL     1      -8.691  13.235  69.014  1.00  0.00     0.000 HD 
HETATM   14  C   UNL     1     -10.572  14.110  68.967  1.00  0.00    -0.213 C  
BRANCH  14  15
HETATM   15  O   UNL     1      -9.981  15.209  69.518  1.00  0.00    -0.231 OA 
BRANCH  15  16
HETATM   16  C   UNL     1      -9.630  16.223  68.557  1.00  0.00    -0.222 C  
HETATM   17  C   UNL     1     -10.455  17.481  68.733  1.00  0.00    -0.318 C  
HETATM   18  O   UNL     1      -8.220  18.161  68.421  1.00  0.00    -0.288 OA 
HETATM   19  C   UNL     1      -9.566  18.541  68.118  1.00  0.00    -0.327 C  
HETATM   20  C   UNL     1      -8.208  16.756  68.722  1.00  0.00    -0.250 C  
ENDBRANCH  15  16
ENDBRANCH  14  15
ENDBRANCH  10  11
BRANCH  10  21
HETATM   21  C   UNL     1      -9.618  11.765  66.612  1.00  0.00    -0.219 C  
BRANCH  21  22
HETATM   22  C   UNL     1     -10.449  12.398  65.513  1.00  0.00    -0.304 A  
HETATM   23  C   UNL     1     -11.930  12.146  63.597  1.00  0.00    -0.628 A  
HETATM   24  C   UNL     1     -11.016  11.604  64.506  1.00  0.00    -0.376 A  
HETATM   25  C   UNL     1     -12.282  13.493  63.671  1.00  0.00    -0.438 A  
HETATM   26  C   UNL     1     -10.801  13.757  65.564  1.00  0.00    -0.299 A  
HETATM   27  C   UNL     1     -11.710  14.300  64.649  1.00  0.00    -0.439 A  
ENDBRANCH  21  22
ENDBRANCH  10  21
ENDBRANCH   7  10
ENDBRANCH   6   7
ENDBRANCH   5   6
BRANCH   5  28
HETATM   28  S   UNL     1     -10.744   7.437  70.536  1.00  0.00    -0.238 S  
HETATM   29  O   UNL     1     -11.648   8.457  71.014  1.00  0.00    -0.274 OA 
HETATM   30  O   UNL     1     -11.199   6.072  70.344  1.00  0.00    -0.337 OA 
BRANCH  28  31
HETATM   31  C   UNL     1      -9.381   7.401  71.667  1.00  0.00    -0.149 A  
HETATM   32  N   UNL     1      -6.185   7.284  74.396  1.00  0.00    -0.081 NA 
HETATM   33  H2  UNL     1      -6.610   7.400  75.316  1.00  0.00     0.000 HD 
HETATM   34  H1  UNL     1      -5.562   6.477  74.430  1.00  0.00     0.000 HD 
HETATM   35  C   UNL     1      -9.136   8.495  72.497  1.00  0.00    -0.284 A  
HETATM   36  C   UNL     1      -8.053   8.459  73.386  1.00  0.00    -0.169 A  
HETATM   37  C   UNL     1      -8.585   6.252  71.768  1.00  0.00    -0.133 A  
HETATM   38  C   UNL     1      -7.511   6.227  72.663  1.00  0.00    -0.099 A  
HETATM   39  C   UNL     1      -7.197   7.352  73.432  1.00  0.00    -0.077 A  
ENDBRANCH  28  31
ENDBRANCH   5  28
ENDBRANCH   4   5
TORSDOF 11
ENDMDL
MODEL      218
REMARK 921   NORMALIZED FREE ENERGY PREDICTED BY IDOCK:   -5.05 KCAL/MOL
REMARK 922        TOTAL FREE ENERGY PREDICTED BY IDOCK:  -10.07 KCAL/MOL
REMARK 923 INTER-LIGAND FREE ENERGY PREDICTED BY IDOCK:   -9.15 KCAL/MOL
REMARK 924 INTRA-LIGAND FREE ENERGY PREDICTED BY IDOCK:   -0.92 KCAL/MOL
REMARK 927      BINDING AFFINITY PREDICTED BY RF-SCORE:    0.00 PKD
ROOT
HETATM    1  C   UNL     1     -12.738  12.876  65.065  1.00  0.00    -0.474 C  
HETATM    2  C   UNL     1     -11.360  12.212  65.085  1.00  0.00    -0.379 C  
HETATM    3  C   UNL     1     -10.797  12.238  63.650  1.00  0.00    -0.522 C  
HETATM    4  C   UNL     1     -10.361  12.901  66.036  1.00  0.00    -0.283 C  
ENDROOT
BRANCH   4   5
HETATM    5  N   UNL     1     -10.746  12.987  67.509  1.00  0.00    -0.236 N  
BRANCH   5   6
HETATM    6  C   UNL     1     -10.132  11.833  68.340  1.00  0.00    -0.201 C  
BRANCH   6   7
HETATM    7  C   UNL     1     -11.126  10.738  68.863  1.00  0.00    -0.253 C  
HETATM    8  H   UNL     1     -12.619   9.723  68.117  1.00  0.00     0.000 HD 
HETATM    9  O   UNL     1     -12.018  10.386  67.800  1.00  0.00    -0.063 OA 
BRANCH   7  10
HETATM   10  C   UNL     1     -10.405   9.478  69.470  1.00  0.00    -0.217 C  
BRANCH  10  11
HETATM   11  N   UNL     1      -9.355   8.929  68.588  1.00  0.00    -0.140 N  
HETATM   12  O   UNL     1     -10.775   7.544  67.438  1.00  0.00    -0.280 OA 
HETATM   13  H   UNL     1      -8.395   9.261  68.685  1.00  0.00     0.000 HD 
HETATM   14  C   UNL     1      -9.652   7.981  67.640  1.00  0.00    -0.151 C  
BRANCH  14  15
HETATM   15  O   UNL     1      -8.536   7.569  66.972  1.00  0.00    -0.119 OA 
BRANCH  15  16
HETATM   16  C   UNL     1      -8.675   6.277  66.351  1.00  0.00    -0.137 C  
HETATM   17  C   UNL     1      -7.353   5.755  65.827  1.00  0.00    -0.076 C  
HETATM   18  O   UNL     1      -8.410   3.964  66.934  1.00  0.00    -0.099 OA 
HETATM   19  C   UNL     1      -7.579   4.259  65.806  1.00  0.00    -0.086 C  
HETATM   20  C   UNL     1      -9.084   5.172  67.322  1.00  0.00    -0.113 C  
ENDBRANCH  15  16
ENDBRANCH  14  15
ENDBRANCH  10  11
BRANCH  10  21
HETATM   21  C   UNL     1      -9.930   9.591  70.944  1.00  0.00    -0.308 C  
BRANCH  21  22
HETATM   22  C   UNL     1      -9.791   8.354  71.808  1.00  0.00    -0.313 A  
HETATM   23  C   UNL     1     -10.778   6.762  73.364  1.00  0.00    -0.332 A  
HETATM   24  C   UNL     1     -10.811   7.993  72.700  1.00  0.00    -0.436 A  
HETATM   25  C   UNL     1      -9.719   5.880  73.160  1.00  0.00    -0.163 A  
HETATM   26  C   UNL     1      -8.722   7.461  71.626  1.00  0.00    -0.124 A  
HETATM   27  C   UNL     1      -8.686   6.234  72.297  1.00  0.00    -0.132 A  
ENDBRANCH  21  22
ENDBRANCH  10  21
ENDBRANCH   7  10
ENDBRANCH   6   7
ENDBRANCH   5   6
BRANCH   5  28
HETATM   28  S   UNL     1     -10.286  14.551  68.175  1.00  0.00    -0.234 S  
HETATM   29  O   UNL     1      -8.890  14.519  68.545  1.00  0.00    -0.174 OA 
HETATM   30  O   UNL     1     -10.781  15.539  67.233  1.00  0.00    -0.298 OA 
BRANCH  28  31
HETATM   31  C   UNL     1     -11.204  14.729  69.680  1.00  0.00    -0.275 A  
HETATM   32  N   UNL     1     -13.423  15.194  73.220  1.00  0.00    -0.581 NA 
HETATM   33  H2  UNL     1     -13.742  16.163  73.215  1.00  0.00     0.000 HD 
HETATM   34  H1  UNL     1     -14.224  14.593  73.412  1.00  0.00     0.000 HD 
HETATM   35  C   UNL     1     -10.811  15.677  70.626  1.00  0.00    -0.319 A  
HETATM   36  C   UNL     1     -11.541  15.807  71.816  1.00  0.00    -0.541 A  
HETATM   37  C   UNL     1     -12.356  13.960  69.893  1.00  0.00    -0.358 A  
HETATM   38  C   UNL     1     -13.078  14.105  71.082  1.00  0.00    -0.398 A  
HETATM   39  C   UNL     1     -12.640  14.982  72.080  1.00  0.00    -0.333 A  
ENDBRANCH  28  31
ENDBRANCH   5  28
ENDBRANCH   4   5
TORSDOF 11
ENDMDL
MODEL      219
REMARK 921   NORMALIZED FREE ENERGY PREDICTED BY IDOCK:   -5.05 KCAL/MOL
REMARK 922        TOTAL FREE ENERGY PREDICTED BY IDOCK:  -10.06 KCAL/MOL
REMARK 923 INTER-LIGAND FREE ENERGY PREDICTED BY IDOCK:  -10.06 KCAL/MOL
REMARK 924 INTRA-LIGAND FREE ENERGY PREDICTED BY IDOCK:   -0.00 KCAL/MOL
REMARK 927      BINDING AFFINITY PREDICTED BY RF-SCORE:    0.00 PKD
ROOT
HETATM    1  C   UNL     1     -10.056  12.964  65.539  1.00  0.00    -0.270 C  
HETATM    2  C   UNL     1     -10.490  14.421  65.706  1.00  0.00    -0.329 C  
HETATM    3  C   UNL     1     -11.340  14.808  64.479  1.00  0.00    -0.309 C  
HETATM    4  C   UNL     1     -11.303  14.677  66.990  1.00  0.00    -0.355 C  
ENDROOT
BRANCH   4   5
HETATM    5  N   UNL     1     -10.634  14.342  68.318  1.00  0.00    -0.238 N  
BRANCH   5   6
HETATM    6  C   UNL     1     -10.462  12.817  68.517  1.00  0.00    -0.238 C  
BRANCH   6   7
HETATM    7  C   UNL     1     -11.774  11.985  68.739  1.00  0.00    -0.321 C  
HETATM    8  H   UNL     1     -12.808  10.689  67.705  1.00  0.00     0.000 HD 
HETATM    9  O   UNL     1     -12.014  11.192  67.570  1.00  0.00    -0.580 OA 
BRANCH   7  10
HETATM   10  C   UNL     1     -11.748  11.112  70.048  1.00  0.00    -0.356 C  
BRANCH  10  11
HETATM   11  N   UNL     1     -10.381  10.758  70.481  1.00  0.00     0.058 N  
HETATM   12  O   UNL     1     -10.717   8.494  70.345  1.00  0.00    -0.219 OA 
HETATM   13  H   UNL     1      -9.714  11.499  70.695  1.00  0.00     0.000 HD 
HETATM   14  C   UNL     1      -9.995   9.445  70.601  1.00  0.00    -0.284 C  
BRANCH  14  15
HETATM   15  O   UNL     1      -8.717   9.336  71.065  1.00  0.00    -0.221 OA 
BRANCH  15  16
HETATM   16  C   UNL     1      -8.455   8.102  71.761  1.00  0.00    -0.144 C  
HETATM   17  C   UNL     1      -7.009   7.672  71.629  1.00  0.00    -0.061 C  
HETATM   18  O   UNL     1      -7.610   7.382  73.889  1.00  0.00    -0.103 OA 
HETATM   19  C   UNL     1      -6.817   6.799  72.850  1.00  0.00    -0.071 C  
HETATM   20  C   UNL     1      -8.613   8.209  73.276  1.00  0.00    -0.242 C  
ENDBRANCH  15  16
ENDBRANCH  14  15
ENDBRANCH  10  11
BRANCH  10  21
HETATM   21  C   UNL     1     -12.626  11.604  71.229  1.00  0.00    -0.425 C  
BRANCH  21  22
HETATM   22  C   UNL     1     -12.837  13.085  71.472  1.00  0.00    -0.386 A  
HETATM   23  C   UNL     1     -14.157  14.881  72.452  1.00  0.00    -0.554 A  
HETATM   24  C   UNL     1     -14.026  13.546  72.055  1.00  0.00    -0.465 A  
HETATM   25  C   UNL     1     -13.109  15.779  72.259  1.00  0.00    -0.524 A  
HETATM   26  C   UNL     1     -11.796  14.006  71.270  1.00  0.00    -0.052 A  
HETATM   27  C   UNL     1     -11.931  15.343  71.660  1.00  0.00    -0.454 A  
ENDBRANCH  21  22
ENDBRANCH  10  21
ENDBRANCH   7  10
ENDBRANCH   6   7
ENDBRANCH   5   6
BRANCH   5  28
HETATM   28  S   UNL     1      -9.084  15.169  68.451  1.00  0.00    -0.191 S  
HETATM   29  O   UNL     1      -8.766  15.363  69.846  1.00  0.00    -0.146 OA 
HETATM   30  O   UNL     1      -8.178  14.446  67.577  1.00  0.00    -0.161 OA 
BRANCH  28  31
HETATM   31  C   UNL     1      -9.331  16.782  67.761  1.00  0.00    -0.233 A  
HETATM   32  N   UNL     1      -9.871  20.633  66.165  1.00  0.00    -0.550 NA 
HETATM   33  H2  UNL     1      -9.708  21.274  66.941  1.00  0.00     0.000 HD 
HETATM   34  H1  UNL     1      -9.316  20.947  65.368  1.00  0.00     0.000 HD 
HETATM   35  C   UNL     1     -10.314  17.621  68.289  1.00  0.00    -0.384 A  
HETATM   36  C   UNL     1     -10.506  18.893  67.733  1.00  0.00    -0.487 A  
HETATM   37  C   UNL     1      -8.503  17.236  66.726  1.00  0.00    -0.275 A  
HETATM   38  C   UNL     1      -8.701  18.510  66.185  1.00  0.00    -0.137 A  
HETATM   39  C   UNL     1      -9.744  19.323  66.640  1.00  0.00    -0.353 A  
ENDBRANCH  28  31
ENDBRANCH   5  28
ENDBRANCH   4   5
TORSDOF 11
ENDMDL
MODEL      220
REMARK 921   NORMALIZED FREE ENERGY PREDICTED BY IDOCK:   -5.02 KCAL/MOL
REMARK 922        TOTAL FREE ENERGY PREDICTED BY IDOCK:  -10.03 KCAL/MOL
REMARK 923 INTER-LIGAND FREE ENERGY PREDICTED BY IDOCK:   -8.62 KCAL/MOL
REMARK 924 INTRA-LIGAND FREE ENERGY PREDICTED BY IDOCK:   -1.41 KCAL/MOL
REMARK 927      BINDING AFFINITY PREDICTED BY RF-SCORE:    0.00 PKD
ROOT
HETATM    1  C   UNL     1      -8.994   8.461  73.278  1.00  0.00    -0.195 C  
HETATM    2  C   UNL     1     -10.069   7.553  72.680  1.00  0.00    -0.274 C  
HETATM    3  C   UNL     1     -10.289   6.373  73.648  1.00  0.00    -0.301 C  
HETATM    4  C   UNL     1     -11.412   8.270  72.437  1.00  0.00    -0.394 C  
ENDROOT
BRANCH   4   5
HETATM    5  N   UNL     1     -11.400   9.479  71.509  1.00  0.00    -0.390 N  
BRANCH   5   6
HETATM    6  C   UNL     1     -10.809   9.142  70.119  1.00  0.00    -0.240 C  
BRANCH   6   7
HETATM    7  C   UNL     1     -10.483   7.633  69.841  1.00  0.00    -0.231 C  
HETATM    8  H   UNL     1     -11.518   5.999  69.562  1.00  0.00     0.000 HD 
HETATM    9  O   UNL     1     -11.716   6.913  69.730  1.00  0.00    -0.206 OA 
BRANCH   7  10
HETATM   10  C   UNL     1      -9.557   7.413  68.588  1.00  0.00    -0.146 C  
BRANCH  10  11
HETATM   11  N   UNL     1      -9.337   8.646  67.806  1.00  0.00    -0.140 N  
HETATM   12  O   UNL     1      -9.259   7.577  65.779  1.00  0.00    -0.055 OA 
HETATM   13  H   UNL     1      -9.291   9.544  68.287  1.00  0.00     0.000 HD 
HETATM   14  C   UNL     1      -9.195   8.602  66.441  1.00  0.00    -0.193 C  
BRANCH  14  15
HETATM   15  O   UNL     1      -8.946   9.838  65.919  1.00  0.00    -0.143 OA 
BRANCH  15  16
HETATM   16  C   UNL     1      -9.844  10.211  64.856  1.00  0.00    -0.319 C  
HETATM   17  C   UNL     1     -10.645  11.450  65.198  1.00  0.00    -0.352 C  
HETATM   18  O   UNL     1      -9.888  11.711  62.983  1.00  0.00    -0.393 OA 
HETATM   19  C   UNL     1     -11.004  11.992  63.833  1.00  0.00    -0.401 C  
HETATM   20  C   UNL     1      -9.130  10.644  63.577  1.00  0.00    -0.238 C  
ENDBRANCH  15  16
ENDBRANCH  14  15
ENDBRANCH  10  11
BRANCH  10  21
HETATM   21  C   UNL     1      -8.239   6.629  68.826  1.00  0.00    -0.120 C  
BRANCH  21  22
HETATM   22  C   UNL     1      -8.063   5.768  70.061  1.00  0.00    -0.108 A  
HETATM   23  C   UNL     1      -8.420   3.650  71.207  1.00  0.00    -0.093 A  
HETATM   24  C   UNL     1      -8.717   4.532  70.163  1.00  0.00    -0.112 A  
HETATM   25  C   UNL     1      -7.478   3.994  72.174  1.00  0.00    -0.066 A  
HETATM   26  C   UNL     1      -7.127   6.108  71.053  1.00  0.00    -0.070 A  
HETATM   27  C   UNL     1      -6.837   5.227  72.101  1.00  0.00    -0.069 A  
ENDBRANCH  21  22
ENDBRANCH  10  21
ENDBRANCH   7  10
ENDBRANCH   6   7
ENDBRANCH   5   6
BRANCH   5  28
HETATM   28  S   UNL     1     -13.021  10.152  71.354  1.00  0.00    -0.453 S  
HETATM   29  O   UNL     1     -13.564   9.791  70.065  1.00  0.00     0.511 OA 
HETATM   30  O   UNL     1     -13.714   9.793  72.578  1.00  0.00    -0.340 OA 
BRANCH  28  31
HETATM   31  C   UNL     1     -12.819  11.912  71.341  1.00  0.00    -0.307 A  
HETATM   32  N   UNL     1     -12.398  16.094  71.278  1.00  0.00    -0.563 NA 
HETATM   33  H2  UNL     1     -12.811  16.395  70.396  1.00  0.00     0.000 HD 
HETATM   34  H1  UNL     1     -12.789  16.666  72.027  1.00  0.00     0.000 HD 
HETATM   35  C   UNL     1     -12.093  12.521  70.317  1.00  0.00    -0.373 A  
HETATM   36  C   UNL     1     -11.934  13.914  70.318  1.00  0.00    -0.401 A  
HETATM   37  C   UNL     1     -13.436  12.695  72.326  1.00  0.00    -0.541 A  
HETATM   38  C   UNL     1     -13.276  14.084  72.311  1.00  0.00    -0.558 A  
HETATM   39  C   UNL     1     -12.471  14.698  71.346  1.00  0.00    -0.344 A  
ENDBRANCH  28  31
ENDBRANCH   5  28
ENDBRANCH   4   5
TORSDOF 11
ENDMDL
MODEL      221
REMARK 921   NORMALIZED FREE ENERGY PREDICTED BY IDOCK:   -5.02 KCAL/MOL
REMARK 922        TOTAL FREE ENERGY PREDICTED BY IDOCK:  -10.02 KCAL/MOL
REMARK 923 INTER-LIGAND FREE ENERGY PREDICTED BY IDOCK:   -9.42 KCAL/MOL
REMARK 924 INTRA-LIGAND FREE ENERGY PREDICTED BY IDOCK:   -0.61 KCAL/MOL
REMARK 927      BINDING AFFINITY PREDICTED BY RF-SCORE:    0.00 PKD
ROOT
HETATM    1  C   UNL     1     -13.061  10.716  71.339  1.00  0.00    -0.499 C  
HETATM    2  C   UNL     1     -12.798   9.309  71.878  1.00  0.00    -0.485 C  
HETATM    3  C   UNL     1     -14.158   8.670  72.222  1.00  0.00    -0.491 C  
HETATM    4  C   UNL     1     -12.046   8.402  70.885  1.00  0.00    -0.138 C  
ENDROOT
BRANCH   4   5
HETATM    5  N   UNL     1     -10.675   8.871  70.411  1.00  0.00    -0.219 N  
BRANCH   5   6
HETATM    6  C   UNL     1     -10.624  10.405  70.203  1.00  0.00    -0.188 C  
BRANCH   6   7
HETATM    7  C   UNL     1      -9.847  10.918  68.941  1.00  0.00    -0.192 C  
HETATM    8  H   UNL     1      -9.729  10.405  67.059  1.00  0.00     0.000 HD 
HETATM    9  O   UNL     1     -10.200  10.095  67.823  1.00  0.00    -0.171 OA 
BRANCH   7  10
HETATM   10  C   UNL     1     -10.077  12.446  68.643  1.00  0.00    -0.134 C  
BRANCH  10  11
HETATM   11  N   UNL     1     -11.086  13.064  69.526  1.00  0.00    -0.456 N  
HETATM   12  O   UNL     1     -12.296  13.994  67.815  1.00  0.00    -0.249 OA 
HETATM   13  H   UNL     1     -11.015  12.936  70.536  1.00  0.00     0.000 HD 
HETATM   14  C   UNL     1     -12.119  13.807  69.010  1.00  0.00    -0.322 C  
BRANCH  14  15
HETATM   15  O   UNL     1     -12.904  14.332  69.993  1.00  0.00    -0.233 OA 
BRANCH  15  16
HETATM   16  C   UNL     1     -12.240  14.453  71.266  1.00  0.00    -0.357 C  
HETATM   17  C   UNL     1     -12.010  15.900  71.651  1.00  0.00    -0.553 C  
HETATM   18  O   UNL     1     -12.816  14.797  73.570  1.00  0.00    -0.520 OA 
HETATM   19  C   UNL     1     -11.907  15.822  73.158  1.00  0.00    -0.411 C  
HETATM   20  C   UNL     1     -13.072  13.945  72.441  1.00  0.00    -0.436 C  
ENDBRANCH  15  16
ENDBRANCH  14  15
ENDBRANCH  10  11
BRANCH  10  21
HETATM   21  C   UNL     1      -8.806  13.326  68.502  1.00  0.00    -0.055 C  
BRANCH  21  22
HETATM   22  C   UNL     1      -8.902  14.746  67.982  1.00  0.00    -0.169 A  
HETATM   23  C   UNL     1      -8.638  17.137  68.356  1.00  0.00    -0.246 A  
HETATM   24  C   UNL     1      -8.735  15.833  68.852  1.00  0.00    -0.217 A  
HETATM   25  C   UNL     1      -8.720  17.378  66.986  1.00  0.00    -0.249 A  
HETATM   26  C   UNL     1      -8.999  15.006  66.605  1.00  0.00    -0.313 A  
HETATM   27  C   UNL     1      -8.909  16.313  66.111  1.00  0.00    -0.362 A  
ENDBRANCH  21  22
ENDBRANCH  10  21
ENDBRANCH   7  10
ENDBRANCH   6   7
ENDBRANCH   5   6
BRANCH   5  28
HETATM   28  S   UNL     1      -9.423   8.350  71.535  1.00  0.00    -0.226 S  
HETATM   29  O   UNL     1      -8.126   8.596  70.950  1.00  0.00    -0.107 OA 
HETATM   30  O   UNL     1      -9.781   8.929  72.817  1.00  0.00    -0.097 OA 
BRANCH  28  31
HETATM   31  C   UNL     1      -9.591   6.591  71.670  1.00  0.00    -0.160 A  
HETATM   32  N   UNL     1      -9.932   2.416  72.023  1.00  0.00    -0.162 NA 
HETATM   33  H2  UNL     1      -8.976   2.063  72.005  1.00  0.00     0.000 HD 
HETATM   34  H1  UNL     1     -10.412   2.001  72.822  1.00  0.00     0.000 HD 
HETATM   35  C   UNL     1      -9.092   5.766  70.661  1.00  0.00    -0.164 A  
HETATM   36  C   UNL     1      -9.234   4.376  70.774  1.00  0.00    -0.203 A  
HETATM   37  C   UNL     1     -10.173   6.028  72.814  1.00  0.00    -0.209 A  
HETATM   38  C   UNL     1     -10.301   4.639  72.916  1.00  0.00    -0.242 A  
HETATM   39  C   UNL     1      -9.892   3.806  71.870  1.00  0.00    -0.178 A  
ENDBRANCH  28  31
ENDBRANCH   5  28
ENDBRANCH   4   5
TORSDOF 11
ENDMDL
MODEL      222
REMARK 921   NORMALIZED FREE ENERGY PREDICTED BY IDOCK:   -5.00 KCAL/MOL
REMARK 922        TOTAL FREE ENERGY PREDICTED BY IDOCK:   -9.99 KCAL/MOL
REMARK 923 INTER-LIGAND FREE ENERGY PREDICTED BY IDOCK:   -9.46 KCAL/MOL
REMARK 924 INTRA-LIGAND FREE ENERGY PREDICTED BY IDOCK:   -0.53 KCAL/MOL
REMARK 927      BINDING AFFINITY PREDICTED BY RF-SCORE:    0.00 PKD
ROOT
HETATM    1  C   UNL     1     -12.092  11.597  70.272  1.00  0.00    -0.443 C  
HETATM    2  C   UNL     1     -11.788  12.540  69.108  1.00  0.00    -0.348 C  
HETATM    3  C   UNL     1     -12.360  13.929  69.457  1.00  0.00    -0.275 C  
HETATM    4  C   UNL     1     -10.283  12.673  68.802  1.00  0.00    -0.079 C  
ENDROOT
BRANCH   4   5
HETATM    5  N   UNL     1      -9.528  11.397  68.444  1.00  0.00    -0.189 N  
BRANCH   5   6
HETATM    6  C   UNL     1     -10.414  10.136  68.591  1.00  0.00    -0.202 C  
BRANCH   6   7
HETATM    7  C   UNL     1      -9.828   8.963  69.453  1.00  0.00    -0.183 C  
HETATM    8  H   UNL     1      -8.857   8.807  71.141  1.00  0.00     0.000 HD 
HETATM    9  O   UNL     1      -9.211   9.518  70.619  1.00  0.00    -0.245 OA 
BRANCH   7  10
HETATM   10  C   UNL     1     -10.892   7.862  69.816  1.00  0.00    -0.202 C  
BRANCH  10  11
HETATM   11  N   UNL     1     -10.474   6.500  69.428  1.00  0.00    -0.203 N  
HETATM   12  O   UNL     1     -11.307   6.644  67.297  1.00  0.00    -0.324 OA 
HETATM   13  H   UNL     1      -9.979   5.915  70.101  1.00  0.00     0.000 HD 
HETATM   14  C   UNL     1     -10.741   6.008  68.174  1.00  0.00    -0.278 C  
BRANCH  14  15
HETATM   15  O   UNL     1     -10.321   4.718  68.037  1.00  0.00    -0.044 OA 
BRANCH  15  16
HETATM   16  C   UNL     1      -9.435   4.510  66.921  1.00  0.00    -0.175 C  
HETATM   17  C   UNL     1      -8.427   3.412  67.194  1.00  0.00    -0.107 C  
HETATM   18  O   UNL     1      -9.252   3.063  65.014  1.00  0.00    -0.142 OA 
HETATM   19  C   UNL     1      -8.060   2.954  65.799  1.00  0.00    -0.087 C  
HETATM   20  C   UNL     1     -10.138   3.986  65.670  1.00  0.00    -0.116 C  
ENDBRANCH  15  16
ENDBRANCH  14  15
ENDBRANCH  10  11
BRANCH  10  21
HETATM   21  C   UNL     1     -11.475   7.906  71.254  1.00  0.00    -0.293 C  
BRANCH  21  22
HETATM   22  C   UNL     1     -10.971   6.956  72.323  1.00  0.00    -0.275 A  
HETATM   23  C   UNL     1      -9.878   6.606  74.470  1.00  0.00    -0.324 A  
HETATM   24  C   UNL     1     -10.192   7.433  73.386  1.00  0.00    -0.402 A  
HETATM   25  C   UNL     1     -10.325   5.286  74.501  1.00  0.00    -0.286 A  
HETATM   26  C   UNL     1     -11.400   5.618  72.361  1.00  0.00    -0.327 A  
HETATM   27  C   UNL     1     -11.079   4.790  73.442  1.00  0.00    -0.422 A  
ENDBRANCH  21  22
ENDBRANCH  10  21
ENDBRANCH   7  10
ENDBRANCH   6   7
ENDBRANCH   5   6
BRANCH   5  28
HETATM   28  S   UNL     1      -8.866  11.511  66.816  1.00  0.00    -0.187 S  
HETATM   29  O   UNL     1      -7.613  12.227  66.860  1.00  0.00    -0.107 OA 
HETATM   30  O   UNL     1      -8.934  10.167  66.270  1.00  0.00    -0.145 OA 
BRANCH  28  31
HETATM   31  C   UNL     1      -9.995  12.524  65.901  1.00  0.00    -0.257 A  
HETATM   32  N   UNL     1     -12.640  14.914  63.672  1.00  0.00    -0.899 NA 
HETATM   33  H2  UNL     1     -12.080  15.307  62.916  1.00  0.00     0.000 HD 
HETATM   34  H1  UNL     1     -13.487  14.513  63.269  1.00  0.00     0.000 HD 
HETATM   35  C   UNL     1      -9.743  13.889  65.754  1.00  0.00    -0.190 A  
HETATM   36  C   UNL     1     -10.644  14.684  65.033  1.00  0.00    -0.461 A  
HETATM   37  C   UNL     1     -11.108  11.946  65.276  1.00  0.00    -0.354 A  
HETATM   38  C   UNL     1     -11.995  12.750  64.553  1.00  0.00    -0.454 A  
HETATM   39  C   UNL     1     -11.806  14.133  64.480  1.00  0.00    -0.436 A  
ENDBRANCH  28  31
ENDBRANCH   5  28
ENDBRANCH   4   5
TORSDOF 11
ENDMDL
MODEL      223
REMARK 921   NORMALIZED FREE ENERGY PREDICTED BY IDOCK:   -4.99 KCAL/MOL
REMARK 922        TOTAL FREE ENERGY PREDICTED BY IDOCK:   -9.96 KCAL/MOL
REMARK 923 INTER-LIGAND FREE ENERGY PREDICTED BY IDOCK:   -8.08 KCAL/MOL
REMARK 924 INTRA-LIGAND FREE ENERGY PREDICTED BY IDOCK:   -1.88 KCAL/MOL
REMARK 927      BINDING AFFINITY PREDICTED BY RF-SCORE:    0.00 PKD
ROOT
HETATM    1  C   UNL     1     -11.762   7.712  70.831  1.00  0.00    -0.291 C  
HETATM    2  C   UNL     1     -10.402   8.007  71.465  1.00  0.00    -0.258 C  
HETATM    3  C   UNL     1     -10.528   7.789  72.986  1.00  0.00    -0.432 C  
HETATM    4  C   UNL     1      -9.264   7.123  70.917  1.00  0.00    -0.152 C  
ENDROOT
BRANCH   4   5
HETATM    5  N   UNL     1      -8.989   7.190  69.419  1.00  0.00    -0.136 N  
BRANCH   5   6
HETATM    6  C   UNL     1      -9.023   8.642  68.884  1.00  0.00    -0.142 C  
BRANCH   6   7
HETATM    7  C   UNL     1      -9.754   8.870  67.515  1.00  0.00    -0.170 C  
HETATM    8  H   UNL     1     -11.163   7.967  66.506  1.00  0.00     0.000 HD 
HETATM    9  O   UNL     1     -10.721   7.829  67.336  1.00  0.00    -0.278 OA 
BRANCH   7  10
HETATM   10  C   UNL     1     -10.395  10.300  67.378  1.00  0.00    -0.233 C  
BRANCH  10  11
HETATM   11  N   UNL     1     -10.531  11.001  68.672  1.00  0.00    -0.183 N  
HETATM   12  O   UNL     1     -12.778  10.596  68.875  1.00  0.00    -0.070 OA 
HETATM   13  H   UNL     1      -9.709  11.424  69.102  1.00  0.00     0.000 HD 
HETATM   14  C   UNL     1     -11.747  11.091  69.303  1.00  0.00    -0.326 C  
BRANCH  14  15
HETATM   15  O   UNL     1     -11.666  11.822  70.452  1.00  0.00    -0.300 OA 
BRANCH  15  16
HETATM   16  C   UNL     1     -12.658  12.862  70.549  1.00  0.00    -0.129 C  
HETATM   17  C   UNL     1     -13.337  12.873  71.904  1.00  0.00    -0.530 C  
HETATM   18  O   UNL     1     -12.831  15.111  71.370  1.00  0.00    -0.325 OA 
HETATM   19  C   UNL     1     -13.821  14.302  72.013  1.00  0.00    -0.472 C  
HETATM   20  C   UNL     1     -12.075  14.272  70.481  1.00  0.00    -0.343 C  
ENDBRANCH  15  16
ENDBRANCH  14  15
ENDBRANCH  10  11
BRANCH  10  21
HETATM   21  C   UNL     1      -9.813  11.221  66.273  1.00  0.00    -0.248 C  
BRANCH  21  22
HETATM   22  C   UNL     1     -10.552  12.471  65.839  1.00  0.00    -0.292 A  
HETATM   23  C   UNL     1     -10.495  14.801  65.133  1.00  0.00    -0.443 A  
HETATM   24  C   UNL     1      -9.870  13.689  65.707  1.00  0.00    -0.230 A  
HETATM   25  C   UNL     1     -11.815  14.718  64.695  1.00  0.00    -0.442 A  
HETATM   26  C   UNL     1     -11.887  12.408  65.407  1.00  0.00    -0.460 A  
HETATM   27  C   UNL     1     -12.514  13.524  64.841  1.00  0.00    -0.429 A  
ENDBRANCH  21  22
ENDBRANCH  10  21
ENDBRANCH   7  10
ENDBRANCH   6   7
ENDBRANCH   5   6
BRANCH   5  28
HETATM   28  S   UNL     1      -7.451   6.419  69.041  1.00  0.00    -0.097 S  
HETATM   29  O   UNL     1      -6.399   7.408  69.088  1.00  0.00    -0.034 OA 
HETATM   30  O   UNL     1      -7.391   5.233  69.875  1.00  0.00    -0.061 OA 
BRANCH  28  31
HETATM   31  C   UNL     1      -7.572   5.891  67.354  1.00  0.00    -0.096 A  
HETATM   32  N   UNL     1      -7.891   4.694  63.337  1.00  0.00    -0.075 NA 
HETATM   33  H2  UNL     1      -8.767   5.096  63.003  1.00  0.00     0.000 HD 
HETATM   34  H1  UNL     1      -7.156   4.924  62.668  1.00  0.00     0.000 HD 
HETATM   35  C   UNL     1      -8.665   5.127  66.942  1.00  0.00    -0.107 A  
HETATM   36  C   UNL     1      -8.750   4.709  65.607  1.00  0.00    -0.127 A  
HETATM   37  C   UNL     1      -6.602   6.287  66.424  1.00  0.00    -0.048 A  
HETATM   38  C   UNL     1      -6.704   5.870  65.093  1.00  0.00    -0.044 A  
HETATM   39  C   UNL     1      -7.742   5.024  64.688  1.00  0.00    -0.081 A  
ENDBRANCH  28  31
ENDBRANCH   5  28
ENDBRANCH   4   5
TORSDOF 11
ENDMDL
MODEL      224
REMARK 921   NORMALIZED FREE ENERGY PREDICTED BY IDOCK:   -4.98 KCAL/MOL
REMARK 922        TOTAL FREE ENERGY PREDICTED BY IDOCK:   -9.95 KCAL/MOL
REMARK 923 INTER-LIGAND FREE ENERGY PREDICTED BY IDOCK:   -9.81 KCAL/MOL
REMARK 924 INTRA-LIGAND FREE ENERGY PREDICTED BY IDOCK:   -0.14 KCAL/MOL
REMARK 927      BINDING AFFINITY PREDICTED BY RF-SCORE:    0.00 PKD
ROOT
HETATM    1  C   UNL     1      -8.839  14.582  66.972  1.00  0.00    -0.256 C  
HETATM    2  C   UNL     1      -7.869  13.603  67.636  1.00  0.00    -0.178 C  
HETATM    3  C   UNL     1      -6.859  14.423  68.464  1.00  0.00    -0.098 C  
HETATM    4  C   UNL     1      -8.564  12.577  68.552  1.00  0.00    -0.054 C  
ENDROOT
BRANCH   4   5
HETATM    5  N   UNL     1      -9.614  11.673  67.917  1.00  0.00    -0.175 N  
BRANCH   5   6
HETATM    6  C   UNL     1      -9.259  10.173  68.065  1.00  0.00    -0.138 C  
BRANCH   6   7
HETATM    7  C   UNL     1      -8.302   9.567  66.980  1.00  0.00    -0.124 C  
HETATM    8  H   UNL     1      -6.672   8.489  66.987  1.00  0.00     0.000 HD 
HETATM    9  O   UNL     1      -7.251   8.856  67.645  1.00  0.00    -0.079 OA 
BRANCH   7  10
HETATM   10  C   UNL     1      -9.044   8.668  65.922  1.00  0.00    -0.205 C  
BRANCH  10  11
HETATM   11  N   UNL     1      -9.849   9.449  64.961  1.00  0.00    -0.389 N  
HETATM   12  O   UNL     1      -8.047  10.181  63.749  1.00  0.00    -0.154 OA 
HETATM   13  H   UNL     1     -10.865   9.462  65.052  1.00  0.00     0.000 HD 
HETATM   14  C   UNL     1      -9.252  10.157  63.948  1.00  0.00    -0.280 C  
BRANCH  14  15
HETATM   15  O   UNL     1     -10.165  10.850  63.209  1.00  0.00    -0.337 OA 
BRANCH  15  16
HETATM   16  C   UNL     1     -11.111  11.593  64.003  1.00  0.00    -0.384 C  
HETATM   17  C   UNL     1     -10.577  12.957  64.391  1.00  0.00    -0.418 C  
HETATM   18  O   UNL     1     -12.803  13.266  63.685  1.00  0.00    -0.620 OA 
HETATM   19  C   UNL     1     -11.845  13.745  64.633  1.00  0.00    -0.402 C  
HETATM   20  C   UNL     1     -12.387  11.961  63.248  1.00  0.00    -0.391 C  
ENDBRANCH  15  16
ENDBRANCH  14  15
ENDBRANCH  10  11
BRANCH  10  21
HETATM   21  C   UNL     1      -8.195   7.575  65.221  1.00  0.00    -0.130 C  
BRANCH  21  22
HETATM   22  C   UNL     1      -8.482   6.105  65.452  1.00  0.00    -0.138 A  
HETATM   23  C   UNL     1      -7.735   3.789  65.392  1.00  0.00    -0.082 A  
HETATM   24  C   UNL     1      -7.573   5.128  65.023  1.00  0.00    -0.082 A  
HETATM   25  C   UNL     1      -8.817   3.402  66.181  1.00  0.00    -0.137 A  
HETATM   26  C   UNL     1      -9.576   5.697  66.234  1.00  0.00    -0.166 A  
HETATM   27  C   UNL     1      -9.742   4.355  66.595  1.00  0.00    -0.233 A  
ENDBRANCH  21  22
ENDBRANCH  10  21
ENDBRANCH   7  10
ENDBRANCH   6   7
ENDBRANCH   5   6
BRANCH   5  28
HETATM   28  S   UNL     1     -11.206  12.009  68.593  1.00  0.00    -0.282 S  
HETATM   29  O   UNL     1     -11.197  13.317  69.203  1.00  0.00    -0.262 OA 
HETATM   30  O   UNL     1     -12.154  11.687  67.542  1.00  0.00    -0.611 OA 
BRANCH  28  31
HETATM   31  C   UNL     1     -11.434  10.841  69.905  1.00  0.00    -0.321 A  
HETATM   32  N   UNL     1     -11.996   8.023  72.974  1.00  0.00    -0.633 NA 
HETATM   33  H2  UNL     1     -12.789   7.455  72.679  1.00  0.00     0.000 HD 
HETATM   34  H1  UNL     1     -11.238   7.399  73.250  1.00  0.00     0.000 HD 
HETATM   35  C   UNL     1     -12.649  10.794  70.591  1.00  0.00    -0.446 A  
HETATM   36  C   UNL     1     -12.819   9.870  71.631  1.00  0.00    -0.537 A  
HETATM   37  C   UNL     1     -10.417   9.927  70.215  1.00  0.00    -0.348 A  
HETATM   38  C   UNL     1     -10.603   9.006  71.251  1.00  0.00    -0.378 A  
HETATM   39  C   UNL     1     -11.778   9.012  72.009  1.00  0.00    -0.347 A  
ENDBRANCH  28  31
ENDBRANCH   5  28
ENDBRANCH   4   5
TORSDOF 11
ENDMDL
MODEL      225
REMARK 921   NORMALIZED FREE ENERGY PREDICTED BY IDOCK:   -4.96 KCAL/MOL
REMARK 922        TOTAL FREE ENERGY PREDICTED BY IDOCK:   -9.92 KCAL/MOL
REMARK 923 INTER-LIGAND FREE ENERGY PREDICTED BY IDOCK:   -8.30 KCAL/MOL
REMARK 924 INTRA-LIGAND FREE ENERGY PREDICTED BY IDOCK:   -1.62 KCAL/MOL
REMARK 927      BINDING AFFINITY PREDICTED BY RF-SCORE:    0.00 PKD
ROOT
HETATM    1  C   UNL     1      -7.769   7.183  69.726  1.00  0.00    -0.108 C  
HETATM    2  C   UNL     1      -7.363   8.652  69.845  1.00  0.00    -0.052 C  
HETATM    3  C   UNL     1      -6.014   8.715  70.589  1.00  0.00    -0.032 C  
HETATM    4  C   UNL     1      -7.226   9.364  68.484  1.00  0.00    -0.072 C  
ENDROOT
BRANCH   4   5
HETATM    5  N   UNL     1      -8.459   9.399  67.588  1.00  0.00    -0.119 N  
BRANCH   5   6
HETATM    6  C   UNL     1      -9.001  10.837  67.400  1.00  0.00    -0.139 C  
BRANCH   6   7
HETATM    7  C   UNL     1     -10.561  11.003  67.377  1.00  0.00    -0.237 C  
HETATM    8  H   UNL     1     -12.102   9.801  67.331  1.00  0.00     0.000 HD 
HETATM    9  O   UNL     1     -11.157   9.701  67.345  1.00  0.00    -0.183 OA 
BRANCH   7  10
HETATM   10  C   UNL     1     -11.115  11.875  68.563  1.00  0.00    -0.243 C  
BRANCH  10  11
HETATM   11  N   UNL     1     -11.340  13.286  68.190  1.00  0.00    -0.270 N  
HETATM   12  O   UNL     1     -11.541  14.027  70.350  1.00  0.00    -0.240 OA 
HETATM   13  H   UNL     1     -11.340  13.551  67.204  1.00  0.00     0.000 HD 
HETATM   14  C   UNL     1     -11.548  14.248  69.148  1.00  0.00    -0.305 C  
BRANCH  14  15
HETATM   15  O   UNL     1     -11.788  15.470  68.593  1.00  0.00    -0.362 OA 
BRANCH  15  16
HETATM   16  C   UNL     1     -10.628  16.073  67.988  1.00  0.00    -0.295 C  
HETATM   17  C   UNL     1     -10.770  17.575  67.861  1.00  0.00    -0.340 C  
HETATM   18  O   UNL     1      -8.600  17.157  68.677  1.00  0.00    -0.257 OA 
HETATM   19  C   UNL     1      -9.330  18.035  67.814  1.00  0.00    -0.263 C  
HETATM   20  C   UNL     1      -9.363  15.949  68.836  1.00  0.00    -0.233 C  
ENDBRANCH  15  16
ENDBRANCH  14  15
ENDBRANCH  10  11
BRANCH  10  21
HETATM   21  C   UNL     1     -12.308  11.285  69.362  1.00  0.00    -0.216 C  
BRANCH  21  22
HETATM   22  C   UNL     1     -12.071  10.317  70.504  1.00  0.00    -0.401 A  
HETATM   23  C   UNL     1     -12.962   8.770  72.159  1.00  0.00    -0.457 A  
HETATM   24  C   UNL     1     -13.152   9.799  71.231  1.00  0.00    -0.465 A  
HETATM   25  C   UNL     1     -11.688   8.253  72.387  1.00  0.00    -0.463 A  
HETATM   26  C   UNL     1     -10.790   9.797  70.756  1.00  0.00    -0.403 A  
HETATM   27  C   UNL     1     -10.601   8.772  71.691  1.00  0.00    -0.401 A  
ENDBRANCH  21  22
ENDBRANCH  10  21
ENDBRANCH   7  10
ENDBRANCH   6   7
ENDBRANCH   5   6
BRANCH   5  28
HETATM   28  S   UNL     1      -8.110   8.652  66.032  1.00  0.00    -0.114 S  
HETATM   29  O   UNL     1      -8.976   9.222  65.026  1.00  0.00    -0.199 OA 
HETATM   30  O   UNL     1      -6.667   8.706  65.885  1.00  0.00    -0.060 OA 
BRANCH  28  31
HETATM   31  C   UNL     1      -8.576   6.951  66.193  1.00  0.00    -0.143 A  
HETATM   32  N   UNL     1      -9.668   2.915  66.641  1.00  0.00    -0.383 NA 
HETATM   33  H2  UNL     1      -9.054   2.547  67.367  1.00  0.00     0.000 HD 
HETATM   34  H1  UNL     1     -10.628   2.661  66.871  1.00  0.00     0.000 HD 
HETATM   35  C   UNL     1      -7.632   5.947  65.971  1.00  0.00    -0.086 A  
HETATM   36  C   UNL     1      -8.011   4.603  66.096  1.00  0.00    -0.103 A  
HETATM   37  C   UNL     1      -9.875   6.615  66.598  1.00  0.00    -0.208 A  
HETATM   38  C   UNL     1     -10.237   5.270  66.726  1.00  0.00    -0.287 A  
HETATM   39  C   UNL     1      -9.329   4.254  66.413  1.00  0.00    -0.164 A  
ENDBRANCH  28  31
ENDBRANCH   5  28
ENDBRANCH   4   5
TORSDOF 11
ENDMDL
MODEL      226
REMARK 921   NORMALIZED FREE ENERGY PREDICTED BY IDOCK:   -4.94 KCAL/MOL
REMARK 922        TOTAL FREE ENERGY PREDICTED BY IDOCK:   -9.88 KCAL/MOL
REMARK 923 INTER-LIGAND FREE ENERGY PREDICTED BY IDOCK:   -9.28 KCAL/MOL
REMARK 924 INTRA-LIGAND FREE ENERGY PREDICTED BY IDOCK:   -0.61 KCAL/MOL
REMARK 927      BINDING AFFINITY PREDICTED BY RF-SCORE:    0.00 PKD
ROOT
HETATM    1  C   UNL     1     -12.057  12.786  65.731  1.00  0.00    -0.505 C  
HETATM    2  C   UNL     1     -11.108  11.742  65.140  1.00  0.00    -0.341 C  
HETATM    3  C   UNL     1     -10.271  12.427  64.041  1.00  0.00    -0.401 C  
HETATM    4  C   UNL     1     -10.162  11.113  66.182  1.00  0.00    -0.244 C  
ENDROOT
BRANCH   4   5
HETATM    5  N   UNL     1     -10.804  10.394  67.363  1.00  0.00    -0.289 N  
BRANCH   5   6
HETATM    6  C   UNL     1     -10.660   8.857  67.258  1.00  0.00    -0.234 C  
BRANCH   6   7
HETATM    7  C   UNL     1      -9.527   8.319  66.315  1.00  0.00    -0.203 C  
HETATM    8  H   UNL     1      -7.726   8.890  65.814  1.00  0.00     0.000 HD 
HETATM    9  O   UNL     1      -8.412   9.216  66.385  1.00  0.00    -0.119 OA 
BRANCH   7  10
HETATM   10  C   UNL     1      -9.109   6.834  66.622  1.00  0.00    -0.146 C  
BRANCH  10  11
HETATM   11  N   UNL     1      -8.584   6.122  65.439  1.00  0.00    -0.239 N  
HETATM   12  O   UNL     1      -9.430   4.082  66.051  1.00  0.00    -0.160 OA 
HETATM   13  H   UNL     1      -8.057   6.640  64.735  1.00  0.00     0.000 HD 
HETATM   14  C   UNL     1      -8.793   4.776  65.273  1.00  0.00    -0.149 C  
BRANCH  14  15
HETATM   15  O   UNL     1      -8.182   4.305  64.148  1.00  0.00    -0.093 OA 
BRANCH  15  16
HETATM   16  C   UNL     1      -9.000   3.407  63.374  1.00  0.00    -0.093 C  
HETATM   17  C   UNL     1      -9.091   2.034  64.009  1.00  0.00    -0.109 C  
HETATM   18  O   UNL     1     -11.270   2.626  63.333  1.00  0.00    -0.307 OA 
HETATM   19  C   UNL     1     -10.391   1.502  63.446  1.00  0.00    -0.131 C  
HETATM   20  C   UNL     1     -10.469   3.820  63.310  1.00  0.00    -0.221 C  
ENDBRANCH  15  16
ENDBRANCH  14  15
ENDBRANCH  10  11
BRANCH  10  21
HETATM   21  C   UNL     1      -8.228   6.606  67.880  1.00  0.00    -0.120 C  
BRANCH  21  22
HETATM   22  C   UNL     1      -8.859   6.475  69.252  1.00  0.00    -0.132 A  
HETATM   23  C   UNL     1     -10.647   5.617  70.664  1.00  0.00    -0.347 A  
HETATM   24  C   UNL     1     -10.134   5.911  69.396  1.00  0.00    -0.260 A  
HETATM   25  C   UNL     1      -9.901   5.895  71.807  1.00  0.00    -0.192 A  
HETATM   26  C   UNL     1      -8.125   6.764  70.415  1.00  0.00    -0.116 A  
HETATM   27  C   UNL     1      -8.643   6.476  71.683  1.00  0.00    -0.128 A  
ENDBRANCH  21  22
ENDBRANCH  10  21
ENDBRANCH   7  10
ENDBRANCH   6   7
ENDBRANCH   5   6
BRANCH   5  28
HETATM   28  S   UNL     1     -10.132  10.983  68.881  1.00  0.00    -0.176 S  
HETATM   29  O   UNL     1      -8.855  10.350  69.114  1.00  0.00    -0.162 OA 
HETATM   30  O   UNL     1     -10.244  12.429  68.825  1.00  0.00    -0.186 OA 
BRANCH  28  31
HETATM   31  C   UNL     1     -11.221  10.404  70.153  1.00  0.00    -0.321 A  
HETATM   32  N   UNL     1     -13.825   8.980  73.131  1.00  0.00    -1.177 NA 
HETATM   33  H2  UNL     1     -14.627   8.599  72.630  1.00  0.00     0.000 HD 
HETATM   34  H1  UNL     1     -13.509   8.285  73.807  1.00  0.00     0.000 HD 
HETATM   35  C   UNL     1     -12.512  10.925  70.253  1.00  0.00    -0.383 A  
HETATM   36  C   UNL     1     -13.365  10.464  71.266  1.00  0.00    -0.334 A  
HETATM   37  C   UNL     1     -10.806   9.384  71.020  1.00  0.00    -0.406 A  
HETATM   38  C   UNL     1     -11.670   8.929  72.021  1.00  0.00    -0.438 A  
HETATM   39  C   UNL     1     -12.931   9.510  72.194  1.00  0.00    -0.412 A  
ENDBRANCH  28  31
ENDBRANCH   5  28
ENDBRANCH   4   5
TORSDOF 11
ENDMDL
MODEL      227
REMARK 921   NORMALIZED FREE ENERGY PREDICTED BY IDOCK:   -4.94 KCAL/MOL
REMARK 922        TOTAL FREE ENERGY PREDICTED BY IDOCK:   -9.88 KCAL/MOL
REMARK 923 INTER-LIGAND FREE ENERGY PREDICTED BY IDOCK:   -7.57 KCAL/MOL
REMARK 924 INTRA-LIGAND FREE ENERGY PREDICTED BY IDOCK:   -2.31 KCAL/MOL
REMARK 927      BINDING AFFINITY PREDICTED BY RF-SCORE:    0.00 PKD
ROOT
HETATM    1  C   UNL     1     -10.709   9.382  67.883  1.00  0.00    -0.269 C  
HETATM    2  C   UNL     1      -9.237   9.233  68.269  1.00  0.00    -0.134 C  
HETATM    3  C   UNL     1      -9.033   9.914  69.638  1.00  0.00    -0.232 C  
HETATM    4  C   UNL     1      -8.769   7.767  68.355  1.00  0.00    -0.127 C  
ENDROOT
BRANCH   4   5
HETATM    5  N   UNL     1      -8.902   6.918  67.096  1.00  0.00    -0.119 N  
BRANCH   5   6
HETATM    6  C   UNL     1      -7.524   6.491  66.533  1.00  0.00    -0.086 C  
BRANCH   6   7
HETATM    7  C   UNL     1      -7.310   6.669  64.989  1.00  0.00    -0.082 C  
HETATM    8  H   UNL     1      -8.175   6.011  63.365  1.00  0.00     0.000 HD 
HETATM    9  O   UNL     1      -8.305   5.903  64.300  1.00  0.00    -0.116 OA 
BRANCH   7  10
HETATM   10  C   UNL     1      -7.300   8.173  64.527  1.00  0.00    -0.088 C  
BRANCH  10  11
HETATM   11  N   UNL     1      -8.565   8.878  64.818  1.00  0.00    -0.246 N  
HETATM   12  O   UNL     1      -8.502  10.172  62.927  1.00  0.00    -0.151 OA 
HETATM   13  H   UNL     1      -9.087   8.643  65.662  1.00  0.00     0.000 HD 
HETATM   14  C   UNL     1      -9.048   9.843  63.970  1.00  0.00    -0.259 C  
BRANCH  14  15
HETATM   15  O   UNL     1     -10.195  10.407  64.447  1.00  0.00    -0.333 OA 
BRANCH  15  16
HETATM   16  C   UNL     1     -10.564  11.628  63.778  1.00  0.00    -0.416 C  
HETATM   17  C   UNL     1     -12.064  11.752  63.612  1.00  0.00    -0.486 C  
HETATM   18  O   UNL     1     -11.279  13.847  64.352  1.00  0.00    -0.373 OA 
HETATM   19  C   UNL     1     -12.255  13.249  63.494  1.00  0.00    -0.441 C  
HETATM   20  C   UNL     1     -10.233  12.887  64.578  1.00  0.00    -0.310 C  
ENDBRANCH  15  16
ENDBRANCH  14  15
ENDBRANCH  10  11
BRANCH  10  21
HETATM   21  C   UNL     1      -6.057   9.014  64.926  1.00  0.00    -0.065 C  
BRANCH  21  22
HETATM   22  C   UNL     1      -6.022   9.766  66.241  1.00  0.00    -0.063 A  
HETATM   23  C   UNL     1      -5.127  10.012  68.492  1.00  0.00    -0.036 A  
HETATM   24  C   UNL     1      -5.321   9.246  67.338  1.00  0.00    -0.037 A  
HETATM   25  C   UNL     1      -5.642  11.304  68.575  1.00  0.00    -0.042 A  
HETATM   26  C   UNL     1      -6.550  11.064  66.346  1.00  0.00    -0.126 A  
HETATM   27  C   UNL     1      -6.361  11.827  67.504  1.00  0.00    -0.095 A  
ENDBRANCH  21  22
ENDBRANCH  10  21
ENDBRANCH   7  10
ENDBRANCH   6   7
ENDBRANCH   5   6
BRANCH   5  28
HETATM   28  S   UNL     1      -9.914   5.511  67.407  1.00  0.00    -0.179 S  
HETATM   29  O   UNL     1     -11.124   5.612  66.624  1.00  0.00    -0.202 OA 
HETATM   30  O   UNL     1      -9.039   4.360  67.274  1.00  0.00    -0.119 OA 
BRANCH  28  31
HETATM   31  C   UNL     1     -10.402   5.627  69.106  1.00  0.00    -0.258 A  
HETATM   32  N   UNL     1     -11.599   5.850  73.130  1.00  0.00    -0.480 NA 
HETATM   33  H2  UNL     1     -12.564   5.522  73.145  1.00  0.00     0.000 HD 
HETATM   34  H1  UNL     1     -11.079   5.352  73.853  1.00  0.00     0.000 HD 
HETATM   35  C   UNL     1     -11.485   6.431  69.465  1.00  0.00    -0.412 A  
HETATM   36  C   UNL     1     -11.861   6.521  70.813  1.00  0.00    -0.394 A  
HETATM   37  C   UNL     1      -9.738   4.869  70.080  1.00  0.00    -0.285 A  
HETATM   38  C   UNL     1     -10.128   4.963  71.419  1.00  0.00    -0.268 A  
HETATM   39  C   UNL     1     -11.148   5.838  71.805  1.00  0.00    -0.238 A  
ENDBRANCH  28  31
ENDBRANCH   5  28
ENDBRANCH   4   5
TORSDOF 11
ENDMDL
MODEL      228
REMARK 921   NORMALIZED FREE ENERGY PREDICTED BY IDOCK:   -4.92 KCAL/MOL
REMARK 922        TOTAL FREE ENERGY PREDICTED BY IDOCK:   -9.85 KCAL/MOL
REMARK 923 INTER-LIGAND FREE ENERGY PREDICTED BY IDOCK:   -8.34 KCAL/MOL
REMARK 924 INTRA-LIGAND FREE ENERGY PREDICTED BY IDOCK:   -1.51 KCAL/MOL
REMARK 927      BINDING AFFINITY PREDICTED BY RF-SCORE:    0.00 PKD
ROOT
HETATM    1  C   UNL     1      -8.296   9.509  63.868  1.00  0.00    -0.172 C  
HETATM    2  C   UNL     1      -7.268   9.111  64.928  1.00  0.00    -0.097 C  
HETATM    3  C   UNL     1      -5.883   9.059  64.253  1.00  0.00    -0.070 C  
HETATM    4  C   UNL     1      -7.215  10.079  66.126  1.00  0.00    -0.109 C  
ENDROOT
BRANCH   4   5
HETATM    5  N   UNL     1      -8.500  10.277  66.922  1.00  0.00    -0.126 N  
BRANCH   5   6
HETATM    6  C   UNL     1      -8.524   9.422  68.212  1.00  0.00    -0.120 C  
BRANCH   6   7
HETATM    7  C   UNL     1      -9.758   8.473  68.404  1.00  0.00    -0.155 C  
HETATM    8  H   UNL     1     -11.585   8.386  67.717  1.00  0.00     0.000 HD 
HETATM    9  O   UNL     1     -10.838   8.961  67.600  1.00  0.00    -0.205 OA 
BRANCH   7  10
HETATM   10  C   UNL     1      -9.438   6.961  68.106  1.00  0.00    -0.122 C  
BRANCH  10  11
HETATM   11  N   UNL     1      -9.487   6.109  69.312  1.00  0.00    -0.133 N  
HETATM   12  O   UNL     1     -11.764   6.236  69.544  1.00  0.00    -0.360 OA 
HETATM   13  H   UNL     1      -8.622   5.720  69.687  1.00  0.00     0.000 HD 
HETATM   14  C   UNL     1     -10.679   5.833  69.935  1.00  0.00    -0.342 C  
BRANCH  14  15
HETATM   15  O   UNL     1     -10.499   5.078  71.057  1.00  0.00    -0.213 OA 
BRANCH  15  16
HETATM   16  C   UNL     1     -10.858   5.754  72.277  1.00  0.00    -0.248 C  
HETATM   17  C   UNL     1     -10.166   5.153  73.483  1.00  0.00    -0.229 C  
HETATM   18  O   UNL     1      -9.997   7.494  73.688  1.00  0.00    -0.312 OA 
HETATM   19  C   UNL     1     -10.167   6.304  74.465  1.00  0.00    -0.300 C  
HETATM   20  C   UNL     1     -10.383   7.205  72.334  1.00  0.00    -0.201 C  
ENDBRANCH  15  16
ENDBRANCH  14  15
ENDBRANCH  10  11
BRANCH  10  21
HETATM   21  C   UNL     1     -10.180   6.317  66.905  1.00  0.00    -0.268 C  
BRANCH  21  22
HETATM   22  C   UNL     1      -9.469   5.338  65.991  1.00  0.00    -0.169 A  
HETATM   23  C   UNL     1      -9.577   3.491  64.410  1.00  0.00    -0.162 A  
HETATM   24  C   UNL     1     -10.175   4.285  65.393  1.00  0.00    -0.235 A  
HETATM   25  C   UNL     1      -8.260   3.726  64.019  1.00  0.00    -0.090 A  
HETATM   26  C   UNL     1      -8.137   5.553  65.598  1.00  0.00    -0.118 A  
HETATM   27  C   UNL     1      -7.538   4.753  64.619  1.00  0.00    -0.076 A  
ENDBRANCH  21  22
ENDBRANCH  10  21
ENDBRANCH   7  10
ENDBRANCH   6   7
ENDBRANCH   5   6
BRANCH   5  28
HETATM   28  S   UNL     1      -8.737  11.981  67.296  1.00  0.00    -0.182 S  
HETATM   29  O   UNL     1      -9.421  12.100  68.562  1.00  0.00    -0.193 OA 
HETATM   30  O   UNL     1      -7.446  12.612  67.088  1.00  0.00    -0.134 OA 
BRANCH  28  31
HETATM   31  C   UNL     1      -9.847  12.601  66.062  1.00  0.00    -0.254 A  
HETATM   32  N   UNL     1     -12.529  14.080  63.182  1.00  0.00    -1.070 NA 
HETATM   33  H2  UNL     1     -13.452  13.769  63.486  1.00  0.00     0.000 HD 
HETATM   34  H1  UNL     1     -12.576  15.079  62.982  1.00  0.00     0.000 HD 
HETATM   35  C   UNL     1     -10.642  11.715  65.333  1.00  0.00    -0.331 A  
HETATM   36  C   UNL     1     -11.514  12.214  64.356  1.00  0.00    -0.417 A  
HETATM   37  C   UNL     1      -9.969  13.982  65.859  1.00  0.00    -0.325 A  
HETATM   38  C   UNL     1     -10.848  14.467  64.885  1.00  0.00    -0.430 A  
HETATM   39  C   UNL     1     -11.579  13.585  64.082  1.00  0.00    -0.376 A  
ENDBRANCH  28  31
ENDBRANCH   5  28
ENDBRANCH   4   5
TORSDOF 11
ENDMDL
MODEL      229
REMARK 921   NORMALIZED FREE ENERGY PREDICTED BY IDOCK:   -4.92 KCAL/MOL
REMARK 922        TOTAL FREE ENERGY PREDICTED BY IDOCK:   -9.85 KCAL/MOL
REMARK 923 INTER-LIGAND FREE ENERGY PREDICTED BY IDOCK:   -8.69 KCAL/MOL
REMARK 924 INTRA-LIGAND FREE ENERGY PREDICTED BY IDOCK:   -1.16 KCAL/MOL
REMARK 927      BINDING AFFINITY PREDICTED BY RF-SCORE:    0.00 PKD
ROOT
HETATM    1  C   UNL     1      -8.952   9.286  64.881  1.00  0.00    -0.229 C  
HETATM    2  C   UNL     1      -9.103  10.771  64.549  1.00  0.00    -0.220 C  
HETATM    3  C   UNL     1      -9.254  10.905  63.020  1.00  0.00    -0.329 C  
HETATM    4  C   UNL     1     -10.310  11.436  65.240  1.00  0.00    -0.282 C  
ENDROOT
BRANCH   4   5
HETATM    5  N   UNL     1     -10.349  11.398  66.764  1.00  0.00    -0.225 N  
BRANCH   5   6
HETATM    6  C   UNL     1      -8.932  11.436  67.385  1.00  0.00    -0.154 C  
BRANCH   6   7
HETATM    7  C   UNL     1      -8.533  10.226  68.301  1.00  0.00    -0.121 C  
HETATM    8  H   UNL     1      -7.454   9.978  69.911  1.00  0.00     0.000 HD 
HETATM    9  O   UNL     1      -7.695  10.710  69.356  1.00  0.00    -0.139 OA 
BRANCH   7  10
HETATM   10  C   UNL     1      -9.769   9.423  68.850  1.00  0.00    -0.164 C  
BRANCH  10  11
HETATM   11  N   UNL     1      -9.565   7.960  68.834  1.00  0.00    -0.154 N  
HETATM   12  O   UNL     1     -10.909   7.598  67.013  1.00  0.00    -0.334 OA 
HETATM   13  H   UNL     1      -8.955   7.531  69.530  1.00  0.00     0.000 HD 
HETATM   14  C   UNL     1     -10.182   7.170  67.896  1.00  0.00    -0.187 C  
BRANCH  14  15
HETATM   15  O   UNL     1      -9.906   5.848  68.089  1.00  0.00    -0.122 OA 
BRANCH  15  16
HETATM   16  C   UNL     1      -9.171   5.244  67.007  1.00  0.00    -0.116 C  
HETATM   17  C   UNL     1      -8.079   4.322  67.509  1.00  0.00    -0.099 C  
HETATM   18  O   UNL     1      -9.175   3.198  65.752  1.00  0.00    -0.151 OA 
HETATM   19  C   UNL     1      -7.883   3.384  66.338  1.00  0.00    -0.084 C  
HETATM   20  C   UNL     1     -10.010   4.298  66.151  1.00  0.00    -0.215 C  
ENDBRANCH  15  16
ENDBRANCH  14  15
ENDBRANCH  10  11
BRANCH  10  21
HETATM   21  C   UNL     1     -10.376   9.913  70.192  1.00  0.00    -0.336 C  
BRANCH  21  22
HETATM   22  C   UNL     1     -10.361   9.022  71.419  1.00  0.00    -0.396 A  
HETATM   23  C   UNL     1     -11.484   7.397  72.842  1.00  0.00    -0.269 A  
HETATM   24  C   UNL     1     -11.527   8.360  71.829  1.00  0.00    -0.365 A  
HETATM   25  C   UNL     1     -10.279   7.091  73.472  1.00  0.00    -0.371 A  
HETATM   26  C   UNL     1      -9.157   8.715  72.075  1.00  0.00    -0.311 A  
HETATM   27  C   UNL     1      -9.117   7.757  73.094  1.00  0.00    -0.280 A  
ENDBRANCH  21  22
ENDBRANCH  10  21
ENDBRANCH   7  10
ENDBRANCH   6   7
ENDBRANCH   5   6
BRANCH   5  28
HETATM   28  S   UNL     1     -11.341  12.713  67.386  1.00  0.00    -0.334 S  
HETATM   29  O   UNL     1     -12.605  12.728  66.688  1.00  0.00    -0.230 OA 
HETATM   30  O   UNL     1     -11.294  12.590  68.832  1.00  0.00    -0.258 OA 
BRANCH  28  31
HETATM   31  C   UNL     1     -10.501  14.209  66.942  1.00  0.00    -0.272 A  
HETATM   32  N   UNL     1      -8.549  17.792  65.930  1.00  0.00    -0.516 NA 
HETATM   33  H2  UNL     1      -9.270  18.512  65.964  1.00  0.00     0.000 HD 
HETATM   34  H1  UNL     1      -7.746  18.115  66.469  1.00  0.00     0.000 HD 
HETATM   35  C   UNL     1     -10.919  14.936  65.827  1.00  0.00    -0.345 A  
HETATM   36  C   UNL     1     -10.246  16.116  65.480  1.00  0.00    -0.360 A  
HETATM   37  C   UNL     1      -9.457  14.690  67.743  1.00  0.00    -0.205 A  
HETATM   38  C   UNL     1      -8.798  15.872  67.389  1.00  0.00    -0.201 A  
HETATM   39  C   UNL     1      -9.144  16.559  66.221  1.00  0.00    -0.313 A  
ENDBRANCH  28  31
ENDBRANCH   5  28
ENDBRANCH   4   5
TORSDOF 11
ENDMDL
MODEL      230
REMARK 921   NORMALIZED FREE ENERGY PREDICTED BY IDOCK:   -4.91 KCAL/MOL
REMARK 922        TOTAL FREE ENERGY PREDICTED BY IDOCK:   -9.84 KCAL/MOL
REMARK 923 INTER-LIGAND FREE ENERGY PREDICTED BY IDOCK:   -9.12 KCAL/MOL
REMARK 924 INTRA-LIGAND FREE ENERGY PREDICTED BY IDOCK:   -0.72 KCAL/MOL
REMARK 927      BINDING AFFINITY PREDICTED BY RF-SCORE:    0.00 PKD
ROOT
HETATM    1  C   UNL     1      -9.750  19.264  68.949  1.00  0.00    -0.493 C  
HETATM    2  C   UNL     1     -10.547  18.910  67.692  1.00  0.00    -0.501 C  
HETATM    3  C   UNL     1     -10.603  20.163  66.795  1.00  0.00    -0.347 C  
HETATM    4  C   UNL     1      -9.944  17.738  66.893  1.00  0.00    -0.332 C  
ENDROOT
BRANCH   4   5
HETATM    5  N   UNL     1      -9.794  16.404  67.616  1.00  0.00    -0.240 N  
BRANCH   5   6
HETATM    6  C   UNL     1     -11.136  15.639  67.711  1.00  0.00    -0.311 C  
BRANCH   6   7
HETATM    7  C   UNL     1     -11.353  14.756  68.990  1.00  0.00    -0.275 C  
HETATM    8  H   UNL     1     -12.415  14.888  70.625  1.00  0.00     0.000 HD 
HETATM    9  O   UNL     1     -12.283  15.423  69.851  1.00  0.00    -0.342 OA 
BRANCH   7  10
HETATM   10  C   UNL     1     -11.803  13.283  68.665  1.00  0.00    -0.345 C  
BRANCH  10  11
HETATM   11  N   UNL     1     -10.705  12.443  68.146  1.00  0.00    -0.213 N  
HETATM   12  O   UNL     1     -11.819  11.827  66.240  1.00  0.00    -0.501 OA 
HETATM   13  H   UNL     1      -9.839  12.362  68.679  1.00  0.00     0.000 HD 
HETATM   14  C   UNL     1     -10.831  11.770  66.956  1.00  0.00    -0.263 C  
BRANCH  14  15
HETATM   15  O   UNL     1      -9.730  11.011  66.685  1.00  0.00    -0.188 OA 
BRANCH  15  16
HETATM   16  C   UNL     1     -10.037   9.652  66.321  1.00  0.00    -0.252 C  
HETATM   17  C   UNL     1      -8.803   8.892  65.877  1.00  0.00    -0.215 C  
HETATM   18  O   UNL     1     -10.003   7.471  67.323  1.00  0.00    -0.172 OA 
HETATM   19  C   UNL     1      -9.194   7.455  66.143  1.00  0.00    -0.099 C  
HETATM   20  C   UNL     1     -10.523   8.800  67.492  1.00  0.00    -0.271 C  
ENDBRANCH  15  16
ENDBRANCH  14  15
ENDBRANCH  10  11
BRANCH  10  21
HETATM   21  C   UNL     1     -12.632  12.553  69.755  1.00  0.00     0.250 C  
BRANCH  21  22
HETATM   22  C   UNL     1     -12.099  11.301  70.423  1.00  0.00    -0.474 A  
HETATM   23  C   UNL     1     -12.512   9.266  71.694  1.00  0.00    -0.448 A  
HETATM   24  C   UNL     1     -12.937  10.514  71.226  1.00  0.00    -0.532 A  
HETATM   25  C   UNL     1     -11.240   8.792  71.381  1.00  0.00    -0.362 A  
HETATM   26  C   UNL     1     -10.813  10.816  70.129  1.00  0.00    -0.148 A  
HETATM   27  C   UNL     1     -10.388   9.571  70.606  1.00  0.00    -0.369 A  
ENDBRANCH  21  22
ENDBRANCH  10  21
ENDBRANCH   7  10
ENDBRANCH   6   7
ENDBRANCH   5   6
BRANCH   5  28
HETATM   28  S   UNL     1      -8.563  15.416  66.835  1.00  0.00    -0.277 S  
HETATM   29  O   UNL     1      -9.205  14.407  66.026  1.00  0.00    -0.190 OA 
HETATM   30  O   UNL     1      -7.623  16.352  66.245  1.00  0.00    -0.234 OA 
BRANCH  28  31
HETATM   31  C   UNL     1      -7.726  14.559  68.141  1.00  0.00    -0.128 A  
HETATM   32  N   UNL     1      -5.800  12.506  71.263  1.00  0.00    -0.516 NA 
HETATM   33  H2  UNL     1      -6.418  12.596  72.069  1.00  0.00     0.000 HD 
HETATM   34  H1  UNL     1      -5.548  11.523  71.159  1.00  0.00     0.000 HD 
HETATM   35  C   UNL     1      -7.379  15.239  69.309  1.00  0.00    -0.191 A  
HETATM   36  C   UNL     1      -6.713  14.554  70.334  1.00  0.00     0.036 A  
HETATM   37  C   UNL     1      -7.465  13.187  68.024  1.00  0.00    -0.132 A  
HETATM   38  C   UNL     1      -6.806  12.514  69.058  1.00  0.00    -0.089 A  
HETATM   39  C   UNL     1      -6.367  13.205  70.192  1.00  0.00     0.043 A  
ENDBRANCH  28  31
ENDBRANCH   5  28
ENDBRANCH   4   5
TORSDOF 11
ENDMDL
MODEL      231
REMARK 921   NORMALIZED FREE ENERGY PREDICTED BY IDOCK:   -4.91 KCAL/MOL
REMARK 922        TOTAL FREE ENERGY PREDICTED BY IDOCK:   -9.84 KCAL/MOL
REMARK 923 INTER-LIGAND FREE ENERGY PREDICTED BY IDOCK:   -7.19 KCAL/MOL
REMARK 924 INTRA-LIGAND FREE ENERGY PREDICTED BY IDOCK:   -2.65 KCAL/MOL
REMARK 927      BINDING AFFINITY PREDICTED BY RF-SCORE:    0.00 PKD
ROOT
HETATM    1  C   UNL     1      -8.069  13.247  68.426  1.00  0.00    -0.134 C  
HETATM    2  C   UNL     1      -6.732  12.548  68.678  1.00  0.00    -0.087 C  
HETATM    3  C   UNL     1      -5.812  13.537  69.422  1.00  0.00    -0.095 C  
HETATM    4  C   UNL     1      -6.862  11.254  69.505  1.00  0.00    -0.115 C  
ENDROOT
BRANCH   4   5
HETATM    5  N   UNL     1      -7.748  10.150  68.937  1.00  0.00    -0.086 N  
BRANCH   5   6
HETATM    6  C   UNL     1      -7.471   9.894  67.436  1.00  0.00    -0.091 C  
BRANCH   6   7
HETATM    7  C   UNL     1      -8.680  10.086  66.455  1.00  0.00    -0.132 C  
HETATM    8  H   UNL     1      -8.926  10.127  64.517  1.00  0.00     0.000 HD 
HETATM    9  O   UNL     1      -8.193  10.011  65.111  1.00  0.00    -0.133 OA 
BRANCH   7  10
HETATM   10  C   UNL     1      -9.860   9.077  66.712  1.00  0.00    -0.234 C  
BRANCH  10  11
HETATM   11  N   UNL     1      -9.406   7.680  66.864  1.00  0.00    -0.152 N  
HETATM   12  O   UNL     1     -11.520   6.794  66.900  1.00  0.00    -0.176 OA 
HETATM   13  H   UNL     1      -8.407   7.479  66.901  1.00  0.00     0.000 HD 
HETATM   14  C   UNL     1     -10.308   6.649  66.957  1.00  0.00    -0.262 C  
BRANCH  14  15
HETATM   15  O   UNL     1      -9.686   5.450  67.148  1.00  0.00    -0.129 OA 
BRANCH  15  16
HETATM   16  C   UNL     1      -8.873   5.034  66.034  1.00  0.00    -0.130 C  
HETATM   17  C   UNL     1      -7.687   4.202  66.478  1.00  0.00    -0.090 C  
HETATM   18  O   UNL     1      -8.623   3.121  64.605  1.00  0.00    -0.096 OA 
HETATM   19  C   UNL     1      -7.369   3.401  65.235  1.00  0.00    -0.072 C  
HETATM   20  C   UNL     1      -9.585   4.078  65.080  1.00  0.00    -0.180 C  
ENDBRANCH  15  16
ENDBRANCH  14  15
ENDBRANCH  10  11
BRANCH  10  21
HETATM   21  C   UNL     1     -10.893   9.478  67.799  1.00  0.00    -0.258 C  
BRANCH  21  22
HETATM   22  C   UNL     1     -11.351  10.916  67.939  1.00  0.00    -0.380 A  
HETATM   23  C   UNL     1     -11.624  12.904  69.318  1.00  0.00    -0.368 A  
HETATM   24  C   UNL     1     -11.383  11.531  69.198  1.00  0.00    -0.351 A  
HETATM   25  C   UNL     1     -11.852  13.680  68.184  1.00  0.00    -0.407 A  
HETATM   26  C   UNL     1     -11.598  11.709  66.806  1.00  0.00    -0.220 A  
HETATM   27  C   UNL     1     -11.847  13.081  66.928  1.00  0.00    -0.442 A  
ENDBRANCH  21  22
ENDBRANCH  10  21
ENDBRANCH   7  10
ENDBRANCH   6   7
ENDBRANCH   5   6
BRANCH   5  28
HETATM   28  S   UNL     1      -7.557   8.668  69.870  1.00  0.00    -0.074 S  
HETATM   29  O   UNL     1      -7.244   7.579  68.975  1.00  0.00    -0.080 OA 
HETATM   30  O   UNL     1      -6.669   9.006  70.967  1.00  0.00    -0.071 OA 
BRANCH  28  31
HETATM   31  C   UNL     1      -9.153   8.315  70.554  1.00  0.00    -0.147 A  
HETATM   32  N   UNL     1     -12.909   7.457  72.236  1.00  0.00    -0.507 NA 
HETATM   33  H2  UNL     1     -12.756   6.655  72.847  1.00  0.00     0.000 HD 
HETATM   34  H1  UNL     1     -13.417   8.169  72.761  1.00  0.00     0.000 HD 
HETATM   35  C   UNL     1      -9.737   7.064  70.348  1.00  0.00    -0.178 A  
HETATM   36  C   UNL     1     -11.002   6.795  70.889  1.00  0.00    -0.303 A  
HETATM   37  C   UNL     1      -9.801   9.269  71.350  1.00  0.00    -0.296 A  
HETATM   38  C   UNL     1     -11.060   8.985  71.890  1.00  0.00    -0.433 A  
HETATM   39  C   UNL     1     -11.698   7.773  71.611  1.00  0.00    -0.280 A  
ENDBRANCH  28  31
ENDBRANCH   5  28
ENDBRANCH   4   5
TORSDOF 11
ENDMDL
MODEL      232
REMARK 921   NORMALIZED FREE ENERGY PREDICTED BY IDOCK:   -4.90 KCAL/MOL
REMARK 922        TOTAL FREE ENERGY PREDICTED BY IDOCK:   -9.82 KCAL/MOL
REMARK 923 INTER-LIGAND FREE ENERGY PREDICTED BY IDOCK:   -9.22 KCAL/MOL
REMARK 924 INTRA-LIGAND FREE ENERGY PREDICTED BY IDOCK:   -0.60 KCAL/MOL
REMARK 927      BINDING AFFINITY PREDICTED BY RF-SCORE:    0.00 PKD
ROOT
HETATM    1  C   UNL     1     -12.211  10.457  71.314  1.00  0.00    -0.491 C  
HETATM    2  C   UNL     1     -12.126   8.989  71.734  1.00  0.00    -0.438 C  
HETATM    3  C   UNL     1     -13.560   8.484  71.992  1.00  0.00    -0.427 C  
HETATM    4  C   UNL     1     -11.450   8.088  70.683  1.00  0.00    -0.232 C  
ENDROOT
BRANCH   4   5
HETATM    5  N   UNL     1     -10.020   8.435  70.282  1.00  0.00    -0.184 N  
BRANCH   5   6
HETATM    6  C   UNL     1      -9.827   9.956  70.072  1.00  0.00    -0.243 C  
BRANCH   6   7
HETATM    7  C   UNL     1      -9.652  10.446  68.592  1.00  0.00    -0.166 C  
HETATM    8  H   UNL     1     -10.126   9.767  66.822  1.00  0.00     0.000 HD 
HETATM    9  O   UNL     1     -10.231   9.470  67.718  1.00  0.00    -0.188 OA 
BRANCH   7  10
HETATM   10  C   UNL     1     -10.234  11.885  68.336  1.00  0.00    -0.204 C  
BRANCH  10  11
HETATM   11  N   UNL     1      -9.226  12.835  67.822  1.00  0.00    -0.191 N  
HETATM   12  O   UNL     1      -9.967  14.601  69.082  1.00  0.00    -0.210 OA 
HETATM   13  H   UNL     1      -8.540  12.517  67.138  1.00  0.00     0.000 HD 
HETATM   14  C   UNL     1      -9.200  14.139  68.251  1.00  0.00    -0.198 C  
BRANCH  14  15
HETATM   15  O   UNL     1      -8.232  14.860  67.616  1.00  0.00    -0.148 OA 
BRANCH  15  16
HETATM   16  C   UNL     1      -7.384  15.608  68.509  1.00  0.00    -0.122 C  
HETATM   17  C   UNL     1      -5.916  15.307  68.282  1.00  0.00    -0.124 C  
HETATM   18  O   UNL     1      -6.114  17.644  68.498  1.00  0.00    -0.171 OA 
HETATM   19  C   UNL     1      -5.243  16.553  68.813  1.00  0.00    -0.120 C  
HETATM   20  C   UNL     1      -7.433  17.117  68.278  1.00  0.00    -0.217 C  
ENDBRANCH  15  16
ENDBRANCH  14  15
ENDBRANCH  10  11
BRANCH  10  21
HETATM   21  C   UNL     1     -11.569  11.966  67.548  1.00  0.00    -0.374 C  
BRANCH  21  22
HETATM   22  C   UNL     1     -11.585  12.408  66.098  1.00  0.00    -0.452 A  
HETATM   23  C   UNL     1     -11.395  11.852  63.735  1.00  0.00    -0.532 A  
HETATM   24  C   UNL     1     -11.209  11.519  65.081  1.00  0.00    -0.214 A  
HETATM   25  C   UNL     1     -11.946  13.083  63.384  1.00  0.00    -0.592 A  
HETATM   26  C   UNL     1     -12.124  13.651  65.727  1.00  0.00    -0.463 A  
HETATM   27  C   UNL     1     -12.302  13.986  64.380  1.00  0.00    -0.401 A  
ENDBRANCH  21  22
ENDBRANCH  10  21
ENDBRANCH   7  10
ENDBRANCH   6   7
ENDBRANCH   5   6
BRANCH   5  28
HETATM   28  S   UNL     1      -8.880   7.817  71.473  1.00  0.00    -0.133 S  
HETATM   29  O   UNL     1      -7.636   7.490  70.816  1.00  0.00    -0.079 OA 
HETATM   30  O   UNL     1      -8.911   8.762  72.574  1.00  0.00    -0.386 OA 
BRANCH  28  31
HETATM   31  C   UNL     1      -9.562   6.288  72.053  1.00  0.00    -0.151 A  
HETATM   32  N   UNL     1     -11.123   2.648  73.464  1.00  0.00    -0.211 NA 
HETATM   33  H2  UNL     1     -10.320   2.027  73.559  1.00  0.00     0.000 HD 
HETATM   34  H1  UNL     1     -11.659   2.616  74.330  1.00  0.00     0.000 HD 
HETATM   35  C   UNL     1      -9.392   5.122  71.303  1.00  0.00    -0.192 A  
HETATM   36  C   UNL     1      -9.939   3.918  71.767  1.00  0.00    -0.234 A  
HETATM   37  C   UNL     1     -10.219   6.237  73.289  1.00  0.00    -0.223 A  
HETATM   38  C   UNL     1     -10.754   5.027  73.743  1.00  0.00    -0.358 A  
HETATM   39  C   UNL     1     -10.675   3.873  72.958  1.00  0.00    -0.153 A  
ENDBRANCH  28  31
ENDBRANCH   5  28
ENDBRANCH   4   5
TORSDOF 11
ENDMDL
MODEL      233
REMARK 921   NORMALIZED FREE ENERGY PREDICTED BY IDOCK:   -4.87 KCAL/MOL
REMARK 922        TOTAL FREE ENERGY PREDICTED BY IDOCK:   -9.77 KCAL/MOL
REMARK 923 INTER-LIGAND FREE ENERGY PREDICTED BY IDOCK:   -9.49 KCAL/MOL
REMARK 924 INTRA-LIGAND FREE ENERGY PREDICTED BY IDOCK:   -0.28 KCAL/MOL
REMARK 927      BINDING AFFINITY PREDICTED BY RF-SCORE:    0.00 PKD
ROOT
HETATM    1  C   UNL     1     -10.426  11.894  64.309  1.00  0.00    -0.370 C  
HETATM    2  C   UNL     1     -11.660  12.752  64.030  1.00  0.00    -0.488 C  
HETATM    3  C   UNL     1     -12.697  11.874  63.302  1.00  0.00    -0.407 C  
HETATM    4  C   UNL     1     -12.298  13.343  65.303  1.00  0.00    -0.469 C  
ENDROOT
BRANCH   4   5
HETATM    5  N   UNL     1     -11.422  14.237  66.172  1.00  0.00    -0.346 N  
BRANCH   5   6
HETATM    6  C   UNL     1     -10.278  13.448  66.854  1.00  0.00    -0.252 C  
BRANCH   6   7
HETATM    7  C   UNL     1     -10.702  12.359  67.901  1.00  0.00    -0.220 C  
HETATM    8  H   UNL     1     -12.350  11.413  68.356  1.00  0.00     0.000 HD 
HETATM    9  O   UNL     1     -12.094  12.073  67.722  1.00  0.00    -0.537 OA 
BRANCH   7  10
HETATM   10  C   UNL     1      -9.820  11.057  67.841  1.00  0.00    -0.171 C  
BRANCH  10  11
HETATM   11  N   UNL     1      -8.480  11.236  68.434  1.00  0.00    -0.148 N  
HETATM   12  O   UNL     1      -7.347  10.650  66.530  1.00  0.00    -0.120 OA 
HETATM   13  H   UNL     1      -8.397  11.543  69.404  1.00  0.00     0.000 HD 
HETATM   14  C   UNL     1      -7.344  10.997  67.701  1.00  0.00    -0.094 C  
BRANCH  14  15
HETATM   15  O   UNL     1      -6.215  11.168  68.448  1.00  0.00    -0.046 OA 
BRANCH  15  16
HETATM   16  C   UNL     1      -6.404  10.913  69.853  1.00  0.00    -0.132 C  
HETATM   17  C   UNL     1      -5.933   9.528  70.246  1.00  0.00    -0.047 C  
HETATM   18  O   UNL     1      -5.133  11.018  71.887  1.00  0.00    -0.268 OA 
HETATM   19  C   UNL     1      -5.641   9.690  71.722  1.00  0.00    -0.036 C  
HETATM   20  C   UNL     1      -5.551  11.801  70.756  1.00  0.00    -0.115 C  
ENDBRANCH  15  16
ENDBRANCH  14  15
ENDBRANCH  10  11
BRANCH  10  21
HETATM   21  C   UNL     1     -10.494   9.739  68.308  1.00  0.00    -0.255 C  
BRANCH  21  22
HETATM   22  C   UNL     1     -10.852   9.527  69.766  1.00  0.00    -0.264 A  
HETATM   23  C   UNL     1     -12.528   9.509  71.531  1.00  0.00    -0.463 A  
HETATM   24  C   UNL     1     -12.126   9.868  70.240  1.00  0.00    -0.168 A  
HETATM   25  C   UNL     1     -11.659   8.818  72.373  1.00  0.00    -0.321 A  
HETATM   26  C   UNL     1      -9.981   8.845  70.632  1.00  0.00    -0.265 A  
HETATM   27  C   UNL     1     -10.382   8.493  71.926  1.00  0.00    -0.378 A  
ENDBRANCH  21  22
ENDBRANCH  10  21
ENDBRANCH   7  10
ENDBRANCH   6   7
ENDBRANCH   5   6
BRANCH   5  28
HETATM   28  S   UNL     1     -10.780  15.577  65.226  1.00  0.00    -0.437 S  
HETATM   29  O   UNL     1      -9.444  15.252  64.786  1.00  0.00     0.241 OA 
HETATM   30  O   UNL     1     -11.817  15.911  64.266  1.00  0.00    -0.437 OA 
BRANCH  28  31
HETATM   31  C   UNL     1     -10.624  16.937  66.350  1.00  0.00    -0.183 A  
HETATM   32  N   UNL     1     -10.321  20.166  69.025  1.00  0.00    -0.476 NA 
HETATM   33  H2  UNL     1     -11.152  20.734  68.860  1.00  0.00     0.000 HD 
HETATM   34  H1  UNL     1     -10.238  20.002  70.028  1.00  0.00     0.000 HD 
HETATM   35  C   UNL     1     -10.582  18.244  65.860  1.00  0.00    -0.274 A  
HETATM   36  C   UNL     1     -10.454  19.313  66.757  1.00  0.00    -0.544 A  
HETATM   37  C   UNL     1     -10.601  16.705  67.732  1.00  0.00    -0.342 A  
HETATM   38  C   UNL     1     -10.480  17.782  68.616  1.00  0.00    -0.295 A  
HETATM   39  C   UNL     1     -10.340  19.088  68.134  1.00  0.00    -0.368 A  
ENDBRANCH  28  31
ENDBRANCH   5  28
ENDBRANCH   4   5
TORSDOF 11
ENDMDL
MODEL      234
REMARK 921   NORMALIZED FREE ENERGY PREDICTED BY IDOCK:   -4.86 KCAL/MOL
REMARK 922        TOTAL FREE ENERGY PREDICTED BY IDOCK:   -9.75 KCAL/MOL
REMARK 923 INTER-LIGAND FREE ENERGY PREDICTED BY IDOCK:   -8.64 KCAL/MOL
REMARK 924 INTRA-LIGAND FREE ENERGY PREDICTED BY IDOCK:   -1.11 KCAL/MOL
REMARK 927      BINDING AFFINITY PREDICTED BY RF-SCORE:    0.00 PKD
ROOT
HETATM    1  C   UNL     1     -11.615  12.019  67.083  1.00  0.00    -0.387 C  
HETATM    2  C   UNL     1     -10.910  12.743  68.230  1.00  0.00    -0.270 C  
HETATM    3  C   UNL     1     -11.806  12.640  69.481  1.00  0.00    -0.376 C  
HETATM    4  C   UNL     1      -9.516  12.170  68.554  1.00  0.00    -0.122 C  
ENDROOT
BRANCH   4   5
HETATM    5  N   UNL     1      -8.483  12.172  67.433  1.00  0.00    -0.165 N  
BRANCH   5   6
HETATM    6  C   UNL     1      -7.504  13.367  67.545  1.00  0.00    -0.162 C  
BRANCH   6   7
HETATM    7  C   UNL     1      -7.503  14.150  68.905  1.00  0.00    -0.112 C  
HETATM    8  H   UNL     1      -6.183  14.573  70.282  1.00  0.00     0.000 HD 
HETATM    9  O   UNL     1      -6.184  14.099  69.459  1.00  0.00    -0.105 OA 
BRANCH   7  10
HETATM   10  C   UNL     1      -8.033  15.626  68.777  1.00  0.00    -0.172 C  
BRANCH  10  11
HETATM   11  N   UNL     1      -6.957  16.636  68.843  1.00  0.00    -0.187 N  
HETATM   12  O   UNL     1      -6.348  16.410  66.644  1.00  0.00    -0.291 OA 
HETATM   13  H   UNL     1      -6.779  17.124  69.721  1.00  0.00     0.000 HD 
HETATM   14  C   UNL     1      -6.192  16.927  67.740  1.00  0.00    -0.141 C  
BRANCH  14  15
HETATM   15  O   UNL     1      -5.222  17.843  68.026  1.00  0.00    -0.143 OA 
BRANCH  15  16
HETATM   16  C   UNL     1      -5.485  19.154  67.491  1.00  0.00    -0.170 C  
HETATM   17  C   UNL     1      -6.628  19.141  66.496  1.00  0.00    -0.206 C  
HETATM   18  O   UNL     1      -6.960  21.002  67.903  1.00  0.00    -0.272 OA 
HETATM   19  C   UNL     1      -7.119  20.572  66.547  1.00  0.00    -0.240 C  
HETATM   20  C   UNL     1      -5.988  20.150  68.533  1.00  0.00    -0.268 C  
ENDBRANCH  15  16
ENDBRANCH  14  15
ENDBRANCH  10  11
BRANCH  10  21
HETATM   21  C   UNL     1      -9.031  15.909  67.623  1.00  0.00    -0.193 C  
BRANCH  21  22
HETATM   22  C   UNL     1      -9.660  17.279  67.463  1.00  0.00    -0.259 A  
HETATM   23  C   UNL     1     -10.077  19.510  68.345  1.00  0.00    -0.546 A  
HETATM   24  C   UNL     1      -9.668  18.185  68.533  1.00  0.00    -0.372 A  
HETATM   25  C   UNL     1     -10.497  19.946  67.090  1.00  0.00    -0.566 A  
HETATM   26  C   UNL     1     -10.101  17.730  66.207  1.00  0.00    -0.345 A  
HETATM   27  C   UNL     1     -10.517  19.053  66.023  1.00  0.00    -0.530 A  
ENDBRANCH  21  22
ENDBRANCH  10  21
ENDBRANCH   7  10
ENDBRANCH   6   7
ENDBRANCH   5   6
BRANCH   5  28
HETATM   28  S   UNL     1      -7.607  10.645  67.401  1.00  0.00    -0.096 S  
HETATM   29  O   UNL     1      -7.243  10.334  66.039  1.00  0.00    -0.114 OA 
HETATM   30  O   UNL     1      -6.592  10.753  68.434  1.00  0.00    -0.054 OA 
BRANCH  28  31
HETATM   31  C   UNL     1      -8.767   9.407  67.910  1.00  0.00    -0.120 A  
HETATM   32  N   UNL     1     -11.475   6.420  69.104  1.00  0.00    -0.608 NA 
HETATM   33  H2  UNL     1     -11.270   5.616  68.511  1.00  0.00     0.000 HD 
HETATM   34  H1  UNL     1     -11.505   6.106  70.073  1.00  0.00     0.000 HD 
HETATM   35  C   UNL     1      -9.670   8.878  66.986  1.00  0.00    -0.249 A  
HETATM   36  C   UNL     1     -10.588   7.903  67.399  1.00  0.00    -0.342 A  
HETATM   37  C   UNL     1      -8.739   8.917  69.223  1.00  0.00    -0.138 A  
HETATM   38  C   UNL     1      -9.656   7.938  69.619  1.00  0.00    -0.164 A  
HETATM   39  C   UNL     1     -10.629   7.470  68.730  1.00  0.00    -0.156 A  
ENDBRANCH  28  31
ENDBRANCH   5  28
ENDBRANCH   4   5
TORSDOF 11
ENDMDL
MODEL      235
REMARK 921   NORMALIZED FREE ENERGY PREDICTED BY IDOCK:   -4.85 KCAL/MOL
REMARK 922        TOTAL FREE ENERGY PREDICTED BY IDOCK:   -9.75 KCAL/MOL
REMARK 923 INTER-LIGAND FREE ENERGY PREDICTED BY IDOCK:   -9.16 KCAL/MOL
REMARK 924 INTRA-LIGAND FREE ENERGY PREDICTED BY IDOCK:   -0.59 KCAL/MOL
REMARK 927      BINDING AFFINITY PREDICTED BY RF-SCORE:    0.00 PKD
ROOT
HETATM    1  C   UNL     1      -7.156  13.497  68.819  1.00  0.00    -0.103 C  
HETATM    2  C   UNL     1      -7.484  14.874  68.240  1.00  0.00    -0.113 C  
HETATM    3  C   UNL     1      -6.154  15.586  67.922  1.00  0.00    -0.163 C  
HETATM    4  C   UNL     1      -8.347  14.815  66.965  1.00  0.00    -0.198 C  
ENDROOT
BRANCH   4   5
HETATM    5  N   UNL     1      -9.707  14.133  67.074  1.00  0.00    -0.250 N  
BRANCH   5   6
HETATM    6  C   UNL     1      -9.590  12.682  67.601  1.00  0.00    -0.188 C  
BRANCH   6   7
HETATM    7  C   UNL     1     -10.840  11.757  67.395  1.00  0.00    -0.251 C  
HETATM    8  H   UNL     1     -12.101  11.400  65.945  1.00  0.00     0.000 HD 
HETATM    9  O   UNL     1     -11.345  11.961  66.070  1.00  0.00    -0.334 OA 
BRANCH   7  10
HETATM   10  C   UNL     1     -10.550  10.238  67.688  1.00  0.00    -0.263 C  
BRANCH  10  11
HETATM   11  N   UNL     1     -11.280   9.724  68.864  1.00  0.00    -0.455 N  
HETATM   12  O   UNL     1      -9.466   9.799  70.264  1.00  0.00    -0.249 OA 
HETATM   13  H   UNL     1     -12.273   9.503  68.782  1.00  0.00     0.000 HD 
HETATM   14  C   UNL     1     -10.644   9.540  70.067  1.00  0.00    -0.244 C  
BRANCH  14  15
HETATM   15  O   UNL     1     -11.480   9.008  71.004  1.00  0.00    -0.267 OA 
BRANCH  15  16
HETATM   16  C   UNL     1     -11.346   7.582  71.160  1.00  0.00    -0.267 C  
HETATM   17  C   UNL     1     -10.391   7.222  72.279  1.00  0.00    -0.239 C  
HETATM   18  O   UNL     1     -12.275   5.826  72.507  1.00  0.00    -0.196 OA 
HETATM   19  C   UNL     1     -10.853   5.834  72.666  1.00  0.00    -0.254 C  
HETATM   20  C   UNL     1     -12.632   6.894  71.613  1.00  0.00    -0.367 C  
ENDBRANCH  15  16
ENDBRANCH  14  15
ENDBRANCH  10  11
BRANCH  10  21
HETATM   21  C   UNL     1     -10.634   9.269  66.479  1.00  0.00    -0.117 C  
BRANCH  21  22
HETATM   22  C   UNL     1      -9.403   8.957  65.651  1.00  0.00    -0.259 A  
HETATM   23  C   UNL     1      -7.559   7.458  65.120  1.00  0.00    -0.104 A  
HETATM   24  C   UNL     1      -8.586   7.865  65.978  1.00  0.00    -0.166 A  
HETATM   25  C   UNL     1      -7.322   8.143  63.930  1.00  0.00    -0.101 A  
HETATM   26  C   UNL     1      -9.141   9.647  64.455  1.00  0.00    -0.287 A  
HETATM   27  C   UNL     1      -8.109   9.243  63.602  1.00  0.00    -0.155 A  
ENDBRANCH  21  22
ENDBRANCH  10  21
ENDBRANCH   7  10
ENDBRANCH   6   7
ENDBRANCH   5   6
BRANCH   5  28
HETATM   28  S   UNL     1     -10.792  15.082  68.086  1.00  0.00    -0.272 S  
HETATM   29  O   UNL     1     -12.155  14.850  67.670  1.00  0.00    -0.253 OA 
HETATM   30  O   UNL     1     -10.379  14.824  69.453  1.00  0.00    -0.217 OA 
BRANCH  28  31
HETATM   31  C   UNL     1     -10.436  16.780  67.723  1.00  0.00    -0.335 A  
HETATM   32  N   UNL     1      -9.653  20.824  66.882  1.00  0.00    -0.678 NA 
HETATM   33  H2  UNL     1     -10.536  21.206  66.542  1.00  0.00     0.000 HD 
HETATM   34  H1  UNL     1      -9.292  21.443  67.607  1.00  0.00     0.000 HD 
HETATM   35  C   UNL     1     -10.619  17.268  66.428  1.00  0.00    -0.179 A  
HETATM   36  C   UNL     1     -10.331  18.611  66.150  1.00  0.00    -0.481 A  
HETATM   37  C   UNL     1     -10.026  17.644  68.747  1.00  0.00    -0.358 A  
HETATM   38  C   UNL     1      -9.748  18.983  68.457  1.00  0.00    -0.458 A  
HETATM   39  C   UNL     1      -9.835  19.462  67.145  1.00  0.00    -0.338 A  
ENDBRANCH  28  31
ENDBRANCH   5  28
ENDBRANCH   4   5
TORSDOF 11
ENDMDL
MODEL      236
REMARK 921   NORMALIZED FREE ENERGY PREDICTED BY IDOCK:   -4.85 KCAL/MOL
REMARK 922        TOTAL FREE ENERGY PREDICTED BY IDOCK:   -9.74 KCAL/MOL
REMARK 923 INTER-LIGAND FREE ENERGY PREDICTED BY IDOCK:   -8.28 KCAL/MOL
REMARK 924 INTRA-LIGAND FREE ENERGY PREDICTED BY IDOCK:   -1.46 KCAL/MOL
REMARK 927      BINDING AFFINITY PREDICTED BY RF-SCORE:    0.00 PKD
ROOT
HETATM    1  C   UNL     1      -6.105   7.667  66.981  1.00  0.00    -0.051 C  
HETATM    2  C   UNL     1      -6.620   8.996  66.428  1.00  0.00    -0.067 C  
HETATM    3  C   UNL     1      -6.337   9.024  64.913  1.00  0.00    -0.066 C  
HETATM    4  C   UNL     1      -8.127   9.218  66.668  1.00  0.00    -0.108 C  
ENDROOT
BRANCH   4   5
HETATM    5  N   UNL     1      -8.611   9.213  68.114  1.00  0.00    -0.128 N  
BRANCH   5   6
HETATM    6  C   UNL     1      -9.013  10.627  68.599  1.00  0.00    -0.170 C  
BRANCH   6   7
HETATM    7  C   UNL     1      -9.446  11.653  67.494  1.00  0.00    -0.171 C  
HETATM    8  H   UNL     1     -10.809  11.721  66.096  1.00  0.00     0.000 HD 
HETATM    9  O   UNL     1     -10.547  11.099  66.765  1.00  0.00    -0.241 OA 
BRANCH   7  10
HETATM   10  C   UNL     1      -9.774  13.083  68.062  1.00  0.00    -0.224 C  
BRANCH  10  11
HETATM   11  N   UNL     1     -10.582  13.045  69.298  1.00  0.00    -0.439 N  
HETATM   12  O   UNL     1     -12.406  14.076  68.367  1.00  0.00    -0.254 OA 
HETATM   13  H   UNL     1     -10.192  12.621  70.140  1.00  0.00     0.000 HD 
HETATM   14  C   UNL     1     -11.850  13.571  69.331  1.00  0.00    -0.335 C  
BRANCH  14  15
HETATM   15  O   UNL     1     -12.401  13.483  70.576  1.00  0.00    -0.339 OA 
BRANCH  15  16
HETATM   16  C   UNL     1     -12.810  14.753  71.121  1.00  0.00    -0.341 C  
HETATM   17  C   UNL     1     -13.450  14.604  72.486  1.00  0.00    -0.565 C  
HETATM   18  O   UNL     1     -11.960  16.425  72.619  1.00  0.00    -0.538 OA 
HETATM   19  C   UNL     1     -13.230  15.970  73.098  1.00  0.00    -0.537 C  
HETATM   20  C   UNL     1     -11.645  15.693  71.422  1.00  0.00    -0.433 C  
ENDBRANCH  15  16
ENDBRANCH  14  15
ENDBRANCH  10  11
BRANCH  10  21
HETATM   21  C   UNL     1      -8.588  14.078  68.171  1.00  0.00    -0.181 C  
BRANCH  21  22
HETATM   22  C   UNL     1      -8.825  15.574  68.113  1.00  0.00    -0.169 A  
HETATM   23  C   UNL     1      -8.028  17.838  68.517  1.00  0.00    -0.294 A  
HETATM   24  C   UNL     1      -7.921  16.459  68.719  1.00  0.00    -0.233 A  
HETATM   25  C   UNL     1      -9.046  18.357  67.720  1.00  0.00    -0.288 A  
HETATM   26  C   UNL     1      -9.856  16.113  67.326  1.00  0.00    -0.241 A  
HETATM   27  C   UNL     1      -9.965  17.494  67.131  1.00  0.00    -0.314 A  
ENDBRANCH  21  22
ENDBRANCH  10  21
ENDBRANCH   7  10
ENDBRANCH   6   7
ENDBRANCH   5   6
BRANCH   5  28
HETATM   28  S   UNL     1      -9.946   8.080  68.311  1.00  0.00    -0.191 S  
HETATM   29  O   UNL     1     -10.889   8.619  69.263  1.00  0.00    -0.180 OA 
HETATM   30  O   UNL     1     -10.366   7.731  66.967  1.00  0.00    -0.279 OA 
BRANCH  28  31
HETATM   31  C   UNL     1      -9.249   6.631  69.055  1.00  0.00    -0.131 A  
HETATM   32  N   UNL     1      -7.557   3.184  70.767  1.00  0.00    -0.040 NA 
HETATM   33  H2  UNL     1      -7.352   2.565  69.983  1.00  0.00     0.000 HD 
HETATM   34  H1  UNL     1      -6.723   3.252  71.351  1.00  0.00     0.000 HD 
HETATM   35  C   UNL     1      -9.862   5.391  68.870  1.00  0.00    -0.226 A  
HETATM   36  C   UNL     1      -9.307   4.251  69.466  1.00  0.00    -0.232 A  
HETATM   37  C   UNL     1      -8.054   6.721  69.781  1.00  0.00    -0.126 A  
HETATM   38  C   UNL     1      -7.507   5.574  70.364  1.00  0.00    -0.079 A  
HETATM   39  C   UNL     1      -8.162   4.343  70.267  1.00  0.00    -0.066 A  
ENDBRANCH  28  31
ENDBRANCH   5  28
ENDBRANCH   4   5
TORSDOF 11
ENDMDL
MODEL      237
REMARK 921   NORMALIZED FREE ENERGY PREDICTED BY IDOCK:   -4.83 KCAL/MOL
REMARK 922        TOTAL FREE ENERGY PREDICTED BY IDOCK:   -9.71 KCAL/MOL
REMARK 923 INTER-LIGAND FREE ENERGY PREDICTED BY IDOCK:   -8.62 KCAL/MOL
REMARK 924 INTRA-LIGAND FREE ENERGY PREDICTED BY IDOCK:   -1.09 KCAL/MOL
REMARK 927      BINDING AFFINITY PREDICTED BY RF-SCORE:    0.00 PKD
ROOT
HETATM    1  C   UNL     1     -11.724  15.137  71.726  1.00  0.00    -0.480 C  
HETATM    2  C   UNL     1     -12.591  13.890  71.545  1.00  0.00    -0.419 C  
HETATM    3  C   UNL     1     -13.839  14.045  72.438  1.00  0.00    -0.653 C  
HETATM    4  C   UNL     1     -13.033  13.655  70.088  1.00  0.00     0.253 C  
ENDROOT
BRANCH   4   5
HETATM    5  N   UNL     1     -11.935  13.489  69.044  1.00  0.00    -0.341 N  
BRANCH   5   6
HETATM    6  C   UNL     1     -10.636  14.232  69.440  1.00  0.00    -0.081 C  
BRANCH   6   7
HETATM    7  C   UNL     1      -9.992  15.155  68.347  1.00  0.00    -0.222 C  
HETATM    8  H   UNL     1      -9.696  17.073  68.124  1.00  0.00     0.000 HD 
HETATM    9  O   UNL     1     -10.086  16.515  68.786  1.00  0.00    -0.228 OA 
BRANCH   7  10
HETATM   10  C   UNL     1      -8.515  14.754  67.981  1.00  0.00    -0.151 C  
BRANCH  10  11
HETATM   11  N   UNL     1      -7.664  15.915  67.652  1.00  0.00    -0.140 N  
HETATM   12  O   UNL     1      -8.732  16.385  65.679  1.00  0.00    -0.372 OA 
HETATM   13  H   UNL     1      -6.922  16.191  68.295  1.00  0.00     0.000 HD 
HETATM   14  C   UNL     1      -7.856  16.628  66.495  1.00  0.00    -0.307 C  
BRANCH  14  15
HETATM   15  O   UNL     1      -6.933  17.623  66.355  1.00  0.00    -0.211 OA 
BRANCH  15  16
HETATM   16  C   UNL     1      -7.405  18.917  66.775  1.00  0.00    -0.213 C  
HETATM   17  C   UNL     1      -6.609  19.460  67.944  1.00  0.00    -0.258 C  
HETATM   18  O   UNL     1      -6.874  21.230  66.412  1.00  0.00    -0.186 OA 
HETATM   19  C   UNL     1      -6.818  20.952  67.815  1.00  0.00    -0.294 C  
HETATM   20  C   UNL     1      -7.206  20.010  65.727  1.00  0.00    -0.309 C  
ENDBRANCH  15  16
ENDBRANCH  14  15
ENDBRANCH  10  11
BRANCH  10  21
HETATM   21  C   UNL     1      -7.806  13.762  68.940  1.00  0.00     0.005 C  
BRANCH  21  22
HETATM   22  C   UNL     1      -7.262  12.443  68.426  1.00  0.00    -0.110 A  
HETATM   23  C   UNL     1      -6.567  10.151  68.861  1.00  0.00    -0.049 A  
HETATM   24  C   UNL     1      -6.893  11.430  69.322  1.00  0.00    -0.119 A  
HETATM   25  C   UNL     1      -6.590   9.867  67.497  1.00  0.00    -0.069 A  
HETATM   26  C   UNL     1      -7.265  12.147  67.053  1.00  0.00    -0.067 A  
HETATM   27  C   UNL     1      -6.930  10.868  66.592  1.00  0.00    -0.135 A  
ENDBRANCH  21  22
ENDBRANCH  10  21
ENDBRANCH   7  10
ENDBRANCH   6   7
ENDBRANCH   5   6
BRANCH   5  28
HETATM   28  S   UNL     1     -11.615  11.781  68.754  1.00  0.00    -0.332 S  
HETATM   29  O   UNL     1     -10.381  11.411  69.405  1.00  0.00    -0.100 OA 
HETATM   30  O   UNL     1     -12.854  11.092  69.065  1.00  0.00    -0.086 OA 
BRANCH  28  31
HETATM   31  C   UNL     1     -11.332  11.628  67.012  1.00  0.00    -0.305 A  
HETATM   32  N   UNL     1     -10.716  11.224  62.873  1.00  0.00    -0.792 NA 
HETATM   33  H2  UNL     1     -11.032  10.282  62.642  1.00  0.00     0.000 HD 
HETATM   34  H1  UNL     1     -11.146  11.877  62.218  1.00  0.00     0.000 HD 
HETATM   35  C   UNL     1     -10.489  10.626  66.530  1.00  0.00    -0.285 A  
HETATM   36  C   UNL     1     -10.267  10.515  65.150  1.00  0.00    -0.358 A  
HETATM   37  C   UNL     1     -12.000  12.474  66.116  1.00  0.00    -0.432 A  
HETATM   38  C   UNL     1     -11.775  12.347  64.741  1.00  0.00    -0.425 A  
HETATM   39  C   UNL     1     -10.858  11.411  64.252  1.00  0.00    -0.349 A  
ENDBRANCH  28  31
ENDBRANCH   5  28
ENDBRANCH   4   5
TORSDOF 11
ENDMDL
MODEL      238
REMARK 921   NORMALIZED FREE ENERGY PREDICTED BY IDOCK:   -4.83 KCAL/MOL
REMARK 922        TOTAL FREE ENERGY PREDICTED BY IDOCK:   -9.70 KCAL/MOL
REMARK 923 INTER-LIGAND FREE ENERGY PREDICTED BY IDOCK:   -8.88 KCAL/MOL
REMARK 924 INTRA-LIGAND FREE ENERGY PREDICTED BY IDOCK:   -0.82 KCAL/MOL
REMARK 927      BINDING AFFINITY PREDICTED BY RF-SCORE:    0.00 PKD
ROOT
HETATM    1  C   UNL     1      -5.880   7.825  66.148  1.00  0.00    -0.037 C  
HETATM    2  C   UNL     1      -6.867   7.363  65.075  1.00  0.00    -0.050 C  
HETATM    3  C   UNL     1      -6.532   5.901  64.717  1.00  0.00    -0.038 C  
HETATM    4  C   UNL     1      -8.341   7.454  65.516  1.00  0.00    -0.135 C  
ENDROOT
BRANCH   4   5
HETATM    5  N   UNL     1      -8.864   8.827  65.923  1.00  0.00    -0.174 N  
BRANCH   5   6
HETATM    6  C   UNL     1      -8.210   9.335  67.231  1.00  0.00    -0.121 C  
BRANCH   6   7
HETATM    7  C   UNL     1      -8.728   8.701  68.569  1.00  0.00    -0.139 C  
HETATM    8  H   UNL     1      -8.513   9.071  70.476  1.00  0.00     0.000 HD 
HETATM    9  O   UNL     1      -8.199   9.455  69.666  1.00  0.00    -0.112 OA 
BRANCH   7  10
HETATM   10  C   UNL     1     -10.295   8.579  68.639  1.00  0.00    -0.198 C  
BRANCH  10  11
HETATM   11  N   UNL     1     -10.816   7.390  67.936  1.00  0.00    -0.457 N  
HETATM   12  O   UNL     1      -9.697   5.883  69.252  1.00  0.00    -0.136 OA 
HETATM   13  H   UNL     1     -11.462   7.511  67.155  1.00  0.00     0.000 HD 
HETATM   14  C   UNL     1     -10.445   6.124  68.317  1.00  0.00    -0.232 C  
BRANCH  14  15
HETATM   15  O   UNL     1     -10.993   5.172  67.508  1.00  0.00     0.114 OA 
BRANCH  15  16
HETATM   16  C   UNL     1     -10.167   4.823  66.380  1.00  0.00    -0.275 C  
HETATM   17  C   UNL     1      -9.459   3.499  66.584  1.00  0.00    -0.179 C  
HETATM   18  O   UNL     1     -10.313   3.492  64.388  1.00  0.00    -0.192 OA 
HETATM   19  C   UNL     1      -9.194   3.050  65.164  1.00  0.00    -0.149 C  
HETATM   20  C   UNL     1     -10.958   4.560  65.100  1.00  0.00     0.021 C  
ENDBRANCH  15  16
ENDBRANCH  14  15
ENDBRANCH  10  11
BRANCH  10  21
HETATM   21  C   UNL     1     -10.946   8.765  70.035  1.00  0.00    -0.216 C  
BRANCH  21  22
HETATM   22  C   UNL     1     -11.684  10.043  70.382  1.00  0.00    -0.365 A  
HETATM   23  C   UNL     1     -13.058  11.313  71.939  1.00  0.00    -0.510 A  
HETATM   24  C   UNL     1     -12.520  10.097  71.506  1.00  0.00    -0.526 A  
HETATM   25  C   UNL     1     -12.781  12.491  71.248  1.00  0.00    -0.350 A  
HETATM   26  C   UNL     1     -11.427  11.237  69.686  1.00  0.00    -0.380 A  
HETATM   27  C   UNL     1     -11.973  12.451  70.117  1.00  0.00    -0.376 A  
ENDBRANCH  21  22
ENDBRANCH  10  21
ENDBRANCH   7  10
ENDBRANCH   6   7
ENDBRANCH   5   6
BRANCH   5  28
HETATM   28  S   UNL     1      -8.634   9.986  64.617  1.00  0.00    -0.196 S  
HETATM   29  O   UNL     1      -7.401  10.705  64.831  1.00  0.00    -0.034 OA 
HETATM   30  O   UNL     1      -8.857   9.243  63.390  1.00  0.00    -0.212 OA 
BRANCH  28  31
HETATM   31  C   UNL     1      -9.943  11.169  64.779  1.00  0.00    -0.287 A  
HETATM   32  N   UNL     1     -13.094  13.926  65.156  1.00  0.00    -0.764 NA 
HETATM   33  H2  UNL     1     -13.835  13.577  64.549  1.00  0.00     0.000 HD 
HETATM   34  H1  UNL     1     -13.498  14.130  66.071  1.00  0.00     0.000 HD 
HETATM   35  C   UNL     1     -10.406  11.853  63.654  1.00  0.00    -0.477 A  
HETATM   36  C   UNL     1     -11.439  12.790  63.793  1.00  0.00    -0.533 A  
HETATM   37  C   UNL     1     -10.551  11.375  66.025  1.00  0.00    -0.319 A  
HETATM   38  C   UNL     1     -11.585  12.308  66.148  1.00  0.00    -0.450 A  
HETATM   39  C   UNL     1     -11.993  13.069  65.048  1.00  0.00    -0.397 A  
ENDBRANCH  28  31
ENDBRANCH   5  28
ENDBRANCH   4   5
TORSDOF 11
ENDMDL
MODEL      239
REMARK 921   NORMALIZED FREE ENERGY PREDICTED BY IDOCK:   -4.82 KCAL/MOL
REMARK 922        TOTAL FREE ENERGY PREDICTED BY IDOCK:   -9.69 KCAL/MOL
REMARK 923 INTER-LIGAND FREE ENERGY PREDICTED BY IDOCK:   -7.96 KCAL/MOL
REMARK 924 INTRA-LIGAND FREE ENERGY PREDICTED BY IDOCK:   -1.73 KCAL/MOL
REMARK 927      BINDING AFFINITY PREDICTED BY RF-SCORE:    0.00 PKD
ROOT
HETATM    1  C   UNL     1      -8.189   9.343  70.794  1.00  0.00    -0.173 C  
HETATM    2  C   UNL     1      -9.152   8.357  70.130  1.00  0.00    -0.150 C  
HETATM    3  C   UNL     1      -8.819   6.944  70.651  1.00  0.00    -0.150 C  
HETATM    4  C   UNL     1     -10.636   8.666  70.408  1.00  0.00    -0.220 C  
ENDROOT
BRANCH   4   5
HETATM    5  N   UNL     1     -11.158  10.031  69.974  1.00  0.00    -0.275 N  
BRANCH   5   6
HETATM    6  C   UNL     1     -11.384  10.109  68.444  1.00  0.00    -0.113 C  
BRANCH   6   7
HETATM    7  C   UNL     1     -10.369   9.324  67.542  1.00  0.00    -0.262 C  
HETATM    8  H   UNL     1     -10.420   7.704  66.450  1.00  0.00     0.000 HD 
HETATM    9  O   UNL     1     -11.035   8.180  66.996  1.00  0.00    -0.159 OA 
BRANCH   7  10
HETATM   10  C   UNL     1      -9.710  10.212  66.423  1.00  0.00    -0.205 C  
BRANCH  10  11
HETATM   11  N   UNL     1     -10.266  11.579  66.364  1.00  0.00    -0.217 N  
HETATM   12  O   UNL     1     -10.918  11.427  64.172  1.00  0.00    -0.357 OA 
HETATM   13  H   UNL     1     -10.238  12.168  67.196  1.00  0.00     0.000 HD 
HETATM   14  C   UNL     1     -10.821  12.068  65.207  1.00  0.00    -0.294 C  
BRANCH  14  15
HETATM   15  O   UNL     1     -11.224  13.363  65.349  1.00  0.00    -0.287 OA 
BRANCH  15  16
HETATM   16  C   UNL     1     -10.540  14.074  66.398  1.00  0.00    -0.280 C  
HETATM   17  C   UNL     1      -9.687  15.202  65.856  1.00  0.00    -0.385 C  
HETATM   18  O   UNL     1     -10.843  16.051  67.725  1.00  0.00    -0.318 OA 
HETATM   19  C   UNL     1      -9.587  16.133  67.044  1.00  0.00    -0.224 C  
HETATM   20  C   UNL     1     -11.479  14.819  67.345  1.00  0.00    -0.363 C  
ENDBRANCH  15  16
ENDBRANCH  14  15
ENDBRANCH  10  11
BRANCH  10  21
HETATM   21  C   UNL     1      -8.159  10.209  66.356  1.00  0.00    -0.122 C  
BRANCH  21  22
HETATM   22  C   UNL     1      -7.370   8.980  66.761  1.00  0.00    -0.086 A  
HETATM   23  C   UNL     1      -5.726   7.930  68.218  1.00  0.00    -0.033 A  
HETATM   24  C   UNL     1      -6.335   9.079  67.702  1.00  0.00    -0.056 A  
HETATM   25  C   UNL     1      -6.130   6.667  67.792  1.00  0.00    -0.028 A  
HETATM   26  C   UNL     1      -7.754   7.699  66.329  1.00  0.00    -0.089 A  
HETATM   27  C   UNL     1      -7.138   6.552  66.840  1.00  0.00    -0.073 A  
ENDBRANCH  21  22
ENDBRANCH  10  21
ENDBRANCH   7  10
ENDBRANCH   6   7
ENDBRANCH   5   6
BRANCH   5  28
HETATM   28  S   UNL     1     -12.634  10.432  70.847  1.00  0.00    -0.408 S  
HETATM   29  O   UNL     1     -13.768  10.256  69.970  1.00  0.00     0.326 OA 
HETATM   30  O   UNL     1     -12.552   9.715  72.106  1.00  0.00    -0.362 OA 
BRANCH  28  31
HETATM   31  C   UNL     1     -12.534  12.165  71.202  1.00  0.00    -0.234 A  
HETATM   32  N   UNL     1     -12.358  16.286  72.017  1.00  0.00    -0.570 NA 
HETATM   33  H2  UNL     1     -12.833  16.737  71.235  1.00  0.00     0.000 HD 
HETATM   34  H1  UNL     1     -12.742  16.659  72.885  1.00  0.00     0.000 HD 
HETATM   35  C   UNL     1     -11.899  13.024  70.304  1.00  0.00    -0.294 A  
HETATM   36  C   UNL     1     -11.821  14.392  70.596  1.00  0.00    -0.361 A  
HETATM   37  C   UNL     1     -13.143  12.680  72.354  1.00  0.00    -0.241 A  
HETATM   38  C   UNL     1     -13.064  14.049  72.630  1.00  0.00    -0.553 A  
HETATM   39  C   UNL     1     -12.347  14.905  71.788  1.00  0.00    -0.343 A  
ENDBRANCH  28  31
ENDBRANCH   5  28
ENDBRANCH   4   5
TORSDOF 11
ENDMDL
MODEL      240
REMARK 921   NORMALIZED FREE ENERGY PREDICTED BY IDOCK:   -4.82 KCAL/MOL
REMARK 922        TOTAL FREE ENERGY PREDICTED BY IDOCK:   -9.69 KCAL/MOL
REMARK 923 INTER-LIGAND FREE ENERGY PREDICTED BY IDOCK:   -7.36 KCAL/MOL
REMARK 924 INTRA-LIGAND FREE ENERGY PREDICTED BY IDOCK:   -2.32 KCAL/MOL
REMARK 927      BINDING AFFINITY PREDICTED BY RF-SCORE:    0.00 PKD
ROOT
HETATM    1  C   UNL     1      -6.533   6.923  69.305  1.00  0.00    -0.043 C  
HETATM    2  C   UNL     1      -6.960   8.302  68.800  1.00  0.00    -0.067 C  
HETATM    3  C   UNL     1      -5.908   9.328  69.269  1.00  0.00    -0.035 C  
HETATM    4  C   UNL     1      -7.097   8.379  67.266  1.00  0.00    -0.079 C  
ENDROOT
BRANCH   4   5
HETATM    5  N   UNL     1      -8.088   7.426  66.606  1.00  0.00    -0.120 N  
BRANCH   5   6
HETATM    6  C   UNL     1      -9.495   8.056  66.464  1.00  0.00    -0.214 C  
BRANCH   6   7
HETATM    7  C   UNL     1     -10.525   7.741  67.605  1.00  0.00    -0.239 C  
HETATM    8  H   UNL     1     -10.724   6.366  68.979  1.00  0.00     0.000 HD 
HETATM    9  O   UNL     1     -10.100   6.557  68.288  1.00  0.00    -0.144 OA 
BRANCH   7  10
HETATM   10  C   UNL     1     -10.750   8.944  68.594  1.00  0.00    -0.078 C  
BRANCH  10  11
HETATM   11  N   UNL     1     -11.576  10.024  68.017  1.00  0.00    -0.391 N  
HETATM   12  O   UNL     1      -9.796  11.375  67.507  1.00  0.00    -0.176 OA 
HETATM   13  H   UNL     1     -12.590   9.916  67.981  1.00  0.00     0.000 HD 
HETATM   14  C   UNL     1     -11.000  11.170  67.527  1.00  0.00    -0.275 C  
BRANCH  14  15
HETATM   15  O   UNL     1     -11.938  12.060  67.091  1.00  0.00    -0.601 OA 
BRANCH  15  16
HETATM   16  C   UNL     1     -11.565  12.751  65.883  1.00  0.00    -0.382 C  
HETATM   17  C   UNL     1     -11.769  11.891  64.652  1.00  0.00    -0.306 C  
HETATM   18  O   UNL     1     -12.618  14.030  64.146  1.00  0.00    -0.680 OA 
HETATM   19  C   UNL     1     -11.926  12.924  63.558  1.00  0.00    -0.556 C  
HETATM   20  C   UNL     1     -12.449  13.957  65.571  1.00  0.00    -0.511 C  
ENDBRANCH  15  16
ENDBRANCH  14  15
ENDBRANCH  10  11
BRANCH  10  21
HETATM   21  C   UNL     1     -11.188   8.583  70.039  1.00  0.00    -0.086 C  
BRANCH  21  22
HETATM   22  C   UNL     1     -10.165   8.158  71.074  1.00  0.00    -0.221 A  
HETATM   23  C   UNL     1      -9.058   6.385  72.322  1.00  0.00    -0.139 A  
HETATM   24  C   UNL     1     -10.108   6.828  71.511  1.00  0.00    -0.196 A  
HETATM   25  C   UNL     1      -8.055   7.268  72.720  1.00  0.00    -0.122 A  
HETATM   26  C   UNL     1      -9.156   9.040  71.497  1.00  0.00    -0.231 A  
HETATM   27  C   UNL     1      -8.110   8.598  72.314  1.00  0.00    -0.089 A  
ENDBRANCH  21  22
ENDBRANCH  10  21
ENDBRANCH   7  10
ENDBRANCH   6   7
ENDBRANCH   5   6
BRANCH   5  28
HETATM   28  S   UNL     1      -7.480   6.893  65.042  1.00  0.00    -0.103 S  
HETATM   29  O   UNL     1      -7.787   7.893  64.046  1.00  0.00    -0.130 OA 
HETATM   30  O   UNL     1      -6.109   6.475  65.275  1.00  0.00    -0.032 OA 
BRANCH  28  31
HETATM   31  C   UNL     1      -8.421   5.453  64.619  1.00  0.00    -0.126 A  
HETATM   32  N   UNL     1     -10.710   2.075  63.606  1.00  0.00    -0.380 NA 
HETATM   33  H2  UNL     1     -11.644   2.261  63.970  1.00  0.00     0.000 HD 
HETATM   34  H1  UNL     1     -10.796   1.780  62.633  1.00  0.00     0.000 HD 
HETATM   35  C   UNL     1      -9.024   4.695  65.624  1.00  0.00    -0.138 A  
HETATM   36  C   UNL     1      -9.763   3.555  65.280  1.00  0.00    -0.111 A  
HETATM   37  C   UNL     1      -8.609   5.109  63.273  1.00  0.00    -0.085 A  
HETATM   38  C   UNL     1      -9.354   3.972  62.944  1.00  0.00    -0.123 A  
HETATM   39  C   UNL     1      -9.882   3.151  63.945  1.00  0.00    -0.155 A  
ENDBRANCH  28  31
ENDBRANCH   5  28
ENDBRANCH   4   5
TORSDOF 11
ENDMDL
MODEL      241
REMARK 921   NORMALIZED FREE ENERGY PREDICTED BY IDOCK:   -4.80 KCAL/MOL
REMARK 922        TOTAL FREE ENERGY PREDICTED BY IDOCK:   -9.65 KCAL/MOL
REMARK 923 INTER-LIGAND FREE ENERGY PREDICTED BY IDOCK:   -9.38 KCAL/MOL
REMARK 924 INTRA-LIGAND FREE ENERGY PREDICTED BY IDOCK:   -0.27 KCAL/MOL
REMARK 927      BINDING AFFINITY PREDICTED BY RF-SCORE:    0.00 PKD
ROOT
HETATM    1  C   UNL     1      -8.524   9.005  70.972  1.00  0.00    -0.254 C  
HETATM    2  C   UNL     1      -8.840   8.035  72.112  1.00  0.00    -0.215 C  
HETATM    3  C   UNL     1      -7.607   7.966  73.035  1.00  0.00    -0.154 C  
HETATM    4  C   UNL     1     -10.074   8.443  72.940  1.00  0.00    -0.110 C  
ENDROOT
BRANCH   4   5
HETATM    5  N   UNL     1     -11.400   8.577  72.199  1.00  0.00    -0.352 N  
BRANCH   5   6
HETATM    6  C   UNL     1     -11.265   9.432  70.915  1.00  0.00    -0.325 C  
BRANCH   6   7
HETATM    7  C   UNL     1     -12.273  10.623  70.755  1.00  0.00    -0.375 C  
HETATM    8  H   UNL     1     -13.592  11.511  71.891  1.00  0.00     0.000 HD 
HETATM    9  O   UNL     1     -12.982  10.789  71.988  1.00  0.00    -0.463 OA 
BRANCH   7  10
HETATM   10  C   UNL     1     -11.590  11.961  70.283  1.00  0.00    -0.089 C  
BRANCH  10  11
HETATM   11  N   UNL     1     -10.594  11.757  69.212  1.00  0.00    -0.430 N  
HETATM   12  O   UNL     1     -12.141  11.193  67.616  1.00  0.00    -0.537 OA 
HETATM   13  H   UNL     1      -9.605  11.905  69.411  1.00  0.00     0.000 HD 
HETATM   14  C   UNL     1     -10.980  11.371  67.952  1.00  0.00    -0.240 C  
BRANCH  14  15
HETATM   15  O   UNL     1      -9.907  11.185  67.130  1.00  0.00    -0.183 OA 
BRANCH  15  16
HETATM   16  C   UNL     1     -10.257  10.715  65.814  1.00  0.00    -0.252 C  
HETATM   17  C   UNL     1     -10.163  11.815  64.776  1.00  0.00    -0.324 C  
HETATM   18  O   UNL     1      -9.155   9.900  63.844  1.00  0.00    -0.236 OA 
HETATM   19  C   UNL     1      -9.953  11.036  63.496  1.00  0.00    -0.370 C  
HETATM   20  C   UNL     1      -9.286   9.676  65.257  1.00  0.00    -0.237 C  
ENDBRANCH  15  16
ENDBRANCH  14  15
ENDBRANCH  10  11
BRANCH  10  21
HETATM   21  C   UNL     1     -12.535  13.155  69.983  1.00  0.00    -0.143 C  
BRANCH  21  22
HETATM   22  C   UNL     1     -11.976  14.486  69.521  1.00  0.00    -0.363 A  
HETATM   23  C   UNL     1     -10.620  16.458  69.966  1.00  0.00    -0.203 A  
HETATM   24  C   UNL     1     -11.296  15.321  70.419  1.00  0.00    -0.325 A  
HETATM   25  C   UNL     1     -10.624  16.788  68.612  1.00  0.00    -0.353 A  
HETATM   26  C   UNL     1     -11.985  14.841  68.161  1.00  0.00    -0.265 A  
HETATM   27  C   UNL     1     -11.314  15.983  67.711  1.00  0.00    -0.167 A  
ENDBRANCH  21  22
ENDBRANCH  10  21
ENDBRANCH   7  10
ENDBRANCH   6   7
ENDBRANCH   5   6
BRANCH   5  28
HETATM   28  S   UNL     1     -12.060   6.987  71.826  1.00  0.00    -0.348 S  
HETATM   29  O   UNL     1     -11.752   6.079  72.907  1.00  0.00    -0.161 OA 
HETATM   30  O   UNL     1     -13.434   7.218  71.420  1.00  0.00    -0.388 OA 
BRANCH  28  31
HETATM   31  C   UNL     1     -11.167   6.408  70.410  1.00  0.00    -0.372 A  
HETATM   32  N   UNL     1      -9.091   4.984  67.043  1.00  0.00    -0.115 NA 
HETATM   33  H2  UNL     1      -9.198   3.971  67.067  1.00  0.00     0.000 HD 
HETATM   34  H1  UNL     1      -9.335   5.311  66.108  1.00  0.00     0.000 HD 
HETATM   35  C   UNL     1     -10.100   5.523  70.575  1.00  0.00    -0.293 A  
HETATM   36  C   UNL     1      -9.397   5.074  69.449  1.00  0.00    -0.179 A  
HETATM   37  C   UNL     1     -11.567   6.793  69.124  1.00  0.00    -0.016 A  
HETATM   38  C   UNL     1     -10.860   6.332  68.009  1.00  0.00    -0.409 A  
HETATM   39  C   UNL     1      -9.731   5.522  68.165  1.00  0.00    -0.132 A  
ENDBRANCH  28  31
ENDBRANCH   5  28
ENDBRANCH   4   5
TORSDOF 11
ENDMDL
MODEL      242
REMARK 921   NORMALIZED FREE ENERGY PREDICTED BY IDOCK:   -4.79 KCAL/MOL
REMARK 922        TOTAL FREE ENERGY PREDICTED BY IDOCK:   -9.65 KCAL/MOL
REMARK 923 INTER-LIGAND FREE ENERGY PREDICTED BY IDOCK:   -7.85 KCAL/MOL
REMARK 924 INTRA-LIGAND FREE ENERGY PREDICTED BY IDOCK:   -1.80 KCAL/MOL
REMARK 927      BINDING AFFINITY PREDICTED BY RF-SCORE:    0.00 PKD
ROOT
HETATM    1  C   UNL     1      -6.560   5.875  67.552  1.00  0.00    -0.056 C  
HETATM    2  C   UNL     1      -7.739   6.042  66.592  1.00  0.00    -0.103 C  
HETATM    3  C   UNL     1      -7.767   4.818  65.655  1.00  0.00    -0.090 C  
HETATM    4  C   UNL     1      -9.099   6.168  67.306  1.00  0.00    -0.115 C  
ENDROOT
BRANCH   4   5
HETATM    5  N   UNL     1      -9.267   7.319  68.291  1.00  0.00    -0.134 N  
BRANCH   5   6
HETATM    6  C   UNL     1      -9.863   8.580  67.617  1.00  0.00    -0.174 C  
BRANCH   6   7
HETATM    7  C   UNL     1      -9.004   9.891  67.696  1.00  0.00    -0.128 C  
HETATM    8  H   UNL     1      -8.099  11.057  66.416  1.00  0.00     0.000 HD 
HETATM    9  O   UNL     1      -8.619  10.263  66.369  1.00  0.00    -0.129 OA 
BRANCH   7  10
HETATM   10  C   UNL     1      -9.726  11.067  68.453  1.00  0.00    -0.180 C  
BRANCH  10  11
HETATM   11  N   UNL     1      -9.531  12.379  67.804  1.00  0.00    -0.192 N  
HETATM   12  O   UNL     1      -7.598  12.867  68.935  1.00  0.00    -0.064 OA 
HETATM   13  H   UNL     1     -10.202  12.698  67.105  1.00  0.00     0.000 HD 
HETATM   14  C   UNL     1      -8.461  13.176  68.128  1.00  0.00    -0.173 C  
BRANCH  14  15
HETATM   15  O   UNL     1      -8.496  14.365  67.459  1.00  0.00    -0.167 OA 
BRANCH  15  16
HETATM   16  C   UNL     1      -9.322  15.362  68.090  1.00  0.00    -0.197 C  
HETATM   17  C   UNL     1      -8.541  16.617  68.424  1.00  0.00    -0.221 C  
HETATM   18  O   UNL     1     -10.581  17.310  67.469  1.00  0.00    -0.354 OA 
HETATM   19  C   UNL     1      -9.625  17.671  68.471  1.00  0.00    -0.315 C  
HETATM   20  C   UNL     1     -10.421  15.910  67.181  1.00  0.00    -0.313 C  
ENDBRANCH  15  16
ENDBRANCH  14  15
ENDBRANCH  10  11
BRANCH  10  21
HETATM   21  C   UNL     1     -11.206  10.829  68.857  1.00  0.00    -0.328 C  
BRANCH  21  22
HETATM   22  C   UNL     1     -11.828  11.600  70.003  1.00  0.00    -0.435 A  
HETATM   23  C   UNL     1     -12.607  13.713  70.929  1.00  0.00    -0.421 A  
HETATM   24  C   UNL     1     -11.876  13.001  69.972  1.00  0.00    -0.355 A  
HETATM   25  C   UNL     1     -13.289  13.039  71.939  1.00  0.00    -0.539 A  
HETATM   26  C   UNL     1     -12.508  10.935  71.038  1.00  0.00    -0.514 A  
HETATM   27  C   UNL     1     -13.233  11.650  71.998  1.00  0.00    -0.443 A  
ENDBRANCH  21  22
ENDBRANCH  10  21
ENDBRANCH   7  10
ENDBRANCH   6   7
ENDBRANCH   5   6
BRANCH   5  28
HETATM   28  S   UNL     1     -10.252   6.817  69.662  1.00  0.00    -0.194 S  
HETATM   29  O   UNL     1     -11.483   7.571  69.664  1.00  0.00    -0.001 OA 
HETATM   30  O   UNL     1     -10.270   5.366  69.622  1.00  0.00    -0.226 OA 
BRANCH  28  31
HETATM   31  C   UNL     1      -9.357   7.308  71.110  1.00  0.00    -0.156 A  
HETATM   32  N   UNL     1      -7.224   8.407  74.562  1.00  0.00    -0.194 NA 
HETATM   33  H2  UNL     1      -7.452   7.699  75.259  1.00  0.00     0.000 HD 
HETATM   34  H1  UNL     1      -6.210   8.515  74.533  1.00  0.00     0.000 HD 
HETATM   35  C   UNL     1     -10.044   7.581  72.293  1.00  0.00    -0.244 A  
HETATM   36  C   UNL     1      -9.328   7.973  73.432  1.00  0.00    -0.323 A  
HETATM   37  C   UNL     1      -7.957   7.365  71.083  1.00  0.00    -0.100 A  
HETATM   38  C   UNL     1      -7.254   7.751  72.229  1.00  0.00    -0.086 A  
HETATM   39  C   UNL     1      -7.936   8.121  73.392  1.00  0.00    -0.183 A  
ENDBRANCH  28  31
ENDBRANCH   5  28
ENDBRANCH   4   5
TORSDOF 11
ENDMDL
MODEL      243
REMARK 921   NORMALIZED FREE ENERGY PREDICTED BY IDOCK:   -4.76 KCAL/MOL
REMARK 922        TOTAL FREE ENERGY PREDICTED BY IDOCK:   -9.59 KCAL/MOL
REMARK 923 INTER-LIGAND FREE ENERGY PREDICTED BY IDOCK:   -8.49 KCAL/MOL
REMARK 924 INTRA-LIGAND FREE ENERGY PREDICTED BY IDOCK:   -1.10 KCAL/MOL
REMARK 927      BINDING AFFINITY PREDICTED BY RF-SCORE:    0.00 PKD
ROOT
HETATM    1  C   UNL     1      -6.683   8.008  64.925  1.00  0.00    -0.051 C  
HETATM    2  C   UNL     1      -7.842   7.215  64.319  1.00  0.00    -0.111 C  
HETATM    3  C   UNL     1      -7.433   6.786  62.895  1.00  0.00    -0.080 C  
HETATM    4  C   UNL     1      -8.225   5.966  65.136  1.00  0.00    -0.141 C  
ENDROOT
BRANCH   4   5
HETATM    5  N   UNL     1      -8.650   6.183  66.584  1.00  0.00    -0.115 N  
BRANCH   5   6
HETATM    6  C   UNL     1      -9.810   7.201  66.704  1.00  0.00    -0.169 C  
BRANCH   6   7
HETATM    7  C   UNL     1      -9.696   8.264  67.853  1.00  0.00    -0.161 C  
HETATM    8  H   UNL     1      -8.261   9.322  68.652  1.00  0.00     0.000 HD 
HETATM    9  O   UNL     1      -8.329   8.678  67.957  1.00  0.00    -0.121 OA 
BRANCH   7  10
HETATM   10  C   UNL     1     -10.670   9.487  67.673  1.00  0.00    -0.250 C  
BRANCH  10  11
HETATM   11  N   UNL     1     -11.448   9.792  68.891  1.00  0.00    -0.477 N  
HETATM   12  O   UNL     1      -9.610  10.216  70.192  1.00  0.00    -0.166 OA 
HETATM   13  H   UNL     1     -12.467   9.756  68.857  1.00  0.00     0.000 HD 
HETATM   14  C   UNL     1     -10.821  10.125  70.066  1.00  0.00    -0.307 C  
BRANCH  14  15
HETATM   15  O   UNL     1     -11.715  10.315  71.079  1.00  0.00    -0.349 OA 
BRANCH  15  16
HETATM   16  C   UNL     1     -12.132   9.095  71.722  1.00  0.00    -0.376 C  
HETATM   17  C   UNL     1     -13.597   8.799  71.480  1.00  0.00    -0.374 C  
HETATM   18  O   UNL     1     -12.425   6.779  71.167  1.00  0.00    -0.367 OA 
HETATM   19  C   UNL     1     -13.661   7.299  71.669  1.00  0.00    -0.349 C  
HETATM   20  C   UNL     1     -11.462   7.845  71.156  1.00  0.00    -0.273 C  
ENDBRANCH  15  16
ENDBRANCH  14  15
ENDBRANCH  10  11
BRANCH  10  21
HETATM   21  C   UNL     1     -10.071  10.764  67.027  1.00  0.00    -0.249 C  
BRANCH  21  22
HETATM   22  C   UNL     1     -10.759  11.433  65.853  1.00  0.00    -0.311 A  
HETATM   23  C   UNL     1     -12.184  13.210  64.995  1.00  0.00    -0.488 A  
HETATM   24  C   UNL     1     -11.684  12.464  66.067  1.00  0.00    -0.469 A  
HETATM   25  C   UNL     1     -11.780  12.929  63.692  1.00  0.00    -0.572 A  
HETATM   26  C   UNL     1     -10.372  11.151  64.532  1.00  0.00    -0.400 A  
HETATM   27  C   UNL     1     -10.880  11.893  63.460  1.00  0.00    -0.502 A  
ENDBRANCH  21  22
ENDBRANCH  10  21
ENDBRANCH   7  10
ENDBRANCH   6   7
ENDBRANCH   5   6
BRANCH   5  28
HETATM   28  S   UNL     1      -9.084   4.649  67.334  1.00  0.00    -0.130 S  
HETATM   29  O   UNL     1     -10.486   4.388  67.106  1.00  0.00     0.018 OA 
HETATM   30  O   UNL     1      -8.072   3.702  66.903  1.00  0.00    -0.093 OA 
BRANCH  28  31
HETATM   31  C   UNL     1      -8.892   4.890  69.079  1.00  0.00    -0.092 A  
HETATM   32  N   UNL     1      -8.401   5.403  73.223  1.00  0.00    -0.117 NA 
HETATM   33  H2  UNL     1      -8.372   4.461  73.611  1.00  0.00     0.000 HD 
HETATM   34  H1  UNL     1      -7.607   5.927  73.589  1.00  0.00     0.000 HD 
HETATM   35  C   UNL     1      -9.851   4.387  69.960  1.00  0.00    -0.294 A  
HETATM   36  C   UNL     1      -9.694   4.585  71.338  1.00  0.00    -0.248 A  
HETATM   37  C   UNL     1      -7.751   5.533  69.577  1.00  0.00    -0.082 A  
HETATM   38  C   UNL     1      -7.604   5.718  70.955  1.00  0.00    -0.096 A  
HETATM   39  C   UNL     1      -8.603   5.305  71.842  1.00  0.00    -0.130 A  
ENDBRANCH  28  31
ENDBRANCH   5  28
ENDBRANCH   4   5
TORSDOF 11
ENDMDL
MODEL      244
REMARK 921   NORMALIZED FREE ENERGY PREDICTED BY IDOCK:   -4.76 KCAL/MOL
REMARK 922        TOTAL FREE ENERGY PREDICTED BY IDOCK:   -9.59 KCAL/MOL
REMARK 923 INTER-LIGAND FREE ENERGY PREDICTED BY IDOCK:   -7.63 KCAL/MOL
REMARK 924 INTRA-LIGAND FREE ENERGY PREDICTED BY IDOCK:   -1.96 KCAL/MOL
REMARK 927      BINDING AFFINITY PREDICTED BY RF-SCORE:    0.00 PKD
ROOT
HETATM    1  C   UNL     1      -6.390   8.618  66.714  1.00  0.00    -0.059 C  
HETATM    2  C   UNL     1      -7.328   9.624  66.045  1.00  0.00    -0.099 C  
HETATM    3  C   UNL     1      -6.737   9.982  64.667  1.00  0.00    -0.128 C  
HETATM    4  C   UNL     1      -8.765   9.095  65.861  1.00  0.00    -0.158 C  
ENDROOT
BRANCH   4   5
HETATM    5  N   UNL     1      -9.519   8.674  67.117  1.00  0.00    -0.152 N  
BRANCH   5   6
HETATM    6  C   UNL     1     -10.785   9.534  67.351  1.00  0.00    -0.227 C  
BRANCH   6   7
HETATM    7  C   UNL     1     -10.657  11.070  67.057  1.00  0.00    -0.256 C  
HETATM    8  H   UNL     1     -11.707  12.409  66.096  1.00  0.00     0.000 HD 
HETATM    9  O   UNL     1     -11.785  11.479  66.275  1.00  0.00    -0.384 OA 
BRANCH   7  10
HETATM   10  C   UNL     1     -10.491  11.944  68.355  1.00  0.00    -0.217 C  
BRANCH  10  11
HETATM   11  N   UNL     1     -10.007  13.311  68.075  1.00  0.00    -0.227 N  
HETATM   12  O   UNL     1      -8.013  13.036  69.172  1.00  0.00     0.211 OA 
HETATM   13  H   UNL     1     -10.589  13.948  67.532  1.00  0.00     0.000 HD 
HETATM   14  C   UNL     1      -8.785  13.737  68.535  1.00  0.00    -0.118 C  
BRANCH  14  15
HETATM   15  O   UNL     1      -8.553  15.042  68.216  1.00  0.00    -0.147 OA 
BRANCH  15  16
HETATM   16  C   UNL     1      -7.186  15.454  68.411  1.00  0.00    -0.114 C  
HETATM   17  C   UNL     1      -6.553  15.946  67.126  1.00  0.00    -0.132 C  
HETATM   18  O   UNL     1      -5.957  17.475  68.816  1.00  0.00    -0.165 OA 
HETATM   19  C   UNL     1      -5.451  16.850  67.632  1.00  0.00    -0.132 C  
HETATM   20  C   UNL     1      -7.038  16.673  69.319  1.00  0.00    -0.212 C  
ENDBRANCH  15  16
ENDBRANCH  14  15
ENDBRANCH  10  11
BRANCH  10  21
HETATM   21  C   UNL     1     -11.679  11.938  69.354  1.00  0.00    -0.401 C  
BRANCH  21  22
HETATM   22  C   UNL     1     -11.764  10.891  70.447  1.00  0.00    -0.444 A  
HETATM   23  C   UNL     1     -13.100   9.651  72.061  1.00  0.00    -0.537 A  
HETATM   24  C   UNL     1     -12.947  10.728  71.182  1.00  0.00    -0.467 A  
HETATM   25  C   UNL     1     -12.069   8.729  72.231  1.00  0.00    -0.423 A  
HETATM   26  C   UNL     1     -10.728   9.962  70.641  1.00  0.00    -0.372 A  
HETATM   27  C   UNL     1     -10.880   8.890  71.527  1.00  0.00    -0.396 A  
ENDBRANCH  21  22
ENDBRANCH  10  21
ENDBRANCH   7  10
ENDBRANCH   6   7
ENDBRANCH   5   6
BRANCH   5  28
HETATM   28  S   UNL     1      -9.929   6.963  67.044  1.00  0.00    -0.214 S  
HETATM   29  O   UNL     1     -11.360   6.822  66.904  1.00  0.00    -0.318 OA 
HETATM   30  O   UNL     1      -9.027   6.385  66.064  1.00  0.00    -0.157 OA 
BRANCH  28  31
HETATM   31  C   UNL     1      -9.508   6.293  68.629  1.00  0.00    -0.121 A  
HETATM   32  N   UNL     1      -8.458   4.671  72.362  1.00  0.00    -0.114 NA 
HETATM   33  H2  UNL     1      -8.093   3.740  72.161  1.00  0.00     0.000 HD 
HETATM   34  H1  UNL     1      -7.793   5.152  72.968  1.00  0.00     0.000 HD 
HETATM   35  C   UNL     1     -10.113   5.115  69.069  1.00  0.00    -0.257 A  
HETATM   36  C   UNL     1      -9.777   4.595  70.326  1.00  0.00    -0.295 A  
HETATM   37  C   UNL     1      -8.527   6.914  69.414  1.00  0.00    -0.133 A  
HETATM   38  C   UNL     1      -8.197   6.381  70.664  1.00  0.00    -0.125 A  
HETATM   39  C   UNL     1      -8.865   5.255  71.158  1.00  0.00    -0.135 A  
ENDBRANCH  28  31
ENDBRANCH   5  28
ENDBRANCH   4   5
TORSDOF 11
ENDMDL
MODEL      245
REMARK 921   NORMALIZED FREE ENERGY PREDICTED BY IDOCK:   -4.75 KCAL/MOL
REMARK 922        TOTAL FREE ENERGY PREDICTED BY IDOCK:   -9.58 KCAL/MOL
REMARK 923 INTER-LIGAND FREE ENERGY PREDICTED BY IDOCK:   -9.24 KCAL/MOL
REMARK 924 INTRA-LIGAND FREE ENERGY PREDICTED BY IDOCK:   -0.34 KCAL/MOL
REMARK 927      BINDING AFFINITY PREDICTED BY RF-SCORE:    0.00 PKD
ROOT
HETATM    1  C   UNL     1     -12.218  13.100  69.472  1.00  0.00    -0.214 C  
HETATM    2  C   UNL     1     -11.837  11.925  70.375  1.00  0.00    -0.329 C  
HETATM    3  C   UNL     1     -12.988  11.704  71.378  1.00  0.00    -0.426 C  
HETATM    4  C   UNL     1     -11.575  10.617  69.604  1.00  0.00    -0.296 C  
ENDROOT
BRANCH   4   5
HETATM    5  N   UNL     1     -10.473  10.637  68.550  1.00  0.00    -0.180 N  
BRANCH   5   6
HETATM    6  C   UNL     1      -9.325  11.605  68.926  1.00  0.00     0.047 C  
BRANCH   6   7
HETATM    7  C   UNL     1      -8.683  12.424  67.752  1.00  0.00    -0.176 C  
HETATM    8  H   UNL     1      -8.484  12.194  65.822  1.00  0.00     0.000 HD 
HETATM    9  O   UNL     1      -8.873  11.698  66.533  1.00  0.00    -0.183 OA 
BRANCH   7  10
HETATM   10  C   UNL     1      -9.222  13.899  67.650  1.00  0.00    -0.199 C  
BRANCH  10  11
HETATM   11  N   UNL     1     -10.567  13.984  67.046  1.00  0.00    -0.278 N  
HETATM   12  O   UNL     1      -9.911  15.323  65.304  1.00  0.00    -0.337 OA 
HETATM   13  H   UNL     1     -11.346  13.489  67.482  1.00  0.00     0.000 HD 
HETATM   14  C   UNL     1     -10.786  14.718  65.906  1.00  0.00    -0.316 C  
BRANCH  14  15
HETATM   15  O   UNL     1     -12.101  14.712  65.545  1.00  0.00    -0.316 OA 
BRANCH  15  16
HETATM   16  C   UNL     1     -12.518  13.498  64.890  1.00  0.00    -0.384 C  
HETATM   17  C   UNL     1     -11.949  13.387  63.490  1.00  0.00    -0.467 C  
HETATM   18  O   UNL     1     -11.681  11.281  64.512  1.00  0.00     0.002 OA 
HETATM   19  C   UNL     1     -11.968  11.893  63.250  1.00  0.00    -0.337 C  
HETATM   20  C   UNL     1     -11.978  12.231  65.549  1.00  0.00    -0.321 C  
ENDBRANCH  15  16
ENDBRANCH  14  15
ENDBRANCH  10  11
BRANCH  10  21
HETATM   21  C   UNL     1      -9.098  14.774  68.926  1.00  0.00    -0.168 C  
BRANCH  21  22
HETATM   22  C   UNL     1      -8.984  16.282  68.821  1.00  0.00    -0.243 A  
HETATM   23  C   UNL     1      -7.712  18.246  68.149  1.00  0.00    -0.288 A  
HETATM   24  C   UNL     1      -7.777  16.877  68.427  1.00  0.00    -0.219 A  
HETATM   25  C   UNL     1      -8.846  19.045  68.275  1.00  0.00    -0.370 A  
HETATM   26  C   UNL     1     -10.116  17.104  68.959  1.00  0.00    -0.297 A  
HETATM   27  C   UNL     1     -10.046  18.475  68.688  1.00  0.00    -0.406 A  
ENDBRANCH  21  22
ENDBRANCH  10  21
ENDBRANCH   7  10
ENDBRANCH   6   7
ENDBRANCH   5   6
BRANCH   5  28
HETATM   28  S   UNL     1      -9.856   9.011  68.274  1.00  0.00    -0.172 S  
HETATM   29  O   UNL     1     -10.528   8.434  67.134  1.00  0.00    -0.294 OA 
HETATM   30  O   UNL     1      -8.410   9.130  68.301  1.00  0.00    -0.118 OA 
BRANCH  28  31
HETATM   31  C   UNL     1     -10.348   8.057  69.685  1.00  0.00    -0.220 A  
HETATM   32  N   UNL     1     -11.457   5.759  73.025  1.00  0.00    -0.499 NA 
HETATM   33  H2  UNL     1     -11.110   4.819  72.835  1.00  0.00     0.000 HD 
HETATM   34  H1  UNL     1     -11.158   6.028  73.962  1.00  0.00     0.000 HD 
HETATM   35  C   UNL     1     -11.177   6.947  69.519  1.00  0.00    -0.246 A  
HETATM   36  C   UNL     1     -11.564   6.201  70.641  1.00  0.00    -0.256 A  
HETATM   37  C   UNL     1      -9.858   8.384  70.957  1.00  0.00    -0.232 A  
HETATM   38  C   UNL     1     -10.247   7.627  72.066  1.00  0.00    -0.242 A  
HETATM   39  C   UNL     1     -11.153   6.571  71.927  1.00  0.00    -0.261 A  
ENDBRANCH  28  31
ENDBRANCH   5  28
ENDBRANCH   4   5
TORSDOF 11
ENDMDL
MODEL      246
REMARK 921   NORMALIZED FREE ENERGY PREDICTED BY IDOCK:   -4.75 KCAL/MOL
REMARK 922        TOTAL FREE ENERGY PREDICTED BY IDOCK:   -9.57 KCAL/MOL
REMARK 923 INTER-LIGAND FREE ENERGY PREDICTED BY IDOCK:   -9.10 KCAL/MOL
REMARK 924 INTRA-LIGAND FREE ENERGY PREDICTED BY IDOCK:   -0.47 KCAL/MOL
REMARK 927      BINDING AFFINITY PREDICTED BY RF-SCORE:    0.00 PKD
ROOT
HETATM    1  C   UNL     1     -12.131   9.461  71.618  1.00  0.00    -0.462 C  
HETATM    2  C   UNL     1     -11.468   8.147  71.205  1.00  0.00    -0.304 C  
HETATM    3  C   UNL     1     -12.528   7.031  71.292  1.00  0.00    -0.430 C  
HETATM    4  C   UNL     1     -10.877   8.178  69.781  1.00  0.00    -0.190 C  
ENDROOT
BRANCH   4   5
HETATM    5  N   UNL     1      -9.812   9.229  69.491  1.00  0.00    -0.174 N  
BRANCH   5   6
HETATM    6  C   UNL     1     -10.373  10.669  69.588  1.00  0.00    -0.145 C  
BRANCH   6   7
HETATM    7  C   UNL     1     -11.045  11.251  68.295  1.00  0.00    -0.240 C  
HETATM    8  H   UNL     1     -12.870  11.449  67.626  1.00  0.00     0.000 HD 
HETATM    9  O   UNL     1     -12.464  11.097  68.409  1.00  0.00    -0.390 OA 
BRANCH   7  10
HETATM   10  C   UNL     1     -10.637  12.741  67.995  1.00  0.00    -0.226 C  
BRANCH  10  11
HETATM   11  N   UNL     1     -10.665  13.603  69.194  1.00  0.00    -0.416 N  
HETATM   12  O   UNL     1     -11.992  15.212  68.242  1.00  0.00    -0.298 OA 
HETATM   13  H   UNL     1     -10.168  13.310  70.035  1.00  0.00     0.000 HD 
HETATM   14  C   UNL     1     -11.351  14.793  69.194  1.00  0.00    -0.282 C  
BRANCH  14  15
HETATM   15  O   UNL     1     -11.206  15.459  70.375  1.00  0.00    -0.272 OA 
BRANCH  15  16
HETATM   16  C   UNL     1     -11.993  14.914  71.451  1.00  0.00    -0.345 C  
HETATM   17  C   UNL     1     -11.880  15.743  72.714  1.00  0.00    -0.584 C  
HETATM   18  O   UNL     1     -14.162  15.228  72.431  1.00  0.00    -0.523 OA 
HETATM   19  C   UNL     1     -13.163  15.405  73.440  1.00  0.00    -0.446 C  
HETATM   20  C   UNL     1     -13.497  14.950  71.187  1.00  0.00    -0.411 C  
ENDBRANCH  15  16
ENDBRANCH  14  15
ENDBRANCH  10  11
BRANCH  10  21
HETATM   21  C   UNL     1      -9.350  12.954  67.153  1.00  0.00    -0.229 C  
BRANCH  21  22
HETATM   22  C   UNL     1      -8.671  14.308  67.106  1.00  0.00    -0.243 A  
HETATM   23  C   UNL     1      -6.729  15.696  67.582  1.00  0.00    -0.204 A  
HETATM   24  C   UNL     1      -7.453  14.515  67.769  1.00  0.00    -0.182 A  
HETATM   25  C   UNL     1      -7.216  16.696  66.742  1.00  0.00    -0.272 A  
HETATM   26  C   UNL     1      -9.157  15.332  66.275  1.00  0.00    -0.337 A  
HETATM   27  C   UNL     1      -8.435  16.517  66.096  1.00  0.00    -0.320 A  
ENDBRANCH  21  22
ENDBRANCH  10  21
ENDBRANCH   7  10
ENDBRANCH   6   7
ENDBRANCH   5   6
BRANCH   5  28
HETATM   28  S   UNL     1      -8.432   9.021  70.564  1.00  0.00    -0.219 S  
HETATM   29  O   UNL     1      -7.298   9.734  70.025  1.00  0.00    -0.106 OA 
HETATM   30  O   UNL     1      -8.925   9.312  71.898  1.00  0.00    -0.279 OA 
BRANCH  28  31
HETATM   31  C   UNL     1      -8.022   7.299  70.502  1.00  0.00    -0.104 A  
HETATM   32  N   UNL     1      -7.110   3.198  70.330  1.00  0.00    -0.034 NA 
HETATM   33  H2  UNL     1      -7.983   2.717  70.546  1.00  0.00     0.000 HD 
HETATM   34  H1  UNL     1      -6.719   2.790  69.482  1.00  0.00     0.000 HD 
HETATM   35  C   UNL     1      -8.204   6.499  71.631  1.00  0.00    -0.112 A  
HETATM   36  C   UNL     1      -7.872   5.138  71.574  1.00  0.00    -0.111 A  
HETATM   37  C   UNL     1      -7.570   6.729  69.304  1.00  0.00    -0.096 A  
HETATM   38  C   UNL     1      -7.250   5.368  69.259  1.00  0.00    -0.065 A  
HETATM   39  C   UNL     1      -7.336   4.577  70.409  1.00  0.00    -0.049 A  
ENDBRANCH  28  31
ENDBRANCH   5  28
ENDBRANCH   4   5
TORSDOF 11
ENDMDL
MODEL      247
REMARK 921   NORMALIZED FREE ENERGY PREDICTED BY IDOCK:   -4.74 KCAL/MOL
REMARK 922        TOTAL FREE ENERGY PREDICTED BY IDOCK:   -9.57 KCAL/MOL
REMARK 923 INTER-LIGAND FREE ENERGY PREDICTED BY IDOCK:   -8.93 KCAL/MOL
REMARK 924 INTRA-LIGAND FREE ENERGY PREDICTED BY IDOCK:   -0.64 KCAL/MOL
REMARK 927      BINDING AFFINITY PREDICTED BY RF-SCORE:    0.00 PKD
ROOT
HETATM    1  C   UNL     1      -9.460  14.782  65.969  1.00  0.00    -0.299 C  
HETATM    2  C   UNL     1      -8.766  15.206  67.264  1.00  0.00    -0.221 C  
HETATM    3  C   UNL     1      -9.078  16.696  67.506  1.00  0.00    -0.204 C  
HETATM    4  C   UNL     1      -9.207  14.387  68.494  1.00  0.00    -0.198 C  
ENDROOT
BRANCH   4   5
HETATM    5  N   UNL     1      -8.991  12.879  68.442  1.00  0.00    -0.165 N  
BRANCH   5   6
HETATM    6  C   UNL     1      -9.884  12.199  67.376  1.00  0.00    -0.189 C  
BRANCH   6   7
HETATM    7  C   UNL     1     -11.435  12.320  67.576  1.00  0.00    -0.347 C  
HETATM    8  H   UNL     1     -13.019  12.088  66.456  1.00  0.00     0.000 HD 
HETATM    9  O   UNL     1     -12.080  12.014  66.335  1.00  0.00    -0.610 OA 
BRANCH   7  10
HETATM   10  C   UNL     1     -11.984  11.438  68.758  1.00  0.00    -0.287 C  
BRANCH  10  11
HETATM   11  N   UNL     1     -11.643  10.008  68.622  1.00  0.00    -0.506 N  
HETATM   12  O   UNL     1     -10.038  10.037  70.259  1.00  0.00    -0.260 OA 
HETATM   13  H   UNL     1     -12.140   9.436  67.939  1.00  0.00     0.000 HD 
HETATM   14  C   UNL     1     -10.668   9.436  69.401  1.00  0.00    -0.217 C  
BRANCH  14  15
HETATM   15  O   UNL     1     -10.470   8.125  69.081  1.00  0.00    -0.220 OA 
BRANCH  15  16
HETATM   16  C   UNL     1     -10.226   7.279  70.221  1.00  0.00    -0.199 C  
HETATM   17  C   UNL     1     -11.455   7.139  71.097  1.00  0.00    -0.322 C  
HETATM   18  O   UNL     1     -10.533   4.984  70.857  1.00  0.00    -0.216 OA 
HETATM   19  C   UNL     1     -11.204   5.824  71.801  1.00  0.00    -0.211 C  
HETATM   20  C   UNL     1      -9.938   5.825  69.854  1.00  0.00    -0.194 C  
ENDBRANCH  15  16
ENDBRANCH  14  15
ENDBRANCH  10  11
BRANCH  10  21
HETATM   21  C   UNL     1     -11.729  11.966  70.196  1.00  0.00    -0.337 C  
BRANCH  21  22
HETATM   22  C   UNL     1     -12.577  13.083  70.771  1.00  0.00    -0.321 A  
HETATM   23  C   UNL     1     -14.024  13.915  72.544  1.00  0.00    -0.565 A  
HETATM   24  C   UNL     1     -13.383  12.854  71.895  1.00  0.00    -0.530 A  
HETATM   25  C   UNL     1     -13.881  15.218  72.072  1.00  0.00    -0.626 A  
HETATM   26  C   UNL     1     -12.456  14.400  70.298  1.00  0.00    -0.413 A  
HETATM   27  C   UNL     1     -13.104  15.459  70.943  1.00  0.00    -0.528 A  
ENDBRANCH  21  22
ENDBRANCH  10  21
ENDBRANCH   7  10
ENDBRANCH   6   7
ENDBRANCH   5   6
BRANCH   5  28
HETATM   28  S   UNL     1      -7.291  12.510  68.164  1.00  0.00    -0.122 S  
HETATM   29  O   UNL     1      -7.054  12.404  66.744  1.00  0.00     0.026 OA 
HETATM   30  O   UNL     1      -6.547  13.459  68.972  1.00  0.00    -0.098 OA 
BRANCH  28  31
HETATM   31  C   UNL     1      -7.026  10.895  68.842  1.00  0.00    -0.084 A  
HETATM   32  N   UNL     1      -6.330   7.069  70.440  1.00  0.00    -0.041 NA 
HETATM   33  H2  UNL     1      -5.554   6.687  69.900  1.00  0.00     0.000 HD 
HETATM   34  H1  UNL     1      -6.122   6.952  71.431  1.00  0.00     0.000 HD 
HETATM   35  C   UNL     1      -7.135   9.770  68.023  1.00  0.00    -0.079 A  
HETATM   36  C   UNL     1      -6.928   8.497  68.570  1.00  0.00    -0.065 A  
HETATM   37  C   UNL     1      -6.651  10.752  70.185  1.00  0.00    -0.144 A  
HETATM   38  C   UNL     1      -6.441   9.475  70.715  1.00  0.00    -0.097 A  
HETATM   39  C   UNL     1      -6.641   8.335  69.930  1.00  0.00    -0.039 A  
ENDBRANCH  28  31
ENDBRANCH   5  28
ENDBRANCH   4   5
TORSDOF 11
ENDMDL
MODEL      248
REMARK 921   NORMALIZED FREE ENERGY PREDICTED BY IDOCK:   -4.74 KCAL/MOL
REMARK 922        TOTAL FREE ENERGY PREDICTED BY IDOCK:   -9.56 KCAL/MOL
REMARK 923 INTER-LIGAND FREE ENERGY PREDICTED BY IDOCK:   -7.89 KCAL/MOL
REMARK 924 INTRA-LIGAND FREE ENERGY PREDICTED BY IDOCK:   -1.68 KCAL/MOL
REMARK 927      BINDING AFFINITY PREDICTED BY RF-SCORE:    0.00 PKD
ROOT
HETATM    1  C   UNL     1      -8.062   7.111  68.197  1.00  0.00    -0.124 C  
HETATM    2  C   UNL     1      -8.734   6.994  69.566  1.00  0.00    -0.134 C  
HETATM    3  C   UNL     1      -8.114   5.788  70.300  1.00  0.00    -0.105 C  
HETATM    4  C   UNL     1      -8.577   8.256  70.437  1.00  0.00    -0.134 C  
ENDROOT
BRANCH   4   5
HETATM    5  N   UNL     1      -9.122   9.564  69.875  1.00  0.00    -0.200 N  
BRANCH   5   6
HETATM    6  C   UNL     1      -8.270  10.090  68.694  1.00  0.00    -0.111 C  
BRANCH   6   7
HETATM    7  C   UNL     1      -7.761  11.571  68.800  1.00  0.00    -0.124 C  
HETATM    8  H   UNL     1      -6.343  12.503  69.768  1.00  0.00     0.000 HD 
HETATM    9  O   UNL     1      -6.651  11.607  69.704  1.00  0.00    -0.121 OA 
BRANCH   7  10
HETATM   10  C   UNL     1      -7.409  12.212  67.407  1.00  0.00    -0.151 C  
BRANCH  10  11
HETATM   11  N   UNL     1      -7.375  11.228  66.307  1.00  0.00    -0.331 N  
HETATM   12  O   UNL     1      -5.133  11.473  65.898  1.00  0.00    -0.318 OA 
HETATM   13  H   UNL     1      -8.232  10.741  66.043  1.00  0.00     0.000 HD 
HETATM   14  C   UNL     1      -6.209  10.957  65.635  1.00  0.00    -0.019 C  
BRANCH  14  15
HETATM   15  O   UNL     1      -6.405  10.063  64.623  1.00  0.00    -0.111 OA 
BRANCH  15  16
HETATM   16  C   UNL     1      -6.879   8.778  65.067  1.00  0.00    -0.072 C  
HETATM   17  C   UNL     1      -7.873   8.174  64.096  1.00  0.00    -0.142 C  
HETATM   18  O   UNL     1      -6.382   6.457  64.712  1.00  0.00    -0.032 OA 
HETATM   19  C   UNL     1      -7.756   6.694  64.390  1.00  0.00    -0.113 C  
HETATM   20  C   UNL     1      -5.792   7.706  65.110  1.00  0.00    -0.038 C  
ENDBRANCH  15  16
ENDBRANCH  14  15
ENDBRANCH  10  11
BRANCH  10  21
HETATM   21  C   UNL     1      -8.186  13.498  67.018  1.00  0.00    -0.050 C  
BRANCH  21  22
HETATM   22  C   UNL     1      -9.693  13.473  66.860  1.00  0.00    -0.261 A  
HETATM   23  C   UNL     1     -11.836  14.619  67.011  1.00  0.00    -0.358 A  
HETATM   24  C   UNL     1     -10.473  14.546  67.315  1.00  0.00    -0.266 A  
HETATM   25  C   UNL     1     -12.446  13.615  66.262  1.00  0.00    -0.420 A  
HETATM   26  C   UNL     1     -10.326  12.460  66.119  1.00  0.00    -0.271 A  
HETATM   27  C   UNL     1     -11.692  12.531  65.823  1.00  0.00    -0.478 A  
ENDBRANCH  21  22
ENDBRANCH  10  21
ENDBRANCH   7  10
ENDBRANCH   6   7
ENDBRANCH   5   6
BRANCH   5  28
HETATM   28  S   UNL     1     -10.806   9.373  69.395  1.00  0.00    -0.145 S  
HETATM   29  O   UNL     1     -10.925   9.596  67.974  1.00  0.00    -0.227 OA 
HETATM   30  O   UNL     1     -11.244   8.123  69.989  1.00  0.00    -0.205 OA 
BRANCH  28  31
HETATM   31  C   UNL     1     -11.690  10.688  70.188  1.00  0.00    -0.332 A  
HETATM   32  N   UNL     1     -13.841  13.796  72.029  1.00  0.00    -0.467 NA 
HETATM   33  H2  UNL     1     -14.427  14.192  71.295  1.00  0.00     0.000 HD 
HETATM   34  H1  UNL     1     -14.427  13.610  72.843  1.00  0.00     0.000 HD 
HETATM   35  C   UNL     1     -11.561  11.996  69.718  1.00  0.00    -0.348 A  
HETATM   36  C   UNL     1     -12.260  13.030  70.354  1.00  0.00    -0.386 A  
HETATM   37  C   UNL     1     -12.563  10.407  71.248  1.00  0.00    -0.525 A  
HETATM   38  C   UNL     1     -13.260  11.448  71.870  1.00  0.00    -0.485 A  
HETATM   39  C   UNL     1     -13.065  12.774  71.471  1.00  0.00    -0.286 A  
ENDBRANCH  28  31
ENDBRANCH   5  28
ENDBRANCH   4   5
TORSDOF 11
ENDMDL
MODEL      249
REMARK 921   NORMALIZED FREE ENERGY PREDICTED BY IDOCK:   -4.74 KCAL/MOL
REMARK 922        TOTAL FREE ENERGY PREDICTED BY IDOCK:   -9.56 KCAL/MOL
REMARK 923 INTER-LIGAND FREE ENERGY PREDICTED BY IDOCK:   -8.66 KCAL/MOL
REMARK 924 INTRA-LIGAND FREE ENERGY PREDICTED BY IDOCK:   -0.90 KCAL/MOL
REMARK 927      BINDING AFFINITY PREDICTED BY RF-SCORE:    0.00 PKD
ROOT
HETATM    1  C   UNL     1     -10.222  12.733  64.066  1.00  0.00    -0.323 C  
HETATM    2  C   UNL     1     -10.203  11.224  64.313  1.00  0.00    -0.383 C  
HETATM    3  C   UNL     1      -9.899  10.526  62.972  1.00  0.00    -0.267 C  
HETATM    4  C   UNL     1      -9.162  10.787  65.362  1.00  0.00    -0.205 C  
ENDROOT
BRANCH   4   5
HETATM    5  N   UNL     1      -9.288  11.382  66.760  1.00  0.00    -0.177 N  
BRANCH   5   6
HETATM    6  C   UNL     1     -10.520  10.833  67.520  1.00  0.00    -0.220 C  
BRANCH   6   7
HETATM    7  C   UNL     1     -11.255  11.830  68.482  1.00  0.00    -0.252 C  
HETATM    8  H   UNL     1     -12.614  13.221  68.293  1.00  0.00     0.000 HD 
HETATM    9  O   UNL     1     -12.169  12.617  67.711  1.00  0.00    -0.338 OA 
BRANCH   7  10
HETATM   10  C   UNL     1     -11.966  11.121  69.694  1.00  0.00    -0.359 C  
BRANCH  10  11
HETATM   11  N   UNL     1     -11.015  10.553  70.672  1.00  0.00    -0.398 N  
HETATM   12  O   UNL     1     -11.287   8.388  69.969  1.00  0.00    -0.154 OA 
HETATM   13  H   UNL     1     -10.532  11.174  71.321  1.00  0.00     0.000 HD 
HETATM   14  C   UNL     1     -10.773   9.202  70.720  1.00  0.00    -0.263 C  
BRANCH  14  15
HETATM   15  O   UNL     1      -9.909   8.880  71.726  1.00  0.00    -0.298 OA 
BRANCH  15  16
HETATM   16  C   UNL     1     -10.473   7.998  72.716  1.00  0.00    -0.345 C  
HETATM   17  C   UNL     1     -11.082   6.760  72.091  1.00  0.00    -0.284 C  
HETATM   18  O   UNL     1      -9.834   6.046  73.957  1.00  0.00    -0.171 OA 
HETATM   19  C   UNL     1     -11.034   5.764  73.229  1.00  0.00    -0.253 C  
HETATM   20  C   UNL     1      -9.435   7.394  73.659  1.00  0.00    -0.272 C  
ENDBRANCH  15  16
ENDBRANCH  14  15
ENDBRANCH  10  11
BRANCH  10  21
HETATM   21  C   UNL     1     -13.114  11.905  70.383  1.00  0.00     0.467 C  
BRANCH  21  22
HETATM   22  C   UNL     1     -12.843  13.229  71.071  1.00  0.00    -0.311 A  
HETATM   23  C   UNL     1     -13.095  14.669  73.017  1.00  0.00    -0.616 A  
HETATM   24  C   UNL     1     -13.474  13.540  72.283  1.00  0.00    -0.669 A  
HETATM   25  C   UNL     1     -12.091  15.512  72.545  1.00  0.00    -0.536 A  
HETATM   26  C   UNL     1     -11.843  14.097  70.599  1.00  0.00    -0.333 A  
HETATM   27  C   UNL     1     -11.471  15.230  71.331  1.00  0.00    -0.444 A  
ENDBRANCH  21  22
ENDBRANCH  10  21
ENDBRANCH   7  10
ENDBRANCH   6   7
ENDBRANCH   5   6
BRANCH   5  28
HETATM   28  S   UNL     1      -7.811  11.109  67.680  1.00  0.00    -0.119 S  
HETATM   29  O   UNL     1      -8.109  10.271  68.819  1.00  0.00    -0.105 OA 
HETATM   30  O   UNL     1      -6.810  10.710  66.707  1.00  0.00    -0.094 OA 
BRANCH  28  31
HETATM   31  C   UNL     1      -7.340  12.689  68.326  1.00  0.00    -0.116 A  
HETATM   32  N   UNL     1      -6.252  16.426  69.918  1.00  0.00    -0.197 NA 
HETATM   33  H2  UNL     1      -7.021  16.693  70.532  1.00  0.00     0.000 HD 
HETATM   34  H1  UNL     1      -5.377  16.536  70.431  1.00  0.00     0.000 HD 
HETATM   35  C   UNL     1      -8.153  13.802  68.106  1.00  0.00    -0.155 A  
HETATM   36  C   UNL     1      -7.770  15.049  68.617  1.00  0.00    -0.128 A  
HETATM   37  C   UNL     1      -6.182  12.811  69.107  1.00  0.00    -0.098 A  
HETATM   38  C   UNL     1      -5.815  14.060  69.616  1.00  0.00    -0.109 A  
HETATM   39  C   UNL     1      -6.570  15.200  69.321  1.00  0.00    -0.139 A  
ENDBRANCH  28  31
ENDBRANCH   5  28
ENDBRANCH   4   5
TORSDOF 11
ENDMDL
MODEL      250
REMARK 921   NORMALIZED FREE ENERGY PREDICTED BY IDOCK:   -4.73 KCAL/MOL
REMARK 922        TOTAL FREE ENERGY PREDICTED BY IDOCK:   -9.54 KCAL/MOL
REMARK 923 INTER-LIGAND FREE ENERGY PREDICTED BY IDOCK:   -9.55 KCAL/MOL
REMARK 924 INTRA-LIGAND FREE ENERGY PREDICTED BY IDOCK:    0.01 KCAL/MOL
REMARK 927      BINDING AFFINITY PREDICTED BY RF-SCORE:    0.00 PKD
ROOT
HETATM    1  C   UNL     1     -11.890  11.347  69.970  1.00  0.00    -0.440 C  
HETATM    2  C   UNL     1     -10.772  10.648  69.195  1.00  0.00    -0.264 C  
HETATM    3  C   UNL     1     -10.888   9.132  69.455  1.00  0.00    -0.194 C  
HETATM    4  C   UNL     1     -10.822  10.909  67.677  1.00  0.00    -0.266 C  
ENDROOT
BRANCH   4   5
HETATM    5  N   UNL     1     -10.732  12.359  67.214  1.00  0.00    -0.226 N  
BRANCH   5   6
HETATM    6  C   UNL     1      -9.330  12.965  67.466  1.00  0.00    -0.190 C  
BRANCH   6   7
HETATM    7  C   UNL     1      -9.218  14.023  68.618  1.00  0.00    -0.119 C  
HETATM    8  H   UNL     1      -7.799  14.683  69.787  1.00  0.00     0.000 HD 
HETATM    9  O   UNL     1      -7.866  14.042  69.090  1.00  0.00    -0.037 OA 
BRANCH   7  10
HETATM   10  C   UNL     1      -9.717  15.457  68.202  1.00  0.00    -0.212 C  
BRANCH  10  11
HETATM   11  N   UNL     1     -10.574  16.092  69.224  1.00  0.00    -0.243 N  
HETATM   12  O   UNL     1     -12.258  14.546  69.051  1.00  0.00    -0.275 OA 
HETATM   13  H   UNL     1     -10.250  16.936  69.696  1.00  0.00     0.000 HD 
HETATM   14  C   UNL     1     -11.800  15.564  69.547  1.00  0.00    -0.372 C  
BRANCH  14  15
HETATM   15  O   UNL     1     -12.452  16.329  70.469  1.00  0.00    -0.069 OA 
BRANCH  15  16
HETATM   16  C   UNL     1     -12.984  15.576  71.576  1.00  0.00    -0.472 C  
HETATM   17  C   UNL     1     -14.200  14.766  71.178  1.00  0.00    -0.298 C  
HETATM   18  O   UNL     1     -12.832  13.359  72.482  1.00  0.00    -0.238 OA 
HETATM   19  C   UNL     1     -14.205  13.659  72.210  1.00  0.00    -0.426 C  
HETATM   20  C   UNL     1     -12.039  14.491  72.089  1.00  0.00    -0.165 C  
ENDBRANCH  15  16
ENDBRANCH  14  15
ENDBRANCH  10  11
BRANCH  10  21
HETATM   21  C   UNL     1      -8.645  16.433  67.650  1.00  0.00    -0.181 C  
BRANCH  21  22
HETATM   22  C   UNL     1      -8.995  17.876  67.346  1.00  0.00    -0.245 A  
HETATM   23  C   UNL     1     -10.414  19.492  66.204  1.00  0.00    -0.613 A  
HETATM   24  C   UNL     1      -9.949  18.183  66.364  1.00  0.00    -0.376 A  
HETATM   25  C   UNL     1      -9.923  20.518  67.009  1.00  0.00    -0.489 A  
HETATM   26  C   UNL     1      -8.499  18.924  68.140  1.00  0.00    -0.342 A  
HETATM   27  C   UNL     1      -8.959  20.234  67.972  1.00  0.00    -0.202 A  
ENDBRANCH  21  22
ENDBRANCH  10  21
ENDBRANCH   7  10
ENDBRANCH   6   7
ENDBRANCH   5   6
BRANCH   5  28
HETATM   28  S   UNL     1     -11.177  12.491  65.515  1.00  0.00    -0.327 S  
HETATM   29  O   UNL     1     -12.523  12.000  65.336  1.00  0.00    -0.421 OA 
HETATM   30  O   UNL     1     -10.821  13.842  65.121  1.00  0.00    -0.320 OA 
BRANCH  28  31
HETATM   31  C   UNL     1     -10.112  11.374  64.645  1.00  0.00    -0.280 A  
HETATM   32  N   UNL     1      -7.629   8.673  62.593  1.00  0.00    -0.110 NA 
HETATM   33  H2  UNL     1      -7.723   7.787  63.088  1.00  0.00     0.000 HD 
HETATM   34  H1  UNL     1      -7.763   8.500  61.597  1.00  0.00     0.000 HD 
HETATM   35  C   UNL     1      -9.060  10.749  65.317  1.00  0.00    -0.217 A  
HETATM   36  C   UNL     1      -8.221   9.871  64.619  1.00  0.00    -0.153 A  
HETATM   37  C   UNL     1     -10.361  11.074  63.298  1.00  0.00    -0.317 A  
HETATM   38  C   UNL     1      -9.519  10.191  62.616  1.00  0.00    -0.277 A  
HETATM   39  C   UNL     1      -8.405   9.633  63.252  1.00  0.00    -0.173 A  
ENDBRANCH  28  31
ENDBRANCH   5  28
ENDBRANCH   4   5
TORSDOF 11
ENDMDL
MODEL      251
REMARK 921   NORMALIZED FREE ENERGY PREDICTED BY IDOCK:   -4.73 KCAL/MOL
REMARK 922        TOTAL FREE ENERGY PREDICTED BY IDOCK:   -9.54 KCAL/MOL
REMARK 923 INTER-LIGAND FREE ENERGY PREDICTED BY IDOCK:   -8.73 KCAL/MOL
REMARK 924 INTRA-LIGAND FREE ENERGY PREDICTED BY IDOCK:   -0.81 KCAL/MOL
REMARK 927      BINDING AFFINITY PREDICTED BY RF-SCORE:    0.00 PKD
ROOT
HETATM    1  C   UNL     1      -6.704  11.259  69.747  1.00  0.00    -0.099 C  
HETATM    2  C   UNL     1      -6.643   9.758  69.462  1.00  0.00    -0.051 C  
HETATM    3  C   UNL     1      -5.160   9.358  69.327  1.00  0.00    -0.036 C  
HETATM    4  C   UNL     1      -7.304   8.897  70.556  1.00  0.00    -0.078 C  
ENDROOT
BRANCH   4   5
HETATM    5  N   UNL     1      -8.778   9.152  70.849  1.00  0.00    -0.223 N  
BRANCH   5   6
HETATM    6  C   UNL     1      -9.691   8.688  69.688  1.00  0.00    -0.179 C  
BRANCH   6   7
HETATM    7  C   UNL     1      -9.387   9.290  68.271  1.00  0.00    -0.134 C  
HETATM    8  H   UNL     1      -9.425   8.637  66.429  1.00  0.00     0.000 HD 
HETATM    9  O   UNL     1      -9.609   8.273  67.287  1.00  0.00    -0.149 OA 
BRANCH   7  10
HETATM   10  C   UNL     1     -10.202  10.599  67.959  1.00  0.00    -0.175 C  
BRANCH  10  11
HETATM   11  N   UNL     1     -10.523  11.385  69.168  1.00  0.00    -0.368 N  
HETATM   12  O   UNL     1     -12.775  10.964  69.078  1.00  0.00    -0.239 OA 
HETATM   13  H   UNL     1      -9.771  11.847  69.679  1.00  0.00     0.000 HD 
HETATM   14  C   UNL     1     -11.816  11.502  69.613  1.00  0.00    -0.354 C  
BRANCH  14  15
HETATM   15  O   UNL     1     -11.903  12.311  70.708  1.00  0.00    -0.150 OA 
BRANCH  15  16
HETATM   16  C   UNL     1     -12.284  13.666  70.400  1.00  0.00    -0.363 C  
HETATM   17  C   UNL     1     -12.213  14.565  71.618  1.00  0.00    -0.403 C  
HETATM   18  O   UNL     1     -11.229  15.746  69.832  1.00  0.00    -0.277 OA 
HETATM   19  C   UNL     1     -12.034  15.934  71.000  1.00  0.00    -0.412 C  
HETATM   20  C   UNL     1     -11.328  14.367  69.438  1.00  0.00    -0.281 C  
ENDBRANCH  15  16
ENDBRANCH  14  15
ENDBRANCH  10  11
BRANCH  10  21
HETATM   21  C   UNL     1      -9.669  11.492  66.806  1.00  0.00    -0.220 C  
BRANCH  21  22
HETATM   22  C   UNL     1     -10.543  11.816  65.611  1.00  0.00    -0.314 A  
HETATM   23  C   UNL     1     -11.135  11.431  63.281  1.00  0.00    -0.204 A  
HETATM   24  C   UNL     1     -10.240  11.292  64.347  1.00  0.00    -0.377 A  
HETATM   25  C   UNL     1     -12.340  12.108  63.457  1.00  0.00    -0.682 A  
HETATM   26  C   UNL     1     -11.754  12.511  65.769  1.00  0.00    -0.478 A  
HETATM   27  C   UNL     1     -12.645  12.656  64.699  1.00  0.00    -0.517 A  
ENDBRANCH  21  22
ENDBRANCH  10  21
ENDBRANCH   7  10
ENDBRANCH   6   7
ENDBRANCH   5   6
BRANCH   5  28
HETATM   28  S   UNL     1      -9.248   8.382  72.361  1.00  0.00    -0.267 S  
HETATM   29  O   UNL     1      -8.286   8.716  73.384  1.00  0.00    -0.408 OA 
HETATM   30  O   UNL     1     -10.656   8.689  72.537  1.00  0.00    -0.300 OA 
BRANCH  28  31
HETATM   31  C   UNL     1      -9.105   6.638  72.084  1.00  0.00    -0.138 A  
HETATM   32  N   UNL     1      -8.753   2.511  71.361  1.00  0.00    -0.063 NA 
HETATM   33  H2  UNL     1      -9.099   2.371  70.412  1.00  0.00     0.000 HD 
HETATM   34  H1  UNL     1      -7.849   2.046  71.445  1.00  0.00     0.000 HD 
HETATM   35  C   UNL     1     -10.241   5.886  71.779  1.00  0.00    -0.248 A  
HETATM   36  C   UNL     1     -10.119   4.507  71.566  1.00  0.00    -0.239 A  
HETATM   37  C   UNL     1      -7.846   6.024  72.113  1.00  0.00    -0.102 A  
HETATM   38  C   UNL     1      -7.738   4.648  71.892  1.00  0.00    -0.097 A  
HETATM   39  C   UNL     1      -8.879   3.867  71.681  1.00  0.00    -0.104 A  
ENDBRANCH  28  31
ENDBRANCH   5  28
ENDBRANCH   4   5
TORSDOF 11
ENDMDL
MODEL      252
REMARK 921   NORMALIZED FREE ENERGY PREDICTED BY IDOCK:   -4.72 KCAL/MOL
REMARK 922        TOTAL FREE ENERGY PREDICTED BY IDOCK:   -9.52 KCAL/MOL
REMARK 923 INTER-LIGAND FREE ENERGY PREDICTED BY IDOCK:   -7.69 KCAL/MOL
REMARK 924 INTRA-LIGAND FREE ENERGY PREDICTED BY IDOCK:   -1.83 KCAL/MOL
REMARK 927      BINDING AFFINITY PREDICTED BY RF-SCORE:    0.00 PKD
ROOT
HETATM    1  C   UNL     1     -10.413   8.069  66.737  1.00  0.00    -0.319 C  
HETATM    2  C   UNL     1      -9.010   7.726  67.241  1.00  0.00    -0.136 C  
HETATM    3  C   UNL     1      -8.389   6.708  66.263  1.00  0.00    -0.125 C  
HETATM    4  C   UNL     1      -8.082   8.951  67.356  1.00  0.00    -0.108 C  
ENDROOT
BRANCH   4   5
HETATM    5  N   UNL     1      -8.531  10.083  68.274  1.00  0.00    -0.110 N  
BRANCH   5   6
HETATM    6  C   UNL     1      -7.981   9.920  69.712  1.00  0.00    -0.174 C  
BRANCH   6   7
HETATM    7  C   UNL     1      -7.569   8.470  70.147  1.00  0.00    -0.068 C  
HETATM    8  H   UNL     1      -5.977   7.630  70.907  1.00  0.00     0.000 HD 
HETATM    9  O   UNL     1      -6.226   8.508  70.644  1.00  0.00    -0.034 OA 
BRANCH   7  10
HETATM   10  C   UNL     1      -8.562   7.821  71.181  1.00  0.00    -0.131 C  
BRANCH  10  11
HETATM   11  N   UNL     1      -9.973   7.883  70.748  1.00  0.00    -0.184 N  
HETATM   12  O   UNL     1     -10.797   8.323  72.841  1.00  0.00    -0.320 OA 
HETATM   13  H   UNL     1     -10.202   7.746  69.763  1.00  0.00     0.000 HD 
HETATM   14  C   UNL     1     -10.980   8.124  71.650  1.00  0.00    -0.250 C  
BRANCH  14  15
HETATM   15  O   UNL     1     -12.208   8.087  71.057  1.00  0.00    -0.280 OA 
BRANCH  15  16
HETATM   16  C   UNL     1     -12.789   9.387  70.844  1.00  0.00    -0.087 C  
HETATM   17  C   UNL     1     -13.210  10.040  72.144  1.00  0.00    -0.489 C  
HETATM   18  O   UNL     1     -12.108  11.688  70.872  1.00  0.00    -0.341 OA 
HETATM   19  C   UNL     1     -13.191  11.511  71.790  1.00  0.00    -0.351 C  
HETATM   20  C   UNL     1     -11.806  10.412  70.283  1.00  0.00    -0.312 C  
ENDBRANCH  15  16
ENDBRANCH  14  15
ENDBRANCH  10  11
BRANCH  10  21
HETATM   21  C   UNL     1      -8.179   6.419  71.726  1.00  0.00    -0.113 C  
BRANCH  21  22
HETATM   22  C   UNL     1      -8.706   5.161  71.063  1.00  0.00    -0.139 A  
HETATM   23  C   UNL     1      -8.679   3.615  69.183  1.00  0.00    -0.137 A  
HETATM   24  C   UNL     1      -8.354   4.855  69.741  1.00  0.00    -0.077 A  
HETATM   25  C   UNL     1      -9.374   2.667  69.931  1.00  0.00    -0.191 A  
HETATM   26  C   UNL     1      -9.421   4.201  71.799  1.00  0.00    -0.210 A  
HETATM   27  C   UNL     1      -9.752   2.963  71.236  1.00  0.00    -0.205 A  
ENDBRANCH  21  22
ENDBRANCH  10  21
ENDBRANCH   7  10
ENDBRANCH   6   7
ENDBRANCH   5   6
BRANCH   5  28
HETATM   28  S   UNL     1      -8.069  11.643  67.600  1.00  0.00    -0.149 S  
HETATM   29  O   UNL     1      -7.550  12.482  68.654  1.00  0.00    -0.119 OA 
HETATM   30  O   UNL     1      -7.265  11.341  66.429  1.00  0.00    -0.126 OA 
BRANCH  28  31
HETATM   31  C   UNL     1      -9.572  12.399  67.046  1.00  0.00    -0.211 A  
HETATM   32  N   UNL     1     -13.126  14.173  65.668  1.00  0.00    -0.621 NA 
HETATM   33  H2  UNL     1     -12.918  14.500  64.725  1.00  0.00     0.000 HD 
HETATM   34  H1  UNL     1     -13.994  13.639  65.639  1.00  0.00     0.000 HD 
HETATM   35  C   UNL     1      -9.578  13.745  66.675  1.00  0.00    -0.295 A  
HETATM   36  C   UNL     1     -10.773  14.336  66.243  1.00  0.00    -0.297 A  
HETATM   37  C   UNL     1     -10.739  11.632  66.924  1.00  0.00    -0.295 A  
HETATM   38  C   UNL     1     -11.923  12.233  66.484  1.00  0.00    -0.274 A  
HETATM   39  C   UNL     1     -11.965  13.602  66.203  1.00  0.00    -0.416 A  
ENDBRANCH  28  31
ENDBRANCH   5  28
ENDBRANCH   4   5
TORSDOF 11
ENDMDL
MODEL      253
REMARK 921   NORMALIZED FREE ENERGY PREDICTED BY IDOCK:   -4.71 KCAL/MOL
REMARK 922        TOTAL FREE ENERGY PREDICTED BY IDOCK:   -9.51 KCAL/MOL
REMARK 923 INTER-LIGAND FREE ENERGY PREDICTED BY IDOCK:   -8.48 KCAL/MOL
REMARK 924 INTRA-LIGAND FREE ENERGY PREDICTED BY IDOCK:   -1.02 KCAL/MOL
REMARK 927      BINDING AFFINITY PREDICTED BY RF-SCORE:    0.00 PKD
ROOT
HETATM    1  C   UNL     1     -10.027   5.020  69.702  1.00  0.00    -0.311 C  
HETATM    2  C   UNL     1      -9.368   4.892  71.076  1.00  0.00    -0.209 C  
HETATM    3  C   UNL     1      -9.343   3.397  71.454  1.00  0.00    -0.207 C  
HETATM    4  C   UNL     1      -7.934   5.454  71.125  1.00  0.00    -0.109 C  
ENDROOT
BRANCH   4   5
HETATM    5  N   UNL     1      -7.749   6.925  70.769  1.00  0.00    -0.091 N  
BRANCH   5   6
HETATM    6  C   UNL     1      -8.533   7.319  69.494  1.00  0.00    -0.133 C  
BRANCH   6   7
HETATM    7  C   UNL     1      -7.775   8.211  68.449  1.00  0.00    -0.113 C  
HETATM    8  H   UNL     1      -5.984   8.247  67.669  1.00  0.00     0.000 HD 
HETATM    9  O   UNL     1      -6.443   7.707  68.301  1.00  0.00    -0.046 OA 
BRANCH   7  10
HETATM   10  C   UNL     1      -8.519   8.325  67.067  1.00  0.00    -0.122 C  
BRANCH  10  11
HETATM   11  N   UNL     1      -8.771   9.722  66.658  1.00  0.00    -0.130 N  
HETATM   12  O   UNL     1     -10.926   9.765  67.439  1.00  0.00    -0.259 OA 
HETATM   13  H   UNL     1      -8.029  10.253  66.203  1.00  0.00     0.000 HD 
HETATM   14  C   UNL     1      -9.989  10.316  66.881  1.00  0.00    -0.208 C  
BRANCH  14  15
HETATM   15  O   UNL     1     -10.032  11.584  66.381  1.00  0.00    -0.200 OA 
BRANCH  15  16
HETATM   16  C   UNL     1     -11.366  12.110  66.244  1.00  0.00    -0.357 C  
HETATM   17  C   UNL     1     -11.458  13.549  66.709  1.00  0.00    -0.374 C  
HETATM   18  O   UNL     1     -12.635  13.407  64.673  1.00  0.00    -0.587 OA 
HETATM   19  C   UNL     1     -12.661  14.060  65.947  1.00  0.00    -0.449 C  
HETATM   20  C   UNL     1     -11.835  12.219  64.795  1.00  0.00    -0.364 C  
ENDBRANCH  15  16
ENDBRANCH  14  15
ENDBRANCH  10  11
BRANCH  10  21
HETATM   21  C   UNL     1      -7.957   7.467  65.902  1.00  0.00    -0.117 C  
BRANCH  21  22
HETATM   22  C   UNL     1      -8.613   6.155  65.522  1.00  0.00    -0.133 A  
HETATM   23  C   UNL     1     -10.429   4.558  65.810  1.00  0.00    -0.268 A  
HETATM   24  C   UNL     1      -9.702   5.666  66.258  1.00  0.00    -0.162 A  
HETATM   25  C   UNL     1     -10.071   3.913  64.628  1.00  0.00    -0.219 A  
HETATM   26  C   UNL     1      -8.255   5.483  64.341  1.00  0.00    -0.127 A  
HETATM   27  C   UNL     1      -8.979   4.370  63.898  1.00  0.00    -0.143 A  
ENDBRANCH  21  22
ENDBRANCH  10  21
ENDBRANCH   7  10
ENDBRANCH   6   7
ENDBRANCH   5   6
BRANCH   5  28
HETATM   28  S   UNL     1      -8.205   7.949  72.127  1.00  0.00    -0.137 S  
HETATM   29  O   UNL     1      -8.184   7.167  73.341  1.00  0.00    -0.105 OA 
HETATM   30  O   UNL     1      -7.397   9.148  72.003  1.00  0.00    -0.335 OA 
BRANCH  28  31
HETATM   31  C   UNL     1      -9.895   8.403  71.848  1.00  0.00    -0.258 A  
HETATM   32  N   UNL     1     -13.901   9.523  71.239  1.00  0.00    -0.376 NA 
HETATM   33  H2  UNL     1     -14.272   9.720  72.168  1.00  0.00     0.000 HD 
HETATM   34  H1  UNL     1     -14.133  10.306  70.628  1.00  0.00     0.000 HD 
HETATM   35  C   UNL     1     -10.920   7.666  72.443  1.00  0.00    -0.353 A  
HETATM   36  C   UNL     1     -12.254   8.030  72.214  1.00  0.00    -0.366 A  
HETATM   37  C   UNL     1     -10.199   9.534  71.079  1.00  0.00    -0.332 A  
HETATM   38  C   UNL     1     -11.534   9.890  70.864  1.00  0.00    -0.456 A  
HETATM   39  C   UNL     1     -12.573   9.104  71.374  1.00  0.00    -0.323 A  
ENDBRANCH  28  31
ENDBRANCH   5  28
ENDBRANCH   4   5
TORSDOF 11
ENDMDL
MODEL      254
REMARK 921   NORMALIZED FREE ENERGY PREDICTED BY IDOCK:   -4.71 KCAL/MOL
REMARK 922        TOTAL FREE ENERGY PREDICTED BY IDOCK:   -9.51 KCAL/MOL
REMARK 923 INTER-LIGAND FREE ENERGY PREDICTED BY IDOCK:   -8.29 KCAL/MOL
REMARK 924 INTRA-LIGAND FREE ENERGY PREDICTED BY IDOCK:   -1.22 KCAL/MOL
REMARK 927      BINDING AFFINITY PREDICTED BY RF-SCORE:    0.00 PKD
ROOT
HETATM    1  C   UNL     1     -11.698  12.143  64.060  1.00  0.00    -0.515 C  
HETATM    2  C   UNL     1     -11.323  13.373  64.887  1.00  0.00    -0.345 C  
HETATM    3  C   UNL     1     -12.469  14.397  64.764  1.00  0.00    -0.371 C  
HETATM    4  C   UNL     1     -11.077  13.061  66.376  1.00  0.00    -0.287 C  
ENDROOT
BRANCH   4   5
HETATM    5  N   UNL     1      -9.981  12.054  66.706  1.00  0.00    -0.199 N  
BRANCH   5   6
HETATM    6  C   UNL     1      -8.710  12.738  67.265  1.00  0.00    -0.200 C  
BRANCH   6   7
HETATM    7  C   UNL     1      -8.832  14.259  67.630  1.00  0.00    -0.196 C  
HETATM    8  H   UNL     1      -9.326  15.289  69.215  1.00  0.00     0.000 HD 
HETATM    9  O   UNL     1      -9.252  14.368  68.994  1.00  0.00    -0.134 OA 
BRANCH   7  10
HETATM   10  C   UNL     1      -7.517  15.077  67.350  1.00  0.00    -0.205 C  
BRANCH  10  11
HETATM   11  N   UNL     1      -7.536  16.427  67.949  1.00  0.00    -0.137 N  
HETATM   12  O   UNL     1      -7.715  17.524  65.944  1.00  0.00    -0.506 OA 
HETATM   13  H   UNL     1      -7.482  16.527  68.963  1.00  0.00     0.000 HD 
HETATM   14  C   UNL     1      -7.624  17.548  67.162  1.00  0.00    -0.200 C  
BRANCH  14  15
HETATM   15  O   UNL     1      -7.570  18.691  67.905  1.00  0.00    -0.239 OA 
BRANCH  15  16
HETATM   16  C   UNL     1      -8.792  19.454  67.886  1.00  0.00    -0.316 C  
HETATM   17  C   UNL     1      -9.007  20.149  66.557  1.00  0.00    -0.392 C  
HETATM   18  O   UNL     1     -11.068  19.187  67.172  1.00  0.00    -0.396 OA 
HETATM   19  C   UNL     1     -10.508  20.335  66.527  1.00  0.00    -0.201 C  
HETATM   20  C   UNL     1     -10.051  18.596  67.997  1.00  0.00    -0.375 C  
ENDBRANCH  15  16
ENDBRANCH  14  15
ENDBRANCH  10  11
BRANCH  10  21
HETATM   21  C   UNL     1      -6.174  14.342  67.606  1.00  0.00    -0.098 C  
BRANCH  21  22
HETATM   22  C   UNL     1      -5.784  13.908  69.005  1.00  0.00    -0.081 A  
HETATM   23  C   UNL     1      -5.219  14.494  71.300  1.00  0.00    -0.146 A  
HETATM   24  C   UNL     1      -5.402  14.859  69.962  1.00  0.00    -0.101 A  
HETATM   25  C   UNL     1      -5.400  13.171  71.700  1.00  0.00    -0.110 A  
HETATM   26  C   UNL     1      -5.945  12.576  69.420  1.00  0.00    -0.101 A  
HETATM   27  C   UNL     1      -5.755  12.211  70.758  1.00  0.00    -0.081 A  
ENDBRANCH  21  22
ENDBRANCH  10  21
ENDBRANCH   7  10
ENDBRANCH   6   7
ENDBRANCH   5   6
BRANCH   5  28
HETATM   28  S   UNL     1     -10.583  10.837  67.828  1.00  0.00    -0.248 S  
HETATM   29  O   UNL     1      -9.943  11.015  69.111  1.00  0.00    -0.195 OA 
HETATM   30  O   UNL     1     -12.029  10.873  67.709  1.00  0.00    -0.553 OA 
BRANCH  28  31
HETATM   31  C   UNL     1     -10.026   9.277  67.199  1.00  0.00    -0.216 A  
HETATM   32  N   UNL     1      -8.760   5.573  65.666  1.00  0.00    -0.151 NA 
HETATM   33  H2  UNL     1      -9.616   5.054  65.468  1.00  0.00     0.000 HD 
HETATM   34  H1  UNL     1      -8.161   5.531  64.841  1.00  0.00     0.000 HD 
HETATM   35  C   UNL     1     -10.383   8.096  67.853  1.00  0.00    -0.280 A  
HETATM   36  C   UNL     1      -9.934   6.867  67.350  1.00  0.00    -0.212 A  
HETATM   37  C   UNL     1      -9.279   9.225  66.015  1.00  0.00    -0.262 A  
HETATM   38  C   UNL     1      -8.844   7.991  65.521  1.00  0.00    -0.102 A  
HETATM   39  C   UNL     1      -9.112   6.809  66.219  1.00  0.00    -0.139 A  
ENDBRANCH  28  31
ENDBRANCH   5  28
ENDBRANCH   4   5
TORSDOF 11
ENDMDL
MODEL      255
REMARK 921   NORMALIZED FREE ENERGY PREDICTED BY IDOCK:   -4.70 KCAL/MOL
REMARK 922        TOTAL FREE ENERGY PREDICTED BY IDOCK:   -9.49 KCAL/MOL
REMARK 923 INTER-LIGAND FREE ENERGY PREDICTED BY IDOCK:   -7.93 KCAL/MOL
REMARK 924 INTRA-LIGAND FREE ENERGY PREDICTED BY IDOCK:   -1.56 KCAL/MOL
REMARK 927      BINDING AFFINITY PREDICTED BY RF-SCORE:    0.00 PKD
ROOT
HETATM    1  C   UNL     1     -10.890   6.552  66.902  1.00  0.00    -0.427 C  
HETATM    2  C   UNL     1      -9.408   6.203  66.757  1.00  0.00    -0.152 C  
HETATM    3  C   UNL     1      -9.231   5.410  65.447  1.00  0.00    -0.054 C  
HETATM    4  C   UNL     1      -8.486   7.438  66.734  1.00  0.00    -0.124 C  
ENDROOT
BRANCH   4   5
HETATM    5  N   UNL     1      -8.526   8.362  67.946  1.00  0.00    -0.130 N  
BRANCH   5   6
HETATM    6  C   UNL     1      -7.660   7.829  69.113  1.00  0.00    -0.099 C  
BRANCH   6   7
HETATM    7  C   UNL     1      -8.082   6.450  69.730  1.00  0.00    -0.121 C  
HETATM    8  H   UNL     1      -7.397   4.621  69.684  1.00  0.00     0.000 HD 
HETATM    9  O   UNL     1      -7.141   5.456  69.310  1.00  0.00    -0.057 OA 
BRANCH   7  10
HETATM   10  C   UNL     1      -8.241   6.487  71.295  1.00  0.00    -0.121 C  
BRANCH  10  11
HETATM   11  N   UNL     1      -9.584   6.921  71.732  1.00  0.00    -0.160 N  
HETATM   12  O   UNL     1      -8.807   8.525  73.174  1.00  0.00    -0.320 OA 
HETATM   13  H   UNL     1     -10.410   6.474  71.335  1.00  0.00     0.000 HD 
HETATM   14  C   UNL     1      -9.737   7.918  72.663  1.00  0.00    -0.240 C  
BRANCH  14  15
HETATM   15  O   UNL     1     -11.050   8.129  72.967  1.00  0.00    -0.331 OA 
BRANCH  15  16
HETATM   16  C   UNL     1     -11.835   8.601  71.855  1.00  0.00    -0.351 C  
HETATM   17  C   UNL     1     -13.136   9.232  72.307  1.00  0.00    -0.517 C  
HETATM   18  O   UNL     1     -12.217  10.650  70.665  1.00  0.00    -0.302 OA 
HETATM   19  C   UNL     1     -13.467  10.154  71.154  1.00  0.00    -0.201 C  
HETATM   20  C   UNL     1     -11.181   9.748  71.088  1.00  0.00    -0.374 C  
ENDBRANCH  15  16
ENDBRANCH  14  15
ENDBRANCH  10  11
BRANCH  10  21
HETATM   21  C   UNL     1      -7.749   5.238  72.074  1.00  0.00    -0.100 C  
BRANCH  21  22
HETATM   22  C   UNL     1      -8.730   4.178  72.535  1.00  0.00    -0.112 A  
HETATM   23  C   UNL     1     -10.335   3.383  74.184  1.00  0.00    -0.241 A  
HETATM   24  C   UNL     1      -9.296   4.244  73.816  1.00  0.00    -0.109 A  
HETATM   25  C   UNL     1     -10.814   2.433  73.284  1.00  0.00    -0.282 A  
HETATM   26  C   UNL     1      -9.213   3.204  71.644  1.00  0.00    -0.186 A  
HETATM   27  C   UNL     1     -10.247   2.338  72.017  1.00  0.00    -0.155 A  
ENDBRANCH  21  22
ENDBRANCH  10  21
ENDBRANCH   7  10
ENDBRANCH   6   7
ENDBRANCH   5   6
BRANCH   5  28
HETATM   28  S   UNL     1      -8.034   9.991  67.494  1.00  0.00    -0.106 S  
HETATM   29  O   UNL     1      -7.752  10.752  68.689  1.00  0.00    -0.099 OA 
HETATM   30  O   UNL     1      -7.024   9.825  66.465  1.00  0.00    -0.083 OA 
BRANCH  28  31
HETATM   31  C   UNL     1      -9.455  10.738  66.743  1.00  0.00    -0.173 A  
HETATM   32  N   UNL     1     -12.790  12.567  64.953  1.00  0.00    -0.800 NA 
HETATM   33  H2  UNL     1     -12.729  13.552  65.209  1.00  0.00     0.000 HD 
HETATM   34  H1  UNL     1     -12.936  12.506  63.945  1.00  0.00     0.000 HD 
HETATM   35  C   UNL     1     -10.400  11.389  67.538  1.00  0.00    -0.224 A  
HETATM   36  C   UNL     1     -11.523  11.973  66.936  1.00  0.00    -0.402 A  
HETATM   37  C   UNL     1      -9.599  10.726  65.349  1.00  0.00    -0.272 A  
HETATM   38  C   UNL     1     -10.721  11.318  64.761  1.00  0.00    -0.352 A  
HETATM   39  C   UNL     1     -11.723  11.889  65.553  1.00  0.00    -0.157 A  
ENDBRANCH  28  31
ENDBRANCH   5  28
ENDBRANCH   4   5
TORSDOF 11
ENDMDL
MODEL      256
REMARK 921   NORMALIZED FREE ENERGY PREDICTED BY IDOCK:   -4.70 KCAL/MOL
REMARK 922        TOTAL FREE ENERGY PREDICTED BY IDOCK:   -9.49 KCAL/MOL
REMARK 923 INTER-LIGAND FREE ENERGY PREDICTED BY IDOCK:   -8.24 KCAL/MOL
REMARK 924 INTRA-LIGAND FREE ENERGY PREDICTED BY IDOCK:   -1.24 KCAL/MOL
REMARK 927      BINDING AFFINITY PREDICTED BY RF-SCORE:    0.00 PKD
ROOT
HETATM    1  C   UNL     1      -5.600   9.335  68.039  1.00  0.00    -0.038 C  
HETATM    2  C   UNL     1      -6.347  10.110  66.952  1.00  0.00    -0.069 C  
HETATM    3  C   UNL     1      -5.432  11.253  66.469  1.00  0.00    -0.135 C  
HETATM    4  C   UNL     1      -6.755   9.240  65.747  1.00  0.00    -0.076 C  
ENDROOT
BRANCH   4   5
HETATM    5  N   UNL     1      -7.657   8.042  66.024  1.00  0.00    -0.084 N  
BRANCH   5   6
HETATM    6  C   UNL     1      -9.130   8.320  65.637  1.00  0.00    -0.065 C  
BRANCH   6   7
HETATM    7  C   UNL     1     -10.181   8.287  66.801  1.00  0.00    -0.304 C  
HETATM    8  H   UNL     1     -10.149   7.886  68.713  1.00  0.00     0.000 HD 
HETATM    9  O   UNL     1      -9.512   7.906  68.008  1.00  0.00    -0.147 OA 
BRANCH   7  10
HETATM   10  C   UNL     1     -10.974   9.636  66.967  1.00  0.00     0.050 C  
BRANCH  10  11
HETATM   11  N   UNL     1     -11.420   9.879  68.353  1.00  0.00    -0.519 N  
HETATM   12  O   UNL     1      -9.548  11.059  68.953  1.00  0.00    -0.196 OA 
HETATM   13  H   UNL     1     -12.326   9.524  68.659  1.00  0.00     0.000 HD 
HETATM   14  C   UNL     1     -10.635  10.577  69.237  1.00  0.00    -0.236 C  
BRANCH  14  15
HETATM   15  O   UNL     1     -11.203  10.643  70.475  1.00  0.00    -0.300 OA 
BRANCH  15  16
HETATM   16  C   UNL     1     -12.313  11.558  70.557  1.00  0.00    -0.342 C  
HETATM   17  C   UNL     1     -12.942  11.564  71.935  1.00  0.00    -0.453 C  
HETATM   18  O   UNL     1     -12.737  13.813  71.262  1.00  0.00    -0.341 OA 
HETATM   19  C   UNL     1     -13.596  12.927  71.987  1.00  0.00    -0.408 C  
HETATM   20  C   UNL     1     -11.913  13.022  70.389  1.00  0.00    -0.258 C  
ENDBRANCH  15  16
ENDBRANCH  14  15
ENDBRANCH  10  11
BRANCH  10  21
HETATM   21  C   UNL     1     -10.339  10.899  66.327  1.00  0.00    -0.306 C  
BRANCH  21  22
HETATM   22  C   UNL     1     -11.196  11.905  65.585  1.00  0.00    -0.360 A  
HETATM   23  C   UNL     1     -12.441  13.997  65.579  1.00  0.00    -0.533 A  
HETATM   24  C   UNL     1     -11.804  12.964  66.273  1.00  0.00    -0.477 A  
HETATM   25  C   UNL     1     -12.494  13.981  64.186  1.00  0.00    -0.279 A  
HETATM   26  C   UNL     1     -11.273  11.894  64.182  1.00  0.00    -0.446 A  
HETATM   27  C   UNL     1     -11.917  12.924  63.488  1.00  0.00    -0.629 A  
ENDBRANCH  21  22
ENDBRANCH  10  21
ENDBRANCH   7  10
ENDBRANCH   6   7
ENDBRANCH   5   6
BRANCH   5  28
HETATM   28  S   UNL     1      -7.051   6.611  65.196  1.00  0.00    -0.066 S  
HETATM   29  O   UNL     1      -7.519   6.618  63.830  1.00  0.00    -0.075 OA 
HETATM   30  O   UNL     1      -5.631   6.557  65.494  1.00  0.00    -0.023 OA 
BRANCH  28  31
HETATM   31  C   UNL     1      -7.823   5.227  65.987  1.00  0.00    -0.103 A  
HETATM   32  N   UNL     1      -9.600   1.906  67.855  1.00  0.00    -0.393 NA 
HETATM   33  H2  UNL     1      -9.215   1.090  67.381  1.00  0.00     0.000 HD 
HETATM   34  H1  UNL     1      -9.508   1.767  68.861  1.00  0.00     0.000 HD 
HETATM   35  C   UNL     1      -8.592   4.336  65.236  1.00  0.00    -0.121 A  
HETATM   36  C   UNL     1      -9.203   3.246  65.871  1.00  0.00    -0.148 A  
HETATM   37  C   UNL     1      -7.616   4.994  67.353  1.00  0.00    -0.091 A  
HETATM   38  C   UNL     1      -8.226   3.899  67.973  1.00  0.00    -0.095 A  
HETATM   39  C   UNL     1      -9.076   3.055  67.252  1.00  0.00    -0.175 A  
ENDBRANCH  28  31
ENDBRANCH   5  28
ENDBRANCH   4   5
TORSDOF 11
ENDMDL
MODEL      257
REMARK 921   NORMALIZED FREE ENERGY PREDICTED BY IDOCK:   -4.69 KCAL/MOL
REMARK 922        TOTAL FREE ENERGY PREDICTED BY IDOCK:   -9.47 KCAL/MOL
REMARK 923 INTER-LIGAND FREE ENERGY PREDICTED BY IDOCK:   -7.49 KCAL/MOL
REMARK 924 INTRA-LIGAND FREE ENERGY PREDICTED BY IDOCK:   -1.98 KCAL/MOL
REMARK 927      BINDING AFFINITY PREDICTED BY RF-SCORE:    0.00 PKD
ROOT
HETATM    1  C   UNL     1      -7.747   3.457  65.520  1.00  0.00    -0.081 C  
HETATM    2  C   UNL     1      -8.681   4.482  64.875  1.00  0.00    -0.140 C  
HETATM    3  C   UNL     1      -9.384   3.802  63.683  1.00  0.00    -0.130 C  
HETATM    4  C   UNL     1      -9.743   5.039  65.843  1.00  0.00    -0.166 C  
ENDROOT
BRANCH   4   5
HETATM    5  N   UNL     1      -9.241   5.743  67.099  1.00  0.00    -0.114 N  
BRANCH   5   6
HETATM    6  C   UNL     1      -9.702   7.220  67.162  1.00  0.00    -0.168 C  
BRANCH   6   7
HETATM    7  C   UNL     1      -8.842   8.187  68.049  1.00  0.00    -0.131 C  
HETATM    8  H   UNL     1      -6.936   8.507  68.339  1.00  0.00     0.000 HD 
HETATM    9  O   UNL     1      -7.457   7.921  67.802  1.00  0.00    -0.093 OA 
BRANCH   7  10
HETATM   10  C   UNL     1      -9.196   9.707  67.842  1.00  0.00    -0.124 C  
BRANCH  10  11
HETATM   11  N   UNL     1     -10.067   9.945  66.673  1.00  0.00    -0.223 N  
HETATM   12  O   UNL     1      -8.376  10.712  65.328  1.00  0.00    -0.163 OA 
HETATM   13  H   UNL     1     -11.062   9.732  66.737  1.00  0.00     0.000 HD 
HETATM   14  C   UNL     1      -9.557  10.450  65.502  1.00  0.00    -0.234 C  
BRANCH  14  15
HETATM   15  O   UNL     1     -10.533  10.646  64.569  1.00  0.00    -0.345 OA 
BRANCH  15  16
HETATM   16  C   UNL     1     -11.334  11.820  64.805  1.00  0.00    -0.249 C  
HETATM   17  C   UNL     1     -10.552  13.097  64.573  1.00  0.00    -0.425 C  
HETATM   18  O   UNL     1     -12.653  13.380  63.545  1.00  0.00    -0.733 OA 
HETATM   19  C   UNL     1     -11.646  14.096  64.267  1.00  0.00    -0.309 C  
HETATM   20  C   UNL     1     -12.491  11.978  63.821  1.00  0.00    -0.485 C  
ENDBRANCH  15  16
ENDBRANCH  14  15
ENDBRANCH  10  11
BRANCH  10  21
HETATM   21  C   UNL     1      -9.675  10.486  69.096  1.00  0.00    -0.226 C  
BRANCH  21  22
HETATM   22  C   UNL     1     -10.211   9.749  70.307  1.00  0.00    -0.346 A  
HETATM   23  C   UNL     1     -12.077   8.691  71.459  1.00  0.00    -0.369 A  
HETATM   24  C   UNL     1     -11.588   9.525  70.448  1.00  0.00    -0.268 A  
HETATM   25  C   UNL     1     -11.200   8.081  72.354  1.00  0.00    -0.432 A  
HETATM   26  C   UNL     1      -9.341   9.140  71.226  1.00  0.00    -0.285 A  
HETATM   27  C   UNL     1      -9.832   8.312  72.242  1.00  0.00    -0.364 A  
ENDBRANCH  21  22
ENDBRANCH  10  21
ENDBRANCH   7  10
ENDBRANCH   6   7
ENDBRANCH   5   6
BRANCH   5  28
HETATM   28  S   UNL     1      -9.749   4.867  68.540  1.00  0.00    -0.144 S  
HETATM   29  O   UNL     1     -10.849   5.567  69.160  1.00  0.00    -0.251 OA 
HETATM   30  O   UNL     1      -9.889   3.482  68.128  1.00  0.00    -0.072 OA 
BRANCH  28  31
HETATM   31  C   UNL     1      -8.389   4.960  69.671  1.00  0.00    -0.083 A  
HETATM   32  N   UNL     1      -5.158   5.115  72.357  1.00  0.00    -0.008 NA 
HETATM   33  H2  UNL     1      -5.270   4.303  72.963  1.00  0.00     0.000 HD 
HETATM   34  H1  UNL     1      -4.198   5.130  72.013  1.00  0.00     0.000 HD 
HETATM   35  C   UNL     1      -8.630   5.047  71.043  1.00  0.00    -0.130 A  
HETATM   36  C   UNL     1      -7.548   5.126  71.930  1.00  0.00    -0.096 A  
HETATM   37  C   UNL     1      -7.073   4.889  69.193  1.00  0.00    -0.052 A  
HETATM   38  C   UNL     1      -6.003   4.961  70.090  1.00  0.00    -0.018 A  
HETATM   39  C   UNL     1      -6.230   5.145  71.458  1.00  0.00    -0.030 A  
ENDBRANCH  28  31
ENDBRANCH   5  28
ENDBRANCH   4   5
TORSDOF 11
ENDMDL
MODEL      258
REMARK 921   NORMALIZED FREE ENERGY PREDICTED BY IDOCK:   -4.66 KCAL/MOL
REMARK 922        TOTAL FREE ENERGY PREDICTED BY IDOCK:   -9.43 KCAL/MOL
REMARK 923 INTER-LIGAND FREE ENERGY PREDICTED BY IDOCK:   -8.57 KCAL/MOL
REMARK 924 INTRA-LIGAND FREE ENERGY PREDICTED BY IDOCK:   -0.86 KCAL/MOL
REMARK 927      BINDING AFFINITY PREDICTED BY RF-SCORE:    0.00 PKD
ROOT
HETATM    1  C   UNL     1      -8.702   4.836  68.425  1.00  0.00    -0.112 C  
HETATM    2  C   UNL     1      -8.143   5.562  69.649  1.00  0.00    -0.101 C  
HETATM    3  C   UNL     1      -6.669   5.144  69.819  1.00  0.00    -0.047 C  
HETATM    4  C   UNL     1      -8.227   7.098  69.543  1.00  0.00    -0.132 C  
ENDROOT
BRANCH   4   5
HETATM    5  N   UNL     1      -9.611   7.710  69.357  1.00  0.00    -0.159 N  
BRANCH   5   6
HETATM    6  C   UNL     1     -10.213   7.379  67.970  1.00  0.00    -0.191 C  
BRANCH   6   7
HETATM    7  C   UNL     1     -10.470   8.591  67.008  1.00  0.00    -0.292 C  
HETATM    8  H   UNL     1     -10.627  10.529  67.200  1.00  0.00     0.000 HD 
HETATM    9  O   UNL     1     -10.472   9.795  67.782  1.00  0.00    -0.213 OA 
BRANCH   7  10
HETATM   10  C   UNL     1      -9.454   8.664  65.808  1.00  0.00    -0.122 C  
BRANCH  10  11
HETATM   11  N   UNL     1      -9.761   9.747  64.852  1.00  0.00    -0.415 N  
HETATM   12  O   UNL     1      -8.274  11.235  65.764  1.00  0.00    -0.073 OA 
HETATM   13  H   UNL     1     -10.453   9.589  64.120  1.00  0.00     0.000 HD 
HETATM   14  C   UNL     1      -9.131  10.964  64.935  1.00  0.00    -0.182 C  
BRANCH  14  15
HETATM   15  O   UNL     1      -9.596  11.839  63.998  1.00  0.00    -0.191 OA 
BRANCH  15  16
HETATM   16  C   UNL     1     -10.827  12.488  64.370  1.00  0.00    -0.342 C  
HETATM   17  C   UNL     1     -10.626  13.962  64.657  1.00  0.00    -0.432 C  
HETATM   18  O   UNL     1     -12.565  13.777  63.331  1.00  0.00    -0.842 OA 
HETATM   19  C   UNL     1     -12.006  14.532  64.412  1.00  0.00    -0.449 C  
HETATM   20  C   UNL     1     -11.861  12.527  63.247  1.00  0.00    -0.413 C  
ENDBRANCH  15  16
ENDBRANCH  14  15
ENDBRANCH  10  11
BRANCH  10  21
HETATM   21  C   UNL     1      -7.945   8.615  66.170  1.00  0.00    -0.106 C  
BRANCH  21  22
HETATM   22  C   UNL     1      -7.121   7.375  65.883  1.00  0.00    -0.065 A  
HETATM   23  C   UNL     1      -5.324   5.861  66.518  1.00  0.00    -0.009 A  
HETATM   24  C   UNL     1      -5.983   7.087  66.650  1.00  0.00    -0.034 A  
HETATM   25  C   UNL     1      -5.782   4.909  65.609  1.00  0.00    -0.018 A  
HETATM   26  C   UNL     1      -7.561   6.413  64.959  1.00  0.00    -0.091 A  
HETATM   27  C   UNL     1      -6.895   5.189  64.823  1.00  0.00    -0.049 A  
ENDBRANCH  21  22
ENDBRANCH  10  21
ENDBRANCH   7  10
ENDBRANCH   6   7
ENDBRANCH   5   6
BRANCH   5  28
HETATM   28  S   UNL     1     -10.691   7.191  70.648  1.00  0.00    -0.241 S  
HETATM   29  O   UNL     1     -11.635   6.232  70.123  1.00  0.00    -0.413 OA 
HETATM   30  O   UNL     1      -9.831   6.849  71.766  1.00  0.00    -0.165 OA 
BRANCH  28  31
HETATM   31  C   UNL     1     -11.629   8.624  71.104  1.00  0.00    -0.281 A  
HETATM   32  N   UNL     1     -13.812  12.033  72.237  1.00  0.00    -0.296 NA 
HETATM   33  H2  UNL     1     -13.773  12.054  73.256  1.00  0.00     0.000 HD 
HETATM   34  H1  UNL     1     -13.552  12.955  71.887  1.00  0.00     0.000 HD 
HETATM   35  C   UNL     1     -12.751   8.489  71.922  1.00  0.00    -0.401 A  
HETATM   36  C   UNL     1     -13.489   9.628  72.274  1.00  0.00    -0.488 A  
HETATM   37  C   UNL     1     -11.210   9.896  70.690  1.00  0.00    -0.416 A  
HETATM   38  C   UNL     1     -11.952  11.024  71.054  1.00  0.00    -0.334 A  
HETATM   39  C   UNL     1     -13.133  10.893  71.793  1.00  0.00    -0.459 A  
ENDBRANCH  28  31
ENDBRANCH   5  28
ENDBRANCH   4   5
TORSDOF 11
ENDMDL
MODEL      259
REMARK 921   NORMALIZED FREE ENERGY PREDICTED BY IDOCK:   -4.66 KCAL/MOL
REMARK 922        TOTAL FREE ENERGY PREDICTED BY IDOCK:   -9.43 KCAL/MOL
REMARK 923 INTER-LIGAND FREE ENERGY PREDICTED BY IDOCK:   -8.32 KCAL/MOL
REMARK 924 INTRA-LIGAND FREE ENERGY PREDICTED BY IDOCK:   -1.10 KCAL/MOL
REMARK 927      BINDING AFFINITY PREDICTED BY RF-SCORE:    0.00 PKD
ROOT
HETATM    1  C   UNL     1      -6.673   7.289  70.102  1.00  0.00    -0.054 C  
HETATM    2  C   UNL     1      -7.781   6.941  71.097  1.00  0.00    -0.089 C  
HETATM    3  C   UNL     1      -7.218   5.906  72.093  1.00  0.00    -0.089 C  
HETATM    4  C   UNL     1      -8.312   8.160  71.876  1.00  0.00    -0.144 C  
ENDROOT
BRANCH   4   5
HETATM    5  N   UNL     1      -8.903   9.305  71.062  1.00  0.00    -0.197 N  
BRANCH   5   6
HETATM    6  C   UNL     1      -8.103   9.569  69.763  1.00  0.00    -0.140 C  
BRANCH   6   7
HETATM    7  C   UNL     1      -7.820  11.070  69.404  1.00  0.00     0.010 C  
HETATM    8  H   UNL     1      -6.266  12.253  69.431  1.00  0.00     0.000 HD 
HETATM    9  O   UNL     1      -6.436  11.345  69.649  1.00  0.00    -0.109 OA 
BRANCH   7  10
HETATM   10  C   UNL     1      -8.247  11.454  67.939  1.00  0.00    -0.132 C  
BRANCH  10  11
HETATM   11  N   UNL     1      -8.023  12.879  67.624  1.00  0.00    -0.154 N  
HETATM   12  O   UNL     1     -10.213  13.488  67.922  1.00  0.00    -0.235 OA 
HETATM   13  H   UNL     1      -7.083  13.201  67.394  1.00  0.00     0.000 HD 
HETATM   14  C   UNL     1      -9.061  13.778  67.636  1.00  0.00    -0.196 C  
BRANCH  14  15
HETATM   15  O   UNL     1      -8.653  15.026  67.265  1.00  0.00    -0.179 OA 
BRANCH  15  16
HETATM   16  C   UNL     1      -9.736  15.955  67.063  1.00  0.00    -0.228 C  
HETATM   17  C   UNL     1      -9.363  17.360  67.489  1.00  0.00    -0.233 C  
HETATM   18  O   UNL     1     -10.461  17.539  65.412  1.00  0.00    -0.647 OA 
HETATM   19  C   UNL     1     -10.308  18.209  66.667  1.00  0.00    -0.376 C  
HETATM   20  C   UNL     1     -10.100  16.159  65.594  1.00  0.00    -0.337 C  
ENDBRANCH  15  16
ENDBRANCH  14  15
ENDBRANCH  10  11
BRANCH  10  21
HETATM   21  C   UNL     1      -7.750  10.520  66.803  1.00  0.00    -0.118 C  
BRANCH  21  22
HETATM   22  C   UNL     1      -8.490  10.448  65.482  1.00  0.00    -0.171 A  
HETATM   23  C   UNL     1     -10.420  11.048  64.125  1.00  0.00    -0.434 A  
HETATM   24  C   UNL     1      -9.798  10.941  65.373  1.00  0.00    -0.308 A  
HETATM   25  C   UNL     1      -9.752  10.652  62.968  1.00  0.00    -0.362 A  
HETATM   26  C   UNL     1      -7.836  10.037  64.308  1.00  0.00    -0.144 A  
HETATM   27  C   UNL     1      -8.463  10.138  63.061  1.00  0.00    -0.180 A  
ENDBRANCH  21  22
ENDBRANCH  10  21
ENDBRANCH   7  10
ENDBRANCH   6   7
ENDBRANCH   5   6
BRANCH   5  28
HETATM   28  S   UNL     1     -10.598   8.993  70.700  1.00  0.00    -0.257 S  
HETATM   29  O   UNL     1     -11.199   8.287  71.808  1.00  0.00    -0.253 OA 
HETATM   30  O   UNL     1     -11.142  10.260  70.246  1.00  0.00    -0.282 OA 
BRANCH  28  31
HETATM   31  C   UNL     1     -10.605   7.876  69.325  1.00  0.00    -0.188 A  
HETATM   32  N   UNL     1     -10.688   5.238  66.052  1.00  0.00    -0.641 NA 
HETATM   33  H2  UNL     1     -11.621   4.827  66.059  1.00  0.00     0.000 HD 
HETATM   34  H1  UNL     1     -10.492   5.576  65.110  1.00  0.00     0.000 HD 
HETATM   35  C   UNL     1     -10.850   6.518  69.534  1.00  0.00    -0.360 A  
HETATM   36  C   UNL     1     -10.849   5.641  68.441  1.00  0.00    -0.161 A  
HETATM   37  C   UNL     1     -10.424   8.364  68.024  1.00  0.00    -0.242 A  
HETATM   38  C   UNL     1     -10.433   7.479  66.942  1.00  0.00    -0.385 A  
HETATM   39  C   UNL     1     -10.580   6.103  67.147  1.00  0.00    -0.305 A  
ENDBRANCH  28  31
ENDBRANCH   5  28
ENDBRANCH   4   5
TORSDOF 11
ENDMDL
MODEL      260
REMARK 921   NORMALIZED FREE ENERGY PREDICTED BY IDOCK:   -4.65 KCAL/MOL
REMARK 922        TOTAL FREE ENERGY PREDICTED BY IDOCK:   -9.41 KCAL/MOL
REMARK 923 INTER-LIGAND FREE ENERGY PREDICTED BY IDOCK:   -8.84 KCAL/MOL
REMARK 924 INTRA-LIGAND FREE ENERGY PREDICTED BY IDOCK:   -0.57 KCAL/MOL
REMARK 927      BINDING AFFINITY PREDICTED BY RF-SCORE:    0.00 PKD
ROOT
HETATM    1  C   UNL     1     -12.705  13.889  65.272  1.00  0.00    -0.485 C  
HETATM    2  C   UNL     1     -11.589  12.853  65.130  1.00  0.00    -0.367 C  
HETATM    3  C   UNL     1     -11.350  12.615  63.625  1.00  0.00    -0.544 C  
HETATM    4  C   UNL     1     -10.266  13.280  65.795  1.00  0.00    -0.292 C  
ENDROOT
BRANCH   4   5
HETATM    5  N   UNL     1     -10.300  13.574  67.290  1.00  0.00    -0.241 N  
BRANCH   5   6
HETATM    6  C   UNL     1     -10.345  12.279  68.138  1.00  0.00    -0.216 C  
BRANCH   6   7
HETATM    7  C   UNL     1      -9.703  10.998  67.500  1.00  0.00    -0.172 C  
HETATM    8  H   UNL     1      -7.959  10.521  66.759  1.00  0.00     0.000 HD 
HETATM    9  O   UNL     1      -8.348  11.296  67.145  1.00  0.00    -0.140 OA 
BRANCH   7  10
HETATM   10  C   UNL     1      -9.805   9.724  68.417  1.00  0.00    -0.152 C  
BRANCH  10  11
HETATM   11  N   UNL     1      -9.083   8.557  67.871  1.00  0.00    -0.140 N  
HETATM   12  O   UNL     1     -10.975   7.470  67.169  1.00  0.00    -0.293 OA 
HETATM   13  H   UNL     1      -8.064   8.528  67.923  1.00  0.00     0.000 HD 
HETATM   14  C   UNL     1      -9.761   7.511  67.295  1.00  0.00    -0.167 C  
BRANCH  14  15
HETATM   15  O   UNL     1      -8.915   6.514  66.906  1.00  0.00    -0.119 OA 
BRANCH  15  16
HETATM   16  C   UNL     1      -8.718   5.496  67.905  1.00  0.00    -0.106 C  
HETATM   17  C   UNL     1      -9.547   5.753  69.147  1.00  0.00    -0.171 C  
HETATM   18  O   UNL     1      -9.769   3.464  68.634  1.00  0.00    -0.116 OA 
HETATM   19  C   UNL     1      -9.682   4.368  69.741  1.00  0.00    -0.221 C  
HETATM   20  C   UNL     1      -9.215   4.116  67.479  1.00  0.00    -0.157 C  
ENDBRANCH  15  16
ENDBRANCH  14  15
ENDBRANCH  10  11
BRANCH  10  21
HETATM   21  C   UNL     1      -9.523   9.930  69.929  1.00  0.00    -0.256 C  
BRANCH  21  22
HETATM   22  C   UNL     1     -10.109   8.988  70.961  1.00  0.00    -0.352 A  
HETATM   23  C   UNL     1      -9.838   7.676  72.994  1.00  0.00    -0.319 A  
HETATM   24  C   UNL     1      -9.286   8.396  71.930  1.00  0.00    -0.313 A  
HETATM   25  C   UNL     1     -11.219   7.522  73.099  1.00  0.00    -0.318 A  
HETATM   26  C   UNL     1     -11.498   8.810  71.072  1.00  0.00    -0.337 A  
HETATM   27  C   UNL     1     -12.049   8.082  72.133  1.00  0.00    -0.391 A  
ENDBRANCH  21  22
ENDBRANCH  10  21
ENDBRANCH   7  10
ENDBRANCH   6   7
ENDBRANCH   5   6
BRANCH   5  28
HETATM   28  S   UNL     1      -8.928  14.577  67.751  1.00  0.00    -0.199 S  
HETATM   29  O   UNL     1      -8.780  14.550  69.188  1.00  0.00    -0.095 OA 
HETATM   30  O   UNL     1      -7.836  14.171  66.885  1.00  0.00     0.000 OA 
BRANCH  28  31
HETATM   31  C   UNL     1      -9.372  16.237  67.321  1.00  0.00    -0.224 A  
HETATM   32  N   UNL     1     -10.479  20.174  66.343  1.00  0.00    -0.390 NA 
HETATM   33  H2  UNL     1     -11.497  20.186  66.381  1.00  0.00     0.000 HD 
HETATM   34  H1  UNL     1     -10.126  20.961  66.887  1.00  0.00     0.000 HD 
HETATM   35  C   UNL     1     -10.184  16.475  66.211  1.00  0.00    -0.343 A  
HETATM   36  C   UNL     1     -10.526  17.792  65.876  1.00  0.00    -0.251 A  
HETATM   37  C   UNL     1      -8.957  17.305  68.128  1.00  0.00    -0.254 A  
HETATM   38  C   UNL     1      -9.311  18.614  67.786  1.00  0.00    -0.315 A  
HETATM   39  C   UNL     1     -10.043  18.874  66.623  1.00  0.00    -0.388 A  
ENDBRANCH  28  31
ENDBRANCH   5  28
ENDBRANCH   4   5
TORSDOF 11
ENDMDL
MODEL      261
REMARK 921   NORMALIZED FREE ENERGY PREDICTED BY IDOCK:   -4.63 KCAL/MOL
REMARK 922        TOTAL FREE ENERGY PREDICTED BY IDOCK:   -9.37 KCAL/MOL
REMARK 923 INTER-LIGAND FREE ENERGY PREDICTED BY IDOCK:   -7.73 KCAL/MOL
REMARK 924 INTRA-LIGAND FREE ENERGY PREDICTED BY IDOCK:   -1.64 KCAL/MOL
REMARK 927      BINDING AFFINITY PREDICTED BY RF-SCORE:    0.00 PKD
ROOT
HETATM    1  C   UNL     1      -7.638  11.772  69.046  1.00  0.00     0.004 C  
HETATM    2  C   UNL     1      -7.674  10.244  69.050  1.00  0.00    -0.110 C  
HETATM    3  C   UNL     1      -6.383   9.738  69.724  1.00  0.00    -0.050 C  
HETATM    4  C   UNL     1      -8.896   9.660  69.787  1.00  0.00    -0.210 C  
ENDROOT
BRANCH   4   5
HETATM    5  N   UNL     1     -10.275  10.056  69.273  1.00  0.00    -0.200 N  
BRANCH   5   6
HETATM    6  C   UNL     1     -10.736   9.163  68.095  1.00  0.00    -0.131 C  
BRANCH   6   7
HETATM    7  C   UNL     1      -9.984   7.798  67.911  1.00  0.00    -0.172 C  
HETATM    8  H   UNL     1     -10.264   5.950  68.480  1.00  0.00     0.000 HD 
HETATM    9  O   UNL     1     -10.720   6.776  68.592  1.00  0.00    -0.214 OA 
BRANCH   7  10
HETATM   10  C   UNL     1      -9.718   7.429  66.404  1.00  0.00    -0.093 C  
BRANCH  10  11
HETATM   11  N   UNL     1      -9.665   8.610  65.518  1.00  0.00    -0.397 N  
HETATM   12  O   UNL     1      -7.446   9.038  65.903  1.00  0.00    -0.092 OA 
HETATM   13  H   UNL     1     -10.504   8.899  65.016  1.00  0.00     0.000 HD 
HETATM   14  C   UNL     1      -8.503   9.324  65.361  1.00  0.00    -0.145 C  
BRANCH  14  15
HETATM   15  O   UNL     1      -8.680  10.404  64.547  1.00  0.00    -0.180 OA 
BRANCH  15  16
HETATM   16  C   UNL     1      -9.877  11.154  64.829  1.00  0.00    -0.277 C  
HETATM   17  C   UNL     1      -9.659  12.180  65.923  1.00  0.00    -0.226 C  
HETATM   18  O   UNL     1     -10.876  13.247  64.211  1.00  0.00    -0.384 OA 
HETATM   19  C   UNL     1     -10.741  13.197  65.635  1.00  0.00    -0.280 C  
HETATM   20  C   UNL     1     -10.339  12.030  63.667  1.00  0.00    -0.450 C  
ENDBRANCH  15  16
ENDBRANCH  14  15
ENDBRANCH  10  11
BRANCH  10  21
HETATM   21  C   UNL     1      -8.558   6.436  66.126  1.00  0.00    -0.144 C  
BRANCH  21  22
HETATM   22  C   UNL     1      -8.831   4.954  65.965  1.00  0.00    -0.126 A  
HETATM   23  C   UNL     1      -8.858   2.969  64.555  1.00  0.00    -0.108 A  
HETATM   24  C   UNL     1      -8.792   4.359  64.696  1.00  0.00    -0.147 A  
HETATM   25  C   UNL     1      -8.979   2.153  65.677  1.00  0.00    -0.116 A  
HETATM   26  C   UNL     1      -8.969   4.118  67.086  1.00  0.00    -0.139 A  
HETATM   27  C   UNL     1      -9.042   2.728  66.943  1.00  0.00    -0.172 A  
ENDBRANCH  21  22
ENDBRANCH  10  21
ENDBRANCH   7  10
ENDBRANCH   6   7
ENDBRANCH   5   6
BRANCH   5  28
HETATM   28  S   UNL     1     -11.453  10.022  70.582  1.00  0.00    -0.367 S  
HETATM   29  O   UNL     1     -12.556   9.169  70.208  1.00  0.00     0.319 OA 
HETATM   30  O   UNL     1     -10.690   9.761  71.790  1.00  0.00    -0.005 OA 
BRANCH  28  31
HETATM   31  C   UNL     1     -12.102  11.667  70.696  1.00  0.00    -0.335 A  
HETATM   32  N   UNL     1     -13.587  15.588  70.999  1.00  0.00    -0.766 NA 
HETATM   33  H2  UNL     1     -13.244  15.940  71.892  1.00  0.00     0.000 HD 
HETATM   34  H1  UNL     1     -13.376  16.279  70.279  1.00  0.00     0.000 HD 
HETATM   35  C   UNL     1     -12.935  12.014  71.761  1.00  0.00    -0.445 A  
HETATM   36  C   UNL     1     -13.447  13.316  71.840  1.00  0.00    -0.525 A  
HETATM   37  C   UNL     1     -11.733  12.633  69.750  1.00  0.00    -0.354 A  
HETATM   38  C   UNL     1     -12.247  13.930  69.845  1.00  0.00    -0.393 A  
HETATM   39  C   UNL     1     -13.158  14.264  70.852  1.00  0.00    -0.304 A  
ENDBRANCH  28  31
ENDBRANCH   5  28
ENDBRANCH   4   5
TORSDOF 11
ENDMDL
MODEL      262
REMARK 921   NORMALIZED FREE ENERGY PREDICTED BY IDOCK:   -4.63 KCAL/MOL
REMARK 922        TOTAL FREE ENERGY PREDICTED BY IDOCK:   -9.37 KCAL/MOL
REMARK 923 INTER-LIGAND FREE ENERGY PREDICTED BY IDOCK:   -8.63 KCAL/MOL
REMARK 924 INTRA-LIGAND FREE ENERGY PREDICTED BY IDOCK:   -0.74 KCAL/MOL
REMARK 927      BINDING AFFINITY PREDICTED BY RF-SCORE:    0.00 PKD
ROOT
HETATM    1  C   UNL     1     -12.093  11.977  68.532  1.00  0.00    -0.116 C  
HETATM    2  C   UNL     1     -10.685  12.565  68.421  1.00  0.00    -0.259 C  
HETATM    3  C   UNL     1      -9.687  11.515  68.949  1.00  0.00    -0.069 C  
HETATM    4  C   UNL     1     -10.296  12.960  66.983  1.00  0.00    -0.242 C  
ENDROOT
BRANCH   4   5
HETATM    5  N   UNL     1     -11.176  13.987  66.279  1.00  0.00    -0.315 N  
BRANCH   5   6
HETATM    6  C   UNL     1     -10.386  15.259  65.887  1.00  0.00    -0.329 C  
BRANCH   6   7
HETATM    7  C   UNL     1     -10.392  16.438  66.922  1.00  0.00    -0.300 C  
HETATM    8  H   UNL     1     -11.106  16.728  68.718  1.00  0.00     0.000 HD 
HETATM    9  O   UNL     1     -11.102  16.014  68.091  1.00  0.00    -0.332 OA 
BRANCH   7  10
HETATM   10  C   UNL     1      -8.954  16.974  67.269  1.00  0.00    -0.215 C  
BRANCH  10  11
HETATM   11  N   UNL     1      -7.879  16.025  66.912  1.00  0.00    -0.228 N  
HETATM   12  O   UNL     1      -7.003  15.924  69.028  1.00  0.00    -0.134 OA 
HETATM   13  H   UNL     1      -7.807  15.687  65.952  1.00  0.00     0.000 HD 
HETATM   14  C   UNL     1      -6.978  15.591  67.852  1.00  0.00    -0.140 C  
BRANCH  14  15
HETATM   15  O   UNL     1      -6.038  14.766  67.308  1.00  0.00    -0.306 OA 
BRANCH  15  16
HETATM   16  C   UNL     1      -5.553  13.759  68.216  1.00  0.00    -0.109 C  
HETATM   17  C   UNL     1      -6.637  13.271  69.155  1.00  0.00    -0.105 C  
HETATM   18  O   UNL     1      -5.489  11.365  68.381  1.00  0.00    -0.043 OA 
HETATM   19  C   UNL     1      -6.139  11.896  69.540  1.00  0.00    -0.108 C  
HETATM   20  C   UNL     1      -5.131  12.463  67.526  1.00  0.00    -0.096 C  
ENDBRANCH  15  16
ENDBRANCH  14  15
ENDBRANCH  10  11
BRANCH  10  21
HETATM   21  C   UNL     1      -8.625  18.424  66.821  1.00  0.00    -0.285 C  
BRANCH  21  22
HETATM   22  C   UNL     1      -7.573  19.238  67.547  1.00  0.00    -0.265 A  
HETATM   23  C   UNL     1      -5.949  21.052  67.535  1.00  0.00    -0.374 A  
HETATM   24  C   UNL     1      -6.789  20.167  66.850  1.00  0.00    -0.262 A  
HETATM   25  C   UNL     1      -5.868  21.011  68.925  1.00  0.00    -0.281 A  
HETATM   26  C   UNL     1      -7.468  19.199  68.948  1.00  0.00    -0.378 A  
HETATM   27  C   UNL     1      -6.622  20.079  69.631  1.00  0.00    -0.340 A  
ENDBRANCH  21  22
ENDBRANCH  10  21
ENDBRANCH   7  10
ENDBRANCH   6   7
ENDBRANCH   5   6
BRANCH   5  28
HETATM   28  S   UNL     1     -11.950  13.271  64.869  1.00  0.00    -0.404 S  
HETATM   29  O   UNL     1     -13.194  12.657  65.270  1.00  0.00    -0.511 OA 
HETATM   30  O   UNL     1     -11.927  14.298  63.844  1.00  0.00    -0.347 OA 
BRANCH  28  31
HETATM   31  C   UNL     1     -10.885  11.956  64.343  1.00  0.00    -0.332 A  
HETATM   32  N   UNL     1      -8.409   8.810  63.061  1.00  0.00    -0.259 NA 
HETATM   33  H2  UNL     1      -9.017   7.994  62.998  1.00  0.00     0.000 HD 
HETATM   34  H1  UNL     1      -7.883   8.887  62.191  1.00  0.00     0.000 HD 
HETATM   35  C   UNL     1     -10.737  10.820  65.140  1.00  0.00    -0.159 A  
HETATM   36  C   UNL     1      -9.889   9.787  64.718  1.00  0.00    -0.123 A  
HETATM   37  C   UNL     1     -10.237  12.033  63.103  1.00  0.00    -0.275 A  
HETATM   38  C   UNL     1      -9.399  10.992  62.691  1.00  0.00    -0.348 A  
HETATM   39  C   UNL     1      -9.167   9.892  63.523  1.00  0.00    -0.238 A  
ENDBRANCH  28  31
ENDBRANCH   5  28
ENDBRANCH   4   5
TORSDOF 11
ENDMDL
MODEL      263
REMARK 921   NORMALIZED FREE ENERGY PREDICTED BY IDOCK:   -4.63 KCAL/MOL
REMARK 922        TOTAL FREE ENERGY PREDICTED BY IDOCK:   -9.37 KCAL/MOL
REMARK 923 INTER-LIGAND FREE ENERGY PREDICTED BY IDOCK:   -7.36 KCAL/MOL
REMARK 924 INTRA-LIGAND FREE ENERGY PREDICTED BY IDOCK:   -2.01 KCAL/MOL
REMARK 927      BINDING AFFINITY PREDICTED BY RF-SCORE:    0.00 PKD
ROOT
HETATM    1  C   UNL     1      -7.072  10.427  65.681  1.00  0.00    -0.142 C  
HETATM    2  C   UNL     1      -8.351  10.008  64.955  1.00  0.00    -0.158 C  
HETATM    3  C   UNL     1      -8.176  10.330  63.458  1.00  0.00    -0.159 C  
HETATM    4  C   UNL     1      -8.688   8.512  65.118  1.00  0.00    -0.120 C  
ENDROOT
BRANCH   4   5
HETATM    5  N   UNL     1      -8.888   7.993  66.538  1.00  0.00    -0.143 N  
BRANCH   5   6
HETATM    6  C   UNL     1     -10.385   7.798  66.880  1.00  0.00    -0.326 C  
BRANCH   6   7
HETATM    7  C   UNL     1     -10.806   8.058  68.369  1.00  0.00     0.086 C  
HETATM    8  H   UNL     1     -10.963   6.984  69.994  1.00  0.00     0.000 HD 
HETATM    9  O   UNL     1     -10.709   6.826  69.093  1.00  0.00    -0.223 OA 
BRANCH   7  10
HETATM   10  C   UNL     1      -9.986   9.212  69.058  1.00  0.00    -0.184 C  
BRANCH  10  11
HETATM   11  N   UNL     1      -9.847  10.412  68.208  1.00  0.00    -0.151 N  
HETATM   12  O   UNL     1     -12.067  10.977  68.310  1.00  0.00    -0.604 OA 
HETATM   13  H   UNL     1      -8.929  10.665  67.844  1.00  0.00     0.000 HD 
HETATM   14  C   UNL     1     -10.935  11.191  67.901  1.00  0.00    -0.253 C  
BRANCH  14  15
HETATM   15  O   UNL     1     -10.603  12.215  67.063  1.00  0.00    -0.221 OA 
BRANCH  15  16
HETATM   16  C   UNL     1     -11.677  12.629  66.197  1.00  0.00    -0.406 C  
HETATM   17  C   UNL     1     -11.991  14.103  66.350  1.00  0.00    -0.457 C  
HETATM   18  O   UNL     1     -11.958  13.642  64.039  1.00  0.00    -0.437 OA 
HETATM   19  C   UNL     1     -12.631  14.438  65.020  1.00  0.00    -0.301 C  
HETATM   20  C   UNL     1     -11.336  12.534  64.711  1.00  0.00    -0.313 C  
ENDBRANCH  15  16
ENDBRANCH  14  15
ENDBRANCH  10  11
BRANCH  10  21
HETATM   21  C   UNL     1     -10.381   9.570  70.516  1.00  0.00    -0.350 C  
BRANCH  21  22
HETATM   22  C   UNL     1     -10.054   8.631  71.659  1.00  0.00    -0.365 A  
HETATM   23  C   UNL     1      -8.557   7.960  73.458  1.00  0.00    -0.302 A  
HETATM   24  C   UNL     1      -8.804   8.689  72.290  1.00  0.00    -0.218 A  
HETATM   25  C   UNL     1      -9.550   7.150  74.006  1.00  0.00    -0.311 A  
HETATM   26  C   UNL     1     -11.040   7.798  72.215  1.00  0.00    -0.355 A  
HETATM   27  C   UNL     1     -10.789   7.063  73.379  1.00  0.00    -0.332 A  
ENDBRANCH  21  22
ENDBRANCH  10  21
ENDBRANCH   7  10
ENDBRANCH   6   7
ENDBRANCH   5   6
BRANCH   5  28
HETATM   28  S   UNL     1      -7.990   6.497  66.778  1.00  0.00    -0.110 S  
HETATM   29  O   UNL     1      -8.917   5.392  66.850  1.00  0.00    -0.111 OA 
HETATM   30  O   UNL     1      -6.929   6.513  65.788  1.00  0.00    -0.058 OA 
BRANCH  28  31
HETATM   31  C   UNL     1      -7.240   6.632  68.378  1.00  0.00    -0.085 A  
HETATM   32  N   UNL     1      -5.521   6.966  72.200  1.00  0.00    -0.036 NA 
HETATM   33  H2  UNL     1      -6.035   7.715  72.664  1.00  0.00     0.000 HD 
HETATM   34  H1  UNL     1      -5.490   6.162  72.826  1.00  0.00     0.000 HD 
HETATM   35  C   UNL     1      -6.659   7.837  68.775  1.00  0.00    -0.049 A  
HETATM   36  C   UNL     1      -6.064   7.932  70.040  1.00  0.00    -0.026 A  
HETATM   37  C   UNL     1      -7.283   5.547  69.265  1.00  0.00    -0.065 A  
HETATM   38  C   UNL     1      -6.691   5.659  70.527  1.00  0.00    -0.048 A  
HETATM   39  C   UNL     1      -6.021   6.828  70.900  1.00  0.00    -0.028 A  
ENDBRANCH  28  31
ENDBRANCH   5  28
ENDBRANCH   4   5
TORSDOF 11
ENDMDL
MODEL      264
REMARK 921   NORMALIZED FREE ENERGY PREDICTED BY IDOCK:   -4.62 KCAL/MOL
REMARK 922        TOTAL FREE ENERGY PREDICTED BY IDOCK:   -9.37 KCAL/MOL
REMARK 923 INTER-LIGAND FREE ENERGY PREDICTED BY IDOCK:   -8.13 KCAL/MOL
REMARK 924 INTRA-LIGAND FREE ENERGY PREDICTED BY IDOCK:   -1.24 KCAL/MOL
REMARK 927      BINDING AFFINITY PREDICTED BY RF-SCORE:    0.00 PKD
ROOT
HETATM    1  C   UNL     1     -11.278  13.340  64.292  1.00  0.00    -0.417 C  
HETATM    2  C   UNL     1     -10.787  14.557  65.078  1.00  0.00    -0.425 C  
HETATM    3  C   UNL     1     -11.613  15.779  64.627  1.00  0.00    -0.218 C  
HETATM    4  C   UNL     1     -10.913  14.394  66.605  1.00  0.00    -0.318 C  
ENDROOT
BRANCH   4   5
HETATM    5  N   UNL     1     -10.172  13.225  67.245  1.00  0.00    -0.239 N  
BRANCH   5   6
HETATM    6  C   UNL     1      -9.192  13.692  68.349  1.00  0.00    -0.169 C  
BRANCH   6   7
HETATM    7  C   UNL     1      -8.684  15.173  68.258  1.00  0.00    -0.171 C  
HETATM    8  H   UNL     1      -8.562  16.695  69.478  1.00  0.00     0.000 HD 
HETATM    9  O   UNL     1      -8.870  15.798  69.533  1.00  0.00    -0.258 OA 
BRANCH   7  10
HETATM   10  C   UNL     1      -7.198  15.296  67.753  1.00  0.00    -0.165 C  
BRANCH  10  11
HETATM   11  N   UNL     1      -6.823  16.676  67.385  1.00  0.00    -0.149 N  
HETATM   12  O   UNL     1      -8.454  16.900  65.790  1.00  0.00    -0.492 OA 
HETATM   13  H   UNL     1      -6.047  17.131  67.867  1.00  0.00     0.000 HD 
HETATM   14  C   UNL     1      -7.501  17.355  66.403  1.00  0.00    -0.305 C  
BRANCH  14  15
HETATM   15  O   UNL     1      -6.964  18.589  66.180  1.00  0.00    -0.225 OA 
BRANCH  15  16
HETATM   16  C   UNL     1      -7.711  19.666  66.778  1.00  0.00    -0.266 C  
HETATM   17  C   UNL     1      -9.042  19.883  66.088  1.00  0.00    -0.393 C  
HETATM   18  O   UNL     1      -9.448  19.960  68.408  1.00  0.00    -0.331 OA 
HETATM   19  C   UNL     1      -9.864  20.548  67.171  1.00  0.00    -0.426 C  
HETATM   20  C   UNL     1      -8.145  19.384  68.215  1.00  0.00    -0.336 C  
ENDBRANCH  15  16
ENDBRANCH  14  15
ENDBRANCH  10  11
BRANCH  10  21
HETATM   21  C   UNL     1      -6.110  14.606  68.619  1.00  0.00    -0.087 C  
BRANCH  21  22
HETATM   22  C   UNL     1      -5.833  13.122  68.476  1.00  0.00    -0.081 A  
HETATM   23  C   UNL     1      -5.512  10.941  69.507  1.00  0.00    -0.038 A  
HETATM   24  C   UNL     1      -5.585  12.334  69.608  1.00  0.00    -0.092 A  
HETATM   25  C   UNL     1      -5.670  10.314  68.273  1.00  0.00    -0.041 A  
HETATM   26  C   UNL     1      -5.974  12.477  67.235  1.00  0.00    -0.111 A  
HETATM   27  C   UNL     1      -5.893  11.084  67.135  1.00  0.00    -0.064 A  
ENDBRANCH  21  22
ENDBRANCH  10  21
ENDBRANCH   7  10
ENDBRANCH   6   7
ENDBRANCH   5   6
BRANCH   5  28
HETATM   28  S   UNL     1     -11.315  12.046  67.881  1.00  0.00    -0.330 S  
HETATM   29  O   UNL     1     -11.571  12.334  69.273  1.00  0.00    -0.284 OA 
HETATM   30  O   UNL     1     -12.403  11.997  66.922  1.00  0.00    -0.334 OA 
BRANCH  28  31
HETATM   31  C   UNL     1     -10.481  10.484  67.834  1.00  0.00    -0.210 A  
HETATM   32  N   UNL     1      -8.442   6.809  67.739  1.00  0.00    -0.122 NA 
HETATM   33  H2  UNL     1      -7.507   7.026  67.395  1.00  0.00     0.000 HD 
HETATM   34  H1  UNL     1      -8.351   6.244  68.583  1.00  0.00     0.000 HD 
HETATM   35  C   UNL     1      -9.970  10.004  66.627  1.00  0.00    -0.274 A  
HETATM   36  C   UNL     1      -9.315   8.766  66.599  1.00  0.00    -0.242 A  
HETATM   37  C   UNL     1     -10.283   9.759  69.017  1.00  0.00    -0.214 A  
HETATM   38  C   UNL     1      -9.621   8.528  68.975  1.00  0.00    -0.167 A  
HETATM   39  C   UNL     1      -9.190   7.991  67.758  1.00  0.00    -0.134 A  
ENDBRANCH  28  31
ENDBRANCH   5  28
ENDBRANCH   4   5
TORSDOF 11
ENDMDL
MODEL      265
REMARK 921   NORMALIZED FREE ENERGY PREDICTED BY IDOCK:   -4.62 KCAL/MOL
REMARK 922        TOTAL FREE ENERGY PREDICTED BY IDOCK:   -9.37 KCAL/MOL
REMARK 923 INTER-LIGAND FREE ENERGY PREDICTED BY IDOCK:   -8.48 KCAL/MOL
REMARK 924 INTRA-LIGAND FREE ENERGY PREDICTED BY IDOCK:   -0.89 KCAL/MOL
REMARK 927      BINDING AFFINITY PREDICTED BY RF-SCORE:    0.00 PKD
ROOT
HETATM    1  C   UNL     1     -11.928   9.354  70.336  1.00  0.00    -0.080 C  
HETATM    2  C   UNL     1     -11.970   8.038  71.114  1.00  0.00    -0.297 C  
HETATM    3  C   UNL     1     -13.429   7.786  71.546  1.00  0.00    -0.379 C  
HETATM    4  C   UNL     1     -11.463   6.829  70.304  1.00  0.00    -0.360 C  
ENDROOT
BRANCH   4   5
HETATM    5  N   UNL     1     -10.034   6.893  69.775  1.00  0.00    -0.177 N  
BRANCH   5   6
HETATM    6  C   UNL     1      -9.667   8.306  69.259  1.00  0.00    -0.177 C  
BRANCH   6   7
HETATM    7  C   UNL     1      -9.539   8.475  67.705  1.00  0.00    -0.153 C  
HETATM    8  H   UNL     1     -10.647   8.061  66.150  1.00  0.00     0.000 HD 
HETATM    9  O   UNL     1     -10.725   7.958  67.091  1.00  0.00    -0.326 OA 
BRANCH   7  10
HETATM   10  C   UNL     1      -9.242   9.955  67.259  1.00  0.00    -0.138 C  
BRANCH  10  11
HETATM   11  N   UNL     1      -9.980  10.354  66.043  1.00  0.00    -0.229 N  
HETATM   12  O   UNL     1      -8.379   9.594  64.589  1.00  0.00    -0.138 OA 
HETATM   13  H   UNL     1     -10.894  10.797  66.134  1.00  0.00     0.000 HD 
HETATM   14  C   UNL     1      -9.454  10.137  64.794  1.00  0.00    -0.295 C  
BRANCH  14  15
HETATM   15  O   UNL     1     -10.265  10.627  63.812  1.00  0.00    -0.320 OA 
BRANCH  15  16
HETATM   16  C   UNL     1     -11.195  11.626  64.272  1.00  0.00    -0.319 C  
HETATM   17  C   UNL     1     -10.674  13.031  64.048  1.00  0.00    -0.387 C  
HETATM   18  O   UNL     1     -12.931  13.018  63.370  1.00  0.00    -0.464 OA 
HETATM   19  C   UNL     1     -11.948  13.846  64.000  1.00  0.00    -0.387 C  
HETATM   20  C   UNL     1     -12.505  11.650  63.487  1.00  0.00    -0.231 C  
ENDBRANCH  15  16
ENDBRANCH  14  15
ENDBRANCH  10  11
BRANCH  10  21
HETATM   21  C   UNL     1      -9.309  11.041  68.366  1.00  0.00    -0.179 C  
BRANCH  21  22
HETATM   22  C   UNL     1      -9.762  12.451  68.040  1.00  0.00    -0.210 A  
HETATM   23  C   UNL     1      -9.306  14.616  67.025  1.00  0.00    -0.244 A  
HETATM   24  C   UNL     1      -8.860  13.378  67.499  1.00  0.00    -0.210 A  
HETATM   25  C   UNL     1     -10.657  14.953  67.097  1.00  0.00    -0.285 A  
HETATM   26  C   UNL     1     -11.117  12.811  68.121  1.00  0.00    -0.288 A  
HETATM   27  C   UNL     1     -11.561  14.053  67.653  1.00  0.00    -0.385 A  
ENDBRANCH  21  22
ENDBRANCH  10  21
ENDBRANCH   7  10
ENDBRANCH   6   7
ENDBRANCH   5   6
BRANCH   5  28
HETATM   28  S   UNL     1      -8.897   6.363  71.011  1.00  0.00    -0.139 S  
HETATM   29  O   UNL     1      -7.709   5.845  70.373  1.00  0.00    -0.091 OA 
HETATM   30  O   UNL     1      -8.811   7.456  71.962  1.00  0.00    -0.123 OA 
BRANCH  28  31
HETATM   31  C   UNL     1      -9.668   4.993  71.827  1.00  0.00    -0.163 A  
HETATM   32  N   UNL     1     -11.447   1.739  73.808  1.00  0.00    -0.190 NA 
HETATM   33  H2  UNL     1     -10.672   1.149  74.111  1.00  0.00     0.000 HD 
HETATM   34  H1  UNL     1     -12.066   1.892  74.604  1.00  0.00     0.000 HD 
HETATM   35  C   UNL     1      -9.455   3.695  71.360  1.00  0.00    -0.227 A  
HETATM   36  C   UNL     1     -10.074   2.618  72.010  1.00  0.00    -0.190 A  
HETATM   37  C   UNL     1     -10.444   5.207  72.975  1.00  0.00    -0.254 A  
HETATM   38  C   UNL     1     -11.049   4.122  73.617  1.00  0.00    -0.337 A  
HETATM   39  C   UNL     1     -10.923   2.828  73.103  1.00  0.00    -0.109 A  
ENDBRANCH  28  31
ENDBRANCH   5  28
ENDBRANCH   4   5
TORSDOF 11
ENDMDL
MODEL      266
REMARK 921   NORMALIZED FREE ENERGY PREDICTED BY IDOCK:   -4.62 KCAL/MOL
REMARK 922        TOTAL FREE ENERGY PREDICTED BY IDOCK:   -9.35 KCAL/MOL
REMARK 923 INTER-LIGAND FREE ENERGY PREDICTED BY IDOCK:   -8.97 KCAL/MOL
REMARK 924 INTRA-LIGAND FREE ENERGY PREDICTED BY IDOCK:   -0.38 KCAL/MOL
REMARK 927      BINDING AFFINITY PREDICTED BY RF-SCORE:    0.00 PKD
ROOT
HETATM    1  C   UNL     1      -7.023  12.638  68.098  1.00  0.00    -0.096 C  
HETATM    2  C   UNL     1      -7.229  11.487  67.111  1.00  0.00    -0.140 C  
HETATM    3  C   UNL     1      -5.901  10.713  66.998  1.00  0.00    -0.054 C  
HETATM    4  C   UNL     1      -8.351  10.515  67.527  1.00  0.00    -0.118 C  
ENDROOT
BRANCH   4   5
HETATM    5  N   UNL     1      -9.749  11.098  67.704  1.00  0.00    -0.168 N  
BRANCH   5   6
HETATM    6  C   UNL     1     -10.312  11.673  66.381  1.00  0.00    -0.230 C  
BRANCH   6   7
HETATM    7  C   UNL     1     -10.784  13.169  66.410  1.00  0.00    -0.284 C  
HETATM    8  H   UNL     1     -12.426  14.133  65.972  1.00  0.00     0.000 HD 
HETATM    9  O   UNL     1     -12.140  13.227  65.954  1.00  0.00    -0.398 OA 
BRANCH   7  10
HETATM   10  C   UNL     1     -10.604  13.855  67.815  1.00  0.00    -0.246 C  
BRANCH  10  11
HETATM   11  N   UNL     1      -9.598  14.936  67.808  1.00  0.00    -0.206 N  
HETATM   12  O   UNL     1     -10.132  15.682  65.707  1.00  0.00    -0.312 OA 
HETATM   13  H   UNL     1      -9.003  15.073  68.626  1.00  0.00     0.000 HD 
HETATM   14  C   UNL     1      -9.450  15.758  66.719  1.00  0.00    -0.240 C  
BRANCH  14  15
HETATM   15  O   UNL     1      -8.434  16.651  66.893  1.00  0.00    -0.184 OA 
BRANCH  15  16
HETATM   16  C   UNL     1      -8.879  17.996  67.154  1.00  0.00    -0.248 C  
HETATM   17  C   UNL     1     -10.288  18.233  66.651  1.00  0.00    -0.400 C  
HETATM   18  O   UNL     1     -10.159  19.177  68.806  1.00  0.00    -0.400 OA 
HETATM   19  C   UNL     1     -10.754  19.380  67.521  1.00  0.00    -0.453 C  
HETATM   20  C   UNL     1      -9.020  18.316  68.641  1.00  0.00    -0.285 C  
ENDBRANCH  15  16
ENDBRANCH  14  15
ENDBRANCH  10  11
BRANCH  10  21
HETATM   21  C   UNL     1     -11.903  14.270  68.557  1.00  0.00    -0.382 C  
BRANCH  21  22
HETATM   22  C   UNL     1     -11.872  14.623  70.031  1.00  0.00    -0.363 A  
HETATM   23  C   UNL     1     -11.745  16.312  71.780  1.00  0.00    -0.504 A  
HETATM   24  C   UNL     1     -11.595  15.934  70.441  1.00  0.00    -0.387 A  
HETATM   25  C   UNL     1     -12.160  15.382  72.731  1.00  0.00    -0.539 A  
HETATM   26  C   UNL     1     -12.274  13.693  71.005  1.00  0.00    -0.374 A  
HETATM   27  C   UNL     1     -12.416  14.070  72.345  1.00  0.00    -0.145 A  
ENDBRANCH  21  22
ENDBRANCH  10  21
ENDBRANCH   7  10
ENDBRANCH   6   7
ENDBRANCH   5   6
BRANCH   5  28
HETATM   28  S   UNL     1     -10.839   9.888  68.374  1.00  0.00    -0.192 S  
HETATM   29  O   UNL     1     -11.902  10.551  69.093  1.00  0.00    -0.239 OA 
HETATM   30  O   UNL     1     -11.137   8.979  67.282  1.00  0.00    -0.007 OA 
BRANCH  28  31
HETATM   31  C   UNL     1      -9.895   8.996  69.579  1.00  0.00    -0.180 A  
HETATM   32  N   UNL     1      -7.704   6.832  72.442  1.00  0.00    -0.093 NA 
HETATM   33  H2  UNL     1      -8.401   6.408  73.053  1.00  0.00     0.000 HD 
HETATM   34  H1  UNL     1      -7.046   6.109  72.152  1.00  0.00     0.000 HD 
HETATM   35  C   UNL     1     -10.027   9.305  70.934  1.00  0.00    -0.367 A  
HETATM   36  C   UNL     1      -9.272   8.598  71.880  1.00  0.00    -0.345 A  
HETATM   37  C   UNL     1      -9.062   7.943  69.178  1.00  0.00    -0.145 A  
HETATM   38  C   UNL     1      -8.321   7.240  70.133  1.00  0.00    -0.137 A  
HETATM   39  C   UNL     1      -8.370   7.604  71.483  1.00  0.00    -0.107 A  
ENDBRANCH  28  31
ENDBRANCH   5  28
ENDBRANCH   4   5
TORSDOF 11
ENDMDL
MODEL      267
REMARK 921   NORMALIZED FREE ENERGY PREDICTED BY IDOCK:   -4.59 KCAL/MOL
REMARK 922        TOTAL FREE ENERGY PREDICTED BY IDOCK:   -9.31 KCAL/MOL
REMARK 923 INTER-LIGAND FREE ENERGY PREDICTED BY IDOCK:   -7.81 KCAL/MOL
REMARK 924 INTRA-LIGAND FREE ENERGY PREDICTED BY IDOCK:   -1.50 KCAL/MOL
REMARK 927      BINDING AFFINITY PREDICTED BY RF-SCORE:    0.00 PKD
ROOT
HETATM    1  C   UNL     1      -9.689  14.153  65.824  1.00  0.00    -0.246 C  
HETATM    2  C   UNL     1      -8.666  13.657  66.846  1.00  0.00    -0.162 C  
HETATM    3  C   UNL     1      -7.826  14.866  67.305  1.00  0.00    -0.235 C  
HETATM    4  C   UNL     1      -9.305  12.985  68.078  1.00  0.00    -0.213 C  
ENDROOT
BRANCH   4   5
HETATM    5  N   UNL     1     -10.189  11.769  67.829  1.00  0.00    -0.188 N  
BRANCH   5   6
HETATM    6  C   UNL     1      -9.821  10.582  68.752  1.00  0.00    -0.186 C  
BRANCH   6   7
HETATM    7  C   UNL     1      -9.635   9.186  68.061  1.00  0.00    -0.147 C  
HETATM    8  H   UNL     1     -10.544   8.181  66.653  1.00  0.00     0.000 HD 
HETATM    9  O   UNL     1     -10.657   9.027  67.071  1.00  0.00    -0.261 OA 
BRANCH   7  10
HETATM   10  C   UNL     1      -8.196   8.971  67.461  1.00  0.00    -0.109 C  
BRANCH  10  11
HETATM   11  N   UNL     1      -7.983   7.606  66.939  1.00  0.00    -0.113 N  
HETATM   12  O   UNL     1      -5.837   7.432  67.726  1.00  0.00    -0.028 OA 
HETATM   13  H   UNL     1      -8.737   7.138  66.437  1.00  0.00     0.000 HD 
HETATM   14  C   UNL     1      -6.785   6.959  67.119  1.00  0.00    -0.063 C  
BRANCH  14  15
HETATM   15  O   UNL     1      -6.777   5.736  66.515  1.00  0.00    -0.054 OA 
BRANCH  15  16
HETATM   16  C   UNL     1      -8.080   5.132  66.407  1.00  0.00    -0.108 C  
HETATM   17  C   UNL     1      -8.285   4.462  65.064  1.00  0.00    -0.104 C  
HETATM   18  O   UNL     1      -9.093   2.976  66.703  1.00  0.00    -0.149 OA 
HETATM   19  C   UNL     1      -9.351   3.434  65.373  1.00  0.00    -0.153 C  
HETATM   20  C   UNL     1      -8.297   3.968  67.372  1.00  0.00    -0.098 C  
ENDBRANCH  15  16
ENDBRANCH  14  15
ENDBRANCH  10  11
BRANCH  10  21
HETATM   21  C   UNL     1      -7.682  10.059  66.481  1.00  0.00    -0.105 C  
BRANCH  21  22
HETATM   22  C   UNL     1      -8.009   9.985  65.003  1.00  0.00    -0.143 A  
HETATM   23  C   UNL     1      -7.736   8.884  62.849  1.00  0.00    -0.116 A  
HETATM   24  C   UNL     1      -7.321   9.094  64.168  1.00  0.00    -0.104 A  
HETATM   25  C   UNL     1      -8.835   9.572  62.338  1.00  0.00    -0.256 A  
HETATM   26  C   UNL     1      -9.105  10.683  64.469  1.00  0.00    -0.243 A  
HETATM   27  C   UNL     1      -9.515  10.478  63.147  1.00  0.00    -0.367 A  
ENDBRANCH  21  22
ENDBRANCH  10  21
ENDBRANCH   7  10
ENDBRANCH   6   7
ENDBRANCH   5   6
BRANCH   5  28
HETATM   28  S   UNL     1     -11.889  12.197  68.007  1.00  0.00    -0.185 S  
HETATM   29  O   UNL     1     -12.365  12.776  66.773  1.00  0.00    -0.431 OA 
HETATM   30  O   UNL     1     -12.531  11.025  68.573  1.00  0.00    -0.440 OA 
BRANCH  28  31
HETATM   31  C   UNL     1     -11.942  13.484  69.223  1.00  0.00    -0.330 A  
HETATM   32  N   UNL     1     -12.135  16.545  72.099  1.00  0.00    -0.594 NA 
HETATM   33  H2  UNL     1     -12.874  17.171  71.779  1.00  0.00     0.000 HD 
HETATM   34  H1  UNL     1     -12.303  16.324  73.080  1.00  0.00     0.000 HD 
HETATM   35  C   UNL     1     -11.721  14.809  68.843  1.00  0.00    -0.340 A  
HETATM   36  C   UNL     1     -11.761  15.820  69.812  1.00  0.00    -0.355 A  
HETATM   37  C   UNL     1     -12.262  13.180  70.553  1.00  0.00    -0.405 A  
HETATM   38  C   UNL     1     -12.305  14.200  71.508  1.00  0.00    -0.395 A  
HETATM   39  C   UNL     1     -11.991  15.517  71.160  1.00  0.00    -0.382 A  
ENDBRANCH  28  31
ENDBRANCH   5  28
ENDBRANCH   4   5
TORSDOF 11
ENDMDL
MODEL      268
REMARK 921   NORMALIZED FREE ENERGY PREDICTED BY IDOCK:   -4.59 KCAL/MOL
REMARK 922        TOTAL FREE ENERGY PREDICTED BY IDOCK:   -9.30 KCAL/MOL
REMARK 923 INTER-LIGAND FREE ENERGY PREDICTED BY IDOCK:   -8.45 KCAL/MOL
REMARK 924 INTRA-LIGAND FREE ENERGY PREDICTED BY IDOCK:   -0.85 KCAL/MOL
REMARK 927      BINDING AFFINITY PREDICTED BY RF-SCORE:    0.00 PKD
ROOT
HETATM    1  C   UNL     1      -6.678   7.695  69.281  1.00  0.00    -0.044 C  
HETATM    2  C   UNL     1      -7.546   7.500  70.525  1.00  0.00    -0.085 C  
HETATM    3  C   UNL     1      -6.840   6.485  71.445  1.00  0.00    -0.063 C  
HETATM    4  C   UNL     1      -7.800   8.805  71.307  1.00  0.00    -0.134 C  
ENDROOT
BRANCH   4   5
HETATM    5  N   UNL     1      -8.485   9.944  70.560  1.00  0.00     0.042 N  
BRANCH   5   6
HETATM    6  C   UNL     1      -7.867  10.177  69.160  1.00  0.00    -0.120 C  
BRANCH   6   7
HETATM    7  C   UNL     1      -7.499  11.656  68.791  1.00  0.00    -0.114 C  
HETATM    8  H   UNL     1      -5.911  12.588  68.137  1.00  0.00     0.000 HD 
HETATM    9  O   UNL     1      -6.133  11.692  68.360  1.00  0.00    -0.049 OA 
BRANCH   7  10
HETATM   10  C   UNL     1      -8.468  12.297  67.730  1.00  0.00    -0.163 C  
BRANCH  10  11
HETATM   11  N   UNL     1      -8.161  13.713  67.444  1.00  0.00    -0.177 N  
HETATM   12  O   UNL     1      -9.854  14.544  68.747  1.00  0.00    -0.224 OA 
HETATM   13  H   UNL     1      -7.378  13.943  66.833  1.00  0.00     0.000 HD 
HETATM   14  C   UNL     1      -8.914  14.724  67.988  1.00  0.00    -0.174 C  
BRANCH  14  15
HETATM   15  O   UNL     1      -8.501  15.950  67.556  1.00  0.00    -0.158 OA 
BRANCH  15  16
HETATM   16  C   UNL     1      -7.086  16.173  67.709  1.00  0.00    -0.138 C  
HETATM   17  C   UNL     1      -6.487  16.862  66.500  1.00  0.00    -0.187 C  
HETATM   18  O   UNL     1      -5.608  17.931  68.406  1.00  0.00    -0.160 OA 
HETATM   19  C   UNL     1      -5.257  17.524  67.080  1.00  0.00    -0.140 C  
HETATM   20  C   UNL     1      -6.738  17.151  68.830  1.00  0.00    -0.200 C  
ENDBRANCH  15  16
ENDBRANCH  14  15
ENDBRANCH  10  11
BRANCH  10  21
HETATM   21  C   UNL     1      -8.718  11.480  66.434  1.00  0.00    -0.179 C  
BRANCH  21  22
HETATM   22  C   UNL     1      -9.972  11.700  65.610  1.00  0.00    -0.274 A  
HETATM   23  C   UNL     1     -12.167  12.723  65.368  1.00  0.00    -0.532 A  
HETATM   24  C   UNL     1     -11.081  12.352  66.167  1.00  0.00    -0.340 A  
HETATM   25  C   UNL     1     -12.169  12.436  64.004  1.00  0.00    -0.579 A  
HETATM   26  C   UNL     1      -9.996  11.403  64.237  1.00  0.00    -0.329 A  
HETATM   27  C   UNL     1     -11.087  11.768  63.441  1.00  0.00    -0.448 A  
ENDBRANCH  21  22
ENDBRANCH  10  21
ENDBRANCH   7  10
ENDBRANCH   6   7
ENDBRANCH   5   6
BRANCH   5  28
HETATM   28  S   UNL     1     -10.217   9.647  70.439  1.00  0.00    -0.285 S  
HETATM   29  O   UNL     1     -10.694   9.099  71.687  1.00  0.00    -0.341 OA 
HETATM   30  O   UNL     1     -10.787  10.867  69.898  1.00  0.00    -0.235 OA 
BRANCH  28  31
HETATM   31  C   UNL     1     -10.409   8.373  69.222  1.00  0.00    -0.214 A  
HETATM   32  N   UNL     1     -10.926   5.373  66.323  1.00  0.00    -0.742 NA 
HETATM   33  H2  UNL     1     -11.916   5.129  66.359  1.00  0.00     0.000 HD 
HETATM   34  H1  UNL     1     -10.672   5.544  65.350  1.00  0.00     0.000 HD 
HETATM   35  C   UNL     1     -10.881   7.115  69.601  1.00  0.00    -0.254 A  
HETATM   36  C   UNL     1     -11.025   6.112  68.633  1.00  0.00    -0.415 A  
HETATM   37  C   UNL     1     -10.142   8.646  67.874  1.00  0.00    -0.254 A  
HETATM   38  C   UNL     1     -10.297   7.638  66.917  1.00  0.00    -0.388 A  
HETATM   39  C   UNL     1     -10.677   6.346  67.297  1.00  0.00    -0.353 A  
ENDBRANCH  28  31
ENDBRANCH   5  28
ENDBRANCH   4   5
TORSDOF 11
ENDMDL
MODEL      269
REMARK 921   NORMALIZED FREE ENERGY PREDICTED BY IDOCK:   -4.58 KCAL/MOL
REMARK 922        TOTAL FREE ENERGY PREDICTED BY IDOCK:   -9.30 KCAL/MOL
REMARK 923 INTER-LIGAND FREE ENERGY PREDICTED BY IDOCK:   -7.59 KCAL/MOL
REMARK 924 INTRA-LIGAND FREE ENERGY PREDICTED BY IDOCK:   -1.71 KCAL/MOL
REMARK 927      BINDING AFFINITY PREDICTED BY RF-SCORE:    0.00 PKD
ROOT
HETATM    1  C   UNL     1      -8.805  10.206  64.248  1.00  0.00    -0.244 C  
HETATM    2  C   UNL     1      -7.720   9.871  65.273  1.00  0.00    -0.129 C  
HETATM    3  C   UNL     1      -6.351  10.192  64.640  1.00  0.00    -0.130 C  
HETATM    4  C   UNL     1      -7.864  10.649  66.596  1.00  0.00    -0.135 C  
ENDROOT
BRANCH   4   5
HETATM    5  N   UNL     1      -9.164  10.472  67.372  1.00  0.00    -0.142 N  
BRANCH   5   6
HETATM    6  C   UNL     1      -9.049   9.377  68.460  1.00  0.00    -0.131 C  
BRANCH   6   7
HETATM    7  C   UNL     1     -10.234   8.355  68.558  1.00  0.00    -0.201 C  
HETATM    8  H   UNL     1     -11.724   7.816  67.414  1.00  0.00     0.000 HD 
HETATM    9  O   UNL     1     -11.006   8.435  67.354  1.00  0.00    -0.114 OA 
BRANCH   7  10
HETATM   10  C   UNL     1      -9.768   6.883  68.863  1.00  0.00    -0.142 C  
BRANCH  10  11
HETATM   11  N   UNL     1      -9.773   6.559  70.304  1.00  0.00    -0.168 N  
HETATM   12  O   UNL     1      -7.496   6.349  70.461  1.00  0.00    -0.086 OA 
HETATM   13  H   UNL     1     -10.660   6.523  70.807  1.00  0.00     0.000 HD 
HETATM   14  C   UNL     1      -8.603   6.306  70.976  1.00  0.00    -0.132 C  
BRANCH  14  15
HETATM   15  O   UNL     1      -8.831   5.976  72.280  1.00  0.00    -0.138 OA 
BRANCH  15  16
HETATM   16  C   UNL     1      -9.004   4.562  72.499  1.00  0.00    -0.120 C  
HETATM   17  C   UNL     1      -7.851   3.965  73.280  1.00  0.00    -0.083 C  
HETATM   18  O   UNL     1      -9.835   3.097  74.208  1.00  0.00    -0.099 OA 
HETATM   19  C   UNL     1      -8.482   2.740  73.904  1.00  0.00    -0.072 C  
HETATM   20  C   UNL     1     -10.195   4.224  73.392  1.00  0.00    -0.159 C  
ENDBRANCH  15  16
ENDBRANCH  14  15
ENDBRANCH  10  11
BRANCH  10  21
HETATM   21  C   UNL     1     -10.413   5.759  68.009  1.00  0.00    -0.286 C  
BRANCH  21  22
HETATM   22  C   UNL     1      -9.596   4.564  67.558  1.00  0.00    -0.211 A  
HETATM   23  C   UNL     1      -7.872   3.629  66.115  1.00  0.00    -0.089 A  
HETATM   24  C   UNL     1      -8.766   4.657  66.432  1.00  0.00    -0.112 A  
HETATM   25  C   UNL     1      -7.805   2.486  66.909  1.00  0.00    -0.071 A  
HETATM   26  C   UNL     1      -9.528   3.398  68.339  1.00  0.00    -0.209 A  
HETATM   27  C   UNL     1      -8.639   2.367  68.016  1.00  0.00    -0.110 A  
ENDBRANCH  21  22
ENDBRANCH  10  21
ENDBRANCH   7  10
ENDBRANCH   6   7
ENDBRANCH   5   6
BRANCH   5  28
HETATM   28  S   UNL     1      -9.674  12.004  68.076  1.00  0.00    -0.202 S  
HETATM   29  O   UNL     1     -10.672  11.753  69.089  1.00  0.00    -0.202 OA 
HETATM   30  O   UNL     1      -8.451  12.714  68.399  1.00  0.00    -0.168 OA 
BRANCH  28  31
HETATM   31  C   UNL     1     -10.488  12.890  66.775  1.00  0.00    -0.254 A  
HETATM   32  N   UNL     1     -12.435  15.043  63.734  1.00  0.00    -1.049 NA 
HETATM   33  H2  UNL     1     -13.221  15.505  64.189  1.00  0.00     0.000 HD 
HETATM   34  H1  UNL     1     -11.928  15.737  63.185  1.00  0.00     0.000 HD 
HETATM   35  C   UNL     1     -11.824  12.616  66.476  1.00  0.00    -0.463 A  
HETATM   36  C   UNL     1     -12.457  13.320  65.443  1.00  0.00    -0.543 A  
HETATM   37  C   UNL     1      -9.809  13.905  66.087  1.00  0.00    -0.316 A  
HETATM   38  C   UNL     1     -10.456  14.604  65.063  1.00  0.00    -0.447 A  
HETATM   39  C   UNL     1     -11.762  14.273  64.689  1.00  0.00    -0.430 A  
ENDBRANCH  28  31
ENDBRANCH   5  28
ENDBRANCH   4   5
TORSDOF 11
ENDMDL
MODEL      270
REMARK 921   NORMALIZED FREE ENERGY PREDICTED BY IDOCK:   -4.58 KCAL/MOL
REMARK 922        TOTAL FREE ENERGY PREDICTED BY IDOCK:   -9.29 KCAL/MOL
REMARK 923 INTER-LIGAND FREE ENERGY PREDICTED BY IDOCK:   -6.49 KCAL/MOL
REMARK 924 INTRA-LIGAND FREE ENERGY PREDICTED BY IDOCK:   -2.80 KCAL/MOL
REMARK 927      BINDING AFFINITY PREDICTED BY RF-SCORE:    0.00 PKD
ROOT
HETATM    1  C   UNL     1      -6.093   7.673  66.279  1.00  0.00    -0.041 C  
HETATM    2  C   UNL     1      -6.978   8.334  65.222  1.00  0.00    -0.066 C  
HETATM    3  C   UNL     1      -6.298   8.153  63.850  1.00  0.00    -0.067 C  
HETATM    4  C   UNL     1      -8.404   7.751  65.164  1.00  0.00    -0.106 C  
ENDROOT
BRANCH   4   5
HETATM    5  N   UNL     1      -9.240   7.824  66.437  1.00  0.00    -0.178 N  
BRANCH   5   6
HETATM    6  C   UNL     1     -10.352   8.897  66.342  1.00  0.00    -0.119 C  
BRANCH   6   7
HETATM    7  C   UNL     1     -10.174  10.175  67.235  1.00  0.00    -0.222 C  
HETATM    8  H   UNL     1     -11.354  11.355  68.252  1.00  0.00     0.000 HD 
HETATM    9  O   UNL     1     -11.462  10.581  67.711  1.00  0.00    -0.443 OA 
BRANCH   7  10
HETATM   10  C   UNL     1      -9.146   9.979  68.409  1.00  0.00    -0.121 C  
BRANCH  10  11
HETATM   11  N   UNL     1      -7.839  10.617  68.149  1.00  0.00    -0.107 N  
HETATM   12  O   UNL     1      -8.637  12.761  68.304  1.00  0.00    -0.177 OA 
HETATM   13  H   UNL     1      -7.018  10.033  67.996  1.00  0.00     0.000 HD 
HETATM   14  C   UNL     1      -7.714  11.984  68.109  1.00  0.00    -0.135 C  
BRANCH  14  15
HETATM   15  O   UNL     1      -6.442  12.366  67.801  1.00  0.00    -0.086 OA 
BRANCH  15  16
HETATM   16  C   UNL     1      -5.644  12.709  68.950  1.00  0.00    -0.063 C  
HETATM   17  C   UNL     1      -6.093  14.008  69.586  1.00  0.00    -0.122 C  
HETATM   18  O   UNL     1      -5.734  12.474  71.337  1.00  0.00    -0.386 OA 
HETATM   19  C   UNL     1      -5.602  13.860  71.009  1.00  0.00    -0.206 C  
HETATM   20  C   UNL     1      -5.789  11.726  70.111  1.00  0.00    -0.156 C  
ENDBRANCH  15  16
ENDBRANCH  14  15
ENDBRANCH  10  11
BRANCH  10  21
HETATM   21  C   UNL     1      -9.664  10.273  69.843  1.00  0.00    -0.119 C  
BRANCH  21  22
HETATM   22  C   UNL     1     -10.031   9.139  70.780  1.00  0.00    -0.334 A  
HETATM   23  C   UNL     1      -9.666   7.947  72.871  1.00  0.00    -0.339 A  
HETATM   24  C   UNL     1      -9.240   8.864  71.904  1.00  0.00    -0.240 A  
HETATM   25  C   UNL     1     -10.880   7.281  72.723  1.00  0.00    -0.356 A  
HETATM   26  C   UNL     1     -11.245   8.447  70.636  1.00  0.00    -0.275 A  
HETATM   27  C   UNL     1     -11.666   7.525  71.601  1.00  0.00    -0.313 A  
ENDBRANCH  21  22
ENDBRANCH  10  21
ENDBRANCH   7  10
ENDBRANCH   6   7
ENDBRANCH   5   6
BRANCH   5  28
HETATM   28  S   UNL     1      -9.924   6.246  66.816  1.00  0.00    -0.162 S  
HETATM   29  O   UNL     1     -11.358   6.364  66.933  1.00  0.00    -0.304 OA 
HETATM   30  O   UNL     1      -9.331   5.323  65.865  1.00  0.00    -0.157 OA 
BRANCH  28  31
HETATM   31  C   UNL     1      -9.318   5.827  68.427  1.00  0.00    -0.121 A  
HETATM   32  N   UNL     1      -7.917   4.885  72.277  1.00  0.00    -0.108 NA 
HETATM   33  H2  UNL     1      -7.841   5.778  72.764  1.00  0.00     0.000 HD 
HETATM   34  H1  UNL     1      -8.433   4.237  72.872  1.00  0.00     0.000 HD 
HETATM   35  C   UNL     1      -8.109   6.361  68.877  1.00  0.00    -0.111 A  
HETATM   36  C   UNL     1      -7.636   6.021  70.151  1.00  0.00    -0.095 A  
HETATM   37  C   UNL     1     -10.080   5.008  69.271  1.00  0.00    -0.270 A  
HETATM   38  C   UNL     1      -9.598   4.682  70.543  1.00  0.00    -0.268 A  
HETATM   39  C   UNL     1      -8.345   5.132  70.968  1.00  0.00    -0.119 A  
ENDBRANCH  28  31
ENDBRANCH   5  28
ENDBRANCH   4   5
TORSDOF 11
ENDMDL
MODEL      271
REMARK 921   NORMALIZED FREE ENERGY PREDICTED BY IDOCK:   -4.57 KCAL/MOL
REMARK 922        TOTAL FREE ENERGY PREDICTED BY IDOCK:   -9.27 KCAL/MOL
REMARK 923 INTER-LIGAND FREE ENERGY PREDICTED BY IDOCK:   -7.14 KCAL/MOL
REMARK 924 INTRA-LIGAND FREE ENERGY PREDICTED BY IDOCK:   -2.14 KCAL/MOL
REMARK 927      BINDING AFFINITY PREDICTED BY RF-SCORE:    0.00 PKD
ROOT
HETATM    1  C   UNL     1     -10.181   8.932  66.218  1.00  0.00    -0.203 C  
HETATM    2  C   UNL     1     -10.074  10.080  67.222  1.00  0.00    -0.259 C  
HETATM    3  C   UNL     1     -11.399  10.151  68.007  1.00  0.00    -0.152 C  
HETATM    4  C   UNL     1      -8.904   9.923  68.212  1.00  0.00    -0.119 C  
ENDROOT
BRANCH   4   5
HETATM    5  N   UNL     1      -7.501   9.822  67.624  1.00  0.00    -0.090 N  
BRANCH   5   6
HETATM    6  C   UNL     1      -6.712  11.147  67.768  1.00  0.00    -0.065 C  
BRANCH   6   7
HETATM    7  C   UNL     1      -7.362  12.258  68.665  1.00  0.00    -0.106 C  
HETATM    8  H   UNL     1      -6.720  13.567  69.966  1.00  0.00     0.000 HD 
HETATM    9  O   UNL     1      -6.327  12.894  69.423  1.00  0.00    -0.103 OA 
BRANCH   7  10
HETATM   10  C   UNL     1      -8.220  13.296  67.852  1.00  0.00    -0.163 C  
BRANCH  10  11
HETATM   11  N   UNL     1      -9.525  13.588  68.480  1.00  0.00    -0.342 N  
HETATM   12  O   UNL     1     -10.718  13.425  66.529  1.00  0.00    -0.283 OA 
HETATM   13  H   UNL     1      -9.571  13.757  69.485  1.00  0.00     0.000 HD 
HETATM   14  C   UNL     1     -10.675  13.636  67.732  1.00  0.00    -0.246 C  
BRANCH  14  15
HETATM   15  O   UNL     1     -11.757  13.974  68.490  1.00  0.00    -0.310 OA 
BRANCH  15  16
HETATM   16  C   UNL     1     -11.420  14.412  69.821  1.00  0.00    -0.276 C  
HETATM   17  C   UNL     1     -11.641  15.900  70.001  1.00  0.00    -0.346 C  
HETATM   18  O   UNL     1     -12.527  14.837  71.908  1.00  0.00    -0.316 OA 
HETATM   19  C   UNL     1     -11.836  16.021  71.496  1.00  0.00    -0.486 C  
HETATM   20  C   UNL     1     -12.325  13.828  70.904  1.00  0.00    -0.380 C  
ENDBRANCH  15  16
ENDBRANCH  14  15
ENDBRANCH  10  11
BRANCH  10  21
HETATM   21  C   UNL     1      -7.493  14.586  67.387  1.00  0.00    -0.194 C  
BRANCH  21  22
HETATM   22  C   UNL     1      -8.160  15.941  67.521  1.00  0.00    -0.171 A  
HETATM   23  C   UNL     1      -8.533  17.975  68.807  1.00  0.00    -0.217 A  
HETATM   24  C   UNL     1      -8.085  16.652  68.727  1.00  0.00    -0.247 A  
HETATM   25  C   UNL     1      -9.078  18.602  67.688  1.00  0.00    -0.294 A  
HETATM   26  C   UNL     1      -8.727  16.582  66.406  1.00  0.00    -0.357 A  
HETATM   27  C   UNL     1      -9.182  17.902  66.490  1.00  0.00    -0.286 A  
ENDBRANCH  21  22
ENDBRANCH  10  21
ENDBRANCH   7  10
ENDBRANCH   6   7
ENDBRANCH   5   6
BRANCH   5  28
HETATM   28  S   UNL     1      -6.620   8.486  68.360  1.00  0.00    -0.061 S  
HETATM   29  O   UNL     1      -5.303   8.404  67.772  1.00  0.00    -0.033 OA 
HETATM   30  O   UNL     1      -6.784   8.649  69.793  1.00  0.00    -0.041 OA 
BRANCH  28  31
HETATM   31  C   UNL     1      -7.479   7.013  67.880  1.00  0.00    -0.099 A  
HETATM   32  N   UNL     1      -9.570   3.556  66.719  1.00  0.00    -0.366 NA 
HETATM   33  H2  UNL     1     -10.555   3.768  66.876  1.00  0.00     0.000 HD 
HETATM   34  H1  UNL     1      -9.469   3.181  65.776  1.00  0.00     0.000 HD 
HETATM   35  C   UNL     1      -8.277   6.340  68.806  1.00  0.00    -0.120 A  
HETATM   36  C   UNL     1      -8.949   5.173  68.419  1.00  0.00    -0.118 A  
HETATM   37  C   UNL     1      -7.404   6.557  66.556  1.00  0.00    -0.078 A  
HETATM   38  C   UNL     1      -8.086   5.395  66.182  1.00  0.00    -0.106 A  
HETATM   39  C   UNL     1      -8.810   4.658  67.124  1.00  0.00    -0.108 A  
ENDBRANCH  28  31
ENDBRANCH   5  28
ENDBRANCH   4   5
TORSDOF 11
ENDMDL
MODEL      272
REMARK 921   NORMALIZED FREE ENERGY PREDICTED BY IDOCK:   -4.56 KCAL/MOL
REMARK 922        TOTAL FREE ENERGY PREDICTED BY IDOCK:   -9.26 KCAL/MOL
REMARK 923 INTER-LIGAND FREE ENERGY PREDICTED BY IDOCK:   -8.89 KCAL/MOL
REMARK 924 INTRA-LIGAND FREE ENERGY PREDICTED BY IDOCK:   -0.36 KCAL/MOL
REMARK 927      BINDING AFFINITY PREDICTED BY RF-SCORE:    0.00 PKD
ROOT
HETATM    1  C   UNL     1     -10.906  12.878  64.496  1.00  0.00    -0.385 C  
HETATM    2  C   UNL     1     -10.421  14.141  65.209  1.00  0.00    -0.402 C  
HETATM    3  C   UNL     1     -11.198  15.342  64.632  1.00  0.00    -0.366 C  
HETATM    4  C   UNL     1     -10.614  14.096  66.737  1.00  0.00    -0.277 C  
ENDROOT
BRANCH   4   5
HETATM    5  N   UNL     1      -9.927  12.965  67.494  1.00  0.00    -0.212 N  
BRANCH   5   6
HETATM    6  C   UNL     1      -8.810  13.485  68.431  1.00  0.00    -0.146 C  
BRANCH   6   7
HETATM    7  C   UNL     1      -8.394  14.988  68.263  1.00  0.00    -0.145 C  
HETATM    8  H   UNL     1      -8.280  16.554  69.427  1.00  0.00     0.000 HD 
HETATM    9  O   UNL     1      -8.531  15.643  69.529  1.00  0.00    -0.252 OA 
BRANCH   7  10
HETATM   10  C   UNL     1      -6.955  15.176  67.656  1.00  0.00    -0.182 C  
BRANCH  10  11
HETATM   11  N   UNL     1      -6.625  16.587  67.370  1.00  0.00    -0.147 N  
HETATM   12  O   UNL     1      -8.287  16.861  65.815  1.00  0.00    -0.472 OA 
HETATM   13  H   UNL     1      -5.856  17.034  67.869  1.00  0.00     0.000 HD 
HETATM   14  C   UNL     1      -7.338  17.306  66.442  1.00  0.00    -0.301 C  
BRANCH  14  15
HETATM   15  O   UNL     1      -6.840  18.567  66.290  1.00  0.00    -0.201 OA 
BRANCH  15  16
HETATM   16  C   UNL     1      -7.677  19.595  66.853  1.00  0.00    -0.262 C  
HETATM   17  C   UNL     1      -8.882  19.885  65.981  1.00  0.00    -0.287 C  
HETATM   18  O   UNL     1      -9.654  19.764  68.204  1.00  0.00    -0.355 OA 
HETATM   19  C   UNL     1      -9.869  20.461  66.973  1.00  0.00    -0.453 C  
HETATM   20  C   UNL     1      -8.335  19.193  68.171  1.00  0.00    -0.316 C  
ENDBRANCH  15  16
ENDBRANCH  14  15
ENDBRANCH  10  11
BRANCH  10  21
HETATM   21  C   UNL     1      -5.794  14.439  68.377  1.00  0.00    -0.105 C  
BRANCH  21  22
HETATM   22  C   UNL     1      -5.570  12.955  68.165  1.00  0.00    -0.088 A  
HETATM   23  C   UNL     1      -5.405  10.708  69.087  1.00  0.00    -0.041 A  
HETATM   24  C   UNL     1      -5.427  12.095  69.263  1.00  0.00    -0.066 A  
HETATM   25  C   UNL     1      -5.511  10.158  67.811  1.00  0.00    -0.041 A  
HETATM   26  C   UNL     1      -5.660  12.386  66.883  1.00  0.00     0.174 A  
HETATM   27  C   UNL     1      -5.630  10.998  66.708  1.00  0.00    -0.087 A  
ENDBRANCH  21  22
ENDBRANCH  10  21
ENDBRANCH   7  10
ENDBRANCH   6   7
ENDBRANCH   5   6
BRANCH   5  28
HETATM   28  S   UNL     1     -11.110  12.021  68.395  1.00  0.00    -0.268 S  
HETATM   29  O   UNL     1     -12.112  11.520  67.484  1.00  0.00    -0.614 OA 
HETATM   30  O   UNL     1     -10.338  11.111  69.222  1.00  0.00    -0.203 OA 
BRANCH  28  31
HETATM   31  C   UNL     1     -11.931  13.165  69.469  1.00  0.00    -0.294 A  
HETATM   32  N   UNL     1     -13.821  15.896  72.047  1.00  0.00    -0.293 NA 
HETATM   33  H2  UNL     1     -13.302  15.846  72.923  1.00  0.00     0.000 HD 
HETATM   34  H1  UNL     1     -13.914  16.877  71.785  1.00  0.00     0.000 HD 
HETATM   35  C   UNL     1     -12.485  12.718  70.670  1.00  0.00    -0.328 A  
HETATM   36  C   UNL     1     -13.136  13.630  71.511  1.00  0.00    -0.431 A  
HETATM   37  C   UNL     1     -11.975  14.527  69.141  1.00  0.00    -0.344 A  
HETATM   38  C   UNL     1     -12.622  15.427  69.993  1.00  0.00    -0.269 A  
HETATM   39  C   UNL     1     -13.264  14.977  71.151  1.00  0.00    -0.434 A  
ENDBRANCH  28  31
ENDBRANCH   5  28
ENDBRANCH   4   5
TORSDOF 11
ENDMDL
MODEL      273
REMARK 921   NORMALIZED FREE ENERGY PREDICTED BY IDOCK:   -4.55 KCAL/MOL
REMARK 922        TOTAL FREE ENERGY PREDICTED BY IDOCK:   -9.25 KCAL/MOL
REMARK 923 INTER-LIGAND FREE ENERGY PREDICTED BY IDOCK:   -8.20 KCAL/MOL
REMARK 924 INTRA-LIGAND FREE ENERGY PREDICTED BY IDOCK:   -1.05 KCAL/MOL
REMARK 927      BINDING AFFINITY PREDICTED BY RF-SCORE:    0.00 PKD
ROOT
HETATM    1  C   UNL     1      -8.101   4.854  68.114  1.00  0.00    -0.086 C  
HETATM    2  C   UNL     1      -8.354   4.759  69.619  1.00  0.00    -0.082 C  
HETATM    3  C   UNL     1      -7.362   3.734  70.205  1.00  0.00    -0.042 C  
HETATM    4  C   UNL     1      -8.191   6.103  70.356  1.00  0.00    -0.117 C  
ENDROOT
BRANCH   4   5
HETATM    5  N   UNL     1      -9.084   7.255  69.910  1.00  0.00    -0.142 N  
BRANCH   5   6
HETATM    6  C   UNL     1      -8.809   7.672  68.444  1.00  0.00    -0.130 C  
BRANCH   6   7
HETATM    7  C   UNL     1      -8.460   9.181  68.196  1.00  0.00    -0.125 C  
HETATM    8  H   UNL     1      -6.849  10.283  68.282  1.00  0.00     0.000 HD 
HETATM    9  O   UNL     1      -7.060   9.369  68.432  1.00  0.00    -0.070 OA 
BRANCH   7  10
HETATM   10  C   UNL     1      -8.892   9.697  66.773  1.00  0.00    -0.135 C  
BRANCH  10  11
HETATM   11  N   UNL     1      -8.365   8.868  65.671  1.00  0.00    -0.130 N  
HETATM   12  O   UNL     1      -6.769  10.385  65.034  1.00  0.00    -0.122 OA 
HETATM   13  H   UNL     1      -8.774   7.950  65.493  1.00  0.00     0.000 HD 
HETATM   14  C   UNL     1      -7.334   9.313  64.881  1.00  0.00    -0.103 C  
BRANCH  14  15
HETATM   15  O   UNL     1      -7.037   8.423  63.890  1.00  0.00    -0.084 OA 
BRANCH  15  16
HETATM   16  C   UNL     1      -7.606   7.116  64.093  1.00  0.00    -0.109 C  
HETATM   17  C   UNL     1      -8.056   6.485  62.791  1.00  0.00    -0.062 C  
HETATM   18  O   UNL     1      -6.913   4.819  64.003  1.00  0.00    -0.047 OA 
HETATM   19  C   UNL     1      -8.020   5.008  63.116  1.00  0.00    -0.088 C  
HETATM   20  C   UNL     1      -6.603   6.085  64.608  1.00  0.00    -0.038 C  
ENDBRANCH  15  16
ENDBRANCH  14  15
ENDBRANCH  10  11
BRANCH  10  21
HETATM   21  C   UNL     1     -10.395  10.036  66.584  1.00  0.00    -0.281 C  
BRANCH  21  22
HETATM   22  C   UNL     1     -10.820  11.217  65.734  1.00  0.00    -0.257 A  
HETATM   23  C   UNL     1     -11.087  12.230  63.537  1.00  0.00    -0.533 A  
HETATM   24  C   UNL     1     -10.542  11.240  64.361  1.00  0.00    -0.410 A  
HETATM   25  C   UNL     1     -11.906  13.221  64.074  1.00  0.00    -0.512 A  
HETATM   26  C   UNL     1     -11.635  12.232  66.264  1.00  0.00    -0.446 A  
HETATM   27  C   UNL     1     -12.173  13.226  65.440  1.00  0.00    -0.501 A  
ENDBRANCH  21  22
ENDBRANCH  10  21
ENDBRANCH   7  10
ENDBRANCH   6   7
ENDBRANCH   5   6
BRANCH   5  28
HETATM   28  S   UNL     1     -10.781   6.842  70.136  1.00  0.00    -0.250 S  
HETATM   29  O   UNL     1     -11.378   6.564  68.850  1.00  0.00    -0.289 OA 
HETATM   30  O   UNL     1     -10.806   5.850  71.195  1.00  0.00    -0.257 OA 
BRANCH  28  31
HETATM   31  C   UNL     1     -11.562   8.310  70.748  1.00  0.00    -0.236 A  
HETATM   32  N   UNL     1     -13.468  11.781  72.161  1.00  0.00    -0.523 NA 
HETATM   33  H2  UNL     1     -13.981  12.153  71.363  1.00  0.00     0.000 HD 
HETATM   34  H1  UNL     1     -14.102  11.735  72.958  1.00  0.00     0.000 HD 
HETATM   35  C   UNL     1     -11.284   9.544  70.159  1.00  0.00    -0.275 A  
HETATM   36  C   UNL     1     -11.903  10.700  70.653  1.00  0.00    -0.463 A  
HETATM   37  C   UNL     1     -12.501   8.224  71.785  1.00  0.00    -0.367 A  
HETATM   38  C   UNL     1     -13.116   9.384  72.264  1.00  0.00    -0.509 A  
HETATM   39  C   UNL     1     -12.775  10.638  71.747  1.00  0.00    -0.383 A  
ENDBRANCH  28  31
ENDBRANCH   5  28
ENDBRANCH   4   5
TORSDOF 11
ENDMDL
MODEL      274
REMARK 921   NORMALIZED FREE ENERGY PREDICTED BY IDOCK:   -4.55 KCAL/MOL
REMARK 922        TOTAL FREE ENERGY PREDICTED BY IDOCK:   -9.24 KCAL/MOL
REMARK 923 INTER-LIGAND FREE ENERGY PREDICTED BY IDOCK:   -7.66 KCAL/MOL
REMARK 924 INTRA-LIGAND FREE ENERGY PREDICTED BY IDOCK:   -1.59 KCAL/MOL
REMARK 927      BINDING AFFINITY PREDICTED BY RF-SCORE:    0.00 PKD
ROOT
HETATM    1  C   UNL     1      -7.406   9.541  70.588  1.00  0.00    -0.133 C  
HETATM    2  C   UNL     1      -7.892   8.288  69.857  1.00  0.00    -0.102 C  
HETATM    3  C   UNL     1      -7.005   7.106  70.296  1.00  0.00    -0.061 C  
HETATM    4  C   UNL     1      -9.369   7.948  70.137  1.00  0.00    -0.156 C  
ENDROOT
BRANCH   4   5
HETATM    5  N   UNL     1     -10.408   9.004  69.780  1.00  0.00    -0.204 N  
BRANCH   5   6
HETATM    6  C   UNL     1     -11.136   8.679  68.453  1.00  0.00     0.341 C  
BRANCH   6   7
HETATM    7  C   UNL     1     -10.299   7.934  67.355  1.00  0.00    -0.279 C  
HETATM    8  H   UNL     1     -10.511   6.313  66.285  1.00  0.00     0.000 HD 
HETATM    9  O   UNL     1     -11.018   6.764  66.949  1.00  0.00    -0.378 OA 
BRANCH   7  10
HETATM   10  C   UNL     1      -9.919   8.846  66.131  1.00  0.00    -0.220 C  
BRANCH  10  11
HETATM   11  N   UNL     1     -10.394  10.237  66.275  1.00  0.00    -0.215 N  
HETATM   12  O   UNL     1      -8.553  10.949  67.441  1.00  0.00    -0.126 OA 
HETATM   13  H   UNL     1     -11.291  10.505  65.870  1.00  0.00     0.000 HD 
HETATM   14  C   UNL     1      -9.647  11.174  66.945  1.00  0.00    -0.186 C  
BRANCH  14  15
HETATM   15  O   UNL     1     -10.287  12.377  67.011  1.00  0.00    -0.219 OA 
BRANCH  15  16
HETATM   16  C   UNL     1     -10.920  12.767  65.778  1.00  0.00    -0.277 C  
HETATM   17  C   UNL     1     -12.226  13.497  66.017  1.00  0.00    -0.493 C  
HETATM   18  O   UNL     1     -11.060  14.700  64.361  1.00  0.00    -0.285 OA 
HETATM   19  C   UNL     1     -12.380  14.310  64.751  1.00  0.00    -0.426 C  
HETATM   20  C   UNL     1     -10.125  13.802  64.983  1.00  0.00    -0.283 C  
ENDBRANCH  15  16
ENDBRANCH  14  15
ENDBRANCH  10  11
BRANCH  10  21
HETATM   21  C   UNL     1      -8.446   8.779  65.644  1.00  0.00    -0.174 C  
BRANCH  21  22
HETATM   22  C   UNL     1      -7.744   7.445  65.487  1.00  0.00    -0.107 A  
HETATM   23  C   UNL     1      -6.052   5.866  66.244  1.00  0.00    -0.029 A  
HETATM   24  C   UNL     1      -6.599   7.153  66.242  1.00  0.00    -0.052 A  
HETATM   25  C   UNL     1      -6.631   4.854  65.480  1.00  0.00    -0.041 A  
HETATM   26  C   UNL     1      -8.306   6.418  64.710  1.00  0.00    -0.035 A  
HETATM   27  C   UNL     1      -7.753   5.133  64.707  1.00  0.00    -0.086 A  
ENDBRANCH  21  22
ENDBRANCH  10  21
ENDBRANCH   7  10
ENDBRANCH   6   7
ENDBRANCH   5   6
BRANCH   5  28
HETATM   28  S   UNL     1     -11.563   9.201  71.095  1.00  0.00    -0.342 S  
HETATM   29  O   UNL     1     -12.728   8.390  70.832  1.00  0.00    -0.082 OA 
HETATM   30  O   UNL     1     -10.799   9.028  72.317  1.00  0.00    -0.278 OA 
BRANCH  28  31
HETATM   31  C   UNL     1     -12.097  10.889  71.025  1.00  0.00    -0.320 A  
HETATM   32  N   UNL     1     -13.417  14.875  70.820  1.00  0.00    -0.626 NA 
HETATM   33  H2  UNL     1     -13.830  14.977  69.893  1.00  0.00     0.000 HD 
HETATM   34  H1  UNL     1     -14.076  15.239  71.508  1.00  0.00     0.000 HD 
HETATM   35  C   UNL     1     -11.589  11.739  70.041  1.00  0.00    -0.318 A  
HETATM   36  C   UNL     1     -12.014  13.074  69.996  1.00  0.00    -0.383 A  
HETATM   37  C   UNL     1     -13.071  11.354  71.919  1.00  0.00    -0.505 A  
HETATM   38  C   UNL     1     -13.491  12.686  71.858  1.00  0.00    -0.424 A  
HETATM   39  C   UNL     1     -12.920  13.573  70.940  1.00  0.00    -0.154 A  
ENDBRANCH  28  31
ENDBRANCH   5  28
ENDBRANCH   4   5
TORSDOF 11
ENDMDL
MODEL      275
REMARK 921   NORMALIZED FREE ENERGY PREDICTED BY IDOCK:   -4.54 KCAL/MOL
REMARK 922        TOTAL FREE ENERGY PREDICTED BY IDOCK:   -9.23 KCAL/MOL
REMARK 923 INTER-LIGAND FREE ENERGY PREDICTED BY IDOCK:   -8.62 KCAL/MOL
REMARK 924 INTRA-LIGAND FREE ENERGY PREDICTED BY IDOCK:   -0.61 KCAL/MOL
REMARK 927      BINDING AFFINITY PREDICTED BY RF-SCORE:    0.00 PKD
ROOT
HETATM    1  C   UNL     1      -6.504  11.033  69.786  1.00  0.00    -0.137 C  
HETATM    2  C   UNL     1      -7.205   9.980  68.926  1.00  0.00    -0.077 C  
HETATM    3  C   UNL     1      -6.119   9.151  68.210  1.00  0.00    -0.053 C  
HETATM    4  C   UNL     1      -8.116   9.035  69.733  1.00  0.00    -0.109 C  
ENDROOT
BRANCH   4   5
HETATM    5  N   UNL     1      -9.253   9.671  70.526  1.00  0.00    -0.220 N  
BRANCH   5   6
HETATM    6  C   UNL     1     -10.447  10.062  69.622  1.00  0.00    -0.248 C  
BRANCH   6   7
HETATM    7  C   UNL     1     -10.154  11.094  68.478  1.00  0.00    -0.201 C  
HETATM    8  H   UNL     1     -10.228  11.087  66.525  1.00  0.00     0.000 HD 
HETATM    9  O   UNL     1     -10.405  10.462  67.218  1.00  0.00    -0.202 OA 
BRANCH   7  10
HETATM   10  C   UNL     1     -10.954  12.441  68.631  1.00  0.00    -0.247 C  
BRANCH  10  11
HETATM   11  N   UNL     1     -10.083  13.634  68.641  1.00  0.00    -0.331 N  
HETATM   12  O   UNL     1     -11.419  14.835  70.065  1.00  0.00    -0.257 OA 
HETATM   13  H   UNL     1      -9.220  13.630  68.098  1.00  0.00     0.000 HD 
HETATM   14  C   UNL     1     -10.419  14.749  69.369  1.00  0.00    -0.199 C  
BRANCH  14  15
HETATM   15  O   UNL     1      -9.513  15.755  69.199  1.00  0.00    -0.220 OA 
BRANCH  15  16
HETATM   16  C   UNL     1      -9.502  16.308  67.869  1.00  0.00    -0.218 C  
HETATM   17  C   UNL     1     -10.105  17.697  67.828  1.00  0.00    -0.338 C  
HETATM   18  O   UNL     1      -8.134  17.764  66.539  1.00  0.00    -0.243 OA 
HETATM   19  C   UNL     1      -9.462  18.293  66.595  1.00  0.00    -0.308 C  
HETATM   20  C   UNL     1      -8.098  16.561  67.324  1.00  0.00    -0.168 C  
ENDBRANCH  15  16
ENDBRANCH  14  15
ENDBRANCH  10  11
BRANCH  10  21
HETATM   21  C   UNL     1     -12.188  12.626  67.708  1.00  0.00     0.060 C  
BRANCH  21  22
HETATM   22  C   UNL     1     -12.013  12.985  66.246  1.00  0.00    -0.477 A  
HETATM   23  C   UNL     1     -11.971  12.300  63.910  1.00  0.00    -0.582 A  
HETATM   24  C   UNL     1     -11.946  11.979  65.271  1.00  0.00    -0.207 A  
HETATM   25  C   UNL     1     -12.048  13.630  63.501  1.00  0.00    -0.341 A  
HETATM   26  C   UNL     1     -12.075  14.322  65.817  1.00  0.00    -0.414 A  
HETATM   27  C   UNL     1     -12.092  14.641  64.455  1.00  0.00    -0.490 A  
ENDBRANCH  21  22
ENDBRANCH  10  21
ENDBRANCH   7  10
ENDBRANCH   6   7
ENDBRANCH   5   6
BRANCH   5  28
HETATM   28  S   UNL     1      -9.773   8.599  71.823  1.00  0.00    -0.311 S  
HETATM   29  O   UNL     1      -8.824   8.669  72.909  1.00  0.00    -0.367 OA 
HETATM   30  O   UNL     1     -11.176   8.902  72.043  1.00  0.00    -0.353 OA 
BRANCH  28  31
HETATM   31  C   UNL     1      -9.670   6.956  71.167  1.00  0.00    -0.173 A  
HETATM   32  N   UNL     1      -9.476   3.039  69.654  1.00  0.00    -0.141 NA 
HETATM   33  H2  UNL     1      -9.692   2.431  70.444  1.00  0.00     0.000 HD 
HETATM   34  H1  UNL     1     -10.057   2.758  68.865  1.00  0.00     0.000 HD 
HETATM   35  C   UNL     1      -8.764   6.045  71.712  1.00  0.00    -0.138 A  
HETATM   36  C   UNL     1      -8.686   4.749  71.184  1.00  0.00    -0.138 A  
HETATM   37  C   UNL     1     -10.538   6.554  70.143  1.00  0.00    -0.277 A  
HETATM   38  C   UNL     1     -10.454   5.256  69.630  1.00  0.00    -0.320 A  
HETATM   39  C   UNL     1      -9.486   4.364  70.101  1.00  0.00    -0.175 A  
ENDBRANCH  28  31
ENDBRANCH   5  28
ENDBRANCH   4   5
TORSDOF 11
ENDMDL
MODEL      276
REMARK 921   NORMALIZED FREE ENERGY PREDICTED BY IDOCK:   -4.53 KCAL/MOL
REMARK 922        TOTAL FREE ENERGY PREDICTED BY IDOCK:   -9.21 KCAL/MOL
REMARK 923 INTER-LIGAND FREE ENERGY PREDICTED BY IDOCK:   -8.88 KCAL/MOL
REMARK 924 INTRA-LIGAND FREE ENERGY PREDICTED BY IDOCK:   -0.33 KCAL/MOL
REMARK 927      BINDING AFFINITY PREDICTED BY RF-SCORE:    0.00 PKD
ROOT
HETATM    1  C   UNL     1     -12.652  12.773  64.831  1.00  0.00    -0.541 C  
HETATM    2  C   UNL     1     -11.232  12.472  65.315  1.00  0.00    -0.341 C  
HETATM    3  C   UNL     1     -10.290  12.536  64.097  1.00  0.00    -0.416 C  
HETATM    4  C   UNL     1     -10.733  13.450  66.397  1.00  0.00    -0.286 C  
ENDROOT
BRANCH   4   5
HETATM    5  N   UNL     1     -11.544  13.540  67.685  1.00  0.00    -0.318 N  
BRANCH   5   6
HETATM    6  C   UNL     1     -11.417  12.260  68.545  1.00  0.00    -0.303 C  
BRANCH   6   7
HETATM    7  C   UNL     1     -10.316  11.229  68.113  1.00  0.00    -0.186 C  
HETATM    8  H   UNL     1      -8.441  10.905  68.556  1.00  0.00     0.000 HD 
HETATM    9  O   UNL     1      -9.107  11.530  68.818  1.00  0.00    -0.152 OA 
BRANCH   7  10
HETATM   10  C   UNL     1     -10.753   9.729  68.306  1.00  0.00    -0.233 C  
BRANCH  10  11
HETATM   11  N   UNL     1     -10.345   8.857  67.186  1.00  0.00    -0.271 N  
HETATM   12  O   UNL     1      -8.221   8.512  67.976  1.00  0.00    -0.117 OA 
HETATM   13  H   UNL     1     -11.015   8.644  66.447  1.00  0.00     0.000 HD 
HETATM   14  C   UNL     1      -9.079   8.330  67.125  1.00  0.00    -0.139 C  
BRANCH  14  15
HETATM   15  O   UNL     1      -8.890   7.601  65.988  1.00  0.00    -0.161 OA 
BRANCH  15  16
HETATM   16  C   UNL     1      -8.042   8.246  65.019  1.00  0.00    -0.148 C  
HETATM   17  C   UNL     1      -8.719   9.442  64.381  1.00  0.00    -0.227 C  
HETATM   18  O   UNL     1      -6.519  10.098  64.911  1.00  0.00    -0.119 OA 
HETATM   19  C   UNL     1      -7.542  10.277  63.926  1.00  0.00    -0.084 C  
HETATM   20  C   UNL     1      -6.792   8.881  65.625  1.00  0.00    -0.076 C  
ENDBRANCH  15  16
ENDBRANCH  14  15
ENDBRANCH  10  11
BRANCH  10  21
HETATM   21  C   UNL     1     -10.449   9.089  69.687  1.00  0.00    -0.227 C  
BRANCH  21  22
HETATM   22  C   UNL     1     -11.544   8.923  70.721  1.00  0.00    -0.301 A  
HETATM   23  C   UNL     1     -13.329   9.899  72.059  1.00  0.00    -0.532 A  
HETATM   24  C   UNL     1     -12.198  10.045  71.248  1.00  0.00    -0.498 A  
HETATM   25  C   UNL     1     -13.814   8.630  72.369  1.00  0.00    -0.418 A  
HETATM   26  C   UNL     1     -12.036   7.649  71.055  1.00  0.00    -0.296 A  
HETATM   27  C   UNL     1     -13.162   7.505  71.873  1.00  0.00    -0.291 A  
ENDBRANCH  21  22
ENDBRANCH  10  21
ENDBRANCH   7  10
ENDBRANCH   6   7
ENDBRANCH   5   6
BRANCH   5  28
HETATM   28  S   UNL     1     -11.076  14.965  68.608  1.00  0.00    -0.278 S  
HETATM   29  O   UNL     1     -12.013  16.032  68.345  1.00  0.00    -0.220 OA 
HETATM   30  O   UNL     1     -10.847  14.497  69.963  1.00  0.00    -0.135 OA 
BRANCH  28  31
HETATM   31  C   UNL     1      -9.518  15.485  67.945  1.00  0.00    -0.201 A  
HETATM   32  N   UNL     1      -5.813  16.762  66.422  1.00  0.00    -0.271 NA 
HETATM   33  H2  UNL     1      -5.737  17.745  66.682  1.00  0.00     0.000 HD 
HETATM   34  H1  UNL     1      -4.951  16.291  66.694  1.00  0.00     0.000 HD 
HETATM   35  C   UNL     1      -9.470  16.528  67.017  1.00  0.00    -0.249 A  
HETATM   36  C   UNL     1      -8.233  16.929  66.494  1.00  0.00    -0.320 A  
HETATM   37  C   UNL     1      -8.331  14.891  68.393  1.00  0.00    -0.153 A  
HETATM   38  C   UNL     1      -7.103  15.306  67.868  1.00  0.00    -0.157 A  
HETATM   39  C   UNL     1      -7.049  16.282  66.868  1.00  0.00    -0.211 A  
ENDBRANCH  28  31
ENDBRANCH   5  28
ENDBRANCH   4   5
TORSDOF 11
ENDMDL
MODEL      277
REMARK 921   NORMALIZED FREE ENERGY PREDICTED BY IDOCK:   -4.52 KCAL/MOL
REMARK 922        TOTAL FREE ENERGY PREDICTED BY IDOCK:   -9.20 KCAL/MOL
REMARK 923 INTER-LIGAND FREE ENERGY PREDICTED BY IDOCK:   -7.92 KCAL/MOL
REMARK 924 INTRA-LIGAND FREE ENERGY PREDICTED BY IDOCK:   -1.29 KCAL/MOL
REMARK 927      BINDING AFFINITY PREDICTED BY RF-SCORE:    0.00 PKD
ROOT
HETATM    1  C   UNL     1      -6.231  11.414  70.042  1.00  0.00    -0.148 C  
HETATM    2  C   UNL     1      -6.841  11.123  68.671  1.00  0.00    -0.070 C  
HETATM    3  C   UNL     1      -5.832  10.276  67.870  1.00  0.00    -0.041 C  
HETATM    4  C   UNL     1      -8.187  10.375  68.744  1.00  0.00    -0.128 C  
ENDROOT
BRANCH   4   5
HETATM    5  N   UNL     1      -9.319  11.050  69.511  1.00  0.00     0.192 N  
BRANCH   5   6
HETATM    6  C   UNL     1     -10.229  11.892  68.584  1.00  0.00    -0.191 C  
BRANCH   6   7
HETATM    7  C   UNL     1      -9.523  12.653  67.407  1.00  0.00    -0.189 C  
HETATM    8  H   UNL     1      -9.525  12.537  65.457  1.00  0.00     0.000 HD 
HETATM    9  O   UNL     1      -9.953  12.077  66.169  1.00  0.00    -0.220 OA 
BRANCH   7  10
HETATM   10  C   UNL     1      -9.750  14.210  67.443  1.00  0.00    -0.232 C  
BRANCH  10  11
HETATM   11  N   UNL     1     -10.131  14.710  68.779  1.00  0.00    -0.232 N  
HETATM   12  O   UNL     1     -11.895  15.962  68.020  1.00  0.00    -0.170 OA 
HETATM   13  H   UNL     1      -9.599  14.411  69.597  1.00  0.00     0.000 HD 
HETATM   14  C   UNL     1     -11.189  15.570  68.938  1.00  0.00    -0.304 C  
BRANCH  14  15
HETATM   15  O   UNL     1     -11.339  15.954  70.238  1.00  0.00    -0.315 OA 
BRANCH  15  16
HETATM   16  C   UNL     1     -11.654  14.868  71.131  1.00  0.00    -0.298 C  
HETATM   17  C   UNL     1     -11.943  15.356  72.536  1.00  0.00    -0.549 C  
HETATM   18  O   UNL     1     -13.598  13.765  72.006  1.00  0.00    -0.401 OA 
HETATM   19  C   UNL     1     -12.803  14.244  73.095  1.00  0.00    -0.296 C  
HETATM   20  C   UNL     1     -12.951  14.143  70.779  1.00  0.00    -0.271 C  
ENDBRANCH  15  16
ENDBRANCH  14  15
ENDBRANCH  10  11
BRANCH  10  21
HETATM   21  C   UNL     1      -8.655  15.088  66.781  1.00  0.00    -0.279 C  
BRANCH  21  22
HETATM   22  C   UNL     1      -7.575  15.742  67.620  1.00  0.00    -0.177 A  
HETATM   23  C   UNL     1      -5.389  15.624  68.684  1.00  0.00    -0.093 A  
HETATM   24  C   UNL     1      -6.477  14.996  68.070  1.00  0.00    -0.159 A  
HETATM   25  C   UNL     1      -5.387  17.005  68.872  1.00  0.00    -0.141 A  
HETATM   26  C   UNL     1      -7.566  17.131  67.831  1.00  0.00    -0.180 A  
HETATM   27  C   UNL     1      -6.480  17.757  68.452  1.00  0.00    -0.199 A  
ENDBRANCH  21  22
ENDBRANCH  10  21
ENDBRANCH   7  10
ENDBRANCH   6   7
ENDBRANCH   5   6
BRANCH   5  28
HETATM   28  S   UNL     1     -10.262   9.854  70.395  1.00  0.00    -0.161 S  
HETATM   29  O   UNL     1      -9.485   9.364  71.509  1.00  0.00    -0.259 OA 
HETATM   30  O   UNL     1     -11.564  10.460  70.608  1.00  0.00    -0.305 OA 
BRANCH  28  31
HETATM   31  C   UNL     1     -10.475   8.487  69.289  1.00  0.00    -0.215 A  
HETATM   32  N   UNL     1     -11.048   5.252  66.665  1.00  0.00    -0.376 NA 
HETATM   33  H2  UNL     1     -11.934   4.831  66.943  1.00  0.00     0.000 HD 
HETATM   34  H1  UNL     1     -11.065   5.400  65.656  1.00  0.00     0.000 HD 
HETATM   35  C   UNL     1     -10.589   7.192  69.797  1.00  0.00    -0.250 A  
HETATM   36  C   UNL     1     -10.752   6.116  68.914  1.00  0.00    -0.376 A  
HETATM   37  C   UNL     1     -10.588   8.711  67.910  1.00  0.00    -0.223 A  
HETATM   38  C   UNL     1     -10.758   7.629  67.041  1.00  0.00    -0.340 A  
HETATM   39  C   UNL     1     -10.776   6.319  67.529  1.00  0.00    -0.319 A  
ENDBRANCH  28  31
ENDBRANCH   5  28
ENDBRANCH   4   5
TORSDOF 11
ENDMDL
MODEL      278
REMARK 921   NORMALIZED FREE ENERGY PREDICTED BY IDOCK:   -4.52 KCAL/MOL
REMARK 922        TOTAL FREE ENERGY PREDICTED BY IDOCK:   -9.19 KCAL/MOL
REMARK 923 INTER-LIGAND FREE ENERGY PREDICTED BY IDOCK:   -7.56 KCAL/MOL
REMARK 924 INTRA-LIGAND FREE ENERGY PREDICTED BY IDOCK:   -1.62 KCAL/MOL
REMARK 927      BINDING AFFINITY PREDICTED BY RF-SCORE:    0.00 PKD
ROOT
HETATM    1  C   UNL     1     -11.896  11.991  64.220  1.00  0.00    -0.431 C  
HETATM    2  C   UNL     1     -10.757  10.972  64.260  1.00  0.00    -0.348 C  
HETATM    3  C   UNL     1      -9.673  11.429  63.264  1.00  0.00    -0.413 C  
HETATM    4  C   UNL     1     -10.128  10.809  65.658  1.00  0.00    -0.267 C  
ENDROOT
BRANCH   4   5
HETATM    5  N   UNL     1     -11.049  10.370  66.791  1.00  0.00    -0.055 N  
BRANCH   5   6
HETATM    6  C   UNL     1     -10.718   8.944  67.292  1.00  0.00    -0.149 C  
BRANCH   6   7
HETATM    7  C   UNL     1      -9.258   8.429  67.035  1.00  0.00    -0.151 C  
HETATM    8  H   UNL     1      -7.468   8.915  67.650  1.00  0.00     0.000 HD 
HETATM    9  O   UNL     1      -8.352   9.226  67.806  1.00  0.00    -0.115 OA 
BRANCH   7  10
HETATM   10  C   UNL     1      -9.078   6.892  67.319  1.00  0.00    -0.124 C  
BRANCH  10  11
HETATM   11  N   UNL     1      -8.888   6.584  68.751  1.00  0.00    -0.126 N  
HETATM   12  O   UNL     1      -6.687   5.985  68.529  1.00  0.00    -0.056 OA 
HETATM   13  H   UNL     1      -9.668   6.706  69.397  1.00  0.00     0.000 HD 
HETATM   14  C   UNL     1      -7.680   6.137  69.225  1.00  0.00    -0.099 C  
BRANCH  14  15
HETATM   15  O   UNL     1      -7.732   5.861  70.559  1.00  0.00    -0.095 OA 
BRANCH  15  16
HETATM   16  C   UNL     1      -8.242   6.945  71.358  1.00  0.00    -0.110 C  
HETATM   17  C   UNL     1      -8.398   6.552  72.813  1.00  0.00    -0.116 C  
HETATM   18  O   UNL     1      -7.395   8.684  72.780  1.00  0.00    -0.316 OA 
HETATM   19  C   UNL     1      -8.327   7.888  73.520  1.00  0.00    -0.216 C  
HETATM   20  C   UNL     1      -7.288   8.134  71.456  1.00  0.00    -0.080 C  
ENDBRANCH  15  16
ENDBRANCH  14  15
ENDBRANCH  10  11
BRANCH  10  21
HETATM   21  C   UNL     1     -10.099   5.936  66.646  1.00  0.00    -0.229 C  
BRANCH  21  22
HETATM   22  C   UNL     1      -9.633   4.849  65.698  1.00  0.00    -0.168 A  
HETATM   23  C   UNL     1      -7.989   3.157  65.096  1.00  0.00    -0.082 A  
HETATM   24  C   UNL     1      -8.359   4.281  65.841  1.00  0.00    -0.109 A  
HETATM   25  C   UNL     1      -8.880   2.591  64.185  1.00  0.00    -0.098 A  
HETATM   26  C   UNL     1     -10.514   4.277  64.764  1.00  0.00    -0.158 A  
HETATM   27  C   UNL     1     -10.139   3.157  64.014  1.00  0.00    -0.175 A  
ENDBRANCH  21  22
ENDBRANCH  10  21
ENDBRANCH   7  10
ENDBRANCH   6   7
ENDBRANCH   5   6
BRANCH   5  28
HETATM   28  S   UNL     1     -10.989  11.529  68.116  1.00  0.00    -0.249 S  
HETATM   29  O   UNL     1      -9.616  11.904  68.358  1.00  0.00    -0.203 OA 
HETATM   30  O   UNL     1     -11.989  12.534  67.805  1.00  0.00    -0.386 OA 
BRANCH  28  31
HETATM   31  C   UNL     1     -11.533  10.651  69.556  1.00  0.00    -0.291 A  
HETATM   32  N   UNL     1     -12.830   8.512  72.935  1.00  0.00    -0.677 NA 
HETATM   33  H2  UNL     1     -13.483   7.814  72.580  1.00  0.00     0.000 HD 
HETATM   34  H1  UNL     1     -12.157   8.043  73.541  1.00  0.00     0.000 HD 
HETATM   35  C   UNL     1     -12.890  10.626  69.884  1.00  0.00     0.038 A  
HETATM   36  C   UNL     1     -13.311   9.933  71.027  1.00  0.00    -0.322 A  
HETATM   37  C   UNL     1     -10.611   9.935  70.331  1.00  0.00    -0.364 A  
HETATM   38  C   UNL     1     -11.046   9.242  71.465  1.00  0.00    -0.443 A  
HETATM   39  C   UNL     1     -12.387   9.289  71.859  1.00  0.00    -0.382 A  
ENDBRANCH  28  31
ENDBRANCH   5  28
ENDBRANCH   4   5
TORSDOF 11
ENDMDL
MODEL      279
REMARK 921   NORMALIZED FREE ENERGY PREDICTED BY IDOCK:   -4.51 KCAL/MOL
REMARK 922        TOTAL FREE ENERGY PREDICTED BY IDOCK:   -9.18 KCAL/MOL
REMARK 923 INTER-LIGAND FREE ENERGY PREDICTED BY IDOCK:   -8.35 KCAL/MOL
REMARK 924 INTRA-LIGAND FREE ENERGY PREDICTED BY IDOCK:   -0.83 KCAL/MOL
REMARK 927      BINDING AFFINITY PREDICTED BY RF-SCORE:    0.00 PKD
ROOT
HETATM    1  C   UNL     1      -9.460   4.528  69.323  1.00  0.00    -0.242 C  
HETATM    2  C   UNL     1      -9.587   4.728  70.833  1.00  0.00    -0.245 C  
HETATM    3  C   UNL     1      -8.811   3.593  71.531  1.00  0.00    -0.140 C  
HETATM    4  C   UNL     1      -9.048   6.088  71.320  1.00  0.00    -0.143 C  
ENDROOT
BRANCH   4   5
HETATM    5  N   UNL     1      -9.685   7.342  70.732  1.00  0.00    -0.172 N  
BRANCH   5   6
HETATM    6  C   UNL     1      -9.514   7.417  69.195  1.00  0.00    -0.149 C  
BRANCH   6   7
HETATM    7  C   UNL     1      -8.403   8.385  68.658  1.00  0.00    -0.120 C  
HETATM    8  H   UNL     1      -6.449   8.406  68.629  1.00  0.00     0.000 HD 
HETATM    9  O   UNL     1      -7.121   7.819  68.955  1.00  0.00    -0.071 OA 
BRANCH   7  10
HETATM   10  C   UNL     1      -8.556   8.727  67.129  1.00  0.00    -0.117 C  
BRANCH  10  11
HETATM   11  N   UNL     1      -8.714  10.172  66.870  1.00  0.00    -0.129 N  
HETATM   12  O   UNL     1     -10.164   9.897  65.116  1.00  0.00    -0.249 OA 
HETATM   13  H   UNL     1      -8.218  10.844  67.457  1.00  0.00     0.000 HD 
HETATM   14  C   UNL     1      -9.516  10.626  65.853  1.00  0.00    -0.196 C  
BRANCH  14  15
HETATM   15  O   UNL     1      -9.480  11.985  65.749  1.00  0.00    -0.236 OA 
BRANCH  15  16
HETATM   16  C   UNL     1     -10.637  12.549  65.101  1.00  0.00    -0.293 C  
HETATM   17  C   UNL     1     -11.789  12.743  66.066  1.00  0.00    -0.495 C  
HETATM   18  O   UNL     1     -11.640  14.704  64.769  1.00  0.00    -0.386 OA 
HETATM   19  C   UNL     1     -12.590  13.839  65.399  1.00  0.00    -0.497 C  
HETATM   20  C   UNL     1     -10.418  13.971  64.587  1.00  0.00    -0.373 C  
ENDBRANCH  15  16
ENDBRANCH  14  15
ENDBRANCH  10  11
BRANCH  10  21
HETATM   21  C   UNL     1      -7.534   8.068  66.164  1.00  0.00    -0.075 C  
BRANCH  21  22
HETATM   22  C   UNL     1      -7.974   6.996  65.187  1.00  0.00    -0.128 A  
HETATM   23  C   UNL     1      -8.202   6.219  62.891  1.00  0.00    -0.026 A  
HETATM   24  C   UNL     1      -7.978   7.251  63.808  1.00  0.00    -0.078 A  
HETATM   25  C   UNL     1      -8.440   4.920  63.336  1.00  0.00    -0.124 A  
HETATM   26  C   UNL     1      -8.231   5.684  65.621  1.00  0.00    -0.126 A  
HETATM   27  C   UNL     1      -8.462   4.655  64.701  1.00  0.00    -0.135 A  
ENDBRANCH  21  22
ENDBRANCH  10  21
ENDBRANCH   7  10
ENDBRANCH   6   7
ENDBRANCH   5   6
BRANCH   5  28
HETATM   28  S   UNL     1     -11.386   7.435  71.178  1.00  0.00    -0.276 S  
HETATM   29  O   UNL     1     -12.180   6.786  70.160  1.00  0.00    -0.234 OA 
HETATM   30  O   UNL     1     -11.454   7.000  72.561  1.00  0.00    -0.266 OA 
BRANCH  28  31
HETATM   31  C   UNL     1     -11.809   9.154  71.129  1.00  0.00    -0.307 A  
HETATM   32  N   UNL     1     -12.865  13.221  70.971  1.00  0.00    -0.275 NA 
HETATM   33  H2  UNL     1     -13.224  13.371  70.029  1.00  0.00     0.000 HD 
HETATM   34  H1  UNL     1     -13.534  13.608  71.636  1.00  0.00     0.000 HD 
HETATM   35  C   UNL     1     -11.200   9.994  70.195  1.00  0.00    -0.367 A  
HETATM   36  C   UNL     1     -11.538  11.354  70.167  1.00  0.00    -0.368 A  
HETATM   37  C   UNL     1     -12.796   9.658  71.987  1.00  0.00    -0.497 A  
HETATM   38  C   UNL     1     -13.128  11.016  71.943  1.00  0.00    -0.525 A  
HETATM   39  C   UNL     1     -12.457  11.887  71.079  1.00  0.00    -0.290 A  
ENDBRANCH  28  31
ENDBRANCH   5  28
ENDBRANCH   4   5
TORSDOF 11
ENDMDL
MODEL      280
REMARK 921   NORMALIZED FREE ENERGY PREDICTED BY IDOCK:   -4.50 KCAL/MOL
REMARK 922        TOTAL FREE ENERGY PREDICTED BY IDOCK:   -9.17 KCAL/MOL
REMARK 923 INTER-LIGAND FREE ENERGY PREDICTED BY IDOCK:   -7.68 KCAL/MOL
REMARK 924 INTRA-LIGAND FREE ENERGY PREDICTED BY IDOCK:   -1.49 KCAL/MOL
REMARK 927      BINDING AFFINITY PREDICTED BY RF-SCORE:    0.00 PKD
ROOT
HETATM    1  C   UNL     1      -6.591   6.585  66.722  1.00  0.00    -0.048 C  
HETATM    2  C   UNL     1      -7.716   7.598  66.506  1.00  0.00    -0.097 C  
HETATM    3  C   UNL     1      -8.355   7.313  65.132  1.00  0.00    -0.081 C  
HETATM    4  C   UNL     1      -8.805   7.547  67.595  1.00  0.00    -0.128 C  
ENDROOT
BRANCH   4   5
HETATM    5  N   UNL     1      -8.366   7.793  69.034  1.00  0.00    -0.130 N  
BRANCH   5   6
HETATM    6  C   UNL     1      -8.905   9.135  69.586  1.00  0.00    -0.151 C  
BRANCH   6   7
HETATM    7  C   UNL     1      -8.017  10.405  69.341  1.00  0.00    -0.157 C  
HETATM    8  H   UNL     1      -6.105  10.806  69.352  1.00  0.00     0.000 HD 
HETATM    9  O   UNL     1      -6.642  10.037  69.500  1.00  0.00    -0.046 OA 
BRANCH   7  10
HETATM   10  C   UNL     1      -8.285  11.097  67.953  1.00  0.00    -0.121 C  
BRANCH  10  11
HETATM   11  N   UNL     1      -9.665  11.602  67.813  1.00  0.00    -0.170 N  
HETATM   12  O   UNL     1     -10.135  10.364  65.942  1.00  0.00    -0.247 OA 
HETATM   13  H   UNL     1     -10.025  12.274  68.492  1.00  0.00     0.000 HD 
HETATM   14  C   UNL     1     -10.472  11.181  66.785  1.00  0.00    -0.252 C  
BRANCH  14  15
HETATM   15  O   UNL     1     -11.684  11.806  66.806  1.00  0.00    -0.555 OA 
BRANCH  15  16
HETATM   16  C   UNL     1     -11.750  12.973  65.964  1.00  0.00    -0.393 C  
HETATM   17  C   UNL     1     -11.649  14.256  66.763  1.00  0.00    -0.407 C  
HETATM   18  O   UNL     1     -10.245  14.502  64.887  1.00  0.00    -0.405 OA 
HETATM   19  C   UNL     1     -11.131  15.239  65.736  1.00  0.00    -0.301 C  
HETATM   20  C   UNL     1     -10.566  13.106  65.008  1.00  0.00    -0.332 C  
ENDBRANCH  15  16
ENDBRANCH  14  15
ENDBRANCH  10  11
BRANCH  10  21
HETATM   21  C   UNL     1      -7.232  12.135  67.479  1.00  0.00    -0.133 C  
BRANCH  21  22
HETATM   22  C   UNL     1      -7.211  13.535  68.060  1.00  0.00    -0.125 A  
HETATM   23  C   UNL     1      -6.251  15.145  69.613  1.00  0.00    -0.135 A  
HETATM   24  C   UNL     1      -6.423  13.826  69.183  1.00  0.00    -0.109 A  
HETATM   25  C   UNL     1      -6.875  16.193  68.939  1.00  0.00    -0.152 A  
HETATM   26  C   UNL     1      -7.846  14.601  67.400  1.00  0.00    -0.225 A  
HETATM   27  C   UNL     1      -7.679  15.919  67.837  1.00  0.00    -0.146 A  
ENDBRANCH  21  22
ENDBRANCH  10  21
ENDBRANCH   7  10
ENDBRANCH   6   7
ENDBRANCH   5   6
BRANCH   5  28
HETATM   28  S   UNL     1      -8.853   6.451  70.065  1.00  0.00    -0.143 S  
HETATM   29  O   UNL     1      -9.114   5.291  69.245  1.00  0.00    -0.105 OA 
HETATM   30  O   UNL     1      -7.870   6.399  71.132  1.00  0.00    -0.109 OA 
BRANCH  28  31
HETATM   31  C   UNL     1     -10.404   6.923  70.779  1.00  0.00    -0.203 A  
HETATM   32  N   UNL     1     -14.084   7.987  72.512  1.00  0.00    -0.579 NA 
HETATM   33  H2  UNL     1     -14.567   7.106  72.684  1.00  0.00     0.000 HD 
HETATM   34  H1  UNL     1     -14.113   8.542  73.367  1.00  0.00     0.000 HD 
HETATM   35  C   UNL     1     -11.597   6.562  70.152  1.00  0.00    -0.466 A  
HETATM   36  C   UNL     1     -12.819   6.943  70.722  1.00  0.00    -0.033 A  
HETATM   37  C   UNL     1     -10.433   7.608  72.002  1.00  0.00    -0.258 A  
HETATM   38  C   UNL     1     -11.660   7.976  72.562  1.00  0.00    -0.464 A  
HETATM   39  C   UNL     1     -12.859   7.705  71.896  1.00  0.00    -0.282 A  
ENDBRANCH  28  31
ENDBRANCH   5  28
ENDBRANCH   4   5
TORSDOF 11
ENDMDL
MODEL      281
REMARK 921   NORMALIZED FREE ENERGY PREDICTED BY IDOCK:   -4.49 KCAL/MOL
REMARK 922        TOTAL FREE ENERGY PREDICTED BY IDOCK:   -9.15 KCAL/MOL
REMARK 923 INTER-LIGAND FREE ENERGY PREDICTED BY IDOCK:   -8.00 KCAL/MOL
REMARK 924 INTRA-LIGAND FREE ENERGY PREDICTED BY IDOCK:   -1.15 KCAL/MOL
REMARK 927      BINDING AFFINITY PREDICTED BY RF-SCORE:    0.00 PKD
ROOT
HETATM    1  C   UNL     1     -10.585   6.242  66.753  1.00  0.00    -0.335 C  
HETATM    2  C   UNL     1      -9.086   6.221  66.450  1.00  0.00    -0.164 C  
HETATM    3  C   UNL     1      -8.823   5.099  65.426  1.00  0.00    -0.153 C  
HETATM    4  C   UNL     1      -8.554   7.555  65.892  1.00  0.00    -0.151 C  
ENDROOT
BRANCH   4   5
HETATM    5  N   UNL     1      -8.732   8.796  66.760  1.00  0.00    -0.121 N  
BRANCH   5   6
HETATM    6  C   UNL     1      -7.631   8.913  67.842  1.00  0.00    -0.093 C  
BRANCH   6   7
HETATM    7  C   UNL     1      -7.455   7.686  68.803  1.00  0.00    -0.100 C  
HETATM    8  H   UNL     1      -5.992   6.490  69.303  1.00  0.00     0.000 HD 
HETATM    9  O   UNL     1      -6.099   7.233  68.721  1.00  0.00    -0.025 OA 
BRANCH   7  10
HETATM   10  C   UNL     1      -7.887   7.986  70.286  1.00  0.00    -0.088 C  
BRANCH  10  11
HETATM   11  N   UNL     1      -9.201   8.653  70.384  1.00  0.00    -0.162 N  
HETATM   12  O   UNL     1      -9.176   8.793  72.672  1.00  0.00    -0.327 OA 
HETATM   13  H   UNL     1      -9.720   8.867  69.532  1.00  0.00     0.000 HD 
HETATM   14  C   UNL     1      -9.735   8.989  71.604  1.00  0.00    -0.276 C  
BRANCH  14  15
HETATM   15  O   UNL     1     -10.975   9.543  71.477  1.00  0.00    -0.364 OA 
BRANCH  15  16
HETATM   16  C   UNL     1     -12.024   8.766  72.085  1.00  0.00    -0.366 C  
HETATM   17  C   UNL     1     -13.336   9.522  72.131  1.00  0.00    -0.545 C  
HETATM   18  O   UNL     1     -13.827   7.335  71.405  1.00  0.00    -0.394 OA 
HETATM   19  C   UNL     1     -14.353   8.404  72.198  1.00  0.00    -0.427 C  
HETATM   20  C   UNL     1     -12.407   7.523  71.284  1.00  0.00    -0.327 C  
ENDBRANCH  15  16
ENDBRANCH  14  15
ENDBRANCH  10  11
BRANCH  10  21
HETATM   21  C   UNL     1      -7.746   6.820  71.301  1.00  0.00    -0.093 C  
BRANCH  21  22
HETATM   22  C   UNL     1      -8.533   5.538  71.119  1.00  0.00    -0.126 A  
HETATM   23  C   UNL     1      -9.134   3.625  69.739  1.00  0.00    -0.193 A  
HETATM   24  C   UNL     1      -8.568   4.897  69.873  1.00  0.00    -0.102 A  
HETATM   25  C   UNL     1      -9.687   2.979  70.843  1.00  0.00    -0.155 A  
HETATM   26  C   UNL     1      -9.109   4.881  72.220  1.00  0.00    -0.146 A  
HETATM   27  C   UNL     1      -9.681   3.612  72.082  1.00  0.00    -0.231 A  
ENDBRANCH  21  22
ENDBRANCH  10  21
ENDBRANCH   7  10
ENDBRANCH   6   7
ENDBRANCH   5   6
BRANCH   5  28
HETATM   28  S   UNL     1      -8.786  10.244  65.760  1.00  0.00    -0.163 S  
HETATM   29  O   UNL     1      -7.445  10.754  65.590  1.00  0.00    -0.125 OA 
HETATM   30  O   UNL     1      -9.599   9.897  64.610  1.00  0.00    -0.299 OA 
BRANCH  28  31
HETATM   31  C   UNL     1      -9.670  11.455  66.704  1.00  0.00    -0.200 A  
HETATM   32  N   UNL     1     -11.772  14.368  68.888  1.00  0.00    -0.303 NA 
HETATM   33  H2  UNL     1     -11.482  15.263  68.495  1.00  0.00     0.000 HD 
HETATM   34  H1  UNL     1     -12.791  14.350  68.929  1.00  0.00     0.000 HD 
HETATM   35  C   UNL     1      -8.969  12.424  67.424  1.00  0.00    -0.185 A  
HETATM   36  C   UNL     1      -9.677  13.375  68.171  1.00  0.00    -0.226 A  
HETATM   37  C   UNL     1     -11.071  11.476  66.681  1.00  0.00    -0.355 A  
HETATM   38  C   UNL     1     -11.765  12.435  67.425  1.00  0.00    -0.417 A  
HETATM   39  C   UNL     1     -11.076  13.350  68.227  1.00  0.00    -0.262 A  
ENDBRANCH  28  31
ENDBRANCH   5  28
ENDBRANCH   4   5
TORSDOF 11
ENDMDL
MODEL      282
REMARK 921   NORMALIZED FREE ENERGY PREDICTED BY IDOCK:   -4.48 KCAL/MOL
REMARK 922        TOTAL FREE ENERGY PREDICTED BY IDOCK:   -9.13 KCAL/MOL
REMARK 923 INTER-LIGAND FREE ENERGY PREDICTED BY IDOCK:   -8.60 KCAL/MOL
REMARK 924 INTRA-LIGAND FREE ENERGY PREDICTED BY IDOCK:   -0.53 KCAL/MOL
REMARK 927      BINDING AFFINITY PREDICTED BY RF-SCORE:    0.00 PKD
ROOT
HETATM    1  C   UNL     1      -9.301  14.168  66.343  1.00  0.00    -0.254 C  
HETATM    2  C   UNL     1     -10.457  13.301  65.843  1.00  0.00    -0.289 C  
HETATM    3  C   UNL     1     -11.121  14.030  64.657  1.00  0.00    -0.387 C  
HETATM    4  C   UNL     1     -10.020  11.893  65.394  1.00  0.00    -0.252 C  
ENDROOT
BRANCH   4   5
HETATM    5  N   UNL     1      -9.329  11.014  66.430  1.00  0.00    -0.178 N  
BRANCH   5   6
HETATM    6  C   UNL     1     -10.343  10.261  67.325  1.00  0.00    -0.232 C  
BRANCH   6   7
HETATM    7  C   UNL     1     -11.189  11.133  68.318  1.00  0.00    -0.279 C  
HETATM    8  H   UNL     1     -12.875  12.117  68.237  1.00  0.00     0.000 HD 
HETATM    9  O   UNL     1     -12.363  11.589  67.636  1.00  0.00    -0.273 OA 
BRANCH   7  10
HETATM   10  C   UNL     1     -11.538  10.392  69.661  1.00  0.00    -0.239 C  
BRANCH  10  11
HETATM   11  N   UNL     1     -10.365  10.197  70.538  1.00  0.00    -0.407 N  
HETATM   12  O   UNL     1     -10.121   7.972  70.041  1.00  0.00    -0.190 OA 
HETATM   13  H   UNL     1      -9.996  10.988  71.066  1.00  0.00     0.000 HD 
HETATM   14  C   UNL     1      -9.763   8.968  70.652  1.00  0.00    -0.234 C  
BRANCH  14  15
HETATM   15  O   UNL     1      -8.736   8.990  71.550  1.00  0.00    -0.304 OA 
BRANCH  15  16
HETATM   16  C   UNL     1      -8.964   8.172  72.713  1.00  0.00    -0.246 C  
HETATM   17  C   UNL     1     -10.439   7.926  72.954  1.00  0.00    -0.422 C  
HETATM   18  O   UNL     1      -9.342   5.861  73.240  1.00  0.00    -0.136 OA 
HETATM   19  C   UNL     1     -10.428   6.640  73.751  1.00  0.00    -0.333 C  
HETATM   20  C   UNL     1      -8.429   6.748  72.574  1.00  0.00    -0.118 C  
ENDBRANCH  15  16
ENDBRANCH  14  15
ENDBRANCH  10  11
BRANCH  10  21
HETATM   21  C   UNL     1     -12.771  10.915  70.444  1.00  0.00    -0.326 C  
BRANCH  21  22
HETATM   22  C   UNL     1     -12.856  12.366  70.876  1.00  0.00    -0.176 A  
HETATM   23  C   UNL     1     -13.464  14.021  72.554  1.00  0.00    -0.661 A  
HETATM   24  C   UNL     1     -13.536  12.718  72.049  1.00  0.00    -0.460 A  
HETATM   25  C   UNL     1     -12.725  14.995  71.886  1.00  0.00    -0.407 A  
HETATM   26  C   UNL     1     -12.127  13.363  70.205  1.00  0.00    -0.415 A  
HETATM   27  C   UNL     1     -12.063  14.667  70.707  1.00  0.00    -0.387 A  
ENDBRANCH  21  22
ENDBRANCH  10  21
ENDBRANCH   7  10
ENDBRANCH   6   7
ENDBRANCH   5   6
BRANCH   5  28
HETATM   28  S   UNL     1      -8.229   9.886  65.644  1.00  0.00    -0.144 S  
HETATM   29  O   UNL     1      -8.955   9.124  64.655  1.00  0.00    -0.192 OA 
HETATM   30  O   UNL     1      -7.065  10.669  65.270  1.00  0.00    -0.089 OA 
BRANCH  28  31
HETATM   31  C   UNL     1      -7.730   8.738  66.898  1.00  0.00    -0.094 A  
HETATM   32  N   UNL     1      -6.489   6.003  69.840  1.00  0.00    -0.040 NA 
HETATM   33  H2  UNL     1      -5.964   5.286  69.339  1.00  0.00     0.000 HD 
HETATM   34  H1  UNL     1      -5.931   6.314  70.634  1.00  0.00     0.000 HD 
HETATM   35  C   UNL     1      -8.129   7.403  66.817  1.00  0.00    -0.123 A  
HETATM   36  C   UNL     1      -7.733   6.503  67.816  1.00  0.00    -0.107 A  
HETATM   37  C   UNL     1      -6.888   9.157  67.937  1.00  0.00    -0.069 A  
HETATM   38  C   UNL     1      -6.496   8.247  68.924  1.00  0.00    -0.052 A  
HETATM   39  C   UNL     1      -6.967   6.931  68.908  1.00  0.00    -0.082 A  
ENDBRANCH  28  31
ENDBRANCH   5  28
ENDBRANCH   4   5
TORSDOF 11
ENDMDL
MODEL      283
REMARK 921   NORMALIZED FREE ENERGY PREDICTED BY IDOCK:   -4.45 KCAL/MOL
REMARK 922        TOTAL FREE ENERGY PREDICTED BY IDOCK:   -9.08 KCAL/MOL
REMARK 923 INTER-LIGAND FREE ENERGY PREDICTED BY IDOCK:   -8.58 KCAL/MOL
REMARK 924 INTRA-LIGAND FREE ENERGY PREDICTED BY IDOCK:   -0.50 KCAL/MOL
REMARK 927      BINDING AFFINITY PREDICTED BY RF-SCORE:    0.00 PKD
ROOT
HETATM    1  C   UNL     1      -6.260   9.564  68.834  1.00  0.00    -0.042 C  
HETATM    2  C   UNL     1      -6.548   8.967  70.212  1.00  0.00    -0.042 C  
HETATM    3  C   UNL     1      -5.433   9.426  71.172  1.00  0.00    -0.055 C  
HETATM    4  C   UNL     1      -7.918   9.379  70.786  1.00  0.00    -0.116 C  
ENDROOT
BRANCH   4   5
HETATM    5  N   UNL     1      -9.154   9.021  69.969  1.00  0.00    -0.163 N  
BRANCH   5   6
HETATM    6  C   UNL     1      -8.822   8.810  68.472  1.00  0.00    -0.138 C  
BRANCH   6   7
HETATM    7  C   UNL     1      -9.705   9.594  67.439  1.00  0.00    -0.156 C  
HETATM    8  H   UNL     1     -11.309   9.217  66.389  1.00  0.00     0.000 HD 
HETATM    9  O   UNL     1     -10.775   8.742  67.015  1.00  0.00    -0.262 OA 
BRANCH   7  10
HETATM   10  C   UNL     1     -10.230  10.974  67.984  1.00  0.00    -0.179 C  
BRANCH  10  11
HETATM   11  N   UNL     1      -9.840  12.118  67.136  1.00  0.00    -0.196 N  
HETATM   12  O   UNL     1     -11.285  11.598  65.434  1.00  0.00    -0.279 OA 
HETATM   13  H   UNL     1      -9.133  12.773  67.471  1.00  0.00     0.000 HD 
HETATM   14  C   UNL     1     -10.415  12.315  65.905  1.00  0.00    -0.256 C  
BRANCH  14  15
HETATM   15  O   UNL     1      -9.878  13.393  65.263  1.00  0.00    -0.202 OA 
BRANCH  15  16
HETATM   16  C   UNL     1     -10.379  14.659  65.734  1.00  0.00    -0.332 C  
HETATM   17  C   UNL     1      -9.262  15.580  66.179  1.00  0.00    -0.379 C  
HETATM   18  O   UNL     1     -10.748  16.874  64.887  1.00  0.00    -0.725 OA 
HETATM   19  C   UNL     1      -9.891  16.948  66.031  1.00  0.00    -0.258 C  
HETATM   20  C   UNL     1     -11.056  15.491  64.647  1.00  0.00    -0.359 C  
ENDBRANCH  15  16
ENDBRANCH  14  15
ENDBRANCH  10  11
BRANCH  10  21
HETATM   21  C   UNL     1     -11.725  11.034  68.396  1.00  0.00    -0.329 C  
BRANCH  21  22
HETATM   22  C   UNL     1     -12.139  11.658  69.714  1.00  0.00    -0.357 A  
HETATM   23  C   UNL     1     -12.690  13.642  71.012  1.00  0.00    -0.408 A  
HETATM   24  C   UNL     1     -12.138  13.051  69.871  1.00  0.00    -0.347 A  
HETATM   25  C   UNL     1     -13.238  12.852  72.020  1.00  0.00    -0.549 A  
HETATM   26  C   UNL     1     -12.681  10.873  70.746  1.00  0.00    -0.431 A  
HETATM   27  C   UNL     1     -13.226  11.466  71.891  1.00  0.00    -0.485 A  
ENDBRANCH  21  22
ENDBRANCH  10  21
ENDBRANCH   7  10
ENDBRANCH   6   7
ENDBRANCH   5   6
BRANCH   5  28
HETATM   28  S   UNL     1      -9.945   7.599  70.641  1.00  0.00    -0.182 S  
HETATM   29  O   UNL     1      -9.401   7.326  71.951  1.00  0.00    -0.138 OA 
HETATM   30  O   UNL     1     -11.368   7.819  70.460  1.00  0.00    -0.274 OA 
BRANCH  28  31
HETATM   31  C   UNL     1      -9.470   6.242  69.606  1.00  0.00    -0.146 A  
HETATM   32  N   UNL     1      -8.318   3.067  67.103  1.00  0.00    -0.087 NA 
HETATM   33  H2  UNL     1      -8.418   3.421  66.152  1.00  0.00     0.000 HD 
HETATM   34  H1  UNL     1      -7.394   2.645  67.193  1.00  0.00     0.000 HD 
HETATM   35  C   UNL     1     -10.376   5.724  68.679  1.00  0.00    -0.283 A  
HETATM   36  C   UNL     1      -9.994   4.647  67.867  1.00  0.00    -0.138 A  
HETATM   37  C   UNL     1      -8.168   5.729  69.676  1.00  0.00    -0.108 A  
HETATM   38  C   UNL     1      -7.797   4.659  68.855  1.00  0.00    -0.071 A  
HETATM   39  C   UNL     1      -8.725   4.068  67.991  1.00  0.00    -0.101 A  
ENDBRANCH  28  31
ENDBRANCH   5  28
ENDBRANCH   4   5
TORSDOF 11
ENDMDL
MODEL      284
REMARK 921   NORMALIZED FREE ENERGY PREDICTED BY IDOCK:   -4.44 KCAL/MOL
REMARK 922        TOTAL FREE ENERGY PREDICTED BY IDOCK:   -9.07 KCAL/MOL
REMARK 923 INTER-LIGAND FREE ENERGY PREDICTED BY IDOCK:   -9.70 KCAL/MOL
REMARK 924 INTRA-LIGAND FREE ENERGY PREDICTED BY IDOCK:    0.63 KCAL/MOL
REMARK 927      BINDING AFFINITY PREDICTED BY RF-SCORE:    0.00 PKD
ROOT
HETATM    1  C   UNL     1      -7.710  14.592  68.722  1.00  0.00    -0.137 C  
HETATM    2  C   UNL     1      -9.228  14.690  68.876  1.00  0.00    -0.151 C  
HETATM    3  C   UNL     1      -9.586  16.165  69.145  1.00  0.00    -0.249 C  
HETATM    4  C   UNL     1     -10.004  14.195  67.639  1.00  0.00    -0.233 C  
ENDROOT
BRANCH   4   5
HETATM    5  N   UNL     1      -9.775  12.753  67.202  1.00  0.00    -0.211 N  
BRANCH   5   6
HETATM    6  C   UNL     1      -9.929  11.757  68.377  1.00  0.00    -0.202 C  
BRANCH   6   7
HETATM    7  C   UNL     1     -11.149  10.772  68.308  1.00  0.00    -0.271 C  
HETATM    8  H   UNL     1     -11.396   8.862  67.976  1.00  0.00     0.000 HD 
HETATM    9  O   UNL     1     -10.658   9.458  68.018  1.00  0.00    -0.230 OA 
BRANCH   7  10
HETATM   10  C   UNL     1     -12.044  10.794  69.602  1.00  0.00    -0.289 C  
BRANCH  10  11
HETATM   11  N   UNL     1     -12.256   9.453  70.183  1.00  0.00    -0.379 N  
HETATM   12  O   UNL     1     -10.472   9.580  71.617  1.00  0.00    -0.258 OA 
HETATM   13  H   UNL     1     -13.038   8.883  69.859  1.00  0.00     0.000 HD 
HETATM   14  C   UNL     1     -11.418   8.961  71.153  1.00  0.00    -0.301 C  
BRANCH  14  15
HETATM   15  O   UNL     1     -11.754   7.689  71.514  1.00  0.00    -0.265 OA 
BRANCH  15  16
HETATM   16  C   UNL     1     -10.656   6.759  71.453  1.00  0.00    -0.221 C  
HETATM   17  C   UNL     1     -10.537   5.939  72.722  1.00  0.00    -0.257 C  
HETATM   18  O   UNL     1     -10.283   4.450  70.913  1.00  0.00    -0.164 OA 
HETATM   19  C   UNL     1      -9.812   4.701  72.241  1.00  0.00    -0.167 C  
HETATM   20  C   UNL     1     -10.832   5.672  70.394  1.00  0.00    -0.256 C  
ENDBRANCH  15  16
ENDBRANCH  14  15
ENDBRANCH  10  11
BRANCH  10  21
HETATM   21  C   UNL     1     -11.681  11.848  70.682  1.00  0.00     0.043 C  
BRANCH  21  22
HETATM   22  C   UNL     1     -12.621  12.997  70.988  1.00  0.00    -0.386 A  
HETATM   23  C   UNL     1     -14.279  14.015  72.452  1.00  0.00    -0.500 A  
HETATM   24  C   UNL     1     -13.539  12.900  72.043  1.00  0.00    -0.499 A  
HETATM   25  C   UNL     1     -14.125  15.238  71.804  1.00  0.00    -0.654 A  
HETATM   26  C   UNL     1     -12.488  14.233  70.334  1.00  0.00    -0.426 A  
HETATM   27  C   UNL     1     -13.235  15.345  70.739  1.00  0.00    -0.440 A  
ENDBRANCH  21  22
ENDBRANCH  10  21
ENDBRANCH   7  10
ENDBRANCH   6   7
ENDBRANCH   5   6
BRANCH   5  28
HETATM   28  S   UNL     1     -10.857  12.332  65.878  1.00  0.00    -0.282 S  
HETATM   29  O   UNL     1     -11.969  11.571  66.396  1.00  0.00    -0.345 OA 
HETATM   30  O   UNL     1     -11.078  13.565  65.145  1.00  0.00    -0.301 OA 
BRANCH  28  31
HETATM   31  C   UNL     1      -9.940  11.236  64.830  1.00  0.00    -0.277 A  
HETATM   32  N   UNL     1      -7.812   8.587  62.354  1.00  0.00    -0.131 NA 
HETATM   33  H2  UNL     1      -7.958   7.662  62.758  1.00  0.00     0.000 HD 
HETATM   34  H1  UNL     1      -8.012   8.537  61.355  1.00  0.00     0.000 HD 
HETATM   35  C   UNL     1      -8.914  10.457  65.366  1.00  0.00    -0.207 A  
HETATM   36  C   UNL     1      -8.191   9.596  64.529  1.00  0.00    -0.151 A  
HETATM   37  C   UNL     1     -10.283  11.109  63.477  1.00  0.00    -0.446 A  
HETATM   38  C   UNL     1      -9.559  10.241  62.655  1.00  0.00    -0.251 A  
HETATM   39  C   UNL     1      -8.467   9.527  63.158  1.00  0.00    -0.199 A  
ENDBRANCH  28  31
ENDBRANCH   5  28
ENDBRANCH   4   5
TORSDOF 11
ENDMDL
MODEL      285
REMARK 921   NORMALIZED FREE ENERGY PREDICTED BY IDOCK:   -4.42 KCAL/MOL
REMARK 922        TOTAL FREE ENERGY PREDICTED BY IDOCK:   -9.03 KCAL/MOL
REMARK 923 INTER-LIGAND FREE ENERGY PREDICTED BY IDOCK:   -9.09 KCAL/MOL
REMARK 924 INTRA-LIGAND FREE ENERGY PREDICTED BY IDOCK:    0.06 KCAL/MOL
REMARK 927      BINDING AFFINITY PREDICTED BY RF-SCORE:    0.00 PKD
ROOT
HETATM    1  C   UNL     1      -6.815   8.662  67.213  1.00  0.00    -0.067 C  
HETATM    2  C   UNL     1      -7.583   9.513  66.201  1.00  0.00    -0.100 C  
HETATM    3  C   UNL     1      -7.152   9.076  64.787  1.00  0.00    -0.092 C  
HETATM    4  C   UNL     1      -9.114   9.387  66.329  1.00  0.00    -0.163 C  
ENDROOT
BRANCH   4   5
HETATM    5  N   UNL     1      -9.735   9.766  67.668  1.00  0.00    -0.152 N  
BRANCH   5   6
HETATM    6  C   UNL     1      -8.979   9.133  68.862  1.00  0.00    -0.139 C  
BRANCH   6   7
HETATM    7  C   UNL     1      -9.292   7.628  69.174  1.00  0.00    -0.147 C  
HETATM    8  H   UNL     1      -9.100   6.443  70.717  1.00  0.00     0.000 HD 
HETATM    9  O   UNL     1      -8.911   7.355  70.527  1.00  0.00    -0.146 OA 
BRANCH   7  10
HETATM   10  C   UNL     1     -10.788   7.228  68.892  1.00  0.00    -0.089 C  
BRANCH  10  11
HETATM   11  N   UNL     1     -10.946   6.392  67.685  1.00  0.00    -0.380 N  
HETATM   12  O   UNL     1      -9.539   4.735  68.412  1.00  0.00    -0.136 OA 
HETATM   13  H   UNL     1     -11.562   6.706  66.935  1.00  0.00     0.000 HD 
HETATM   14  C   UNL     1     -10.278   5.200  67.557  1.00  0.00    -0.156 C  
BRANCH  14  15
HETATM   15  O   UNL     1     -10.518   4.612  66.350  1.00  0.00    -0.268 OA 
BRANCH  15  16
HETATM   16  C   UNL     1      -9.339   4.443  65.540  1.00  0.00    -0.162 C  
HETATM   17  C   UNL     1      -9.665   3.874  64.175  1.00  0.00    -0.171 C  
HETATM   18  O   UNL     1      -8.139   5.638  63.838  1.00  0.00    -0.119 OA 
HETATM   19  C   UNL     1      -8.495   4.345  63.339  1.00  0.00    -0.109 C  
HETATM   20  C   UNL     1      -8.654   5.759  65.175  1.00  0.00    -0.109 C  
ENDBRANCH  15  16
ENDBRANCH  14  15
ENDBRANCH  10  11
BRANCH  10  21
HETATM   21  C   UNL     1     -11.600   6.678  70.095  1.00  0.00    -0.446 C  
BRANCH  21  22
HETATM   22  C   UNL     1     -12.377   7.615  70.997  1.00  0.00    -0.234 A  
HETATM   23  C   UNL     1     -12.776   9.866  71.836  1.00  0.00    -0.501 A  
HETATM   24  C   UNL     1     -11.969   8.947  71.158  1.00  0.00    -0.344 A  
HETATM   25  C   UNL     1     -13.997   9.466  72.376  1.00  0.00    -0.354 A  
HETATM   26  C   UNL     1     -13.603   7.224  71.561  1.00  0.00    -0.442 A  
HETATM   27  C   UNL     1     -14.406   8.143  72.246  1.00  0.00    -0.398 A  
ENDBRANCH  21  22
ENDBRANCH  10  21
ENDBRANCH   7  10
ENDBRANCH   6   7
ENDBRANCH   5   6
BRANCH   5  28
HETATM   28  S   UNL     1      -9.816  11.517  67.836  1.00  0.00    -0.190 S  
HETATM   29  O   UNL     1     -10.706  11.850  68.924  1.00  0.00    -0.221 OA 
HETATM   30  O   UNL     1      -8.439  11.976  67.837  1.00  0.00    -0.143 OA 
BRANCH  28  31
HETATM   31  C   UNL     1     -10.585  12.113  66.356  1.00  0.00    -0.241 A  
HETATM   32  N   UNL     1     -12.433  13.466  62.830  1.00  0.00    -0.837 NA 
HETATM   33  H2  UNL     1     -12.389  12.681  62.182  1.00  0.00     0.000 HD 
HETATM   34  H1  UNL     1     -13.391  13.815  62.848  1.00  0.00     0.000 HD 
HETATM   35  C   UNL     1      -9.866  12.138  65.160  1.00  0.00    -0.200 A  
HETATM   36  C   UNL     1     -10.480  12.616  63.994  1.00  0.00    -0.443 A  
HETATM   37  C   UNL     1     -11.930  12.505  66.373  1.00  0.00    -0.386 A  
HETATM   38  C   UNL     1     -12.533  12.973  65.201  1.00  0.00    -0.552 A  
HETATM   39  C   UNL     1     -11.796  13.094  64.019  1.00  0.00    -0.453 A  
ENDBRANCH  28  31
ENDBRANCH   5  28
ENDBRANCH   4   5
TORSDOF 11
ENDMDL
MODEL      286
REMARK 921   NORMALIZED FREE ENERGY PREDICTED BY IDOCK:   -4.40 KCAL/MOL
REMARK 922        TOTAL FREE ENERGY PREDICTED BY IDOCK:   -9.01 KCAL/MOL
REMARK 923 INTER-LIGAND FREE ENERGY PREDICTED BY IDOCK:   -7.96 KCAL/MOL
REMARK 924 INTRA-LIGAND FREE ENERGY PREDICTED BY IDOCK:   -1.05 KCAL/MOL
REMARK 927      BINDING AFFINITY PREDICTED BY RF-SCORE:    0.00 PKD
ROOT
HETATM    1  C   UNL     1      -9.274  10.600  66.021  1.00  0.00    -0.208 C  
HETATM    2  C   UNL     1      -8.790   9.363  65.264  1.00  0.00    -0.227 C  
HETATM    3  C   UNL     1      -7.800   9.827  64.177  1.00  0.00    -0.134 C  
HETATM    4  C   UNL     1      -8.103   8.320  66.167  1.00  0.00    -0.111 C  
ENDROOT
BRANCH   4   5
HETATM    5  N   UNL     1      -8.922   7.745  67.317  1.00  0.00    -0.126 N  
BRANCH   5   6
HETATM    6  C   UNL     1      -9.772   8.828  68.026  1.00  0.00    -0.157 C  
BRANCH   6   7
HETATM    7  C   UNL     1      -9.561   8.986  69.572  1.00  0.00    -0.165 C  
HETATM    8  H   UNL     1      -8.150   9.673  70.735  1.00  0.00     0.000 HD 
HETATM    9  O   UNL     1      -8.277   9.577  69.799  1.00  0.00    -0.117 OA 
BRANCH   7  10
HETATM   10  C   UNL     1     -10.713   9.790  70.282  1.00  0.00    -0.302 C  
BRANCH  10  11
HETATM   11  N   UNL     1     -11.268  10.871  69.443  1.00  0.00    -0.250 N  
HETATM   12  O   UNL     1     -12.206  12.013  71.196  1.00  0.00    -0.256 OA 
HETATM   13  H   UNL     1     -11.112  10.855  68.435  1.00  0.00     0.000 HD 
HETATM   14  C   UNL     1     -11.989  11.899  69.998  1.00  0.00    -0.332 C  
BRANCH  14  15
HETATM   15  O   UNL     1     -12.456  12.760  69.049  1.00  0.00     0.067 OA 
BRANCH  15  16
HETATM   16  C   UNL     1     -11.436  13.599  68.474  1.00  0.00    -0.312 C  
HETATM   17  C   UNL     1     -11.844  14.139  67.119  1.00  0.00    -0.454 C  
HETATM   18  O   UNL     1     -10.904  15.934  68.320  1.00  0.00    -0.287 OA 
HETATM   19  C   UNL     1     -11.001  15.390  67.000  1.00  0.00    -0.306 C  
HETATM   20  C   UNL     1     -11.185  14.884  69.260  1.00  0.00    -0.284 C  
ENDBRANCH  15  16
ENDBRANCH  14  15
ENDBRANCH  10  11
BRANCH  10  21
HETATM   21  C   UNL     1     -11.827   8.952  70.965  1.00  0.00    -0.324 C  
BRANCH  21  22
HETATM   22  C   UNL     1     -11.475   7.868  71.966  1.00  0.00    -0.351 A  
HETATM   23  C   UNL     1     -11.756   5.588  72.770  1.00  0.00    -0.240 A  
HETATM   24  C   UNL     1     -12.186   6.660  71.982  1.00  0.00    -0.337 A  
HETATM   25  C   UNL     1     -10.618   5.710  73.565  1.00  0.00    -0.300 A  
HETATM   26  C   UNL     1     -10.339   7.982  72.785  1.00  0.00    -0.408 A  
HETATM   27  C   UNL     1      -9.915   6.910  73.578  1.00  0.00    -0.293 A  
ENDBRANCH  21  22
ENDBRANCH  10  21
ENDBRANCH   7  10
ENDBRANCH   6   7
ENDBRANCH   5   6
BRANCH   5  28
HETATM   28  S   UNL     1      -9.939   6.424  66.748  1.00  0.00    -0.159 S  
HETATM   29  O   UNL     1     -11.326   6.815  66.847  1.00  0.00    -0.318 OA 
HETATM   30  O   UNL     1      -9.373   6.013  65.476  1.00  0.00     0.016 OA 
BRANCH  28  31
HETATM   31  C   UNL     1      -9.705   5.098  67.900  1.00  0.00    -0.145 A  
HETATM   32  N   UNL     1      -9.091   1.979  70.651  1.00  0.00    -0.085 NA 
HETATM   33  H2  UNL     1      -8.084   1.823  70.663  1.00  0.00     0.000 HD 
HETATM   34  H1  UNL     1      -9.415   2.067  71.614  1.00  0.00     0.000 HD 
HETATM   35  C   UNL     1      -9.103   3.911  67.481  1.00  0.00    -0.176 A  
HETATM   36  C   UNL     1      -8.927   2.866  68.397  1.00  0.00    -0.192 A  
HETATM   37  C   UNL     1     -10.072   5.263  69.242  1.00  0.00    -0.300 A  
HETATM   38  C   UNL     1      -9.883   4.215  70.148  1.00  0.00    -0.242 A  
HETATM   39  C   UNL     1      -9.370   2.986  69.720  1.00  0.00    -0.145 A  
ENDBRANCH  28  31
ENDBRANCH   5  28
ENDBRANCH   4   5
TORSDOF 11
ENDMDL
MODEL      287
REMARK 921   NORMALIZED FREE ENERGY PREDICTED BY IDOCK:   -4.40 KCAL/MOL
REMARK 922        TOTAL FREE ENERGY PREDICTED BY IDOCK:   -9.00 KCAL/MOL
REMARK 923 INTER-LIGAND FREE ENERGY PREDICTED BY IDOCK:   -8.21 KCAL/MOL
REMARK 924 INTRA-LIGAND FREE ENERGY PREDICTED BY IDOCK:   -0.80 KCAL/MOL
REMARK 927      BINDING AFFINITY PREDICTED BY RF-SCORE:    0.00 PKD
ROOT
HETATM    1  C   UNL     1     -10.332  12.495  63.789  1.00  0.00    -0.418 C  
HETATM    2  C   UNL     1     -10.190  10.985  63.990  1.00  0.00    -0.420 C  
HETATM    3  C   UNL     1      -9.720  10.369  62.657  1.00  0.00    -0.191 C  
HETATM    4  C   UNL     1      -9.197  10.605  65.106  1.00  0.00    -0.207 C  
ENDROOT
BRANCH   4   5
HETATM    5  N   UNL     1      -9.485  11.134  66.506  1.00  0.00    -0.188 N  
BRANCH   5   6
HETATM    6  C   UNL     1     -10.994  11.393  66.733  1.00  0.00    -0.291 C  
BRANCH   6   7
HETATM    7  C   UNL     1     -11.393  12.817  67.255  1.00  0.00    -0.314 C  
HETATM    8  H   UNL     1     -12.308  13.532  68.827  1.00  0.00     0.000 HD 
HETATM    9  O   UNL     1     -12.067  12.670  68.510  1.00  0.00    -0.263 OA 
BRANCH   7  10
HETATM   10  C   UNL     1     -10.177  13.811  67.353  1.00  0.00    -0.252 C  
BRANCH  10  11
HETATM   11  N   UNL     1     -10.538  15.204  67.019  1.00  0.00    -0.293 N  
HETATM   12  O   UNL     1     -11.109  15.774  69.165  1.00  0.00    -0.244 OA 
HETATM   13  H   UNL     1     -10.448  15.528  66.056  1.00  0.00     0.000 HD 
HETATM   14  C   UNL     1     -10.992  16.068  67.985  1.00  0.00    -0.341 C  
BRANCH  14  15
HETATM   15  O   UNL     1     -11.320  17.283  67.461  1.00  0.00     0.057 OA 
BRANCH  15  16
HETATM   16  C   UNL     1     -10.254  18.250  67.522  1.00  0.00    -0.369 C  
HETATM   17  C   UNL     1      -8.952  17.693  66.983  1.00  0.00    -0.258 C  
HETATM   18  O   UNL     1      -9.199  19.857  66.084  1.00  0.00    -0.380 OA 
HETATM   19  C   UNL     1      -8.210  18.945  66.571  1.00  0.00    -0.297 C  
HETATM   20  C   UNL     1     -10.474  19.461  66.618  1.00  0.00    -0.469 C  
ENDBRANCH  15  16
ENDBRANCH  14  15
ENDBRANCH  10  11
BRANCH  10  21
HETATM   21  C   UNL     1      -9.309  13.724  68.637  1.00  0.00    -0.081 C  
BRANCH  21  22
HETATM   22  C   UNL     1      -7.874  14.212  68.635  1.00  0.00    -0.137 A  
HETATM   23  C   UNL     1      -6.169  15.711  69.515  1.00  0.00    -0.152 A  
HETATM   24  C   UNL     1      -7.513  15.357  69.359  1.00  0.00    -0.218 A  
HETATM   25  C   UNL     1      -5.165  14.935  68.939  1.00  0.00    -0.092 A  
HETATM   26  C   UNL     1      -6.851  13.449  68.046  1.00  0.00    -0.132 A  
HETATM   27  C   UNL     1      -5.507  13.808  68.197  1.00  0.00    -0.116 A  
ENDBRANCH  21  22
ENDBRANCH  10  21
ENDBRANCH   7  10
ENDBRANCH   6   7
ENDBRANCH   5   6
BRANCH   5  28
HETATM   28  S   UNL     1      -8.849  10.030  67.723  1.00  0.00    -0.124 S  
HETATM   29  O   UNL     1      -7.406  10.044  67.671  1.00  0.00    -0.088 OA 
HETATM   30  O   UNL     1      -9.550  10.355  68.952  1.00  0.00    -0.173 OA 
BRANCH  28  31
HETATM   31  C   UNL     1      -9.357   8.408  67.222  1.00  0.00    -0.146 A  
HETATM   32  N   UNL     1     -10.542   4.536  66.094  1.00  0.00    -0.455 NA 
HETATM   33  H2  UNL     1      -9.868   3.908  66.531  1.00  0.00     0.000 HD 
HETATM   34  H1  UNL     1     -11.481   4.199  66.306  1.00  0.00     0.000 HD 
HETATM   35  C   UNL     1      -8.480   7.595  66.504  1.00  0.00    -0.133 A  
HETATM   36  C   UNL     1      -8.892   6.316  66.108  1.00  0.00    -0.160 A  
HETATM   37  C   UNL     1     -10.617   7.921  67.597  1.00  0.00    -0.276 A  
HETATM   38  C   UNL     1     -11.013   6.640  67.202  1.00  0.00    -0.478 A  
HETATM   39  C   UNL     1     -10.181   5.853  66.400  1.00  0.00    -0.107 A  
ENDBRANCH  28  31
ENDBRANCH   5  28
ENDBRANCH   4   5
TORSDOF 11
ENDMDL
MODEL      288
REMARK 921   NORMALIZED FREE ENERGY PREDICTED BY IDOCK:   -4.39 KCAL/MOL
REMARK 922        TOTAL FREE ENERGY PREDICTED BY IDOCK:   -8.98 KCAL/MOL
REMARK 923 INTER-LIGAND FREE ENERGY PREDICTED BY IDOCK:   -9.90 KCAL/MOL
REMARK 924 INTRA-LIGAND FREE ENERGY PREDICTED BY IDOCK:    0.92 KCAL/MOL
REMARK 927      BINDING AFFINITY PREDICTED BY RF-SCORE:    0.00 PKD
ROOT
HETATM    1  C   UNL     1      -7.780  20.263  68.070  1.00  0.00    -0.219 C  
HETATM    2  C   UNL     1      -9.007  19.476  67.609  1.00  0.00    -0.373 C  
HETATM    3  C   UNL     1      -9.559  20.154  66.339  1.00  0.00    -0.511 C  
HETATM    4  C   UNL     1      -8.708  17.994  67.306  1.00  0.00    -0.243 C  
ENDROOT
BRANCH   4   5
HETATM    5  N   UNL     1      -8.140  17.150  68.441  1.00  0.00    -0.245 N  
BRANCH   5   6
HETATM    6  C   UNL     1      -9.112  16.025  68.873  1.00  0.00    -0.235 C  
BRANCH   6   7
HETATM    7  C   UNL     1     -10.563  16.083  68.280  1.00  0.00    -0.283 C  
HETATM    8  H   UNL     1     -11.355  16.486  66.539  1.00  0.00     0.000 HD 
HETATM    9  O   UNL     1     -10.476  16.451  66.899  1.00  0.00    -0.302 OA 
BRANCH   7  10
HETATM   10  C   UNL     1     -11.376  14.752  68.485  1.00  0.00    -0.290 C  
BRANCH  10  11
HETATM   11  N   UNL     1     -11.161  13.768  67.404  1.00  0.00    -0.299 N  
HETATM   12  O   UNL     1     -12.481  12.150  68.351  1.00  0.00    -0.049 OA 
HETATM   13  H   UNL     1     -10.572  14.017  66.610  1.00  0.00     0.000 HD 
HETATM   14  C   UNL     1     -11.743  12.525  67.452  1.00  0.00    -0.366 C  
BRANCH  14  15
HETATM   15  O   UNL     1     -11.375  11.754  66.389  1.00  0.00    -0.329 OA 
BRANCH  15  16
HETATM   16  C   UNL     1     -12.110  12.038  65.183  1.00  0.00    -0.094 C  
HETATM   17  C   UNL     1     -12.488  13.502  65.081  1.00  0.00    -0.495 C  
HETATM   18  O   UNL     1     -11.681  12.851  62.966  1.00  0.00    -0.354 OA 
HETATM   19  C   UNL     1     -12.658  13.690  63.590  1.00  0.00     0.005 C  
HETATM   20  C   UNL     1     -11.294  11.837  63.908  1.00  0.00    -0.411 C  
ENDBRANCH  15  16
ENDBRANCH  14  15
ENDBRANCH  10  11
BRANCH  10  21
HETATM   21  C   UNL     1     -11.300  14.100  69.891  1.00  0.00    -0.232 C  
BRANCH  21  22
HETATM   22  C   UNL     1     -12.161  14.612  71.029  1.00  0.00    -0.393 A  
HETATM   23  C   UNL     1     -12.455  16.114  72.922  1.00  0.00    -0.570 A  
HETATM   24  C   UNL     1     -11.628  15.493  71.981  1.00  0.00    -0.542 A  
HETATM   25  C   UNL     1     -13.824  15.854  72.938  1.00  0.00    -0.530 A  
HETATM   26  C   UNL     1     -13.540  14.348  71.068  1.00  0.00    -0.256 A  
HETATM   27  C   UNL     1     -14.365  14.964  72.015  1.00  0.00    -0.651 A  
ENDBRANCH  21  22
ENDBRANCH  10  21
ENDBRANCH   7  10
ENDBRANCH   6   7
ENDBRANCH   5   6
BRANCH   5  28
HETATM   28  S   UNL     1      -6.573  16.485  67.989  1.00  0.00    -0.144 S  
HETATM   29  O   UNL     1      -6.595  16.124  66.590  1.00  0.00    -0.250 OA 
HETATM   30  O   UNL     1      -5.587  17.421  68.497  1.00  0.00    -0.149 OA 
BRANCH  28  31
HETATM   31  C   UNL     1      -6.405  14.974  68.898  1.00  0.00    -0.090 A  
HETATM   32  N   UNL     1      -6.072  11.390  71.070  1.00  0.00    -0.456 NA 
HETATM   33  H2  UNL     1      -6.748  11.468  71.828  1.00  0.00     0.000 HD 
HETATM   34  H1  UNL     1      -6.208  10.490  70.609  1.00  0.00     0.000 HD 
HETATM   35  C   UNL     1      -6.051  15.010  70.248  1.00  0.00    -0.144 A  
HETATM   36  C   UNL     1      -5.916  13.809  70.958  1.00  0.00    -0.125 A  
HETATM   37  C   UNL     1      -6.683  13.748  68.278  1.00  0.00    -0.109 A  
HETATM   38  C   UNL     1      -6.551  12.558  69.000  1.00  0.00    -0.100 A  
HETATM   39  C   UNL     1      -6.104  12.574  70.325  1.00  0.00    -0.066 A  
ENDBRANCH  28  31
ENDBRANCH   5  28
ENDBRANCH   4   5
TORSDOF 11
ENDMDL
MODEL      289
REMARK 921   NORMALIZED FREE ENERGY PREDICTED BY IDOCK:   -4.36 KCAL/MOL
REMARK 922        TOTAL FREE ENERGY PREDICTED BY IDOCK:   -8.94 KCAL/MOL
REMARK 923 INTER-LIGAND FREE ENERGY PREDICTED BY IDOCK:   -7.78 KCAL/MOL
REMARK 924 INTRA-LIGAND FREE ENERGY PREDICTED BY IDOCK:   -1.16 KCAL/MOL
REMARK 927      BINDING AFFINITY PREDICTED BY RF-SCORE:    0.00 PKD
ROOT
HETATM    1  C   UNL     1      -9.901   3.854  71.825  1.00  0.00    -0.249 C  
HETATM    2  C   UNL     1      -9.252   5.237  71.901  1.00  0.00    -0.156 C  
HETATM    3  C   UNL     1      -8.554   5.361  73.270  1.00  0.00    -0.116 C  
HETATM    4  C   UNL     1      -8.226   5.496  70.780  1.00  0.00    -0.117 C  
ENDROOT
BRANCH   4   5
HETATM    5  N   UNL     1      -8.725   5.407  69.342  1.00  0.00    -0.105 N  
BRANCH   5   6
HETATM    6  C   UNL     1      -8.996   6.804  68.733  1.00  0.00    -0.130 C  
BRANCH   6   7
HETATM    7  C   UNL     1     -10.419   7.037  68.113  1.00  0.00    -0.201 C  
HETATM    8  H   UNL     1     -12.262   6.969  68.759  1.00  0.00     0.000 HD 
HETATM    9  O   UNL     1     -11.400   6.828  69.134  1.00  0.00    -0.211 OA 
BRANCH   7  10
HETATM   10  C   UNL     1     -10.578   8.441  67.420  1.00  0.00    -0.243 C  
BRANCH  10  11
HETATM   11  N   UNL     1     -11.278   9.428  68.265  1.00  0.00    -0.490 N  
HETATM   12  O   UNL     1      -9.378  10.166  69.314  1.00  0.00    -0.192 OA 
HETATM   13  H   UNL     1     -12.289   9.533  68.181  1.00  0.00     0.000 HD 
HETATM   14  C   UNL     1     -10.590  10.207  69.162  1.00  0.00    -0.224 C  
BRANCH  14  15
HETATM   15  O   UNL     1     -11.426  11.011  69.880  1.00  0.00    -0.274 OA 
BRANCH  15  16
HETATM   16  C   UNL     1     -11.866  10.430  71.122  1.00  0.00    -0.337 C  
HETATM   17  C   UNL     1     -13.271   9.872  71.021  1.00  0.00    -0.375 C  
HETATM   18  O   UNL     1     -11.974   8.267  72.158  1.00  0.00    -0.323 OA 
HETATM   19  C   UNL     1     -13.288   8.833  72.121  1.00  0.00    -0.423 C  
HETATM   20  C   UNL     1     -11.069   9.195  71.537  1.00  0.00    -0.365 C  
ENDBRANCH  15  16
ENDBRANCH  14  15
ENDBRANCH  10  11
BRANCH  10  21
HETATM   21  C   UNL     1      -9.307   9.036  66.756  1.00  0.00    -0.213 C  
BRANCH  21  22
HETATM   22  C   UNL     1      -9.402   9.792  65.445  1.00  0.00    -0.311 A  
HETATM   23  C   UNL     1      -9.093   9.847  63.031  1.00  0.00    -0.291 A  
HETATM   24  C   UNL     1      -8.854   9.251  64.274  1.00  0.00    -0.185 A  
HETATM   25  C   UNL     1      -9.871  10.999  62.941  1.00  0.00    -0.319 A  
HETATM   26  C   UNL     1     -10.170  10.963  65.340  1.00  0.00    -0.339 A  
HETATM   27  C   UNL     1     -10.402  11.562  64.097  1.00  0.00    -0.386 A  
ENDBRANCH  21  22
ENDBRANCH  10  21
ENDBRANCH   7  10
ENDBRANCH   6   7
ENDBRANCH   5   6
BRANCH   5  28
HETATM   28  S   UNL     1      -7.586   4.501  68.351  1.00  0.00    -0.068 S  
HETATM   29  O   UNL     1      -6.337   5.223  68.281  1.00  0.00    -0.033 OA 
HETATM   30  O   UNL     1      -7.629   3.139  68.849  1.00  0.00    -0.048 OA 
BRANCH  28  31
HETATM   31  C   UNL     1      -8.260   4.500  66.712  1.00  0.00    -0.102 A  
HETATM   32  N   UNL     1      -9.820   4.446  62.809  1.00  0.00    -0.324 NA 
HETATM   33  H2  UNL     1      -9.042   4.172  62.209  1.00  0.00     0.000 HD 
HETATM   34  H1  UNL     1     -10.624   3.862  62.580  1.00  0.00     0.000 HD 
HETATM   35  C   UNL     1      -7.710   5.329  65.733  1.00  0.00    -0.091 A  
HETATM   36  C   UNL     1      -8.253   5.325  64.441  1.00  0.00    -0.135 A  
HETATM   37  C   UNL     1      -9.306   3.627  66.385  1.00  0.00    -0.194 A  
HETATM   38  C   UNL     1      -9.834   3.628  65.090  1.00  0.00    -0.126 A  
HETATM   39  C   UNL     1      -9.356   4.522  64.127  1.00  0.00    -0.077 A  
ENDBRANCH  28  31
ENDBRANCH   5  28
ENDBRANCH   4   5
TORSDOF 11
ENDMDL
MODEL      290
REMARK 921   NORMALIZED FREE ENERGY PREDICTED BY IDOCK:   -4.31 KCAL/MOL
REMARK 922        TOTAL FREE ENERGY PREDICTED BY IDOCK:   -8.86 KCAL/MOL
REMARK 923 INTER-LIGAND FREE ENERGY PREDICTED BY IDOCK:   -7.80 KCAL/MOL
REMARK 924 INTRA-LIGAND FREE ENERGY PREDICTED BY IDOCK:   -1.05 KCAL/MOL
REMARK 927      BINDING AFFINITY PREDICTED BY RF-SCORE:    0.00 PKD
ROOT
HETATM    1  C   UNL     1     -11.339  10.095  70.324  1.00  0.00    -0.387 C  
HETATM    2  C   UNL     1     -11.617  11.108  69.212  1.00  0.00    -0.388 C  
HETATM    3  C   UNL     1     -12.001  12.447  69.873  1.00  0.00    -0.369 C  
HETATM    4  C   UNL     1     -10.418  11.330  68.270  1.00  0.00    -0.196 C  
ENDROOT
BRANCH   4   5
HETATM    5  N   UNL     1      -9.880  10.113  67.526  1.00  0.00    -0.172 N  
BRANCH   5   6
HETATM    6  C   UNL     1     -10.969   9.035  67.309  1.00  0.00     0.137 C  
BRANCH   6   7
HETATM    7  C   UNL     1     -10.666   7.604  67.879  1.00  0.00    -0.108 C  
HETATM    8  H   UNL     1     -11.195   5.775  67.439  1.00  0.00     0.000 HD 
HETATM    9  O   UNL     1     -11.379   6.641  67.094  1.00  0.00    -0.343 OA 
BRANCH   7  10
HETATM   10  C   UNL     1      -9.129   7.276  67.962  1.00  0.00    -0.133 C  
BRANCH  10  11
HETATM   11  N   UNL     1      -8.722   6.733  69.274  1.00  0.00    -0.134 N  
HETATM   12  O   UNL     1      -8.352   8.786  70.224  1.00  0.00    -0.116 OA 
HETATM   13  H   UNL     1      -8.716   5.724  69.419  1.00  0.00     0.000 HD 
HETATM   14  C   UNL     1      -8.353   7.567  70.300  1.00  0.00    -0.133 C  
BRANCH  14  15
HETATM   15  O   UNL     1      -7.962   6.866  71.403  1.00  0.00    -0.106 OA 
BRANCH  15  16
HETATM   16  C   UNL     1      -9.045   6.527  72.290  1.00  0.00    -0.138 C  
HETATM   17  C   UNL     1      -9.311   7.620  73.305  1.00  0.00    -0.299 C  
HETATM   18  O   UNL     1     -11.405   6.922  72.480  1.00  0.00    -0.259 OA 
HETATM   19  C   UNL     1     -10.758   7.375  73.673  1.00  0.00    -0.190 C  
HETATM   20  C   UNL     1     -10.397   6.415  71.589  1.00  0.00    -0.205 C  
ENDBRANCH  15  16
ENDBRANCH  14  15
ENDBRANCH  10  11
BRANCH  10  21
HETATM   21  C   UNL     1      -8.526   6.468  66.782  1.00  0.00    -0.113 C  
BRANCH  21  22
HETATM   22  C   UNL     1      -8.147   5.010  66.957  1.00  0.00    -0.107 A  
HETATM   23  C   UNL     1      -8.639   2.657  66.575  1.00  0.00    -0.112 A  
HETATM   24  C   UNL     1      -9.043   3.996  66.592  1.00  0.00    -0.149 A  
HETATM   25  C   UNL     1      -7.339   2.309  66.936  1.00  0.00    -0.060 A  
HETATM   26  C   UNL     1      -6.845   4.643  67.334  1.00  0.00    -0.059 A  
HETATM   27  C   UNL     1      -6.444   3.302  67.324  1.00  0.00    -0.037 A  
ENDBRANCH  21  22
ENDBRANCH  10  21
ENDBRANCH   7  10
ENDBRANCH   6   7
ENDBRANCH   5   6
BRANCH   5  28
HETATM   28  S   UNL     1      -9.162  10.597  65.992  1.00  0.00    -0.191 S  
HETATM   29  O   UNL     1      -7.873  11.200  66.239  1.00  0.00    -0.158 OA 
HETATM   30  O   UNL     1      -9.287   9.444  65.120  1.00  0.00    -0.252 OA 
BRANCH  28  31
HETATM   31  C   UNL     1     -10.204  11.878  65.350  1.00  0.00    -0.263 A  
HETATM   32  N   UNL     1     -12.647  14.910  63.765  1.00  0.00    -0.981 NA 
HETATM   33  H2  UNL     1     -12.073  15.384  63.068  1.00  0.00     0.000 HD 
HETATM   34  H1  UNL     1     -13.546  14.682  63.340  1.00  0.00     0.000 HD 
HETATM   35  C   UNL     1      -9.810  13.213  65.453  1.00  0.00    -0.123 A  
HETATM   36  C   UNL     1     -10.642  14.219  64.946  1.00  0.00    -0.452 A  
HETATM   37  C   UNL     1     -11.394  11.547  64.688  1.00  0.00    -0.226 A  
HETATM   38  C   UNL     1     -12.212  12.562  64.180  1.00  0.00    -0.552 A  
HETATM   39  C   UNL     1     -11.876  13.907  64.362  1.00  0.00    -0.429 A  
ENDBRANCH  28  31
ENDBRANCH   5  28
ENDBRANCH   4   5
TORSDOF 11
ENDMDL
MODEL      291
REMARK 921   NORMALIZED FREE ENERGY PREDICTED BY IDOCK:   -4.30 KCAL/MOL
REMARK 922        TOTAL FREE ENERGY PREDICTED BY IDOCK:   -8.84 KCAL/MOL
REMARK 923 INTER-LIGAND FREE ENERGY PREDICTED BY IDOCK:   -6.91 KCAL/MOL
REMARK 924 INTRA-LIGAND FREE ENERGY PREDICTED BY IDOCK:   -1.93 KCAL/MOL
REMARK 927      BINDING AFFINITY PREDICTED BY RF-SCORE:    0.00 PKD
ROOT
HETATM    1  C   UNL     1      -7.037   5.764  68.233  1.00  0.00    -0.074 C  
HETATM    2  C   UNL     1      -8.442   5.640  67.641  1.00  0.00    -0.102 C  
HETATM    3  C   UNL     1      -8.360   4.712  66.412  1.00  0.00    -0.106 C  
HETATM    4  C   UNL     1      -9.480   5.080  68.633  1.00  0.00    -0.139 C  
ENDROOT
BRANCH   4   5
HETATM    5  N   UNL     1      -9.698   5.857  69.926  1.00  0.00    -0.160 N  
BRANCH   5   6
HETATM    6  C   UNL     1     -11.151   6.374  70.057  1.00  0.00    -0.379 C  
BRANCH   6   7
HETATM    7  C   UNL     1     -11.333   7.821  70.634  1.00  0.00    -0.264 C  
HETATM    8  H   UNL     1     -10.720   8.792  72.215  1.00  0.00     0.000 HD 
HETATM    9  O   UNL     1     -10.610   7.915  71.866  1.00  0.00    -0.214 OA 
BRANCH   7  10
HETATM   10  C   UNL     1     -10.923   8.955  69.622  1.00  0.00    -0.123 C  
BRANCH  10  11
HETATM   11  N   UNL     1     -11.065  10.313  70.184  1.00  0.00    -0.299 N  
HETATM   12  O   UNL     1     -12.477  11.055  68.537  1.00  0.00    -0.440 OA 
HETATM   13  H   UNL     1     -10.579  10.552  71.048  1.00  0.00     0.000 HD 
HETATM   14  C   UNL     1     -11.841  11.259  69.560  1.00  0.00    -0.357 C  
BRANCH  14  15
HETATM   15  O   UNL     1     -11.795  12.458  70.209  1.00  0.00    -0.322 OA 
BRANCH  15  16
HETATM   16  C   UNL     1     -11.886  13.597  69.332  1.00  0.00    -0.339 C  
HETATM   17  C   UNL     1     -12.414  14.823  70.048  1.00  0.00    -0.327 C  
HETATM   18  O   UNL     1     -10.581  15.524  68.744  1.00  0.00    -0.228 OA 
HETATM   19  C   UNL     1     -11.866  15.953  69.204  1.00  0.00    -0.330 C  
HETATM   20  C   UNL     1     -10.532  14.089  68.825  1.00  0.00    -0.233 C  
ENDBRANCH  15  16
ENDBRANCH  14  15
ENDBRANCH  10  11
BRANCH  10  21
HETATM   21  C   UNL     1      -9.574   8.768  68.878  1.00  0.00    -0.158 C  
BRANCH  21  22
HETATM   22  C   UNL     1      -9.322   9.451  67.549  1.00  0.00    -0.147 A  
HETATM   23  C   UNL     1      -9.626   9.512  65.134  1.00  0.00    -0.270 A  
HETATM   24  C   UNL     1      -9.682   8.821  66.349  1.00  0.00    -0.335 A  
HETATM   25  C   UNL     1      -9.196  10.837  65.097  1.00  0.00    -0.239 A  
HETATM   26  C   UNL     1      -8.876  10.782  67.493  1.00  0.00    -0.128 A  
HETATM   27  C   UNL     1      -8.813  11.469  66.276  1.00  0.00    -0.186 A  
ENDBRANCH  21  22
ENDBRANCH  10  21
ENDBRANCH   7  10
ENDBRANCH   6   7
ENDBRANCH   5   6
BRANCH   5  28
HETATM   28  S   UNL     1      -9.256   4.872  71.318  1.00  0.00    -0.150 S  
HETATM   29  O   UNL     1     -10.425   4.655  72.138  1.00  0.00    -0.197 OA 
HETATM   30  O   UNL     1      -8.507   3.750  70.783  1.00  0.00    -0.068 OA 
BRANCH  28  31
HETATM   31  C   UNL     1      -8.142   5.858  72.279  1.00  0.00    -0.107 A  
HETATM   32  N   UNL     1      -5.447   8.158  74.543  1.00  0.00    -0.077 NA 
HETATM   33  H2  UNL     1      -4.767   7.494  74.912  1.00  0.00     0.000 HD 
HETATM   34  H1  UNL     1      -4.941   8.933  74.115  1.00  0.00     0.000 HD 
HETATM   35  C   UNL     1      -7.978   5.596  73.640  1.00  0.00    -0.108 A  
HETATM   36  C   UNL     1      -7.098   6.385  74.394  1.00  0.00    -0.092 A  
HETATM   37  C   UNL     1      -7.384   6.862  71.662  1.00  0.00    -0.084 A  
HETATM   38  C   UNL     1      -6.504   7.637  72.424  1.00  0.00    -0.056 A  
HETATM   39  C   UNL     1      -6.402   7.448  73.806  1.00  0.00    -0.068 A  
ENDBRANCH  28  31
ENDBRANCH   5  28
ENDBRANCH   4   5
TORSDOF 11
ENDMDL
MODEL      292
REMARK 921   NORMALIZED FREE ENERGY PREDICTED BY IDOCK:   -4.30 KCAL/MOL
REMARK 922        TOTAL FREE ENERGY PREDICTED BY IDOCK:   -8.84 KCAL/MOL
REMARK 923 INTER-LIGAND FREE ENERGY PREDICTED BY IDOCK:   -7.19 KCAL/MOL
REMARK 924 INTRA-LIGAND FREE ENERGY PREDICTED BY IDOCK:   -1.65 KCAL/MOL
REMARK 927      BINDING AFFINITY PREDICTED BY RF-SCORE:    0.00 PKD
ROOT
HETATM    1  C   UNL     1     -12.008  12.104  64.818  1.00  0.00    -0.377 C  
HETATM    2  C   UNL     1     -10.822  11.152  64.654  1.00  0.00    -0.295 C  
HETATM    3  C   UNL     1      -9.834  11.790  63.657  1.00  0.00    -0.357 C  
HETATM    4  C   UNL     1     -10.089  10.850  65.975  1.00  0.00    -0.249 C  
ENDROOT
BRANCH   4   5
HETATM    5  N   UNL     1     -10.906  10.223  67.099  1.00  0.00    -0.246 N  
BRANCH   5   6
HETATM    6  C   UNL     1     -10.370   8.827  67.500  1.00  0.00    -0.268 C  
BRANCH   6   7
HETATM    7  C   UNL     1      -8.875   8.517  67.138  1.00  0.00    -0.129 C  
HETATM    8  H   UNL     1      -7.164   9.442  67.321  1.00  0.00     0.000 HD 
HETATM    9  O   UNL     1      -8.069   9.629  67.540  1.00  0.00    -0.112 OA 
BRANCH   7  10
HETATM   10  C   UNL     1      -8.353   7.161  67.742  1.00  0.00    -0.118 C  
BRANCH  10  11
HETATM   11  N   UNL     1      -8.362   6.050  66.769  1.00  0.00    -0.106 N  
HETATM   12  O   UNL     1      -9.853   4.771  67.950  1.00  0.00    -0.158 OA 
HETATM   13  H   UNL     1      -7.792   6.118  65.925  1.00  0.00     0.000 HD 
HETATM   14  C   UNL     1      -9.125   4.929  66.982  1.00  0.00    -0.118 C  
BRANCH  14  15
HETATM   15  O   UNL     1      -8.949   4.003  65.996  1.00  0.00    -0.119 OA 
BRANCH  15  16
HETATM   16  C   UNL     1      -9.080   4.539  64.665  1.00  0.00    -0.151 C  
HETATM   17  C   UNL     1      -8.030   3.986  63.724  1.00  0.00    -0.088 C  
HETATM   18  O   UNL     1     -10.084   3.930  62.572  1.00  0.00    -0.147 OA 
HETATM   19  C   UNL     1      -8.685   4.154  62.371  1.00  0.00    -0.094 C  
HETATM   20  C   UNL     1     -10.374   4.129  63.966  1.00  0.00    -0.079 C  
ENDBRANCH  15  16
ENDBRANCH  14  15
ENDBRANCH  10  11
BRANCH  10  21
HETATM   21  C   UNL     1      -7.026   7.223  68.546  1.00  0.00    -0.079 C  
BRANCH  21  22
HETATM   22  C   UNL     1      -7.037   7.184  70.061  1.00  0.00    -0.066 A  
HETATM   23  C   UNL     1      -6.720   8.322  72.190  1.00  0.00    -0.084 A  
HETATM   24  C   UNL     1      -6.547   8.268  70.803  1.00  0.00    -0.038 A  
HETATM   25  C   UNL     1      -7.371   7.288  72.859  1.00  0.00    -0.078 A  
HETATM   26  C   UNL     1      -7.677   6.141  70.753  1.00  0.00    -0.102 A  
HETATM   27  C   UNL     1      -7.842   6.194  72.141  1.00  0.00    -0.101 A  
ENDBRANCH  21  22
ENDBRANCH  10  21
ENDBRANCH   7  10
ENDBRANCH   6   7
ENDBRANCH   5   6
BRANCH   5  28
HETATM   28  S   UNL     1     -10.960  11.297  68.494  1.00  0.00    -0.242 S  
HETATM   29  O   UNL     1      -9.661  11.900  68.680  1.00  0.00    -0.178 OA 
HETATM   30  O   UNL     1     -12.141  12.120  68.310  1.00  0.00    -0.407 OA 
BRANCH  28  31
HETATM   31  C   UNL     1     -11.239  10.255  69.900  1.00  0.00    -0.299 A  
HETATM   32  N   UNL     1     -11.895   7.839  73.277  1.00  0.00    -0.516 NA 
HETATM   33  H2  UNL     1     -11.325   8.246  74.017  1.00  0.00     0.000 HD 
HETATM   34  H1  UNL     1     -12.839   7.698  73.638  1.00  0.00     0.000 HD 
HETATM   35  C   UNL     1     -10.166   9.595  70.500  1.00  0.00    -0.351 A  
HETATM   36  C   UNL     1     -10.397   8.770  71.609  1.00  0.00    -0.391 A  
HETATM   37  C   UNL     1     -12.526  10.141  70.443  1.00  0.00    -0.243 A  
HETATM   38  C   UNL     1     -12.741   9.320  71.554  1.00  0.00    -0.426 A  
HETATM   39  C   UNL     1     -11.692   8.577  72.106  1.00  0.00    -0.378 A  
ENDBRANCH  28  31
ENDBRANCH   5  28
ENDBRANCH   4   5
TORSDOF 11
ENDMDL
MODEL      293
REMARK 921   NORMALIZED FREE ENERGY PREDICTED BY IDOCK:   -4.27 KCAL/MOL
REMARK 922        TOTAL FREE ENERGY PREDICTED BY IDOCK:   -8.79 KCAL/MOL
REMARK 923 INTER-LIGAND FREE ENERGY PREDICTED BY IDOCK:   -9.10 KCAL/MOL
REMARK 924 INTRA-LIGAND FREE ENERGY PREDICTED BY IDOCK:    0.31 KCAL/MOL
REMARK 927      BINDING AFFINITY PREDICTED BY RF-SCORE:    0.00 PKD
ROOT
HETATM    1  C   UNL     1      -6.908  13.078  69.365  1.00  0.00     0.038 C  
HETATM    2  C   UNL     1      -6.868  11.652  68.813  1.00  0.00    -0.090 C  
HETATM    3  C   UNL     1      -5.747  10.889  69.547  1.00  0.00    -0.042 C  
HETATM    4  C   UNL     1      -8.198  10.891  68.983  1.00  0.00    -0.124 C  
ENDROOT
BRANCH   4   5
HETATM    5  N   UNL     1      -9.437  11.497  68.334  1.00  0.00    -0.192 N  
BRANCH   5   6
HETATM    6  C   UNL     1      -9.292  11.612  66.797  1.00  0.00    -0.186 C  
BRANCH   6   7
HETATM    7  C   UNL     1      -8.654  10.385  66.057  1.00  0.00    -0.151 C  
HETATM    8  H   UNL     1      -8.045   8.598  66.564  1.00  0.00     0.000 HD 
HETATM    9  O   UNL     1      -8.432   9.341  67.012  1.00  0.00    -0.122 OA 
BRANCH   7  10
HETATM   10  C   UNL     1      -9.499   9.887  64.826  1.00  0.00    -0.291 C  
BRANCH  10  11
HETATM   11  N   UNL     1     -10.714  10.693  64.593  1.00  0.00    -0.170 N  
HETATM   12  O   UNL     1      -9.767  12.000  62.964  1.00  0.00    -0.383 OA 
HETATM   13  H   UNL     1     -11.559  10.495  65.129  1.00  0.00     0.000 HD 
HETATM   14  C   UNL     1     -10.723  11.706  63.666  1.00  0.00    -0.435 C  
BRANCH  14  15
HETATM   15  O   UNL     1     -11.920  12.360  63.645  1.00  0.00    -0.450 OA 
BRANCH  15  16
HETATM   16  C   UNL     1     -11.920  13.597  64.385  1.00  0.00    -0.437 C  
HETATM   17  C   UNL     1     -12.452  13.415  65.792  1.00  0.00    -0.496 C  
HETATM   18  O   UNL     1     -10.520  14.754  65.953  1.00  0.00    -0.284 OA 
HETATM   19  C   UNL     1     -11.817  14.573  66.530  1.00  0.00    -0.352 C  
HETATM   20  C   UNL     1     -10.522  14.152  64.648  1.00  0.00    -0.339 C  
ENDBRANCH  15  16
ENDBRANCH  14  15
ENDBRANCH  10  11
BRANCH  10  21
HETATM   21  C   UNL     1      -8.719   9.611  63.513  1.00  0.00    -0.236 C  
BRANCH  21  22
HETATM   22  C   UNL     1      -7.621   8.567  63.470  1.00  0.00    -0.127 A  
HETATM   23  C   UNL     1      -6.948   6.243  63.200  1.00  0.00    -0.046 A  
HETATM   24  C   UNL     1      -7.940   7.203  63.425  1.00  0.00    -0.066 A  
HETATM   25  C   UNL     1      -5.620   6.629  63.031  1.00  0.00    -0.031 A  
HETATM   26  C   UNL     1      -6.275   8.940  63.314  1.00  0.00    -0.089 A  
HETATM   27  C   UNL     1      -5.283   7.978  63.097  1.00  0.00    -0.050 A  
ENDBRANCH  21  22
ENDBRANCH  10  21
ENDBRANCH   7  10
ENDBRANCH   6   7
ENDBRANCH   5   6
BRANCH   5  28
HETATM   28  S   UNL     1     -10.871  10.569  68.760  1.00  0.00    -0.249 S  
HETATM   29  O   UNL     1     -11.721  10.446  67.598  1.00  0.00    -0.309 OA 
HETATM   30  O   UNL     1     -10.384   9.389  69.451  1.00  0.00    -0.196 OA 
BRANCH  28  31
HETATM   31  C   UNL     1     -11.760  11.556  69.932  1.00  0.00    -0.343 A  
HETATM   32  N   UNL     1     -13.812  13.905  72.752  1.00  0.00    -0.688 NA 
HETATM   33  H2  UNL     1     -13.393  13.674  73.653  1.00  0.00     0.000 HD 
HETATM   34  H1  UNL     1     -13.838  14.920  72.660  1.00  0.00     0.000 HD 
HETATM   35  C   UNL     1     -12.457  10.941  70.973  1.00  0.00    -0.514 A  
HETATM   36  C   UNL     1     -13.160  11.730  71.894  1.00  0.00    -0.482 A  
HETATM   37  C   UNL     1     -11.715  12.954  69.848  1.00  0.00    -0.324 A  
HETATM   38  C   UNL     1     -12.416  13.729  70.777  1.00  0.00    -0.441 A  
HETATM   39  C   UNL     1     -13.196  13.124  71.767  1.00  0.00    -0.403 A  
ENDBRANCH  28  31
ENDBRANCH   5  28
ENDBRANCH   4   5
TORSDOF 11
ENDMDL
MODEL      294
REMARK 921   NORMALIZED FREE ENERGY PREDICTED BY IDOCK:   -4.26 KCAL/MOL
REMARK 922        TOTAL FREE ENERGY PREDICTED BY IDOCK:   -8.77 KCAL/MOL
REMARK 923 INTER-LIGAND FREE ENERGY PREDICTED BY IDOCK:   -8.48 KCAL/MOL
REMARK 924 INTRA-LIGAND FREE ENERGY PREDICTED BY IDOCK:   -0.29 KCAL/MOL
REMARK 927      BINDING AFFINITY PREDICTED BY RF-SCORE:    0.00 PKD
ROOT
HETATM    1  C   UNL     1     -10.842  11.610  64.246  1.00  0.00    -0.418 C  
HETATM    2  C   UNL     1     -11.980  12.601  63.997  1.00  0.00    -0.530 C  
HETATM    3  C   UNL     1     -13.107  11.856  63.253  1.00  0.00     0.005 C  
HETATM    4  C   UNL     1     -12.548  13.221  65.289  1.00  0.00    -0.470 C  
ENDROOT
BRANCH   4   5
HETATM    5  N   UNL     1     -11.578  13.996  66.175  1.00  0.00    -0.353 N  
BRANCH   5   6
HETATM    6  C   UNL     1     -10.621  13.058  66.951  1.00  0.00    -0.254 C  
BRANCH   6   7
HETATM    7  C   UNL     1     -11.271  12.132  68.037  1.00  0.00    -0.264 C  
HETATM    8  H   UNL     1     -12.400  10.536  68.031  1.00  0.00     0.000 HD 
HETATM    9  O   UNL     1     -12.006  11.097  67.373  1.00  0.00    -0.532 OA 
BRANCH   7  10
HETATM   10  C   UNL     1     -10.232  11.549  69.066  1.00  0.00    -0.088 C  
BRANCH  10  11
HETATM   11  N   UNL     1     -10.574  10.189  69.527  1.00  0.00    -0.228 N  
HETATM   12  O   UNL     1     -12.086  10.893  71.100  1.00  0.00    -0.334 OA 
HETATM   13  H   UNL     1     -10.126   9.383  69.090  1.00  0.00     0.000 HD 
HETATM   14  C   UNL     1     -11.484   9.991  70.536  1.00  0.00    -0.330 C  
BRANCH  14  15
HETATM   15  O   UNL     1     -11.615   8.670  70.847  1.00  0.00    -0.277 OA 
BRANCH  15  16
HETATM   16  C   UNL     1     -10.383   8.044  71.256  1.00  0.00    -0.193 C  
HETATM   17  C   UNL     1     -10.300   7.884  72.760  1.00  0.00    -0.399 C  
HETATM   18  O   UNL     1      -9.577   5.853  71.811  1.00  0.00    -0.152 OA 
HETATM   19  C   UNL     1      -9.329   6.734  72.911  1.00  0.00    -0.135 C  
HETATM   20  C   UNL     1     -10.243   6.600  70.779  1.00  0.00    -0.196 C  
ENDBRANCH  15  16
ENDBRANCH  14  15
ENDBRANCH  10  11
BRANCH  10  21
HETATM   21  C   UNL     1      -8.732  11.679  68.688  1.00  0.00    -0.083 C  
BRANCH  21  22
HETATM   22  C   UNL     1      -8.113  10.760  67.654  1.00  0.00    -0.114 A  
HETATM   23  C   UNL     1      -6.590  10.437  65.782  1.00  0.00    -0.126 A  
HETATM   24  C   UNL     1      -7.314  11.284  66.628  1.00  0.00    -0.131 A  
HETATM   25  C   UNL     1      -6.665   9.054  65.937  1.00  0.00    -0.072 A  
HETATM   26  C   UNL     1      -8.191   9.364  67.788  1.00  0.00    -0.114 A  
HETATM   27  C   UNL     1      -7.472   8.518  66.936  1.00  0.00    -0.084 A  
ENDBRANCH  21  22
ENDBRANCH  10  21
ENDBRANCH   7  10
ENDBRANCH   6   7
ENDBRANCH   5   6
BRANCH   5  28
HETATM   28  S   UNL     1     -10.672  15.165  65.220  1.00  0.00    -0.434 S  
HETATM   29  O   UNL     1      -9.545  14.505  64.603  1.00  0.00     0.212 OA 
HETATM   30  O   UNL     1     -11.657  15.861  64.413  1.00  0.00    -0.409 OA 
BRANCH  28  31
HETATM   31  C   UNL     1     -10.004  16.327  66.379  1.00  0.00    -0.300 A  
HETATM   32  N   UNL     1      -8.391  19.032  69.164  1.00  0.00    -0.155 NA 
HETATM   33  H2  UNL     1      -8.425  18.550  70.062  1.00  0.00     0.000 HD 
HETATM   34  H1  UNL     1      -7.452  19.408  69.037  1.00  0.00     0.000 HD 
HETATM   35  C   UNL     1     -10.778  16.757  67.458  1.00  0.00    -0.275 A  
HETATM   36  C   UNL     1     -10.242  17.680  68.367  1.00  0.00    -0.381 A  
HETATM   37  C   UNL     1      -8.680  16.768  66.245  1.00  0.00    -0.342 A  
HETATM   38  C   UNL     1      -8.156  17.684  67.164  1.00  0.00    -0.233 A  
HETATM   39  C   UNL     1      -8.952  18.196  68.193  1.00  0.00    -0.290 A  
ENDBRANCH  28  31
ENDBRANCH   5  28
ENDBRANCH   4   5
TORSDOF 11
ENDMDL
MODEL      295
REMARK 921   NORMALIZED FREE ENERGY PREDICTED BY IDOCK:   -4.24 KCAL/MOL
REMARK 922        TOTAL FREE ENERGY PREDICTED BY IDOCK:   -8.74 KCAL/MOL
REMARK 923 INTER-LIGAND FREE ENERGY PREDICTED BY IDOCK:   -7.33 KCAL/MOL
REMARK 924 INTRA-LIGAND FREE ENERGY PREDICTED BY IDOCK:   -1.41 KCAL/MOL
REMARK 927      BINDING AFFINITY PREDICTED BY RF-SCORE:    0.00 PKD
ROOT
HETATM    1  C   UNL     1     -11.621  12.585  68.725  1.00  0.00    -0.366 C  
HETATM    2  C   UNL     1     -10.223  13.174  68.534  1.00  0.00    -0.218 C  
HETATM    3  C   UNL     1      -9.196  12.128  69.010  1.00  0.00     0.367 C  
HETATM    4  C   UNL     1      -9.915  13.563  67.075  1.00  0.00    -0.247 C  
ENDROOT
BRANCH   4   5
HETATM    5  N   UNL     1     -10.834  14.586  66.416  1.00  0.00    -0.312 N  
BRANCH   5   6
HETATM    6  C   UNL     1     -10.046  15.776  65.817  1.00  0.00    -0.371 C  
BRANCH   6   7
HETATM    7  C   UNL     1      -9.739  16.974  66.783  1.00  0.00    -0.269 C  
HETATM    8  H   UNL     1     -10.426  17.607  68.499  1.00  0.00     0.000 HD 
HETATM    9  O   UNL     1     -10.612  16.882  67.915  1.00  0.00    -0.339 OA 
BRANCH   7  10
HETATM   10  C   UNL     1      -8.228  17.062  67.211  1.00  0.00    -0.186 C  
BRANCH  10  11
HETATM   11  N   UNL     1      -7.651  18.410  67.029  1.00  0.00    -0.216 N  
HETATM   12  O   UNL     1      -5.523  17.656  66.629  1.00  0.00    -0.138 OA 
HETATM   13  H   UNL     1      -8.255  19.228  67.105  1.00  0.00     0.000 HD 
HETATM   14  C   UNL     1      -6.315  18.577  66.760  1.00  0.00    -0.179 C  
BRANCH  14  15
HETATM   15  O   UNL     1      -5.977  19.896  66.683  1.00  0.00    -0.172 OA 
BRANCH  15  16
HETATM   16  C   UNL     1      -5.473  20.293  65.393  1.00  0.00    -0.169 C  
HETATM   17  C   UNL     1      -5.160  19.099  64.515  1.00  0.00    -0.215 C  
HETATM   18  O   UNL     1      -6.307  20.658  63.172  1.00  0.00    -0.151 OA 
HETATM   19  C   UNL     1      -5.260  19.684  63.123  1.00  0.00    -0.265 C  
HETATM   20  C   UNL     1      -6.494  21.046  64.543  1.00  0.00    -0.162 C  
ENDBRANCH  15  16
ENDBRANCH  14  15
ENDBRANCH  10  11
BRANCH  10  21
HETATM   21  C   UNL     1      -7.858  16.449  68.588  1.00  0.00    -0.211 C  
BRANCH  21  22
HETATM   22  C   UNL     1      -6.902  15.276  68.680  1.00  0.00    -0.109 A  
HETATM   23  C   UNL     1      -5.812  13.562  70.023  1.00  0.00    -0.135 A  
HETATM   24  C   UNL     1      -6.541  14.752  69.930  1.00  0.00    -0.175 A  
HETATM   25  C   UNL     1      -5.419  12.885  68.870  1.00  0.00    -0.071 A  
HETATM   26  C   UNL     1      -6.485  14.591  67.527  1.00  0.00    -0.070 A  
HETATM   27  C   UNL     1      -5.748  13.404  67.622  1.00  0.00    -0.072 A  
ENDBRANCH  21  22
ENDBRANCH  10  21
ENDBRANCH   7  10
ENDBRANCH   6   7
ENDBRANCH   5   6
BRANCH   5  28
HETATM   28  S   UNL     1     -11.833  13.815  65.188  1.00  0.00    -0.374 S  
HETATM   29  O   UNL     1     -12.998  13.237  65.816  1.00  0.00    -0.345 OA 
HETATM   30  O   UNL     1     -11.972  14.792  64.124  1.00  0.00    -0.393 OA 
BRANCH  28  31
HETATM   31  C   UNL     1     -10.875  12.463  64.560  1.00  0.00    -0.321 A  
HETATM   32  N   UNL     1      -8.656   9.236  63.031  1.00  0.00    -0.228 NA 
HETATM   33  H2  UNL     1      -9.330   8.483  62.895  1.00  0.00     0.000 HD 
HETATM   34  H1  UNL     1      -8.113   9.340  62.174  1.00  0.00     0.000 HD 
HETATM   35  C   UNL     1     -10.836  11.254  65.257  1.00  0.00    -0.261 A  
HETATM   36  C   UNL     1     -10.072  10.192  64.755  1.00  0.00    -0.250 A  
HETATM   37  C   UNL     1     -10.205  12.588  63.335  1.00  0.00    -0.100 A  
HETATM   38  C   UNL     1      -9.453  11.517  62.842  1.00  0.00    -0.309 A  
HETATM   39  C   UNL     1      -9.327  10.335  63.578  1.00  0.00    -0.301 A  
ENDBRANCH  28  31
ENDBRANCH   5  28
ENDBRANCH   4   5
TORSDOF 11
ENDMDL
MODEL      296
REMARK 921   NORMALIZED FREE ENERGY PREDICTED BY IDOCK:   -4.23 KCAL/MOL
REMARK 922        TOTAL FREE ENERGY PREDICTED BY IDOCK:   -8.72 KCAL/MOL
REMARK 923 INTER-LIGAND FREE ENERGY PREDICTED BY IDOCK:   -7.36 KCAL/MOL
REMARK 924 INTRA-LIGAND FREE ENERGY PREDICTED BY IDOCK:   -1.36 KCAL/MOL
REMARK 927      BINDING AFFINITY PREDICTED BY RF-SCORE:    0.00 PKD
ROOT
HETATM    1  C   UNL     1      -6.683   6.978  67.962  1.00  0.00    -0.065 C  
HETATM    2  C   UNL     1      -7.838   7.767  67.342  1.00  0.00    -0.118 C  
HETATM    3  C   UNL     1      -8.191   7.112  65.992  1.00  0.00    -0.129 C  
HETATM    4  C   UNL     1      -9.097   7.813  68.230  1.00  0.00    -0.130 C  
ENDROOT
BRANCH   4   5
HETATM    5  N   UNL     1      -8.948   8.419  69.621  1.00  0.00    -0.144 N  
BRANCH   5   6
HETATM    6  C   UNL     1      -9.336   9.917  69.649  1.00  0.00    -0.228 C  
BRANCH   6   7
HETATM    7  C   UNL     1      -8.207  10.943  69.283  1.00  0.00    -0.036 C  
HETATM    8  H   UNL     1      -6.267  10.878  69.061  1.00  0.00     0.000 HD 
HETATM    9  O   UNL     1      -6.950  10.256  69.283  1.00  0.00    -0.058 OA 
BRANCH   7  10
HETATM   10  C   UNL     1      -8.465  11.700  67.928  1.00  0.00    -0.148 C  
BRANCH  10  11
HETATM   11  N   UNL     1      -9.890  12.018  67.703  1.00  0.00    -0.186 N  
HETATM   12  O   UNL     1     -10.263  10.240  66.304  1.00  0.00    -0.231 OA 
HETATM   13  H   UNL     1     -10.303  12.827  68.165  1.00  0.00     0.000 HD 
HETATM   14  C   UNL     1     -10.666  11.239  66.880  1.00  0.00    -0.273 C  
BRANCH  14  15
HETATM   15  O   UNL     1     -11.932  11.734  66.765  1.00  0.00    -0.584 OA 
BRANCH  15  16
HETATM   16  C   UNL     1     -12.139  12.533  65.584  1.00  0.00    -0.400 C  
HETATM   17  C   UNL     1     -12.524  13.958  65.925  1.00  0.00    -0.519 C  
HETATM   18  O   UNL     1     -10.905  14.073  64.217  1.00  0.00    -0.313 OA 
HETATM   19  C   UNL     1     -12.094  14.715  64.688  1.00  0.00    -0.454 C  
HETATM   20  C   UNL     1     -10.872  12.741  64.757  1.00  0.00    -0.308 C  
ENDBRANCH  15  16
ENDBRANCH  14  15
ENDBRANCH  10  11
BRANCH  10  21
HETATM   21  C   UNL     1      -7.541  12.909  67.621  1.00  0.00    -0.156 C  
BRANCH  21  22
HETATM   22  C   UNL     1      -8.040  14.329  67.800  1.00  0.00    -0.176 A  
HETATM   23  C   UNL     1      -8.069  16.394  69.090  1.00  0.00    -0.198 A  
HETATM   24  C   UNL     1      -7.777  15.030  68.985  1.00  0.00    -0.170 A  
HETATM   25  C   UNL     1      -8.642  17.075  68.019  1.00  0.00    -0.217 A  
HETATM   26  C   UNL     1      -8.634  15.027  66.734  1.00  0.00    -0.279 A  
HETATM   27  C   UNL     1      -8.933  16.389  66.843  1.00  0.00    -0.240 A  
ENDBRANCH  21  22
ENDBRANCH  10  21
ENDBRANCH   7  10
ENDBRANCH   6   7
ENDBRANCH   5   6
BRANCH   5  28
HETATM   28  S   UNL     1      -9.892   7.505  70.794  1.00  0.00    -0.177 S  
HETATM   29  O   UNL     1      -9.674   8.055  72.112  1.00  0.00    -0.184 OA 
HETATM   30  O   UNL     1     -11.231   7.419  70.239  1.00  0.00    -0.269 OA 
BRANCH  28  31
HETATM   31  C   UNL     1      -9.205   5.873  70.808  1.00  0.00    -0.153 A  
HETATM   32  N   UNL     1      -7.543   2.011  70.782  1.00  0.00    -0.033 NA 
HETATM   33  H2  UNL     1      -7.524   1.730  69.801  1.00  0.00     0.000 HD 
HETATM   34  H1  UNL     1      -6.621   1.841  71.183  1.00  0.00     0.000 HD 
HETATM   35  C   UNL     1      -9.941   4.803  70.296  1.00  0.00    -0.320 A  
HETATM   36  C   UNL     1      -9.391   3.515  70.316  1.00  0.00    -0.242 A  
HETATM   37  C   UNL     1      -7.901   5.665  71.279  1.00  0.00    -0.111 A  
HETATM   38  C   UNL     1      -7.362   4.375  71.286  1.00  0.00    -0.055 A  
HETATM   39  C   UNL     1      -8.125   3.281  70.866  1.00  0.00    -0.054 A  
ENDBRANCH  28  31
ENDBRANCH   5  28
ENDBRANCH   4   5
TORSDOF 11
ENDMDL
MODEL      297
REMARK 921   NORMALIZED FREE ENERGY PREDICTED BY IDOCK:   -4.23 KCAL/MOL
REMARK 922        TOTAL FREE ENERGY PREDICTED BY IDOCK:   -8.72 KCAL/MOL
REMARK 923 INTER-LIGAND FREE ENERGY PREDICTED BY IDOCK:   -7.89 KCAL/MOL
REMARK 924 INTRA-LIGAND FREE ENERGY PREDICTED BY IDOCK:   -0.83 KCAL/MOL
REMARK 927      BINDING AFFINITY PREDICTED BY RF-SCORE:    0.00 PKD
ROOT
HETATM    1  C   UNL     1      -6.880   7.286  66.091  1.00  0.00    -0.057 C  
HETATM    2  C   UNL     1      -6.298   8.587  66.646  1.00  0.00    -0.059 C  
HETATM    3  C   UNL     1      -5.668   9.365  65.473  1.00  0.00    -0.053 C  
HETATM    4  C   UNL     1      -7.344   9.479  67.345  1.00  0.00    -0.087 C  
ENDROOT
BRANCH   4   5
HETATM    5  N   UNL     1      -8.090   8.880  68.531  1.00  0.00    -0.107 N  
BRANCH   5   6
HETATM    6  C   UNL     1      -8.129   9.843  69.742  1.00  0.00    -0.176 C  
BRANCH   6   7
HETATM    7  C   UNL     1      -6.991  10.920  69.821  1.00  0.00    -0.120 C  
HETATM    8  H   UNL     1      -5.072  10.966  69.453  1.00  0.00     0.000 HD 
HETATM    9  O   UNL     1      -5.761  10.314  69.405  1.00  0.00    -0.038 OA 
BRANCH   7  10
HETATM   10  C   UNL     1      -7.309  12.228  69.007  1.00  0.00     0.017 C  
BRANCH  10  11
HETATM   11  N   UNL     1      -8.748  12.401  68.726  1.00  0.00    -0.376 N  
HETATM   12  O   UNL     1      -8.470  12.704  66.471  1.00  0.00    -0.043 OA 
HETATM   13  H   UNL     1      -9.419  12.342  69.492  1.00  0.00     0.000 HD 
HETATM   14  C   UNL     1      -9.197  12.640  67.451  1.00  0.00    -0.191 C  
BRANCH  14  15
HETATM   15  O   UNL     1     -10.548  12.823  67.417  1.00  0.00    -0.226 OA 
BRANCH  15  16
HETATM   16  C   UNL     1     -11.050  13.208  66.122  1.00  0.00    -0.282 C  
HETATM   17  C   UNL     1     -11.525  12.013  65.321  1.00  0.00    -0.358 C  
HETATM   18  O   UNL     1     -13.158  13.694  65.083  1.00  0.00    -0.750 OA 
HETATM   19  C   UNL     1     -12.515  12.637  64.363  1.00  0.00    -0.428 C  
HETATM   20  C   UNL     1     -12.313  14.064  66.185  1.00  0.00    -0.458 C  
ENDBRANCH  15  16
ENDBRANCH  14  15
ENDBRANCH  10  11
BRANCH  10  21
HETATM   21  C   UNL     1      -6.650  13.539  69.512  1.00  0.00    -0.054 C  
BRANCH  21  22
HETATM   22  C   UNL     1      -6.862  14.846  68.774  1.00  0.00    -0.102 A  
HETATM   23  C   UNL     1      -7.938  17.025  68.638  1.00  0.00    -0.258 A  
HETATM   24  C   UNL     1      -7.855  15.743  69.191  1.00  0.00    -0.227 A  
HETATM   25  C   UNL     1      -7.041  17.426  67.650  1.00  0.00    -0.176 A  
HETATM   26  C   UNL     1      -5.974  15.259  67.766  1.00  0.00    -0.157 A  
HETATM   27  C   UNL     1      -6.064  16.539  67.208  1.00  0.00    -0.204 A  
ENDBRANCH  21  22
ENDBRANCH  10  21
ENDBRANCH   7  10
ENDBRANCH   6   7
ENDBRANCH   5   6
BRANCH   5  28
HETATM   28  S   UNL     1      -9.718   8.404  68.057  1.00  0.00    -0.164 S  
HETATM   29  O   UNL     1     -10.131   9.190  66.918  1.00  0.00    -0.215 OA 
HETATM   30  O   UNL     1      -9.700   6.954  67.990  1.00  0.00    -0.129 OA 
BRANCH  28  31
HETATM   31  C   UNL     1     -10.773   8.871  69.402  1.00  0.00    -0.181 A  
HETATM   32  N   UNL     1     -13.329   9.948  72.561  1.00  0.00    -0.581 NA 
HETATM   33  H2  UNL     1     -14.238  10.114  72.131  1.00  0.00     0.000 HD 
HETATM   34  H1  UNL     1     -13.459   9.325  73.358  1.00  0.00     0.000 HD 
HETATM   35  C   UNL     1     -11.407  10.114  69.389  1.00  0.00    -0.233 A  
HETATM   36  C   UNL     1     -12.236  10.477  70.460  1.00  0.00    -0.435 A  
HETATM   37  C   UNL     1     -11.017   7.970  70.447  1.00  0.00    -0.248 A  
HETATM   38  C   UNL     1     -11.852   8.342  71.505  1.00  0.00    -0.345 A  
HETATM   39  C   UNL     1     -12.416   9.621  71.553  1.00  0.00    -0.386 A  
ENDBRANCH  28  31
ENDBRANCH   5  28
ENDBRANCH   4   5
TORSDOF 11
ENDMDL
MODEL      298
REMARK 921   NORMALIZED FREE ENERGY PREDICTED BY IDOCK:   -4.22 KCAL/MOL
REMARK 922        TOTAL FREE ENERGY PREDICTED BY IDOCK:   -8.70 KCAL/MOL
REMARK 923 INTER-LIGAND FREE ENERGY PREDICTED BY IDOCK:   -6.54 KCAL/MOL
REMARK 924 INTRA-LIGAND FREE ENERGY PREDICTED BY IDOCK:   -2.16 KCAL/MOL
REMARK 927      BINDING AFFINITY PREDICTED BY RF-SCORE:    0.00 PKD
ROOT
HETATM    1  C   UNL     1     -10.705   7.937  66.967  1.00  0.00    -0.289 C  
HETATM    2  C   UNL     1      -9.384   7.396  67.517  1.00  0.00    -0.147 C  
HETATM    3  C   UNL     1      -9.084   6.060  66.809  1.00  0.00    -0.134 C  
HETATM    4  C   UNL     1      -8.196   8.357  67.316  1.00  0.00    -0.112 C  
ENDROOT
BRANCH   4   5
HETATM    5  N   UNL     1      -8.308   9.745  67.937  1.00  0.00    -0.113 N  
BRANCH   5   6
HETATM    6  C   UNL     1      -7.410   9.897  69.189  1.00  0.00    -0.083 C  
BRANCH   6   7
HETATM    7  C   UNL     1      -6.502   8.672  69.557  1.00  0.00    -0.040 C  
HETATM    8  H   UNL     1      -4.582   8.335  69.693  1.00  0.00     0.000 HD 
HETATM    9  O   UNL     1      -5.131   9.077  69.470  1.00  0.00    -0.034 OA 
BRANCH   7  10
HETATM   10  C   UNL     1      -6.842   8.039  70.957  1.00  0.00    -0.042 C  
BRANCH  10  11
HETATM   11  N   UNL     1      -8.246   8.252  71.364  1.00  0.00    -0.119 N  
HETATM   12  O   UNL     1      -7.762   8.520  73.589  1.00  0.00    -0.345 OA 
HETATM   13  H   UNL     1      -8.981   8.240  70.657  1.00  0.00     0.000 HD 
HETATM   14  C   UNL     1      -8.576   8.466  72.680  1.00  0.00    -0.171 C  
BRANCH  14  15
HETATM   15  O   UNL     1      -9.925   8.584  72.849  1.00  0.00    -0.215 OA 
BRANCH  15  16
HETATM   16  C   UNL     1     -10.693   8.169  71.703  1.00  0.00    -0.241 C  
HETATM   17  C   UNL     1     -10.817   6.661  71.620  1.00  0.00    -0.269 C  
HETATM   18  O   UNL     1     -12.953   7.552  71.180  1.00  0.00    -0.292 OA 
HETATM   19  C   UNL     1     -12.079   6.484  70.804  1.00  0.00    -0.222 C  
HETATM   20  C   UNL     1     -12.157   8.600  71.759  1.00  0.00    -0.340 C  
ENDBRANCH  15  16
ENDBRANCH  14  15
ENDBRANCH  10  11
BRANCH  10  21
HETATM   21  C   UNL     1      -6.381   6.576  71.189  1.00  0.00    -0.048 C  
BRANCH  21  22
HETATM   22  C   UNL     1      -6.578   5.523  70.116  1.00  0.00    -0.042 A  
HETATM   23  C   UNL     1      -5.899   4.541  67.995  1.00  0.00    -0.022 A  
HETATM   24  C   UNL     1      -5.866   5.597  68.911  1.00  0.00    -0.019 A  
HETATM   25  C   UNL     1      -6.655   3.401  68.261  1.00  0.00    -0.037 A  
HETATM   26  C   UNL     1      -7.349   4.375  70.363  1.00  0.00    -0.049 A  
HETATM   27  C   UNL     1      -7.387   3.322  69.441  1.00  0.00    -0.048 A  
ENDBRANCH  21  22
ENDBRANCH  10  21
ENDBRANCH   7  10
ENDBRANCH   6   7
ENDBRANCH   5   6
BRANCH   5  28
HETATM   28  S   UNL     1      -7.934  10.984  66.743  1.00  0.00    -0.156 S  
HETATM   29  O   UNL     1      -7.248  12.078  67.391  1.00  0.00    -0.122 OA 
HETATM   30  O   UNL     1      -7.324  10.284  65.627  1.00  0.00    -0.137 OA 
BRANCH  28  31
HETATM   31  C   UNL     1      -9.494  11.620  66.196  1.00  0.00    -0.224 A  
HETATM   32  N   UNL     1     -13.228  13.077  64.928  1.00  0.00    -0.669 NA 
HETATM   33  H2  UNL     1     -13.796  12.249  64.749  1.00  0.00     0.000 HD 
HETATM   34  H1  UNL     1     -13.764  13.713  65.518  1.00  0.00     0.000 HD 
HETATM   35  C   UNL     1      -9.982  11.275  64.935  1.00  0.00    -0.323 A  
HETATM   36  C   UNL     1     -11.216  11.787  64.509  1.00  0.00    -0.368 A  
HETATM   37  C   UNL     1     -10.263  12.421  67.051  1.00  0.00    -0.232 A  
HETATM   38  C   UNL     1     -11.496  12.919  66.615  1.00  0.00    -0.393 A  
HETATM   39  C   UNL     1     -11.951  12.660  65.319  1.00  0.00    -0.439 A  
ENDBRANCH  28  31
ENDBRANCH   5  28
ENDBRANCH   4   5
TORSDOF 11
ENDMDL
MODEL      299
REMARK 921   NORMALIZED FREE ENERGY PREDICTED BY IDOCK:   -4.19 KCAL/MOL
REMARK 922        TOTAL FREE ENERGY PREDICTED BY IDOCK:   -8.65 KCAL/MOL
REMARK 923 INTER-LIGAND FREE ENERGY PREDICTED BY IDOCK:   -6.51 KCAL/MOL
REMARK 924 INTRA-LIGAND FREE ENERGY PREDICTED BY IDOCK:   -2.14 KCAL/MOL
REMARK 927      BINDING AFFINITY PREDICTED BY RF-SCORE:    0.00 PKD
ROOT
HETATM    1  C   UNL     1     -10.586   5.571  71.267  1.00  0.00    -0.304 C  
HETATM    2  C   UNL     1     -10.763   7.056  71.584  1.00  0.00    -0.244 C  
HETATM    3  C   UNL     1     -10.874   7.206  73.115  1.00  0.00    -0.373 C  
HETATM    4  C   UNL     1      -9.606   7.936  71.070  1.00  0.00    -0.159 C  
ENDROOT
BRANCH   4   5
HETATM    5  N   UNL     1      -9.327   7.915  69.571  1.00  0.00    -0.156 N  
BRANCH   5   6
HETATM    6  C   UNL     1      -9.521   9.308  68.923  1.00  0.00    -0.154 C  
BRANCH   6   7
HETATM    7  C   UNL     1      -9.637   9.345  67.359  1.00  0.00    -0.145 C  
HETATM    8  H   UNL     1     -10.688   8.408  66.004  1.00  0.00     0.000 HD 
HETATM    9  O   UNL     1     -10.618   8.385  66.951  1.00  0.00    -0.305 OA 
BRANCH   7  10
HETATM   10  C   UNL     1      -9.943  10.780  66.788  1.00  0.00    -0.206 C  
BRANCH  10  11
HETATM   11  N   UNL     1     -10.845  11.567  67.652  1.00  0.00    -0.213 N  
HETATM   12  O   UNL     1     -12.092  12.400  65.919  1.00  0.00    -0.580 OA 
HETATM   13  H   UNL     1     -10.718  11.543  68.664  1.00  0.00     0.000 HD 
HETATM   14  C   UNL     1     -11.852  12.330  67.114  1.00  0.00    -0.258 C  
BRANCH  14  15
HETATM   15  O   UNL     1     -12.532  13.019  68.075  1.00  0.00     0.058 OA 
BRANCH  15  16
HETATM   16  C   UNL     1     -11.680  13.672  69.035  1.00  0.00    -0.333 C  
HETATM   17  C   UNL     1     -11.686  15.178  68.866  1.00  0.00    -0.357 C  
HETATM   18  O   UNL     1     -11.871  14.744  71.175  1.00  0.00    -0.314 OA 
HETATM   19  C   UNL     1     -11.288  15.661  70.244  1.00  0.00    -0.344 C  
HETATM   20  C   UNL     1     -12.154  13.518  70.479  1.00  0.00    -0.335 C  
ENDBRANCH  15  16
ENDBRANCH  14  15
ENDBRANCH  10  11
BRANCH  10  21
HETATM   21  C   UNL     1      -8.724  11.610  66.306  1.00  0.00    -0.136 C  
BRANCH  21  22
HETATM   22  C   UNL     1      -8.200  12.768  67.132  1.00  0.00    -0.146 A  
HETATM   23  C   UNL     1      -8.312  15.120  67.751  1.00  0.00    -0.159 A  
HETATM   24  C   UNL     1      -8.643  14.075  66.883  1.00  0.00    -0.148 A  
HETATM   25  C   UNL     1      -7.522  14.880  68.874  1.00  0.00    -0.137 A  
HETATM   26  C   UNL     1      -7.391  12.545  68.259  1.00  0.00    -0.115 A  
HETATM   27  C   UNL     1      -7.055  13.593  69.122  1.00  0.00    -0.036 A  
ENDBRANCH  21  22
ENDBRANCH  10  21
ENDBRANCH   7  10
ENDBRANCH   6   7
ENDBRANCH   5   6
BRANCH   5  28
HETATM   28  S   UNL     1      -7.709   7.297  69.255  1.00  0.00    -0.109 S  
HETATM   29  O   UNL     1      -6.839   8.397  68.908  1.00  0.00    -0.059 OA 
HETATM   30  O   UNL     1      -7.395   6.427  70.374  1.00  0.00    -0.083 OA 
BRANCH  28  31
HETATM   31  C   UNL     1      -7.847   6.287  67.806  1.00  0.00    -0.106 A  
HETATM   32  N   UNL     1      -8.130   3.849  64.393  1.00  0.00    -0.089 NA 
HETATM   33  H2  UNL     1      -7.190   3.482  64.243  1.00  0.00     0.000 HD 
HETATM   34  H1  UNL     1      -8.787   3.070  64.365  1.00  0.00     0.000 HD 
HETATM   35  C   UNL     1      -7.076   6.577  66.679  1.00  0.00    -0.068 A  
HETATM   36  C   UNL     1      -7.195   5.775  65.536  1.00  0.00    -0.074 A  
HETATM   37  C   UNL     1      -8.687   5.165  67.811  1.00  0.00    -0.103 A  
HETATM   38  C   UNL     1      -8.792   4.370  66.666  1.00  0.00    -0.114 A  
HETATM   39  C   UNL     1      -8.098   4.705  65.499  1.00  0.00    -0.107 A  
ENDBRANCH  28  31
ENDBRANCH   5  28
ENDBRANCH   4   5
TORSDOF 11
ENDMDL
MODEL      300
REMARK 921   NORMALIZED FREE ENERGY PREDICTED BY IDOCK:   -4.19 KCAL/MOL
REMARK 922        TOTAL FREE ENERGY PREDICTED BY IDOCK:   -8.65 KCAL/MOL
REMARK 923 INTER-LIGAND FREE ENERGY PREDICTED BY IDOCK:   -8.17 KCAL/MOL
REMARK 924 INTRA-LIGAND FREE ENERGY PREDICTED BY IDOCK:   -0.48 KCAL/MOL
REMARK 927      BINDING AFFINITY PREDICTED BY RF-SCORE:    0.00 PKD
ROOT
HETATM    1  C   UNL     1      -5.435  11.833  66.613  1.00  0.00    -0.059 C  
HETATM    2  C   UNL     1      -6.341  11.195  67.666  1.00  0.00    -0.054 C  
HETATM    3  C   UNL     1      -5.490  10.211  68.493  1.00  0.00    -0.038 C  
HETATM    4  C   UNL     1      -7.000  12.218  68.612  1.00  0.00    -0.097 C  
ENDROOT
BRANCH   4   5
HETATM    5  N   UNL     1      -7.879  13.289  67.977  1.00  0.00    -0.133 N  
BRANCH   5   6
HETATM    6  C   UNL     1      -9.370  13.122  68.359  1.00  0.00    -0.154 C  
BRANCH   6   7
HETATM    7  C   UNL     1     -10.250  12.255  67.392  1.00  0.00    -0.203 C  
HETATM    8  H   UNL     1      -9.982  11.344  65.684  1.00  0.00     0.000 HD 
HETATM    9  O   UNL     1      -9.449  11.868  66.270  1.00  0.00    -0.218 OA 
BRANCH   7  10
HETATM   10  C   UNL     1     -10.918  11.016  68.095  1.00  0.00    -0.247 C  
BRANCH  10  11
HETATM   11  N   UNL     1     -10.995   9.826  67.223  1.00  0.00    -0.298 N  
HETATM   12  O   UNL     1      -9.101   8.848  68.065  1.00  0.00    -0.139 OA 
HETATM   13  H   UNL     1     -11.767   9.738  66.561  1.00  0.00     0.000 HD 
HETATM   14  C   UNL     1     -10.045   8.838  67.289  1.00  0.00    -0.236 C  
BRANCH  14  15
HETATM   15  O   UNL     1     -10.269   7.859  66.366  1.00  0.00    -0.196 OA 
BRANCH  15  16
HETATM   16  C   UNL     1     -10.542   6.568  66.942  1.00  0.00    -0.305 C  
HETATM   17  C   UNL     1      -9.271   5.838  67.326  1.00  0.00    -0.110 C  
HETATM   18  O   UNL     1     -10.779   5.584  69.119  1.00  0.00    -0.257 OA 
HETATM   19  C   UNL     1      -9.754   4.889  68.402  1.00  0.00    -0.151 C  
HETATM   20  C   UNL     1     -11.278   6.638  68.279  1.00  0.00    -0.115 C  
ENDBRANCH  15  16
ENDBRANCH  14  15
ENDBRANCH  10  11
BRANCH  10  21
HETATM   21  C   UNL     1     -10.408  10.665  69.518  1.00  0.00    -0.214 C  
BRANCH  21  22
HETATM   22  C   UNL     1     -11.370  10.194  70.591  1.00  0.00    -0.433 A  
HETATM   23  C   UNL     1     -13.642  10.056  71.454  1.00  0.00    -0.263 A  
HETATM   24  C   UNL     1     -12.704  10.623  70.585  1.00  0.00    -0.445 A  
HETATM   25  C   UNL     1     -13.258   9.062  72.352  1.00  0.00    -0.507 A  
HETATM   26  C   UNL     1     -10.995   9.203  71.513  1.00  0.00    -0.434 A  
HETATM   27  C   UNL     1     -11.932   8.641  72.387  1.00  0.00    -0.410 A  
ENDBRANCH  21  22
ENDBRANCH  10  21
ENDBRANCH   7  10
ENDBRANCH   6   7
ENDBRANCH   5   6
BRANCH   5  28
HETATM   28  S   UNL     1      -7.299  14.896  68.408  1.00  0.00    -0.123 S  
HETATM   29  O   UNL     1      -7.536  15.126  69.814  1.00  0.00    -0.206 OA 
HETATM   30  O   UNL     1      -5.960  14.991  67.856  1.00  0.00    -0.138 OA 
BRANCH  28  31
HETATM   31  C   UNL     1      -8.330  16.038  67.529  1.00  0.00    -0.161 A  
HETATM   32  N   UNL     1     -10.724  18.762  65.402  1.00  0.00    -0.510 NA 
HETATM   33  H2  UNL     1     -10.092  19.508  65.111  1.00  0.00     0.000 HD 
HETATM   34  H1  UNL     1     -11.258  18.457  64.588  1.00  0.00     0.000 HD 
HETATM   35  C   UNL     1      -8.439  17.358  67.969  1.00  0.00    -0.235 A  
HETATM   36  C   UNL     1      -9.260  18.252  67.270  1.00  0.00    -0.256 A  
HETATM   37  C   UNL     1      -8.988  15.631  66.360  1.00  0.00    -0.362 A  
HETATM   38  C   UNL     1      -9.799  16.537  65.668  1.00  0.00    -0.187 A  
HETATM   39  C   UNL     1      -9.993  17.834  66.153  1.00  0.00    -0.276 A  
ENDBRANCH  28  31
ENDBRANCH   5  28
ENDBRANCH   4   5
TORSDOF 11
ENDMDL
MODEL      301
REMARK 921   NORMALIZED FREE ENERGY PREDICTED BY IDOCK:   -4.18 KCAL/MOL
REMARK 922        TOTAL FREE ENERGY PREDICTED BY IDOCK:   -8.64 KCAL/MOL
REMARK 923 INTER-LIGAND FREE ENERGY PREDICTED BY IDOCK:   -8.51 KCAL/MOL
REMARK 924 INTRA-LIGAND FREE ENERGY PREDICTED BY IDOCK:   -0.13 KCAL/MOL
REMARK 927      BINDING AFFINITY PREDICTED BY RF-SCORE:    0.00 PKD
ROOT
HETATM    1  C   UNL     1      -8.021   6.307  66.881  1.00  0.00    -0.109 C  
HETATM    2  C   UNL     1      -8.261   5.533  68.177  1.00  0.00    -0.096 C  
HETATM    3  C   UNL     1      -7.199   4.419  68.271  1.00  0.00    -0.060 C  
HETATM    4  C   UNL     1      -8.189   6.412  69.441  1.00  0.00    -0.118 C  
ENDROOT
BRANCH   4   5
HETATM    5  N   UNL     1      -9.160   7.584  69.532  1.00  0.00    -0.143 N  
BRANCH   5   6
HETATM    6  C   UNL     1      -9.237   8.381  68.208  1.00  0.00    -0.134 C  
BRANCH   6   7
HETATM    7  C   UNL     1      -8.585   9.808  68.207  1.00  0.00    -0.119 C  
HETATM    8  H   UNL     1      -6.770  10.525  68.095  1.00  0.00     0.000 HD 
HETATM    9  O   UNL     1      -7.165   9.661  68.095  1.00  0.00    -0.078 OA 
BRANCH   7  10
HETATM   10  C   UNL     1      -9.167  10.762  67.099  1.00  0.00    -0.147 C  
BRANCH  10  11
HETATM   11  N   UNL     1      -9.912  11.910  67.654  1.00  0.00    -0.187 N  
HETATM   12  O   UNL     1     -11.747  11.616  66.312  1.00  0.00    -0.443 OA 
HETATM   13  H   UNL     1      -9.493  12.467  68.399  1.00  0.00     0.000 HD 
HETATM   14  C   UNL     1     -11.159  12.239  67.183  1.00  0.00    -0.278 C  
BRANCH  14  15
HETATM   15  O   UNL     1     -11.648  13.359  67.788  1.00  0.00    -0.299 OA 
BRANCH  15  16
HETATM   16  C   UNL     1     -11.429  14.568  67.037  1.00  0.00    -0.370 C  
HETATM   17  C   UNL     1     -10.014  15.086  67.196  1.00  0.00    -0.237 C  
HETATM   18  O   UNL     1     -10.544  15.225  64.904  1.00  0.00    -0.407 OA 
HETATM   19  C   UNL     1      -9.825  15.905  65.938  1.00  0.00    -0.351 C  
HETATM   20  C   UNL     1     -11.523  14.374  65.525  1.00  0.00    -0.340 C  
ENDBRANCH  15  16
ENDBRANCH  14  15
ENDBRANCH  10  11
BRANCH  10  21
HETATM   21  C   UNL     1      -8.194  11.189  65.968  1.00  0.00    -0.094 C  
BRANCH  21  22
HETATM   22  C   UNL     1      -8.142  10.422  64.661  1.00  0.00    -0.122 A  
HETATM   23  C   UNL     1      -7.109   8.705  63.278  1.00  0.00    -0.090 A  
HETATM   24  C   UNL     1      -7.076   9.553  64.390  1.00  0.00    -0.108 A  
HETATM   25  C   UNL     1      -8.200   8.723  62.411  1.00  0.00    -0.176 A  
HETATM   26  C   UNL     1      -9.227  10.440  63.769  1.00  0.00    -0.302 A  
HETATM   27  C   UNL     1      -9.255   9.597  62.652  1.00  0.00    -0.203 A  
ENDBRANCH  21  22
ENDBRANCH  10  21
ENDBRANCH   7  10
ENDBRANCH   6   7
ENDBRANCH   5   6
BRANCH   5  28
HETATM   28  S   UNL     1     -10.757   7.023  70.019  1.00  0.00    -0.251 S  
HETATM   29  O   UNL     1     -11.479   6.573  68.852  1.00  0.00    -0.266 OA 
HETATM   30  O   UNL     1     -10.534   6.132  71.143  1.00  0.00    -0.214 OA 
BRANCH  28  31
HETATM   31  C   UNL     1     -11.612   8.452  70.622  1.00  0.00    -0.191 A  
HETATM   32  N   UNL     1     -13.594  11.854  72.099  1.00  0.00    -0.444 NA 
HETATM   33  H2  UNL     1     -13.408  11.862  73.102  1.00  0.00     0.000 HD 
HETATM   34  H1  UNL     1     -13.383  12.779  71.725  1.00  0.00     0.000 HD 
HETATM   35  C   UNL     1     -12.605   8.311  71.593  1.00  0.00    -0.355 A  
HETATM   36  C   UNL     1     -13.280   9.447  72.060  1.00  0.00    -0.529 A  
HETATM   37  C   UNL     1     -11.253   9.728  70.167  1.00  0.00    -0.324 A  
HETATM   38  C   UNL     1     -11.929  10.854  70.648  1.00  0.00    -0.467 A  
HETATM   39  C   UNL     1     -12.991  10.717  71.548  1.00  0.00    -0.456 A  
ENDBRANCH  28  31
ENDBRANCH   5  28
ENDBRANCH   4   5
TORSDOF 11
ENDMDL
MODEL      302
REMARK 921   NORMALIZED FREE ENERGY PREDICTED BY IDOCK:   -4.18 KCAL/MOL
REMARK 922        TOTAL FREE ENERGY PREDICTED BY IDOCK:   -8.64 KCAL/MOL
REMARK 923 INTER-LIGAND FREE ENERGY PREDICTED BY IDOCK:   -8.22 KCAL/MOL
REMARK 924 INTRA-LIGAND FREE ENERGY PREDICTED BY IDOCK:   -0.42 KCAL/MOL
REMARK 927      BINDING AFFINITY PREDICTED BY RF-SCORE:    0.00 PKD
ROOT
HETATM    1  C   UNL     1     -11.049   6.752  67.562  1.00  0.00    -0.340 C  
HETATM    2  C   UNL     1     -10.549   5.739  68.593  1.00  0.00    -0.305 C  
HETATM    3  C   UNL     1     -10.017   4.507  67.832  1.00  0.00    -0.116 C  
HETATM    4  C   UNL     1      -9.437   6.291  69.506  1.00  0.00    -0.141 C  
ENDROOT
BRANCH   4   5
HETATM    5  N   UNL     1      -9.767   7.525  70.339  1.00  0.00    -0.179 N  
BRANCH   5   6
HETATM    6  C   UNL     1     -10.255   8.705  69.464  1.00  0.00    -0.209 C  
BRANCH   6   7
HETATM    7  C   UNL     1      -9.609  10.106  69.750  1.00  0.00    -0.177 C  
HETATM    8  H   UNL     1      -7.794  10.806  69.931  1.00  0.00     0.000 HD 
HETATM    9  O   UNL     1      -8.185   9.958  69.759  1.00  0.00    -0.151 OA 
BRANCH   7  10
HETATM   10  C   UNL     1     -10.079  11.227  68.750  1.00  0.00    -0.194 C  
BRANCH  10  11
HETATM   11  N   UNL     1     -10.659  12.403  69.429  1.00  0.00    -0.423 N  
HETATM   12  O   UNL     1     -12.524  12.493  68.099  1.00  0.00    -0.011 OA 
HETATM   13  H   UNL     1     -10.164  12.822  70.217  1.00  0.00     0.000 HD 
HETATM   14  C   UNL     1     -11.853  12.942  69.016  1.00  0.00    -0.306 C  
BRANCH  14  15
HETATM   15  O   UNL     1     -12.182  14.052  69.737  1.00  0.00    -0.327 OA 
BRANCH  15  16
HETATM   16  C   UNL     1     -12.189  13.839  71.162  1.00  0.00    -0.278 C  
HETATM   17  C   UNL     1     -11.995  15.131  71.929  1.00  0.00    -0.465 C  
HETATM   18  O   UNL     1     -13.740  13.955  72.990  1.00  0.00    -0.600 OA 
HETATM   19  C   UNL     1     -12.627  14.812  73.266  1.00  0.00    -0.441 C  
HETATM   20  C   UNL     1     -13.533  13.353  71.701  1.00  0.00    -0.299 C  
ENDBRANCH  15  16
ENDBRANCH  14  15
ENDBRANCH  10  11
BRANCH  10  21
HETATM   21  C   UNL     1      -9.076  11.630  67.636  1.00  0.00    -0.174 C  
BRANCH  21  22
HETATM   22  C   UNL     1      -8.684  13.080  67.436  1.00  0.00    -0.205 A  
HETATM   23  C   UNL     1      -9.138  15.256  66.442  1.00  0.00    -0.347 A  
HETATM   24  C   UNL     1      -9.364  13.877  66.505  1.00  0.00    -0.264 A  
HETATM   25  C   UNL     1      -8.218  15.858  67.299  1.00  0.00    -0.211 A  
HETATM   26  C   UNL     1      -7.748  13.699  68.282  1.00  0.00    -0.140 A  
HETATM   27  C   UNL     1      -7.517  15.078  68.213  1.00  0.00    -0.107 A  
ENDBRANCH  21  22
ENDBRANCH  10  21
ENDBRANCH   7  10
ENDBRANCH   6   7
ENDBRANCH   5   6
BRANCH   5  28
HETATM   28  S   UNL     1     -10.955   7.131  71.579  1.00  0.00    -0.239 S  
HETATM   29  O   UNL     1     -10.983   8.187  72.563  1.00  0.00    -0.324 OA 
HETATM   30  O   UNL     1     -12.159   6.752  70.862  1.00  0.00    -0.377 OA 
BRANCH  28  31
HETATM   31  C   UNL     1     -10.338   5.689  72.403  1.00  0.00    -0.203 A  
HETATM   32  N   UNL     1      -8.906   2.288  74.418  1.00  0.00    -0.069 NA 
HETATM   33  H2  UNL     1      -8.750   2.588  75.379  1.00  0.00     0.000 HD 
HETATM   34  H1  UNL     1      -9.453   1.427  74.434  1.00  0.00     0.000 HD 
HETATM   35  C   UNL     1      -9.081   5.718  73.009  1.00  0.00    -0.124 A  
HETATM   36  C   UNL     1      -8.599   4.572  73.655  1.00  0.00    -0.103 A  
HETATM   37  C   UNL     1     -11.136   4.541  72.498  1.00  0.00    -0.015 A  
HETATM   38  C   UNL     1     -10.646   3.406  73.152  1.00  0.00    -0.270 A  
HETATM   39  C   UNL     1      -9.350   3.390  73.678  1.00  0.00    -0.092 A  
ENDBRANCH  28  31
ENDBRANCH   5  28
ENDBRANCH   4   5
TORSDOF 11
ENDMDL
MODEL      303
REMARK 921   NORMALIZED FREE ENERGY PREDICTED BY IDOCK:   -4.16 KCAL/MOL
REMARK 922        TOTAL FREE ENERGY PREDICTED BY IDOCK:   -8.61 KCAL/MOL
REMARK 923 INTER-LIGAND FREE ENERGY PREDICTED BY IDOCK:   -7.87 KCAL/MOL
REMARK 924 INTRA-LIGAND FREE ENERGY PREDICTED BY IDOCK:   -0.73 KCAL/MOL
REMARK 927      BINDING AFFINITY PREDICTED BY RF-SCORE:    0.00 PKD
ROOT
HETATM    1  C   UNL     1     -10.194   8.670  67.159  1.00  0.00    -0.353 C  
HETATM    2  C   UNL     1     -10.536   8.871  68.636  1.00  0.00    -0.223 C  
HETATM    3  C   UNL     1     -10.141   7.588  69.395  1.00  0.00    -0.190 C  
HETATM    4  C   UNL     1      -9.822  10.079  69.273  1.00  0.00    -0.214 C  
ENDROOT
BRANCH   4   5
HETATM    5  N   UNL     1     -10.077  11.447  68.651  1.00  0.00    -0.209 N  
BRANCH   5   6
HETATM    6  C   UNL     1      -9.611  11.514  67.176  1.00  0.00    -0.177 C  
BRANCH   6   7
HETATM    7  C   UNL     1      -8.805  12.790  66.750  1.00  0.00    -0.159 C  
HETATM    8  H   UNL     1      -9.247  14.583  66.110  1.00  0.00     0.000 HD 
HETATM    9  O   UNL     1      -9.735  13.810  66.368  1.00  0.00    -0.282 OA 
BRANCH   7  10
HETATM   10  C   UNL     1      -7.800  13.293  67.852  1.00  0.00    -0.152 C  
BRANCH  10  11
HETATM   11  N   UNL     1      -6.984  12.206  68.432  1.00  0.00    -0.071 N  
HETATM   12  O   UNL     1      -5.753  11.854  66.531  1.00  0.00    -0.265 OA 
HETATM   13  H   UNL     1      -7.139  11.925  69.400  1.00  0.00     0.000 HD 
HETATM   14  C   UNL     1      -6.022  11.569  67.688  1.00  0.00    -0.058 C  
BRANCH  14  15
HETATM   15  O   UNL     1      -5.424  10.564  68.390  1.00  0.00    -0.038 OA 
BRANCH  15  16
HETATM   16  C   UNL     1      -6.320   9.497  68.755  1.00  0.00    -0.047 C  
HETATM   17  C   UNL     1      -6.099   8.258  67.912  1.00  0.00    -0.047 C  
HETATM   18  O   UNL     1      -6.315   7.541  70.146  1.00  0.00    -0.033 OA 
HETATM   19  C   UNL     1      -6.633   7.159  68.804  1.00  0.00    -0.044 C  
HETATM   20  C   UNL     1      -6.089   8.961  70.166  1.00  0.00    -0.037 C  
ENDBRANCH  15  16
ENDBRANCH  14  15
ENDBRANCH  10  11
BRANCH  10  21
HETATM   21  C   UNL     1      -6.945  14.539  67.497  1.00  0.00    -0.188 C  
BRANCH  21  22
HETATM   22  C   UNL     1      -7.438  15.934  67.827  1.00  0.00    -0.157 A  
HETATM   23  C   UNL     1      -7.193  17.998  69.095  1.00  0.00    -0.156 A  
HETATM   24  C   UNL     1      -6.880  16.650  68.896  1.00  0.00    -0.191 A  
HETATM   25  C   UNL     1      -8.080  18.649  68.240  1.00  0.00    -0.339 A  
HETATM   26  C   UNL     1      -8.344  16.599  66.983  1.00  0.00    -0.216 A  
HETATM   27  C   UNL     1      -8.662  17.946  67.189  1.00  0.00    -0.248 A  
ENDBRANCH  21  22
ENDBRANCH  10  21
ENDBRANCH   7  10
ENDBRANCH   6   7
ENDBRANCH   5   6
BRANCH   5  28
HETATM   28  S   UNL     1     -11.779  11.879  68.790  1.00  0.00    -0.323 S  
HETATM   29  O   UNL     1     -12.275  12.281  67.494  1.00  0.00    -0.457 OA 
HETATM   30  O   UNL     1     -12.402  10.788  69.516  1.00  0.00    -0.305 OA 
BRANCH  28  31
HETATM   31  C   UNL     1     -11.834  13.318  69.821  1.00  0.00    -0.325 A  
HETATM   32  N   UNL     1     -12.023  16.752  72.239  1.00  0.00    -0.459 NA 
HETATM   33  H2  UNL     1     -12.466  17.466  71.662  1.00  0.00     0.000 HD 
HETATM   34  H1  UNL     1     -12.500  16.726  73.140  1.00  0.00     0.000 HD 
HETATM   35  C   UNL     1     -11.193  14.490  69.415  1.00  0.00    -0.312 A  
HETATM   36  C   UNL     1     -11.239  15.622  70.239  1.00  0.00    -0.357 A  
HETATM   37  C   UNL     1     -12.568  13.298  71.015  1.00  0.00    -0.408 A  
HETATM   38  C   UNL     1     -12.610  14.437  71.824  1.00  0.00    -0.427 A  
HETATM   39  C   UNL     1     -11.894  15.586  71.476  1.00  0.00    -0.406 A  
ENDBRANCH  28  31
ENDBRANCH   5  28
ENDBRANCH   4   5
TORSDOF 11
ENDMDL
MODEL      304
REMARK 921   NORMALIZED FREE ENERGY PREDICTED BY IDOCK:   -4.16 KCAL/MOL
REMARK 922        TOTAL FREE ENERGY PREDICTED BY IDOCK:   -8.61 KCAL/MOL
REMARK 923 INTER-LIGAND FREE ENERGY PREDICTED BY IDOCK:   -6.97 KCAL/MOL
REMARK 924 INTRA-LIGAND FREE ENERGY PREDICTED BY IDOCK:   -1.64 KCAL/MOL
REMARK 927      BINDING AFFINITY PREDICTED BY RF-SCORE:    0.00 PKD
ROOT
HETATM    1  C   UNL     1     -10.419  15.071  69.608  1.00  0.00    -0.226 C  
HETATM    2  C   UNL     1     -11.083  13.694  69.630  1.00  0.00    -0.067 C  
HETATM    3  C   UNL     1     -12.603  13.895  69.463  1.00  0.00     0.031 C  
HETATM    4  C   UNL     1     -10.570  12.747  68.527  1.00  0.00    -0.252 C  
ENDROOT
BRANCH   4   5
HETATM    5  N   UNL     1      -9.079  12.432  68.516  1.00  0.00    -0.123 N  
BRANCH   5   6
HETATM    6  C   UNL     1      -8.801  10.921  68.708  1.00  0.00    -0.161 C  
BRANCH   6   7
HETATM    7  C   UNL     1      -9.853   9.930  68.098  1.00  0.00    -0.147 C  
HETATM    8  H   UNL     1      -9.956   8.788  66.515  1.00  0.00     0.000 HD 
HETATM    9  O   UNL     1      -9.319   9.389  66.884  1.00  0.00    -0.139 OA 
BRANCH   7  10
HETATM   10  C   UNL     1     -10.303   8.801  69.098  1.00  0.00    -0.217 C  
BRANCH  10  11
HETATM   11  N   UNL     1      -9.513   7.560  68.966  1.00  0.00    -0.146 N  
HETATM   12  O   UNL     1     -11.272   6.163  69.424  1.00  0.00    -0.391 OA 
HETATM   13  H   UNL     1      -8.523   7.618  68.727  1.00  0.00     0.000 HD 
HETATM   14  C   UNL     1     -10.091   6.330  69.159  1.00  0.00    -0.168 C  
BRANCH  14  15
HETATM   15  O   UNL     1      -9.181   5.320  69.045  1.00  0.00    -0.111 OA 
BRANCH  15  16
HETATM   16  C   UNL     1      -8.209   5.292  70.108  1.00  0.00    -0.091 C  
HETATM   17  C   UNL     1      -8.837   4.941  71.441  1.00  0.00    -0.153 C  
HETATM   18  O   UNL     1      -6.854   3.682  71.263  1.00  0.00    -0.030 OA 
HETATM   19  C   UNL     1      -7.665   4.378  72.215  1.00  0.00    -0.086 C  
HETATM   20  C   UNL     1      -7.166   4.186  69.954  1.00  0.00    -0.046 C  
ENDBRANCH  15  16
ENDBRANCH  14  15
ENDBRANCH  10  11
BRANCH  10  21
HETATM   21  C   UNL     1     -10.490   9.220  70.581  1.00  0.00    -0.325 C  
BRANCH  21  22
HETATM   22  C   UNL     1     -11.869   9.519  71.133  1.00  0.00    -0.436 A  
HETATM   23  C   UNL     1     -13.897   8.746  72.236  1.00  0.00    -0.505 A  
HETATM   24  C   UNL     1     -12.704   8.476  71.558  1.00  0.00    -0.340 A  
HETATM   25  C   UNL     1     -14.283  10.062  72.486  1.00  0.00     0.496 A  
HETATM   26  C   UNL     1     -12.279  10.840  71.378  1.00  0.00    -0.374 A  
HETATM   27  C   UNL     1     -13.477  11.109  72.050  1.00  0.00    -0.280 A  
ENDBRANCH  21  22
ENDBRANCH  10  21
ENDBRANCH   7  10
ENDBRANCH   6   7
ENDBRANCH   5   6
BRANCH   5  28
HETATM   28  S   UNL     1      -8.336  13.021  67.032  1.00  0.00    -0.031 S  
HETATM   29  O   UNL     1      -7.431  14.101  67.349  1.00  0.00    -0.175 OA 
HETATM   30  O   UNL     1      -7.866  11.839  66.332  1.00  0.00    -0.051 OA 
BRANCH  28  31
HETATM   31  C   UNL     1      -9.651  13.729  66.077  1.00  0.00    -0.175 A  
HETATM   32  N   UNL     1     -12.810  15.404  63.867  1.00  0.00    -0.483 NA 
HETATM   33  H2  UNL     1     -13.657  14.971  64.233  1.00  0.00     0.000 HD 
HETATM   34  H1  UNL     1     -12.949  16.414  63.845  1.00  0.00     0.000 HD 
HETATM   35  C   UNL     1     -10.485  12.903  65.322  1.00  0.00    -0.312 A  
HETATM   36  C   UNL     1     -11.519  13.472  64.567  1.00  0.00    -0.407 A  
HETATM   37  C   UNL     1      -9.889  15.109  66.127  1.00  0.00    -0.325 A  
HETATM   38  C   UNL     1     -10.928  15.662  65.373  1.00  0.00    -0.342 A  
HETATM   39  C   UNL     1     -11.710  14.858  64.538  1.00  0.00    -0.382 A  
ENDBRANCH  28  31
ENDBRANCH   5  28
ENDBRANCH   4   5
TORSDOF 11
ENDMDL
MODEL      305
REMARK 921   NORMALIZED FREE ENERGY PREDICTED BY IDOCK:   -4.15 KCAL/MOL
REMARK 922        TOTAL FREE ENERGY PREDICTED BY IDOCK:   -8.58 KCAL/MOL
REMARK 923 INTER-LIGAND FREE ENERGY PREDICTED BY IDOCK:   -7.10 KCAL/MOL
REMARK 924 INTRA-LIGAND FREE ENERGY PREDICTED BY IDOCK:   -1.48 KCAL/MOL
REMARK 927      BINDING AFFINITY PREDICTED BY RF-SCORE:    0.00 PKD
ROOT
HETATM    1  C   UNL     1     -10.155   7.059  67.612  1.00  0.00    -0.218 C  
HETATM    2  C   UNL     1      -9.676   6.135  68.733  1.00  0.00    -0.148 C  
HETATM    3  C   UNL     1      -9.730   4.685  68.211  1.00  0.00    -0.193 C  
HETATM    4  C   UNL     1      -8.247   6.448  69.218  1.00  0.00    -0.115 C  
ENDROOT
BRANCH   4   5
HETATM    5  N   UNL     1      -7.986   7.848  69.764  1.00  0.00    -0.111 N  
BRANCH   5   6
HETATM    6  C   UNL     1      -8.689   8.941  68.923  1.00  0.00    -0.136 C  
BRANCH   6   7
HETATM    7  C   UNL     1      -7.759   9.934  68.142  1.00  0.00    -0.082 C  
HETATM    8  H   UNL     1      -5.838  10.280  68.046  1.00  0.00     0.000 HD 
HETATM    9  O   UNL     1      -6.401   9.679  68.519  1.00  0.00    -0.047 OA 
BRANCH   7  10
HETATM   10  C   UNL     1      -7.957   9.880  66.582  1.00  0.00    -0.113 C  
BRANCH  10  11
HETATM   11  N   UNL     1      -8.305  11.191  65.995  1.00  0.00    -0.272 N  
HETATM   12  O   UNL     1     -10.538  11.036  66.490  1.00  0.00    -0.249 OA 
HETATM   13  H   UNL     1      -7.571  11.766  65.582  1.00  0.00     0.000 HD 
HETATM   14  C   UNL     1      -9.600  11.646  65.998  1.00  0.00    -0.228 C  
BRANCH  14  15
HETATM   15  O   UNL     1      -9.715  12.847  65.362  1.00  0.00    -0.165 OA 
BRANCH  15  16
HETATM   16  C   UNL     1     -10.444  13.836  66.115  1.00  0.00    -0.297 C  
HETATM   17  C   UNL     1      -9.681  14.288  67.343  1.00  0.00    -0.235 C  
HETATM   18  O   UNL     1     -10.547  16.225  66.317  1.00  0.00    -0.304 OA 
HETATM   19  C   UNL     1     -10.268  15.659  67.602  1.00  0.00    -0.261 C  
HETATM   20  C   UNL     1     -10.640  15.152  65.366  1.00  0.00    -0.391 C  
ENDBRANCH  15  16
ENDBRANCH  14  15
ENDBRANCH  10  11
BRANCH  10  21
HETATM   21  C   UNL     1      -6.858   9.148  65.766  1.00  0.00    -0.077 C  
BRANCH  21  22
HETATM   22  C   UNL     1      -6.913   7.646  65.568  1.00  0.00    -0.056 A  
HETATM   23  C   UNL     1      -6.308   5.410  66.316  1.00  0.00    -0.039 A  
HETATM   24  C   UNL     1      -6.130   6.797  66.362  1.00  0.00    -0.033 A  
HETATM   25  C   UNL     1      -7.258   4.850  65.465  1.00  0.00    -0.072 A  
HETATM   26  C   UNL     1      -7.856   7.066  64.703  1.00  0.00    -0.123 A  
HETATM   27  C   UNL     1      -8.027   5.678  64.652  1.00  0.00    -0.120 A  
ENDBRANCH  21  22
ENDBRANCH  10  21
ENDBRANCH   7  10
ENDBRANCH   6   7
ENDBRANCH   5   6
BRANCH   5  28
HETATM   28  S   UNL     1      -8.471   7.949  71.454  1.00  0.00    -0.125 S  
HETATM   29  O   UNL     1      -8.251   6.671  72.089  1.00  0.00    -0.106 OA 
HETATM   30  O   UNL     1      -7.845   9.152  71.971  1.00  0.00    -0.325 OA 
BRANCH  28  31
HETATM   31  C   UNL     1     -10.223   8.212  71.443  1.00  0.00    -0.198 A  
HETATM   32  N   UNL     1     -14.384   8.807  71.356  1.00  0.00    -0.485 NA 
HETATM   33  H2  UNL     1     -14.611   8.992  70.380  1.00  0.00     0.000 HD 
HETATM   34  H1  UNL     1     -15.018   8.087  71.703  1.00  0.00     0.000 HD 
HETATM   35  C   UNL     1     -10.742   9.425  70.987  1.00  0.00    -0.407 A  
HETATM   36  C   UNL     1     -12.129   9.625  70.987  1.00  0.00    -0.421 A  
HETATM   37  C   UNL     1     -11.089   7.182  71.837  1.00  0.00    -0.268 A  
HETATM   38  C   UNL     1     -12.471   7.394  71.825  1.00  0.00    -0.367 A  
HETATM   39  C   UNL     1     -12.999   8.637  71.462  1.00  0.00    -0.312 A  
ENDBRANCH  28  31
ENDBRANCH   5  28
ENDBRANCH   4   5
TORSDOF 11
ENDMDL
MODEL      306
REMARK 921   NORMALIZED FREE ENERGY PREDICTED BY IDOCK:   -4.14 KCAL/MOL
REMARK 922        TOTAL FREE ENERGY PREDICTED BY IDOCK:   -8.57 KCAL/MOL
REMARK 923 INTER-LIGAND FREE ENERGY PREDICTED BY IDOCK:   -8.23 KCAL/MOL
REMARK 924 INTRA-LIGAND FREE ENERGY PREDICTED BY IDOCK:   -0.33 KCAL/MOL
REMARK 927      BINDING AFFINITY PREDICTED BY RF-SCORE:    0.00 PKD
ROOT
HETATM    1  C   UNL     1     -10.453  11.901  64.309  1.00  0.00    -0.370 C  
HETATM    2  C   UNL     1     -11.672  12.792  64.066  1.00  0.00    -0.494 C  
HETATM    3  C   UNL     1     -12.719  11.966  63.293  1.00  0.00    -0.407 C  
HETATM    4  C   UNL     1     -12.306  13.332  65.363  1.00  0.00    -0.479 C  
ENDROOT
BRANCH   4   5
HETATM    5  N   UNL     1     -11.420  14.170  66.278  1.00  0.00    -0.341 N  
BRANCH   5   6
HETATM    6  C   UNL     1     -10.325  13.320  66.967  1.00  0.00    -0.246 C  
BRANCH   6   7
HETATM    7  C   UNL     1     -10.818  12.204  67.953  1.00  0.00    -0.217 C  
HETATM    8  H   UNL     1     -12.496  11.258  68.280  1.00  0.00     0.000 HD 
HETATM    9  O   UNL     1     -12.198  11.934  67.683  1.00  0.00    -0.510 OA 
BRANCH   7  10
HETATM   10  C   UNL     1      -9.942  10.897  67.907  1.00  0.00    -0.176 C  
BRANCH  10  11
HETATM   11  N   UNL     1      -8.611  11.069  68.524  1.00  0.00    -0.152 N  
HETATM   12  O   UNL     1      -7.452  10.740  66.574  1.00  0.00    -0.126 OA 
HETATM   13  H   UNL     1      -8.543  11.272  69.521  1.00  0.00     0.000 HD 
HETATM   14  C   UNL     1      -7.465  10.958  67.776  1.00  0.00    -0.094 C  
BRANCH  14  15
HETATM   15  O   UNL     1      -6.346  11.096  68.543  1.00  0.00    -0.046 OA 
BRANCH  15  16
HETATM   16  C   UNL     1      -6.545  10.754  69.928  1.00  0.00    -0.149 C  
HETATM   17  C   UNL     1      -6.087   9.342  70.234  1.00  0.00    -0.049 C  
HETATM   18  O   UNL     1      -5.285  10.718  71.971  1.00  0.00    -0.294 OA 
HETATM   19  C   UNL     1      -5.804   9.408  71.719  1.00  0.00    -0.038 C  
HETATM   20  C   UNL     1      -5.690  11.575  70.890  1.00  0.00    -0.017 C  
ENDBRANCH  15  16
ENDBRANCH  14  15
ENDBRANCH  10  11
BRANCH  10  21
HETATM   21  C   UNL     1     -10.631   9.582  68.361  1.00  0.00    -0.261 C  
BRANCH  21  22
HETATM   22  C   UNL     1     -10.153   8.240  67.843  1.00  0.00    -0.252 A  
HETATM   23  C   UNL     1      -8.926   6.169  68.208  1.00  0.00    -0.114 A  
HETATM   24  C   UNL     1      -9.232   7.482  68.580  1.00  0.00    -0.144 A  
HETATM   25  C   UNL     1      -9.522   5.598  67.087  1.00  0.00    -0.120 A  
HETATM   26  C   UNL     1     -10.734   7.655  66.705  1.00  0.00    -0.143 A  
HETATM   27  C   UNL     1     -10.421   6.344  66.330  1.00  0.00    -0.031 A  
ENDBRANCH  21  22
ENDBRANCH  10  21
ENDBRANCH   7  10
ENDBRANCH   6   7
ENDBRANCH   5   6
BRANCH   5  28
HETATM   28  S   UNL     1     -10.704  15.507  65.383  1.00  0.00    -0.423 S  
HETATM   29  O   UNL     1      -9.345  15.169  65.028  1.00  0.00     0.300 OA 
HETATM   30  O   UNL     1     -11.672  15.858  64.360  1.00  0.00    -0.377 OA 
BRANCH  28  31
HETATM   31  C   UNL     1     -10.606  16.859  66.524  1.00  0.00    -0.185 A  
HETATM   32  N   UNL     1     -10.307  20.072  69.219  1.00  0.00    -0.557 NA 
HETATM   33  H2  UNL     1      -9.390  19.976  69.655  1.00  0.00     0.000 HD 
HETATM   34  H1  UNL     1     -10.409  21.033  68.893  1.00  0.00     0.000 HD 
HETATM   35  C   UNL     1     -10.420  16.609  67.884  1.00  0.00    -0.322 A  
HETATM   36  C   UNL     1     -10.348  17.685  68.780  1.00  0.00    -0.348 A  
HETATM   37  C   UNL     1     -10.657  18.178  66.053  1.00  0.00    -0.278 A  
HETATM   38  C   UNL     1     -10.577  19.242  66.957  1.00  0.00    -0.571 A  
HETATM   39  C   UNL     1     -10.488  19.004  68.332  1.00  0.00    -0.205 A  
ENDBRANCH  28  31
ENDBRANCH   5  28
ENDBRANCH   4   5
TORSDOF 11
ENDMDL
MODEL      307
REMARK 921   NORMALIZED FREE ENERGY PREDICTED BY IDOCK:   -4.13 KCAL/MOL
REMARK 922        TOTAL FREE ENERGY PREDICTED BY IDOCK:   -8.56 KCAL/MOL
REMARK 923 INTER-LIGAND FREE ENERGY PREDICTED BY IDOCK:   -7.58 KCAL/MOL
REMARK 924 INTRA-LIGAND FREE ENERGY PREDICTED BY IDOCK:   -0.98 KCAL/MOL
REMARK 927      BINDING AFFINITY PREDICTED BY RF-SCORE:    0.00 PKD
ROOT
HETATM    1  C   UNL     1     -11.679   7.417  70.889  1.00  0.00    -0.325 C  
HETATM    2  C   UNL     1     -10.454   6.881  70.146  1.00  0.00    -0.233 C  
HETATM    3  C   UNL     1     -10.881   5.615  69.376  1.00  0.00    -0.334 C  
HETATM    4  C   UNL     1      -9.841   7.894  69.160  1.00  0.00    -0.174 C  
ENDROOT
BRANCH   4   5
HETATM    5  N   UNL     1      -9.365   9.224  69.732  1.00  0.00    -0.175 N  
BRANCH   5   6
HETATM    6  C   UNL     1     -10.529  10.052  70.329  1.00  0.00    -0.272 C  
BRANCH   6   7
HETATM    7  C   UNL     1     -11.537  10.687  69.308  1.00  0.00    -0.275 C  
HETATM    8  H   UNL     1     -13.373  11.351  69.374  1.00  0.00     0.000 HD 
HETATM    9  O   UNL     1     -12.763  10.966  69.992  1.00  0.00    -0.263 OA 
BRANCH   7  10
HETATM   10  C   UNL     1     -10.968  11.959  68.576  1.00  0.00    -0.235 C  
BRANCH  10  11
HETATM   11  N   UNL     1     -10.126  11.628  67.408  1.00  0.00    -0.197 N  
HETATM   12  O   UNL     1      -8.172  12.339  68.372  1.00  0.00    -0.161 OA 
HETATM   13  H   UNL     1     -10.557  11.214  66.581  1.00  0.00     0.000 HD 
HETATM   14  C   UNL     1      -8.775  11.868  67.419  1.00  0.00    -0.166 C  
BRANCH  14  15
HETATM   15  O   UNL     1      -8.194  11.543  66.228  1.00  0.00    -0.142 OA 
BRANCH  15  16
HETATM   16  C   UNL     1      -8.626  10.275  65.698  1.00  0.00    -0.161 C  
HETATM   17  C   UNL     1      -8.504  10.221  64.189  1.00  0.00    -0.180 C  
HETATM   18  O   UNL     1      -7.658   8.186  65.022  1.00  0.00    -0.085 OA 
HETATM   19  C   UNL     1      -8.396   8.735  63.926  1.00  0.00    -0.141 C  
HETATM   20  C   UNL     1      -7.746   9.102  66.126  1.00  0.00    -0.095 C  
ENDBRANCH  15  16
ENDBRANCH  14  15
ENDBRANCH  10  11
BRANCH  10  21
HETATM   21  C   UNL     1     -11.980  13.093  68.264  1.00  0.00    -0.328 C  
BRANCH  21  22
HETATM   22  C   UNL     1     -11.809  13.968  67.039  1.00  0.00    -0.458 A  
HETATM   23  C   UNL     1     -10.516  15.627  65.813  1.00  0.00    -0.383 A  
HETATM   24  C   UNL     1     -10.803  14.944  66.999  1.00  0.00    -0.315 A  
HETATM   25  C   UNL     1     -11.239  15.358  64.652  1.00  0.00    -0.374 A  
HETATM   26  C   UNL     1     -12.540  13.719  65.865  1.00  0.00    -0.494 A  
HETATM   27  C   UNL     1     -12.257  14.410  64.681  1.00  0.00    -0.479 A  
ENDBRANCH  21  22
ENDBRANCH  10  21
ENDBRANCH   7  10
ENDBRANCH   6   7
ENDBRANCH   5   6
BRANCH   5  28
HETATM   28  S   UNL     1      -8.103   8.961  70.932  1.00  0.00    -0.177 S  
HETATM   29  O   UNL     1      -7.106   9.999  70.810  1.00  0.00    -0.324 OA 
HETATM   30  O   UNL     1      -8.796   8.744  72.189  1.00  0.00    -0.345 OA 
BRANCH  28  31
HETATM   31  C   UNL     1      -7.310   7.443  70.481  1.00  0.00    -0.076 A  
HETATM   32  N   UNL     1      -5.371   3.860  69.441  1.00  0.00    -0.011 NA 
HETATM   33  H2  UNL     1      -4.391   4.110  69.313  1.00  0.00     0.000 HD 
HETATM   34  H1  UNL     1      -5.419   3.048  70.057  1.00  0.00     0.000 HD 
HETATM   35  C   UNL     1      -6.641   7.344  69.259  1.00  0.00    -0.037 A  
HETATM   36  C   UNL     1      -6.020   6.138  68.909  1.00  0.00    -0.024 A  
HETATM   37  C   UNL     1      -7.304   6.363  71.373  1.00  0.00    -0.084 A  
HETATM   38  C   UNL     1      -6.675   5.167  71.013  1.00  0.00    -0.040 A  
HETATM   39  C   UNL     1      -6.085   5.023  69.753  1.00  0.00    -0.022 A  
ENDBRANCH  28  31
ENDBRANCH   5  28
ENDBRANCH   4   5
TORSDOF 11
ENDMDL
MODEL      308
REMARK 921   NORMALIZED FREE ENERGY PREDICTED BY IDOCK:   -4.12 KCAL/MOL
REMARK 922        TOTAL FREE ENERGY PREDICTED BY IDOCK:   -8.55 KCAL/MOL
REMARK 923 INTER-LIGAND FREE ENERGY PREDICTED BY IDOCK:   -9.31 KCAL/MOL
REMARK 924 INTRA-LIGAND FREE ENERGY PREDICTED BY IDOCK:    0.76 KCAL/MOL
REMARK 927      BINDING AFFINITY PREDICTED BY RF-SCORE:    0.00 PKD
ROOT
HETATM    1  C   UNL     1      -7.113   6.724  67.476  1.00  0.00    -0.085 C  
HETATM    2  C   UNL     1      -8.412   7.192  66.818  1.00  0.00    -0.121 C  
HETATM    3  C   UNL     1      -8.667   6.304  65.584  1.00  0.00    -0.122 C  
HETATM    4  C   UNL     1      -9.634   7.124  67.755  1.00  0.00    -0.129 C  
ENDROOT
BRANCH   4   5
HETATM    5  N   UNL     1      -9.568   7.932  69.047  1.00  0.00    -0.154 N  
BRANCH   5   6
HETATM    6  C   UNL     1      -9.846   9.436  68.808  1.00  0.00    -0.163 C  
BRANCH   6   7
HETATM    7  C   UNL     1      -8.613  10.401  68.892  1.00  0.00    -0.149 C  
HETATM    8  H   UNL     1      -6.695  10.207  69.216  1.00  0.00     0.000 HD 
HETATM    9  O   UNL     1      -7.442   9.622  69.165  1.00  0.00    -0.073 OA 
BRANCH   7  10
HETATM   10  C   UNL     1      -8.435  11.304  67.615  1.00  0.00    -0.124 C  
BRANCH  10  11
HETATM   11  N   UNL     1      -9.424  11.012  66.557  1.00  0.00    -0.183 N  
HETATM   12  O   UNL     1      -7.856  10.508  64.963  1.00  0.00    -0.134 OA 
HETATM   13  H   UNL     1     -10.419  11.086  66.767  1.00  0.00     0.000 HD 
HETATM   14  C   UNL     1      -9.023  10.644  65.297  1.00  0.00    -0.190 C  
BRANCH  14  15
HETATM   15  O   UNL     1     -10.086  10.475  64.458  1.00  0.00    -0.334 OA 
BRANCH  15  16
HETATM   16  C   UNL     1     -10.495  11.682  63.788  1.00  0.00    -0.402 C  
HETATM   17  C   UNL     1     -11.988  11.710  63.531  1.00  0.00    -0.359 C  
HETATM   18  O   UNL     1     -11.393  13.836  64.352  1.00  0.00    -0.373 OA 
HETATM   19  C   UNL     1     -12.272  13.192  63.425  1.00  0.00    -0.444 C  
HETATM   20  C   UNL     1     -10.300  12.944  64.627  1.00  0.00    -0.344 C  
ENDBRANCH  15  16
ENDBRANCH  14  15
ENDBRANCH  10  11
BRANCH  10  21
HETATM   21  C   UNL     1      -8.272  12.828  67.858  1.00  0.00    -0.168 C  
BRANCH  21  22
HETATM   22  C   UNL     1      -9.484  13.736  67.924  1.00  0.00    -0.214 A  
HETATM   23  C   UNL     1     -11.598  14.337  68.971  1.00  0.00    -0.342 A  
HETATM   24  C   UNL     1     -10.562  13.420  68.763  1.00  0.00    -0.230 A  
HETATM   25  C   UNL     1     -11.582  15.575  68.333  1.00  0.00    -0.368 A  
HETATM   26  C   UNL     1      -9.490  14.982  67.275  1.00  0.00    -0.212 A  
HETATM   27  C   UNL     1     -10.531  15.894  67.478  1.00  0.00    -0.298 A  
ENDBRANCH  21  22
ENDBRANCH  10  21
ENDBRANCH   7  10
ENDBRANCH   6   7
ENDBRANCH   5   6
BRANCH   5  28
HETATM   28  S   UNL     1     -10.681   7.272  70.242  1.00  0.00    -0.240 S  
HETATM   29  O   UNL     1     -11.622   6.397  69.584  1.00  0.00    -0.417 OA 
HETATM   30  O   UNL     1      -9.847   6.784  71.326  1.00  0.00    -0.177 OA 
BRANCH  28  31
HETATM   31  C   UNL     1     -11.613   8.649  70.853  1.00  0.00    -0.269 A  
HETATM   32  N   UNL     1     -13.783  11.922  72.353  1.00  0.00    -0.394 NA 
HETATM   33  H2  UNL     1     -13.705  11.857  73.368  1.00  0.00     0.000 HD 
HETATM   34  H1  UNL     1     -13.545  12.874  72.073  1.00  0.00     0.000 HD 
HETATM   35  C   UNL     1     -12.702   8.432  71.699  1.00  0.00    -0.358 A  
HETATM   36  C   UNL     1     -13.436   9.527  72.173  1.00  0.00    -0.535 A  
HETATM   37  C   UNL     1     -11.223   9.956  70.533  1.00  0.00    -0.399 A  
HETATM   38  C   UNL     1     -11.961  11.040  71.019  1.00  0.00    -0.334 A  
HETATM   39  C   UNL     1     -13.110  10.833  71.789  1.00  0.00    -0.468 A  
ENDBRANCH  28  31
ENDBRANCH   5  28
ENDBRANCH   4   5
TORSDOF 11
ENDMDL
MODEL      309
REMARK 921   NORMALIZED FREE ENERGY PREDICTED BY IDOCK:   -4.12 KCAL/MOL
REMARK 922        TOTAL FREE ENERGY PREDICTED BY IDOCK:   -8.54 KCAL/MOL
REMARK 923 INTER-LIGAND FREE ENERGY PREDICTED BY IDOCK:   -5.70 KCAL/MOL
REMARK 924 INTRA-LIGAND FREE ENERGY PREDICTED BY IDOCK:   -2.84 KCAL/MOL
REMARK 927      BINDING AFFINITY PREDICTED BY RF-SCORE:    0.00 PKD
ROOT
HETATM    1  C   UNL     1      -5.644   9.261  67.299  1.00  0.00    -0.041 C  
HETATM    2  C   UNL     1      -6.342   8.994  65.964  1.00  0.00    -0.064 C  
HETATM    3  C   UNL     1      -5.331   9.273  64.834  1.00  0.00    -0.045 C  
HETATM    4  C   UNL     1      -6.875   7.555  65.827  1.00  0.00    -0.056 C  
ENDROOT
BRANCH   4   5
HETATM    5  N   UNL     1      -7.885   7.082  66.867  1.00  0.00    -0.105 N  
BRANCH   5   6
HETATM    6  C   UNL     1      -9.297   6.891  66.262  1.00  0.00    -0.099 C  
BRANCH   6   7
HETATM    7  C   UNL     1     -10.501   7.459  67.092  1.00  0.00    -0.333 C  
HETATM    8  H   UNL     1     -11.946   6.704  68.169  1.00  0.00     0.000 HD 
HETATM    9  O   UNL     1     -11.217   6.360  67.667  1.00  0.00    -0.337 OA 
BRANCH   7  10
HETATM   10  C   UNL     1     -10.070   8.514  68.178  1.00  0.00    -0.200 C  
BRANCH  10  11
HETATM   11  N   UNL     1      -9.561   9.772  67.594  1.00  0.00    -0.143 N  
HETATM   12  O   UNL     1      -8.491  10.450  69.504  1.00  0.00    -0.160 OA 
HETATM   13  H   UNL     1      -9.772   9.994  66.621  1.00  0.00     0.000 HD 
HETATM   14  C   UNL     1      -8.810  10.645  68.341  1.00  0.00    -0.145 C  
BRANCH  14  15
HETATM   15  O   UNL     1      -8.488  11.766  67.635  1.00  0.00    -0.137 OA 
BRANCH  15  16
HETATM   16  C   UNL     1      -9.462  12.822  67.745  1.00  0.00    -0.205 C  
HETATM   17  C   UNL     1      -8.829  14.138  68.149  1.00  0.00    -0.183 C  
HETATM   18  O   UNL     1     -10.337  14.609  66.401  1.00  0.00    -0.276 OA 
HETATM   19  C   UNL     1      -9.820  15.151  67.620  1.00  0.00    -0.219 C  
HETATM   20  C   UNL     1     -10.121  13.188  66.416  1.00  0.00    -0.281 C  
ENDBRANCH  15  16
ENDBRANCH  14  15
ENDBRANCH  10  11
BRANCH  10  21
HETATM   21  C   UNL     1     -11.072   8.769  69.335  1.00  0.00     0.049 C  
BRANCH  21  22
HETATM   22  C   UNL     1     -10.978   7.982  70.627  1.00  0.00    -0.250 A  
HETATM   23  C   UNL     1     -10.450   7.910  73.003  1.00  0.00    -0.410 A  
HETATM   24  C   UNL     1     -10.379   8.549  71.761  1.00  0.00    -0.354 A  
HETATM   25  C   UNL     1     -11.108   6.688  73.129  1.00  0.00    -0.204 A  
HETATM   26  C   UNL     1     -11.623   6.742  70.767  1.00  0.00    -0.418 A  
HETATM   27  C   UNL     1     -11.687   6.100  72.009  1.00  0.00    -0.354 A  
ENDBRANCH  21  22
ENDBRANCH  10  21
ENDBRANCH   7  10
ENDBRANCH   6   7
ENDBRANCH   5   6
BRANCH   5  28
HETATM   28  S   UNL     1      -7.327   5.600  67.638  1.00  0.00    -0.077 S  
HETATM   29  O   UNL     1      -8.312   4.562  67.441  1.00  0.00    -0.104 OA 
HETATM   30  O   UNL     1      -5.958   5.418  67.193  1.00  0.00    -0.024 OA 
BRANCH  28  31
HETATM   31  C   UNL     1      -7.292   5.939  69.376  1.00  0.00    -0.075 A  
HETATM   32  N   UNL     1      -7.265   6.779  73.496  1.00  0.00    -0.079 NA 
HETATM   33  H2  UNL     1      -7.673   7.709  73.586  1.00  0.00     0.000 HD 
HETATM   34  H1  UNL     1      -7.734   6.157  74.154  1.00  0.00     0.000 HD 
HETATM   35  C   UNL     1      -6.590   7.047  69.855  1.00  0.00    -0.044 A  
HETATM   36  C   UNL     1      -6.564   7.305  71.232  1.00  0.00    -0.043 A  
HETATM   37  C   UNL     1      -8.015   5.130  70.263  1.00  0.00    -0.082 A  
HETATM   38  C   UNL     1      -7.985   5.403  71.634  1.00  0.00    -0.116 A  
HETATM   39  C   UNL     1      -7.208   6.452  72.136  1.00  0.00    -0.087 A  
ENDBRANCH  28  31
ENDBRANCH   5  28
ENDBRANCH   4   5
TORSDOF 11
ENDMDL
MODEL      310
REMARK 921   NORMALIZED FREE ENERGY PREDICTED BY IDOCK:   -4.09 KCAL/MOL
REMARK 922        TOTAL FREE ENERGY PREDICTED BY IDOCK:   -8.49 KCAL/MOL
REMARK 923 INTER-LIGAND FREE ENERGY PREDICTED BY IDOCK:   -7.02 KCAL/MOL
REMARK 924 INTRA-LIGAND FREE ENERGY PREDICTED BY IDOCK:   -1.48 KCAL/MOL
REMARK 927      BINDING AFFINITY PREDICTED BY RF-SCORE:    0.00 PKD
ROOT
HETATM    1  C   UNL     1     -10.729   4.861  65.919  1.00  0.00    -0.233 C  
HETATM    2  C   UNL     1      -9.222   4.727  65.695  1.00  0.00    -0.152 C  
HETATM    3  C   UNL     1      -8.996   3.670  64.596  1.00  0.00    -0.123 C  
HETATM    4  C   UNL     1      -8.543   6.047  65.279  1.00  0.00    -0.099 C  
ENDROOT
BRANCH   4   5
HETATM    5  N   UNL     1      -8.665   7.227  66.238  1.00  0.00    -0.144 N  
BRANCH   5   6
HETATM    6  C   UNL     1      -8.018   6.930  67.612  1.00  0.00    -0.113 C  
BRANCH   6   7
HETATM    7  C   UNL     1      -8.938   7.091  68.872  1.00  0.00    -0.129 C  
HETATM    8  H   UNL     1     -10.227   5.972  69.824  1.00  0.00     0.000 HD 
HETATM    9  O   UNL     1      -9.670   5.874  69.061  1.00  0.00    -0.128 OA 
BRANCH   7  10
HETATM   10  C   UNL     1      -8.154   7.515  70.170  1.00  0.00    -0.119 C  
BRANCH  10  11
HETATM   11  N   UNL     1      -9.004   7.541  71.378  1.00  0.00    -0.132 N  
HETATM   12  O   UNL     1     -10.022   9.526  70.854  1.00  0.00    -0.284 OA 
HETATM   13  H   UNL     1      -8.945   6.774  72.048  1.00  0.00     0.000 HD 
HETATM   14  C   UNL     1      -9.870   8.580  71.612  1.00  0.00    -0.247 C  
BRANCH  14  15
HETATM   15  O   UNL     1     -10.517   8.439  72.804  1.00  0.00    -0.307 OA 
BRANCH  15  16
HETATM   16  C   UNL     1     -11.840   7.880  72.684  1.00  0.00    -0.297 C  
HETATM   17  C   UNL     1     -12.863   8.925  72.289  1.00  0.00    -0.475 C  
HETATM   18  O   UNL     1     -13.280   7.019  70.968  1.00  0.00    -0.273 OA 
HETATM   19  C   UNL     1     -13.947   8.090  71.644  1.00  0.00    -0.400 C  
HETATM   20  C   UNL     1     -11.975   6.866  71.551  1.00  0.00    -0.344 C  
ENDBRANCH  15  16
ENDBRANCH  14  15
ENDBRANCH  10  11
BRANCH  10  21
HETATM   21  C   UNL     1      -6.797   6.807  70.424  1.00  0.00    -0.062 C  
BRANCH  21  22
HETATM   22  C   UNL     1      -6.752   5.373  70.916  1.00  0.00    -0.044 A  
HETATM   23  C   UNL     1      -6.414   3.008  70.451  1.00  0.00    -0.032 A  
HETATM   24  C   UNL     1      -6.641   4.314  70.005  1.00  0.00    -0.033 A  
HETATM   25  C   UNL     1      -6.310   2.737  71.814  1.00  0.00    -0.015 A  
HETATM   26  C   UNL     1      -6.662   5.082  72.288  1.00  0.00    -0.053 A  
HETATM   27  C   UNL     1      -6.442   3.774  72.732  1.00  0.00    -0.024 A  
ENDBRANCH  21  22
ENDBRANCH  10  21
ENDBRANCH   7  10
ENDBRANCH   6   7
ENDBRANCH   5   6
BRANCH   5  28
HETATM   28  S   UNL     1      -7.971   8.677  65.519  1.00  0.00    -0.114 S  
HETATM   29  O   UNL     1      -6.935   9.188  66.385  1.00  0.00    -0.078 OA 
HETATM   30  O   UNL     1      -7.682   8.332  64.139  1.00  0.00    -0.122 OA 
BRANCH  28  31
HETATM   31  C   UNL     1      -9.267   9.886  65.515  1.00  0.00    -0.203 A  
HETATM   32  N   UNL     1     -12.386  12.704  65.506  1.00  0.00    -0.632 NA 
HETATM   33  H2  UNL     1     -13.145  12.268  64.982  1.00  0.00     0.000 HD 
HETATM   34  H1  UNL     1     -12.765  13.061  66.383  1.00  0.00     0.000 HD 
HETATM   35  C   UNL     1      -9.753  10.380  64.303  1.00  0.00    -0.389 A  
HETATM   36  C   UNL     1     -10.775  11.339  64.310  1.00  0.00    -0.416 A  
HETATM   37  C   UNL     1      -9.841  10.302  66.723  1.00  0.00    -0.246 A  
HETATM   38  C   UNL     1     -10.865  11.255  66.714  1.00  0.00    -0.334 A  
HETATM   39  C   UNL     1     -11.295  11.828  65.514  1.00  0.00    -0.223 A  
ENDBRANCH  28  31
ENDBRANCH   5  28
ENDBRANCH   4   5
TORSDOF 11
ENDMDL
MODEL      311
REMARK 921   NORMALIZED FREE ENERGY PREDICTED BY IDOCK:   -4.06 KCAL/MOL
REMARK 922        TOTAL FREE ENERGY PREDICTED BY IDOCK:   -8.43 KCAL/MOL
REMARK 923 INTER-LIGAND FREE ENERGY PREDICTED BY IDOCK:   -8.20 KCAL/MOL
REMARK 924 INTRA-LIGAND FREE ENERGY PREDICTED BY IDOCK:   -0.23 KCAL/MOL
REMARK 927      BINDING AFFINITY PREDICTED BY RF-SCORE:    0.00 PKD
ROOT
HETATM    1  C   UNL     1     -11.790  10.817  68.682  1.00  0.00    -0.208 C  
HETATM    2  C   UNL     1     -11.290  12.216  68.318  1.00  0.00    -0.343 C  
HETATM    3  C   UNL     1     -12.264  13.244  68.929  1.00  0.00    -0.133 C  
HETATM    4  C   UNL     1      -9.862  12.508  68.820  1.00  0.00     0.021 C  
ENDROOT
BRANCH   4   5
HETATM    5  N   UNL     1      -8.750  11.587  68.333  1.00  0.00    -0.158 N  
BRANCH   5   6
HETATM    6  C   UNL     1      -9.251  10.140  68.102  1.00  0.00    -0.135 C  
BRANCH   6   7
HETATM    7  C   UNL     1      -8.607   9.022  68.994  1.00  0.00    -0.134 C  
HETATM    8  H   UNL     1      -7.303   8.961  70.448  1.00  0.00     0.000 HD 
HETATM    9  O   UNL     1      -7.693   9.638  69.908  1.00  0.00    -0.106 OA 
BRANCH   7  10
HETATM   10  C   UNL     1      -9.666   8.125  69.735  1.00  0.00    -0.173 C  
BRANCH  10  11
HETATM   11  N   UNL     1      -9.285   6.699  69.784  1.00  0.00    -0.146 N  
HETATM   12  O   UNL     1     -10.908   6.015  68.316  1.00  0.00    -0.275 OA 
HETATM   13  H   UNL     1      -8.500   6.409  70.368  1.00  0.00     0.000 HD 
HETATM   14  C   UNL     1      -9.972   5.757  69.058  1.00  0.00    -0.169 C  
BRANCH  14  15
HETATM   15  O   UNL     1      -9.498   4.499  69.286  1.00  0.00    -0.141 OA 
BRANCH  15  16
HETATM   16  C   UNL     1      -8.792   3.931  68.165  1.00  0.00    -0.110 C  
HETATM   17  C   UNL     1      -7.901   2.779  68.581  1.00  0.00    -0.058 C  
HETATM   18  O   UNL     1      -9.032   2.104  66.627  1.00  0.00    -0.128 OA 
HETATM   19  C   UNL     1      -7.773   1.988  67.298  1.00  0.00    -0.061 C  
HETATM   20  C   UNL     1      -9.707   3.265  67.140  1.00  0.00     0.103 C  
ENDBRANCH  15  16
ENDBRANCH  14  15
ENDBRANCH  10  11
BRANCH  10  21
HETATM   21  C   UNL     1     -10.177   8.641  71.106  1.00  0.00    -0.294 C  
BRANCH  21  22
HETATM   22  C   UNL     1     -11.628   8.465  71.507  1.00  0.00    -0.338 A  
HETATM   23  C   UNL     1     -13.818   9.440  71.933  1.00  0.00    -0.380 A  
HETATM   24  C   UNL     1     -12.440   9.583  71.744  1.00  0.00    -0.484 A  
HETATM   25  C   UNL     1     -14.405   8.176  71.903  1.00  0.00    -0.566 A  
HETATM   26  C   UNL     1     -12.232   7.196  71.496  1.00  0.00    -0.396 A  
HETATM   27  C   UNL     1     -13.610   7.054  71.693  1.00  0.00    -0.346 A  
ENDBRANCH  21  22
ENDBRANCH  10  21
ENDBRANCH   7  10
ENDBRANCH   6   7
ENDBRANCH   5   6
BRANCH   5  28
HETATM   28  S   UNL     1      -8.010  12.234  66.872  1.00  0.00    -0.001 S  
HETATM   29  O   UNL     1      -7.164  13.351  67.222  1.00  0.00    -0.139 OA 
HETATM   30  O   UNL     1      -7.470  11.088  66.164  1.00  0.00    -0.141 OA 
BRANCH  28  31
HETATM   31  C   UNL     1      -9.339  12.893  65.903  1.00  0.00     0.043 A  
HETATM   32  N   UNL     1     -12.533  14.455  63.661  1.00  0.00    -1.086 NA 
HETATM   33  H2  UNL     1     -13.376  14.056  64.073  1.00  0.00     0.000 HD 
HETATM   34  H1  UNL     1     -12.663  15.464  63.577  1.00  0.00     0.000 HD 
HETATM   35  C   UNL     1     -10.198  12.029  65.222  1.00  0.00    -0.304 A  
HETATM   36  C   UNL     1     -11.244  12.559  64.455  1.00  0.00    -0.388 A  
HETATM   37  C   UNL     1      -9.563  14.276  65.868  1.00  0.00    -0.227 A  
HETATM   38  C   UNL     1     -10.615  14.790  65.104  1.00  0.00    -0.439 A  
HETATM   39  C   UNL     1     -11.423  13.942  64.340  1.00  0.00    -0.361 A  
ENDBRANCH  28  31
ENDBRANCH   5  28
ENDBRANCH   4   5
TORSDOF 11
ENDMDL
MODEL      312
REMARK 921   NORMALIZED FREE ENERGY PREDICTED BY IDOCK:   -4.02 KCAL/MOL
REMARK 922        TOTAL FREE ENERGY PREDICTED BY IDOCK:   -8.38 KCAL/MOL
REMARK 923 INTER-LIGAND FREE ENERGY PREDICTED BY IDOCK:   -7.93 KCAL/MOL
REMARK 924 INTRA-LIGAND FREE ENERGY PREDICTED BY IDOCK:   -0.45 KCAL/MOL
REMARK 927      BINDING AFFINITY PREDICTED BY RF-SCORE:    0.00 PKD
ROOT
HETATM    1  C   UNL     1     -10.759   7.024  66.863  1.00  0.00    -0.376 C  
HETATM    2  C   UNL     1     -10.252   6.056  67.932  1.00  0.00    -0.217 C  
HETATM    3  C   UNL     1      -9.674   4.818  67.217  1.00  0.00    -0.210 C  
HETATM    4  C   UNL     1      -9.172   6.664  68.849  1.00  0.00    -0.130 C  
ENDROOT
BRANCH   4   5
HETATM    5  N   UNL     1      -9.550   7.912  69.639  1.00  0.00    -0.164 N  
BRANCH   5   6
HETATM    6  C   UNL     1     -10.083   9.042  68.724  1.00  0.00    -0.199 C  
BRANCH   6   7
HETATM    7  C   UNL     1      -9.591  10.497  69.044  1.00  0.00    -0.202 C  
HETATM    8  H   UNL     1      -7.894  11.461  68.945  1.00  0.00     0.000 HD 
HETATM    9  O   UNL     1      -8.192  10.580  68.751  1.00  0.00    -0.116 OA 
BRANCH   7  10
HETATM   10  C   UNL     1     -10.415  11.614  68.302  1.00  0.00    -0.204 C  
BRANCH  10  11
HETATM   11  N   UNL     1      -9.580  12.740  67.839  1.00  0.00    -0.205 N  
HETATM   12  O   UNL     1     -11.177  14.337  68.230  1.00  0.00    -0.255 OA 
HETATM   13  H   UNL     1      -8.630  12.560  67.515  1.00  0.00     0.000 HD 
HETATM   14  C   UNL     1     -10.063  14.026  67.839  1.00  0.00    -0.237 C  
BRANCH  14  15
HETATM   15  O   UNL     1      -9.156  14.905  67.324  1.00  0.00    -0.185 OA 
BRANCH  15  16
HETATM   16  C   UNL     1      -7.963  15.042  68.119  1.00  0.00    -0.131 C  
HETATM   17  C   UNL     1      -6.825  15.660  67.332  1.00  0.00    -0.231 C  
HETATM   18  O   UNL     1      -6.863  16.720  69.436  1.00  0.00    -0.230 OA 
HETATM   19  C   UNL     1      -5.964  16.258  68.423  1.00  0.00    -0.106 C  
HETATM   20  C   UNL     1      -8.111  16.025  69.279  1.00  0.00    -0.212 C  
ENDBRANCH  15  16
ENDBRANCH  14  15
ENDBRANCH  10  11
BRANCH  10  21
HETATM   21  C   UNL     1     -11.409  11.135  67.210  1.00  0.00    -0.302 C  
BRANCH  21  22
HETATM   22  C   UNL     1     -11.030  11.188  65.743  1.00  0.00    -0.160 A  
HETATM   23  C   UNL     1     -11.100  12.342  63.601  1.00  0.00    -0.537 A  
HETATM   24  C   UNL     1     -11.578  12.167  64.904  1.00  0.00    -0.371 A  
HETATM   25  C   UNL     1     -10.078  11.531  63.111  1.00  0.00    -0.395 A  
HETATM   26  C   UNL     1     -10.011  10.367  65.230  1.00  0.00    -0.376 A  
HETATM   27  C   UNL     1      -9.540  10.538  63.924  1.00  0.00    -0.363 A  
ENDBRANCH  21  22
ENDBRANCH  10  21
ENDBRANCH   7  10
ENDBRANCH   6   7
ENDBRANCH   5   6
BRANCH   5  28
HETATM   28  S   UNL     1     -10.723   7.516  70.891  1.00  0.00    -0.239 S  
HETATM   29  O   UNL     1     -10.841   8.630  71.803  1.00  0.00    -0.274 OA 
HETATM   30  O   UNL     1     -11.888   7.005  70.191  1.00  0.00    -0.241 OA 
BRANCH  28  31
HETATM   31  C   UNL     1     -10.017   6.179  71.815  1.00  0.00    -0.172 A  
HETATM   32  N   UNL     1      -8.349   3.043  74.064  1.00  0.00    -0.072 NA 
HETATM   33  H2  UNL     1      -7.869   3.493  74.842  1.00  0.00     0.000 HD 
HETATM   34  H1  UNL     1      -8.942   2.301  74.437  1.00  0.00     0.000 HD 
HETATM   35  C   UNL     1      -8.635   6.121  72.008  1.00  0.00    -0.132 A  
HETATM   36  C   UNL     1      -8.085   5.057  72.736  1.00  0.00    -0.105 A  
HETATM   37  C   UNL     1     -10.848   5.215  72.400  1.00  0.00    -0.265 A  
HETATM   38  C   UNL     1     -10.286   4.163  73.130  1.00  0.00    -0.220 A  
HETATM   39  C   UNL     1      -8.898   4.039  73.249  1.00  0.00    -0.097 A  
ENDBRANCH  28  31
ENDBRANCH   5  28
ENDBRANCH   4   5
TORSDOF 11
ENDMDL
MODEL      313
REMARK 921   NORMALIZED FREE ENERGY PREDICTED BY IDOCK:   -4.02 KCAL/MOL
REMARK 922        TOTAL FREE ENERGY PREDICTED BY IDOCK:   -8.37 KCAL/MOL
REMARK 923 INTER-LIGAND FREE ENERGY PREDICTED BY IDOCK:   -7.40 KCAL/MOL
REMARK 924 INTRA-LIGAND FREE ENERGY PREDICTED BY IDOCK:   -0.98 KCAL/MOL
REMARK 927      BINDING AFFINITY PREDICTED BY RF-SCORE:    0.00 PKD
ROOT
HETATM    1  C   UNL     1     -12.307  13.438  71.735  1.00  0.00     0.032 C  
HETATM    2  C   UNL     1     -13.366  14.183  70.922  1.00  0.00    -0.223 C  
HETATM    3  C   UNL     1     -14.405  14.759  71.906  1.00  0.00    -0.657 C  
HETATM    4  C   UNL     1     -12.789  15.327  70.065  1.00  0.00    -0.088 C  
ENDROOT
BRANCH   4   5
HETATM    5  N   UNL     1     -11.730  14.958  69.032  1.00  0.00    -0.307 N  
BRANCH   5   6
HETATM    6  C   UNL     1     -12.146  15.368  67.598  1.00  0.00     0.356 C  
BRANCH   6   7
HETATM    7  C   UNL     1     -12.121  14.240  66.509  1.00  0.00    -0.429 C  
HETATM    8  H   UNL     1     -13.412  13.454  65.270  1.00  0.00     0.000 HD 
HETATM    9  O   UNL     1     -13.427  14.137  65.929  1.00  0.00    -0.252 OA 
BRANCH   7  10
HETATM   10  C   UNL     1     -11.007  14.447  65.418  1.00  0.00    -0.339 C  
BRANCH  10  11
HETATM   11  N   UNL     1     -11.005  13.394  64.383  1.00  0.00    -0.388 N  
HETATM   12  O   UNL     1     -11.089  11.657  65.877  1.00  0.00    -0.303 OA 
HETATM   13  H   UNL     1     -10.980  13.658  63.398  1.00  0.00     0.000 HD 
HETATM   14  C   UNL     1     -11.035  12.065  64.726  1.00  0.00    -0.311 C  
BRANCH  14  15
HETATM   15  O   UNL     1     -10.972  11.258  63.628  1.00  0.00    -0.385 OA 
BRANCH  15  16
HETATM   16  C   UNL     1      -9.889  10.308  63.667  1.00  0.00    -0.112 C  
HETATM   17  C   UNL     1      -9.042  10.364  62.412  1.00  0.00    -0.313 C  
HETATM   18  O   UNL     1      -7.559  10.260  64.240  1.00  0.00    -0.147 OA 
HETATM   19  C   UNL     1      -7.717   9.812  62.890  1.00  0.00    -0.127 C  
HETATM   20  C   UNL     1      -8.857  10.601  64.754  1.00  0.00    -0.182 C  
ENDBRANCH  15  16
ENDBRANCH  14  15
ENDBRANCH  10  11
BRANCH  10  21
HETATM   21  C   UNL     1     -10.890  15.869  64.805  1.00  0.00    -0.346 C  
BRANCH  21  22
HETATM   22  C   UNL     1     -10.049  16.935  65.479  1.00  0.00    -0.081 A  
HETATM   23  C   UNL     1      -7.862  17.754  66.168  1.00  0.00    -0.262 A  
HETATM   24  C   UNL     1      -8.685  16.716  65.719  1.00  0.00     0.105 A  
HETATM   25  C   UNL     1      -8.392  19.022  66.399  1.00  0.00    -0.315 A  
HETATM   26  C   UNL     1     -10.571  18.215  65.731  1.00  0.00    -0.186 A  
HETATM   27  C   UNL     1      -9.748  19.250  66.188  1.00  0.00    -0.388 A  
ENDBRANCH  21  22
ENDBRANCH  10  21
ENDBRANCH   7  10
ENDBRANCH   6   7
ENDBRANCH   5   6
BRANCH   5  28
HETATM   28  S   UNL     1     -10.177  15.671  69.461  1.00  0.00    -0.292 S  
HETATM   29  O   UNL     1     -10.073  16.981  68.861  1.00  0.00    -0.276 OA 
HETATM   30  O   UNL     1     -10.051  15.501  70.897  1.00  0.00     0.241 OA 
BRANCH  28  31
HETATM   31  C   UNL     1      -8.946  14.661  68.685  1.00  0.00    -0.184 A  
HETATM   32  N   UNL     1      -6.009  12.237  66.905  1.00  0.00    -0.455 NA 
HETATM   33  H2  UNL     1      -5.266  12.156  67.599  1.00  0.00     0.000 HD 
HETATM   34  H1  UNL     1      -6.241  11.302  66.571  1.00  0.00     0.000 HD 
HETATM   35  C   UNL     1      -7.655  15.158  68.498  1.00  0.00    -0.120 A  
HETATM   36  C   UNL     1      -6.689  14.353  67.879  1.00  0.00    -0.177 A  
HETATM   37  C   UNL     1      -9.252  13.345  68.313  1.00  0.00    -0.198 A  
HETATM   38  C   UNL     1      -8.276  12.551  67.703  1.00  0.00    -0.172 A  
HETATM   39  C   UNL     1      -7.008  13.069  67.422  1.00  0.00    -0.116 A  
ENDBRANCH  28  31
ENDBRANCH   5  28
ENDBRANCH   4   5
TORSDOF 11
ENDMDL
MODEL      314
REMARK 921   NORMALIZED FREE ENERGY PREDICTED BY IDOCK:   -3.99 KCAL/MOL
REMARK 922        TOTAL FREE ENERGY PREDICTED BY IDOCK:   -8.33 KCAL/MOL
REMARK 923 INTER-LIGAND FREE ENERGY PREDICTED BY IDOCK:   -6.48 KCAL/MOL
REMARK 924 INTRA-LIGAND FREE ENERGY PREDICTED BY IDOCK:   -1.85 KCAL/MOL
REMARK 927      BINDING AFFINITY PREDICTED BY RF-SCORE:    0.00 PKD
ROOT
HETATM    1  C   UNL     1      -6.646   5.839  68.340  1.00  0.00    -0.052 C  
HETATM    2  C   UNL     1      -7.334   5.946  66.978  1.00  0.00    -0.076 C  
HETATM    3  C   UNL     1      -6.815   4.797  66.091  1.00  0.00    -0.058 C  
HETATM    4  C   UNL     1      -8.872   5.870  67.060  1.00  0.00    -0.112 C  
ENDROOT
BRANCH   4   5
HETATM    5  N   UNL     1      -9.578   6.922  67.907  1.00  0.00    -0.119 N  
BRANCH   5   6
HETATM    6  C   UNL     1     -10.517   7.817  67.062  1.00  0.00    -0.349 C  
BRANCH   6   7
HETATM    7  C   UNL     1     -10.269   9.364  67.135  1.00  0.00    -0.254 C  
HETATM    8  H   UNL     1      -9.556  10.612  68.459  1.00  0.00     0.000 HD 
HETATM    9  O   UNL     1      -9.706   9.675  68.415  1.00  0.00    -0.147 OA 
BRANCH   7  10
HETATM   10  C   UNL     1      -9.385   9.913  65.954  1.00  0.00    -0.192 C  
BRANCH  10  11
HETATM   11  N   UNL     1      -9.510  11.372  65.766  1.00  0.00    -0.229 N  
HETATM   12  O   UNL     1     -11.092  11.219  64.115  1.00  0.00    -0.354 OA 
HETATM   13  H   UNL     1      -8.950  12.002  66.341  1.00  0.00     0.000 HD 
HETATM   14  C   UNL     1     -10.368  11.894  64.830  1.00  0.00    -0.281 C  
BRANCH  14  15
HETATM   15  O   UNL     1     -10.292  13.255  64.778  1.00  0.00    -0.358 OA 
BRANCH  15  16
HETATM   16  C   UNL     1     -10.542  13.900  66.042  1.00  0.00    -0.293 C  
HETATM   17  C   UNL     1     -10.143  15.361  66.022  1.00  0.00    -0.346 C  
HETATM   18  O   UNL     1     -12.249  15.237  67.072  1.00  0.00     0.195 OA 
HETATM   19  C   UNL     1     -11.008  15.949  67.115  1.00  0.00    -0.214 C  
HETATM   20  C   UNL     1     -12.024  13.985  66.402  1.00  0.00    -0.438 C  
ENDBRANCH  15  16
ENDBRANCH  14  15
ENDBRANCH  10  11
BRANCH  10  21
HETATM   21  C   UNL     1      -7.906   9.443  65.916  1.00  0.00    -0.099 C  
BRANCH  21  22
HETATM   22  C   UNL     1      -7.135   9.421  64.611  1.00  0.00    -0.100 A  
HETATM   23  C   UNL     1      -6.449  10.545  62.563  1.00  0.00    -0.142 A  
HETATM   24  C   UNL     1      -7.287  10.458  63.680  1.00  0.00    -0.013 A  
HETATM   25  C   UNL     1      -5.457   9.590  62.351  1.00  0.00    -0.084 A  
HETATM   26  C   UNL     1      -6.141   8.457  64.375  1.00  0.00    -0.065 A  
HETATM   27  C   UNL     1      -5.309   8.541  63.253  1.00  0.00    -0.063 A  
ENDBRANCH  21  22
ENDBRANCH  10  21
ENDBRANCH   7  10
ENDBRANCH   6   7
ENDBRANCH   5   6
BRANCH   5  28
HETATM   28  S   UNL     1     -10.461   6.159  69.226  1.00  0.00    -0.287 S  
HETATM   29  O   UNL     1     -11.855   6.526  69.142  1.00  0.00    -0.065 OA 
HETATM   30  O   UNL     1     -10.059   4.764  69.212  1.00  0.00    -0.205 OA 
BRANCH  28  31
HETATM   31  C   UNL     1      -9.836   6.887  70.716  1.00  0.00    -0.182 A  
HETATM   32  N   UNL     1      -8.331   8.555  74.269  1.00  0.00    -0.406 NA 
HETATM   33  H2  UNL     1      -8.427   7.825  74.974  1.00  0.00     0.000 HD 
HETATM   34  H1  UNL     1      -7.379   8.918  74.309  1.00  0.00     0.000 HD 
HETATM   35  C   UNL     1     -10.662   6.997  71.836  1.00  0.00    -0.244 A  
HETATM   36  C   UNL     1     -10.161   7.579  73.008  1.00  0.00    -0.342 A  
HETATM   37  C   UNL     1      -8.499   7.300  70.787  1.00  0.00    -0.132 A  
HETATM   38  C   UNL     1      -8.010   7.872  71.966  1.00  0.00    -0.135 A  
HETATM   39  C   UNL     1      -8.853   8.076  73.063  1.00  0.00    -0.239 A  
ENDBRANCH  28  31
ENDBRANCH   5  28
ENDBRANCH   4   5
TORSDOF 11
ENDMDL
MODEL      315
REMARK 921   NORMALIZED FREE ENERGY PREDICTED BY IDOCK:   -3.97 KCAL/MOL
REMARK 922        TOTAL FREE ENERGY PREDICTED BY IDOCK:   -8.30 KCAL/MOL
REMARK 923 INTER-LIGAND FREE ENERGY PREDICTED BY IDOCK:   -7.82 KCAL/MOL
REMARK 924 INTRA-LIGAND FREE ENERGY PREDICTED BY IDOCK:   -0.48 KCAL/MOL
REMARK 927      BINDING AFFINITY PREDICTED BY RF-SCORE:    0.00 PKD
ROOT
HETATM    1  C   UNL     1     -10.484   7.098  67.615  1.00  0.00    -0.306 C  
HETATM    2  C   UNL     1      -9.864   6.077  68.570  1.00  0.00    -0.156 C  
HETATM    3  C   UNL     1      -9.892   4.699  67.878  1.00  0.00    -0.177 C  
HETATM    4  C   UNL     1      -8.415   6.414  68.973  1.00  0.00    -0.124 C  
ENDROOT
BRANCH   4   5
HETATM    5  N   UNL     1      -8.176   7.751  69.665  1.00  0.00    -0.125 N  
BRANCH   5   6
HETATM    6  C   UNL     1      -9.028   8.887  69.049  1.00  0.00    -0.137 C  
BRANCH   6   7
HETATM    7  C   UNL     1      -8.257  10.172  68.584  1.00  0.00    -0.111 C  
HETATM    8  H   UNL     1      -6.384  10.697  68.399  1.00  0.00     0.000 HD 
HETATM    9  O   UNL     1      -6.851   9.919  68.681  1.00  0.00    -0.051 OA 
BRANCH   7  10
HETATM   10  C   UNL     1      -8.670  10.664  67.147  1.00  0.00    -0.130 C  
BRANCH  10  11
HETATM   11  N   UNL     1      -9.351  11.975  67.157  1.00  0.00    -0.182 N  
HETATM   12  O   UNL     1     -11.460  11.093  67.330  1.00  0.00    -0.473 OA 
HETATM   13  H   UNL     1      -8.796  12.829  67.103  1.00  0.00     0.000 HD 
HETATM   14  C   UNL     1     -10.719  12.060  67.238  1.00  0.00    -0.232 C  
BRANCH  14  15
HETATM   15  O   UNL     1     -11.149  13.353  67.177  1.00  0.00    -0.275 OA 
BRANCH  15  16
HETATM   16  C   UNL     1     -11.971  13.746  68.293  1.00  0.00    -0.357 C  
HETATM   17  C   UNL     1     -11.789  12.826  69.483  1.00  0.00    -0.379 C  
HETATM   18  O   UNL     1     -11.772  15.032  70.309  1.00  0.00    -0.258 OA 
HETATM   19  C   UNL     1     -12.201  13.708  70.641  1.00  0.00    -0.360 C  
HETATM   20  C   UNL     1     -11.592  15.102  68.885  1.00  0.00    -0.341 C  
ENDBRANCH  15  16
ENDBRANCH  14  15
ENDBRANCH  10  11
BRANCH  10  21
HETATM   21  C   UNL     1      -7.582  10.579  66.044  1.00  0.00    -0.140 C  
BRANCH  21  22
HETATM   22  C   UNL     1      -7.427   9.327  65.205  1.00  0.00    -0.105 A  
HETATM   23  C   UNL     1      -5.988   7.778  63.996  1.00  0.00    -0.053 A  
HETATM   24  C   UNL     1      -6.194   9.016  64.615  1.00  0.00    -0.066 A  
HETATM   25  C   UNL     1      -7.015   6.838  63.944  1.00  0.00    -0.056 A  
HETATM   26  C   UNL     1      -8.457   8.375  65.130  1.00  0.00    -0.179 A  
HETATM   27  C   UNL     1      -8.253   7.140  64.504  1.00  0.00    -0.002 A  
ENDBRANCH  21  22
ENDBRANCH  10  21
ENDBRANCH   7  10
ENDBRANCH   6   7
ENDBRANCH   5   6
BRANCH   5  28
HETATM   28  S   UNL     1      -8.478   7.610  71.395  1.00  0.00    -0.117 S  
HETATM   29  O   UNL     1      -8.028   6.317  71.853  1.00  0.00    -0.101 OA 
HETATM   30  O   UNL     1      -7.954   8.829  71.985  1.00  0.00    -0.311 OA 
BRANCH  28  31
HETATM   31  C   UNL     1     -10.239   7.629  71.585  1.00  0.00    -0.185 A  
HETATM   32  N   UNL     1     -14.411   7.678  72.104  1.00  0.00    -0.617 NA 
HETATM   33  H2  UNL     1     -14.580   7.196  72.986  1.00  0.00     0.000 HD 
HETATM   34  H1  UNL     1     -14.921   8.561  72.117  1.00  0.00     0.000 HD 
HETATM   35  C   UNL     1     -10.941   6.427  71.686  1.00  0.00    -0.302 A  
HETATM   36  C   UNL     1     -12.334   6.451  71.832  1.00  0.00    -0.279 A  
HETATM   37  C   UNL     1     -10.920   8.850  71.692  1.00  0.00    -0.415 A  
HETATM   38  C   UNL     1     -12.310   8.859  71.845  1.00  0.00    -0.445 A  
HETATM   39  C   UNL     1     -13.035   7.664  71.850  1.00  0.00    -0.270 A  
ENDBRANCH  28  31
ENDBRANCH   5  28
ENDBRANCH   4   5
TORSDOF 11
ENDMDL
MODEL      316
REMARK 921   NORMALIZED FREE ENERGY PREDICTED BY IDOCK:   -3.95 KCAL/MOL
REMARK 922        TOTAL FREE ENERGY PREDICTED BY IDOCK:   -8.26 KCAL/MOL
REMARK 923 INTER-LIGAND FREE ENERGY PREDICTED BY IDOCK:   -7.46 KCAL/MOL
REMARK 924 INTRA-LIGAND FREE ENERGY PREDICTED BY IDOCK:   -0.81 KCAL/MOL
REMARK 927      BINDING AFFINITY PREDICTED BY RF-SCORE:    0.00 PKD
ROOT
HETATM    1  C   UNL     1      -9.042   5.055  67.904  1.00  0.00    -0.126 C  
HETATM    2  C   UNL     1      -9.731   5.897  66.830  1.00  0.00    -0.168 C  
HETATM    3  C   UNL     1     -10.453   4.937  65.862  1.00  0.00    -0.282 C  
HETATM    4  C   UNL     1     -10.749   6.906  67.399  1.00  0.00    -0.326 C  
ENDROOT
BRANCH   4   5
HETATM    5  N   UNL     1     -10.226   7.939  68.391  1.00  0.00    -0.198 N  
BRANCH   5   6
HETATM    6  C   UNL     1     -10.415   9.387  67.878  1.00  0.00    -0.243 C  
BRANCH   6   7
HETATM    7  C   UNL     1      -9.196  10.359  68.053  1.00  0.00    -0.140 C  
HETATM    8  H   UNL     1      -7.249  10.194  68.013  1.00  0.00     0.000 HD 
HETATM    9  O   UNL     1      -7.987   9.605  67.908  1.00  0.00    -0.097 OA 
BRANCH   7  10
HETATM   10  C   UNL     1      -9.238  11.597  67.082  1.00  0.00    -0.176 C  
BRANCH  10  11
HETATM   11  N   UNL     1      -8.561  11.347  65.794  1.00  0.00    -0.372 N  
HETATM   12  O   UNL     1     -10.402  10.428  64.783  1.00  0.00    -0.320 OA 
HETATM   13  H   UNL     1      -7.583  11.615  65.681  1.00  0.00     0.000 HD 
HETATM   14  C   UNL     1      -9.226  10.760  64.746  1.00  0.00    -0.214 C  
BRANCH  14  15
HETATM   15  O   UNL     1      -8.409  10.570  63.671  1.00  0.00    -0.166 OA 
BRANCH  15  16
HETATM   16  C   UNL     1      -7.902   9.226  63.557  1.00  0.00    -0.129 C  
HETATM   17  C   UNL     1      -6.389   9.184  63.610  1.00  0.00    -0.089 C  
HETATM   18  O   UNL     1      -7.174   7.450  64.998  1.00  0.00    -0.061 OA 
HETATM   19  C   UNL     1      -6.120   7.774  64.086  1.00  0.00    -0.053 C  
HETATM   20  C   UNL     1      -8.281   8.328  64.733  1.00  0.00    -0.144 C  
ENDBRANCH  15  16
ENDBRANCH  14  15
ENDBRANCH  10  11
BRANCH  10  21
HETATM   21  C   UNL     1     -10.616  12.286  66.894  1.00  0.00    -0.249 C  
BRANCH  21  22
HETATM   22  C   UNL     1     -10.704  13.762  66.563  1.00  0.00    -0.284 A  
HETATM   23  C   UNL     1     -10.378  16.082  67.227  1.00  0.00    -0.295 A  
HETATM   24  C   UNL     1     -10.482  14.727  67.556  1.00  0.00    -0.245 A  
HETATM   25  C   UNL     1     -10.510  16.497  65.903  1.00  0.00    -0.335 A  
HETATM   26  C   UNL     1     -10.851  14.198  65.235  1.00  0.00    -0.356 A  
HETATM   27  C   UNL     1     -10.755  15.555  64.908  1.00  0.00    -0.415 A  
ENDBRANCH  21  22
ENDBRANCH  10  21
ENDBRANCH   7  10
ENDBRANCH   6   7
ENDBRANCH   5   6
BRANCH   5  28
HETATM   28  S   UNL     1     -10.995   7.726  69.962  1.00  0.00    -0.168 S  
HETATM   29  O   UNL     1     -11.655   8.954  70.339  1.00  0.00    -0.219 OA 
HETATM   30  O   UNL     1     -11.738   6.483  69.870  1.00  0.00    -0.406 OA 
BRANCH  28  31
HETATM   31  C   UNL     1      -9.676   7.486  71.120  1.00  0.00    -0.162 A  
HETATM   32  N   UNL     1      -6.585   6.870  73.903  1.00  0.00    -0.071 NA 
HETATM   33  H2  UNL     1      -7.052   6.687  74.791  1.00  0.00     0.000 HD 
HETATM   34  H1  UNL     1      -5.888   6.141  73.750  1.00  0.00     0.000 HD 
HETATM   35  C   UNL     1      -9.569   8.318  72.236  1.00  0.00    -0.355 A  
HETATM   36  C   UNL     1      -8.520   8.123  73.144  1.00  0.00    -0.279 A  
HETATM   37  C   UNL     1      -8.776   6.425  70.948  1.00  0.00    -0.136 A  
HETATM   38  C   UNL     1      -7.739   6.238  71.867  1.00  0.00    -0.097 A  
HETATM   39  C   UNL     1      -7.563   7.123  72.935  1.00  0.00    -0.083 A  
ENDBRANCH  28  31
ENDBRANCH   5  28
ENDBRANCH   4   5
TORSDOF 11
ENDMDL
MODEL      317
REMARK 921   NORMALIZED FREE ENERGY PREDICTED BY IDOCK:   -3.95 KCAL/MOL
REMARK 922        TOTAL FREE ENERGY PREDICTED BY IDOCK:   -8.26 KCAL/MOL
REMARK 923 INTER-LIGAND FREE ENERGY PREDICTED BY IDOCK:  -10.94 KCAL/MOL
REMARK 924 INTRA-LIGAND FREE ENERGY PREDICTED BY IDOCK:    2.68 KCAL/MOL
REMARK 927      BINDING AFFINITY PREDICTED BY RF-SCORE:    0.00 PKD
ROOT
HETATM    1  C   UNL     1      -6.830  13.711  68.480  1.00  0.00    -0.098 C  
HETATM    2  C   UNL     1      -8.192  14.023  69.101  1.00  0.00     0.225 C  
HETATM    3  C   UNL     1      -8.345  15.556  69.167  1.00  0.00    -0.253 C  
HETATM    4  C   UNL     1      -9.376  13.426  68.315  1.00  0.00    -0.205 C  
ENDROOT
BRANCH   4   5
HETATM    5  N   UNL     1      -9.399  11.913  68.130  1.00  0.00    -0.187 N  
BRANCH   5   6
HETATM    6  C   UNL     1      -9.948  11.182  69.379  1.00  0.00     0.085 C  
BRANCH   6   7
HETATM    7  C   UNL     1     -11.174  10.229  69.153  1.00  0.00    -0.215 C  
HETATM    8  H   UNL     1     -11.436   8.305  68.928  1.00  0.00     0.000 HD 
HETATM    9  O   UNL     1     -10.694   8.882  69.064  1.00  0.00    -0.209 OA 
BRANCH   7  10
HETATM   10  C   UNL     1     -12.296  10.383  70.246  1.00  0.00    -0.250 C  
BRANCH  10  11
HETATM   11  N   UNL     1     -12.748   9.091  70.799  1.00  0.00    -0.490 N  
HETATM   12  O   UNL     1     -10.975   8.866  72.235  1.00  0.00    -0.337 OA 
HETATM   13  H   UNL     1     -13.619   8.678  70.464  1.00  0.00     0.000 HD 
HETATM   14  C   UNL     1     -12.015   8.436  71.758  1.00  0.00    -0.325 C  
BRANCH  14  15
HETATM   15  O   UNL     1     -12.576   7.239  72.093  1.00  0.00    -0.243 OA 
BRANCH  15  16
HETATM   16  C   UNL     1     -11.707   6.110  71.881  1.00  0.00    -0.279 C  
HETATM   17  C   UNL     1     -11.266   5.998  70.436  1.00  0.00    -0.380 C  
HETATM   18  O   UNL     1      -9.354   5.649  71.768  1.00  0.00    -0.145 OA 
HETATM   19  C   UNL     1      -9.973   5.221  70.551  1.00  0.00    -0.229 C  
HETATM   20  C   UNL     1     -10.368   6.224  72.608  1.00  0.00    -0.199 C  
ENDBRANCH  15  16
ENDBRANCH  14  15
ENDBRANCH  10  11
BRANCH  10  21
HETATM   21  C   UNL     1     -12.045  11.439  71.355  1.00  0.00     0.046 C  
BRANCH  21  22
HETATM   22  C   UNL     1     -12.756  12.777  71.325  1.00  0.00    -0.364 A  
HETATM   23  C   UNL     1     -14.354  14.324  72.315  1.00  0.00    -0.527 A  
HETATM   24  C   UNL     1     -13.815  13.038  72.206  1.00  0.00    -0.529 A  
HETATM   25  C   UNL     1     -13.856  15.365  71.535  1.00  0.00    -0.599 A  
HETATM   26  C   UNL     1     -12.275  13.833  70.533  1.00  0.00    -0.440 A  
HETATM   27  C   UNL     1     -12.822  15.117  70.637  1.00  0.00    -0.440 A  
ENDBRANCH  21  22
ENDBRANCH  10  21
ENDBRANCH   7  10
ENDBRANCH   6   7
ENDBRANCH   5   6
BRANCH   5  28
HETATM   28  S   UNL     1     -10.325  11.483  66.695  1.00  0.00    -0.234 S  
HETATM   29  O   UNL     1      -9.470  10.776  65.771  1.00  0.00    -0.186 OA 
HETATM   30  O   UNL     1     -11.550  10.877  67.185  1.00  0.00    -0.431 OA 
BRANCH  28  31
HETATM   31  C   UNL     1     -10.754  13.015  65.914  1.00  0.00    -0.276 A  
HETATM   32  N   UNL     1     -11.752  16.623  64.002  1.00  0.00    -1.371 NA 
HETATM   33  H2  UNL     1     -11.087  16.717  63.235  1.00  0.00     0.000 HD 
HETATM   34  H1  UNL     1     -12.691  16.772  63.633  1.00  0.00     0.000 HD 
HETATM   35  C   UNL     1      -9.811  14.040  65.830  1.00  0.00    -0.280 A  
HETATM   36  C   UNL     1     -10.160  15.250  65.215  1.00  0.00    -0.362 A  
HETATM   37  C   UNL     1     -12.018  13.175  65.331  1.00  0.00    -0.448 A  
HETATM   38  C   UNL     1     -12.351  14.385  64.714  1.00  0.00    -0.427 A  
HETATM   39  C   UNL     1     -11.449  15.454  64.708  1.00  0.00    -0.336 A  
ENDBRANCH  28  31
ENDBRANCH   5  28
ENDBRANCH   4   5
TORSDOF 11
ENDMDL
MODEL      318
REMARK 921   NORMALIZED FREE ENERGY PREDICTED BY IDOCK:   -3.93 KCAL/MOL
REMARK 922        TOTAL FREE ENERGY PREDICTED BY IDOCK:   -8.22 KCAL/MOL
REMARK 923 INTER-LIGAND FREE ENERGY PREDICTED BY IDOCK:   -7.99 KCAL/MOL
REMARK 924 INTRA-LIGAND FREE ENERGY PREDICTED BY IDOCK:   -0.23 KCAL/MOL
REMARK 927      BINDING AFFINITY PREDICTED BY RF-SCORE:    0.00 PKD
ROOT
HETATM    1  C   UNL     1      -7.331  18.951  68.712  1.00  0.00    -0.356 C  
HETATM    2  C   UNL     1      -8.377  18.162  67.923  1.00  0.00    -0.254 C  
HETATM    3  C   UNL     1      -8.445  18.752  66.500  1.00  0.00    -0.310 C  
HETATM    4  C   UNL     1      -8.070  16.654  67.834  1.00  0.00    -0.172 C  
ENDROOT
BRANCH   4   5
HETATM    5  N   UNL     1      -7.950  15.888  69.147  1.00  0.00    -0.223 N  
BRANCH   5   6
HETATM    6  C   UNL     1      -9.092  14.858  69.326  1.00  0.00    -0.096 C  
BRANCH   6   7
HETATM    7  C   UNL     1     -10.043  14.641  68.098  1.00  0.00    -0.224 C  
HETATM    8  H   UNL     1      -9.843  14.006  66.260  1.00  0.00     0.000 HD 
HETATM    9  O   UNL     1      -9.267  14.138  67.004  1.00  0.00    -0.220 OA 
BRANCH   7  10
HETATM   10  C   UNL     1     -11.278  13.719  68.417  1.00  0.00    -0.272 C  
BRANCH  10  11
HETATM   11  N   UNL     1     -11.958  14.076  69.679  1.00  0.00    -0.319 N  
HETATM   12  O   UNL     1     -12.000  11.932  70.488  1.00  0.00    -0.354 OA 
HETATM   13  H   UNL     1     -12.198  15.051  69.860  1.00  0.00     0.000 HD 
HETATM   14  C   UNL     1     -12.270  13.117  70.610  1.00  0.00    -0.321 C  
BRANCH  14  15
HETATM   15  O   UNL     1     -12.941  13.646  71.674  1.00  0.00    -0.342 OA 
BRANCH  15  16
HETATM   16  C   UNL     1     -12.230  14.706  72.340  1.00  0.00    -0.225 C  
HETATM   17  C   UNL     1     -12.999  16.011  72.309  1.00  0.00    -0.406 C  
HETATM   18  O   UNL     1     -12.172  15.752  74.500  1.00  0.00    -0.606 OA 
HETATM   19  C   UNL     1     -12.439  16.747  73.506  1.00  0.00    -0.035 C  
HETATM   20  C   UNL     1     -12.060  14.480  73.841  1.00  0.00     0.200 C  
ENDBRANCH  15  16
ENDBRANCH  14  15
ENDBRANCH  10  11
BRANCH  10  21
HETATM   21  C   UNL     1     -12.283  13.478  67.259  1.00  0.00    -0.305 C  
BRANCH  21  22
HETATM   22  C   UNL     1     -11.798  13.036  65.893  1.00  0.00    -0.468 A  
HETATM   23  C   UNL     1     -10.540  11.467  64.522  1.00  0.00    -0.390 A  
HETATM   24  C   UNL     1     -10.856  12.006  65.773  1.00  0.00    -0.329 A  
HETATM   25  C   UNL     1     -11.149  11.959  63.369  1.00  0.00    -0.463 A  
HETATM   26  C   UNL     1     -12.392  13.533  64.720  1.00  0.00    -0.435 A  
HETATM   27  C   UNL     1     -12.069  12.998  63.468  1.00  0.00    -0.617 A  
ENDBRANCH  21  22
ENDBRANCH  10  21
ENDBRANCH   7  10
ENDBRANCH   6   7
ENDBRANCH   5   6
BRANCH   5  28
HETATM   28  S   UNL     1      -6.377  15.104  69.261  1.00  0.00    -0.126 S  
HETATM   29  O   UNL     1      -5.450  15.768  68.375  1.00  0.00    -0.098 OA 
HETATM   30  O   UNL     1      -6.096  14.993  70.681  1.00  0.00    -0.123 OA 
BRANCH  28  31
HETATM   31  C   UNL     1      -6.601  13.467  68.623  1.00  0.00    -0.091 A  
HETATM   32  N   UNL     1      -7.198   9.595  67.096  1.00  0.00    -0.086 NA 
HETATM   33  H2  UNL     1      -8.160   9.356  67.332  1.00  0.00     0.000 HD 
HETATM   34  H1  UNL     1      -7.051   9.400  66.106  1.00  0.00     0.000 HD 
HETATM   35  C   UNL     1      -6.950  12.426  69.485  1.00  0.00     0.161 A  
HETATM   36  C   UNL     1      -7.120  11.133  68.973  1.00  0.00    -0.113 A  
HETATM   37  C   UNL     1      -6.486  13.228  67.247  1.00  0.00     0.118 A  
HETATM   38  C   UNL     1      -6.666  11.934  66.748  1.00  0.00    -0.009 A  
HETATM   39  C   UNL     1      -6.920  10.865  67.613  1.00  0.00    -0.082 A  
ENDBRANCH  28  31
ENDBRANCH   5  28
ENDBRANCH   4   5
TORSDOF 11
ENDMDL
MODEL      319
REMARK 921   NORMALIZED FREE ENERGY PREDICTED BY IDOCK:   -3.92 KCAL/MOL
REMARK 922        TOTAL FREE ENERGY PREDICTED BY IDOCK:   -8.22 KCAL/MOL
REMARK 923 INTER-LIGAND FREE ENERGY PREDICTED BY IDOCK:   -8.21 KCAL/MOL
REMARK 924 INTRA-LIGAND FREE ENERGY PREDICTED BY IDOCK:   -0.01 KCAL/MOL
REMARK 927      BINDING AFFINITY PREDICTED BY RF-SCORE:    0.00 PKD
ROOT
HETATM    1  C   UNL     1      -9.157   9.561  66.596  1.00  0.00    -0.179 C  
HETATM    2  C   UNL     1     -10.003   9.464  67.866  1.00  0.00    -0.220 C  
HETATM    3  C   UNL     1      -9.728   8.094  68.518  1.00  0.00    -0.170 C  
HETATM    4  C   UNL     1      -9.710  10.581  68.886  1.00  0.00    -0.199 C  
ENDROOT
BRANCH   4   5
HETATM    5  N   UNL     1      -9.912  12.019  68.423  1.00  0.00    -0.210 N  
BRANCH   5   6
HETATM    6  C   UNL     1      -9.139  12.326  67.117  1.00  0.00    -0.193 C  
BRANCH   6   7
HETATM    7  C   UNL     1      -8.311  13.658  67.086  1.00  0.00    -0.137 C  
HETATM    8  H   UNL     1      -8.377  15.330  66.077  1.00  0.00     0.000 HD 
HETATM    9  O   UNL     1      -8.878  14.523  66.096  1.00  0.00    -0.061 OA 
BRANCH   7  10
HETATM   10  C   UNL     1      -8.203  14.361  68.490  1.00  0.00    -0.151 C  
BRANCH  10  11
HETATM   11  N   UNL     1      -7.487  13.546  69.493  1.00  0.00    -0.254 N  
HETATM   12  O   UNL     1      -5.449  13.712  68.456  1.00  0.00    -0.080 OA 
HETATM   13  H   UNL     1      -7.999  13.171  70.291  1.00  0.00     0.000 HD 
HETATM   14  C   UNL     1      -6.145  13.286  69.366  1.00  0.00    -0.106 C  
BRANCH  14  15
HETATM   15  O   UNL     1      -5.692  12.473  70.363  1.00  0.00    -0.150 OA 
BRANCH  15  16
HETATM   16  C   UNL     1      -5.434  11.121  69.939  1.00  0.00    -0.058 C  
HETATM   17  C   UNL     1      -6.275  10.118  70.702  1.00  0.00    -0.103 C  
HETATM   18  O   UNL     1      -6.363   9.502  68.430  1.00  0.00    -0.052 OA 
HETATM   19  C   UNL     1      -6.327   8.945  69.748  1.00  0.00    -0.035 C  
HETATM   20  C   UNL     1      -5.850  10.843  68.496  1.00  0.00    -0.043 C  
ENDBRANCH  15  16
ENDBRANCH  14  15
ENDBRANCH  10  11
BRANCH  10  21
HETATM   21  C   UNL     1      -7.730  15.839  68.493  1.00  0.00    -0.137 C  
BRANCH  21  22
HETATM   22  C   UNL     1      -8.731  16.972  68.379  1.00  0.00    -0.247 A  
HETATM   23  C   UNL     1      -9.186  19.342  68.061  1.00  0.00    -0.388 A  
HETATM   24  C   UNL     1      -8.295  18.304  68.350  1.00  0.00    -0.323 A  
HETATM   25  C   UNL     1     -10.529  19.068  67.811  1.00  0.00    -0.499 A  
HETATM   26  C   UNL     1     -10.091  16.713  68.141  1.00  0.00    -0.267 A  
HETATM   27  C   UNL     1     -10.983  17.754  67.859  1.00  0.00    -0.100 A  
ENDBRANCH  21  22
ENDBRANCH  10  21
ENDBRANCH   7  10
ENDBRANCH   6   7
ENDBRANCH   5   6
BRANCH   5  28
HETATM   28  S   UNL     1     -11.628  12.369  68.231  1.00  0.00    -0.349 S  
HETATM   29  O   UNL     1     -12.389  11.168  68.486  1.00  0.00    -0.561 OA 
HETATM   30  O   UNL     1     -11.870  13.577  68.998  1.00  0.00    -0.305 OA 
BRANCH  28  31
HETATM   31  C   UNL     1     -11.857  12.758  66.518  1.00  0.00    -0.405 A  
HETATM   32  N   UNL     1     -12.468  13.668  62.460  1.00  0.00    -0.382 NA 
HETATM   33  H2  UNL     1     -13.216  13.048  62.152  1.00  0.00     0.000 HD 
HETATM   34  H1  UNL     1     -12.698  14.618  62.171  1.00  0.00     0.000 HD 
HETATM   35  C   UNL     1     -11.690  11.765  65.551  1.00  0.00    -0.105 A  
HETATM   36  C   UNL     1     -11.869  12.083  64.198  1.00  0.00    -0.462 A  
HETATM   37  C   UNL     1     -12.262  14.045  66.140  1.00  0.00    -0.494 A  
HETATM   38  C   UNL     1     -12.444  14.347  64.787  1.00  0.00    -0.371 A  
HETATM   39  C   UNL     1     -12.186  13.388  63.801  1.00  0.00    -0.417 A  
ENDBRANCH  28  31
ENDBRANCH   5  28
ENDBRANCH   4   5
TORSDOF 11
ENDMDL
MODEL      320
REMARK 921   NORMALIZED FREE ENERGY PREDICTED BY IDOCK:   -3.91 KCAL/MOL
REMARK 922        TOTAL FREE ENERGY PREDICTED BY IDOCK:   -8.20 KCAL/MOL
REMARK 923 INTER-LIGAND FREE ENERGY PREDICTED BY IDOCK:   -7.77 KCAL/MOL
REMARK 924 INTRA-LIGAND FREE ENERGY PREDICTED BY IDOCK:   -0.43 KCAL/MOL
REMARK 927      BINDING AFFINITY PREDICTED BY RF-SCORE:    0.00 PKD
ROOT
HETATM    1  C   UNL     1      -7.992   8.990  71.077  1.00  0.00    -0.186 C  
HETATM    2  C   UNL     1      -8.464   7.820  71.941  1.00  0.00    -0.140 C  
HETATM    3  C   UNL     1      -7.380   7.544  73.002  1.00  0.00    -0.090 C  
HETATM    4  C   UNL     1      -9.811   8.080  72.644  1.00  0.00    -0.279 C  
ENDROOT
BRANCH   4   5
HETATM    5  N   UNL     1     -11.013   8.386  71.758  1.00  0.00    -0.269 N  
BRANCH   5   6
HETATM    6  C   UNL     1     -10.613   9.165  70.481  1.00  0.00    -0.235 C  
BRANCH   6   7
HETATM    7  C   UNL     1     -11.486  10.417  70.119  1.00  0.00    -0.319 C  
HETATM    8  H   UNL     1     -12.562  11.714  71.107  1.00  0.00     0.000 HD 
HETATM    9  O   UNL     1     -12.034  10.956  71.327  1.00  0.00    -0.279 OA 
BRANCH   7  10
HETATM   10  C   UNL     1     -10.707  11.504  69.288  1.00  0.00    -0.125 C  
BRANCH  10  11
HETATM   11  N   UNL     1      -9.659  10.930  68.421  1.00  0.00    -0.170 N  
HETATM   12  O   UNL     1     -11.052  10.596  66.631  1.00  0.00    -0.143 OA 
HETATM   13  H   UNL     1      -8.706  10.844  68.775  1.00  0.00     0.000 HD 
HETATM   14  C   UNL     1      -9.947  10.511  67.146  1.00  0.00    -0.193 C  
BRANCH  14  15
HETATM   15  O   UNL     1      -8.856   9.964  66.535  1.00  0.00    -0.136 OA 
BRANCH  15  16
HETATM   16  C   UNL     1      -7.635  10.115  67.284  1.00  0.00    -0.095 C  
HETATM   17  C   UNL     1      -6.872   8.810  67.394  1.00  0.00    -0.071 C  
HETATM   18  O   UNL     1      -5.301  10.483  66.862  1.00  0.00    -0.040 OA 
HETATM   19  C   UNL     1      -5.454   9.282  67.625  1.00  0.00    -0.038 C  
HETATM   20  C   UNL     1      -6.609  11.020  66.605  1.00  0.00    -0.128 C  
ENDBRANCH  15  16
ENDBRANCH  14  15
ENDBRANCH  10  11
BRANCH  10  21
HETATM   21  C   UNL     1     -11.569  12.559  68.544  1.00  0.00    -0.364 C  
BRANCH  21  22
HETATM   22  C   UNL     1     -11.435  14.034  68.868  1.00  0.00    -0.331 A  
HETATM   23  C   UNL     1     -11.417  15.824  70.518  1.00  0.00    -0.401 A  
HETATM   24  C   UNL     1     -11.712  14.505  70.159  1.00  0.00    -0.357 A  
HETATM   25  C   UNL     1     -10.856  16.698  69.589  1.00  0.00    -0.282 A  
HETATM   26  C   UNL     1     -10.884  14.931  67.938  1.00  0.00    -0.276 A  
HETATM   27  C   UNL     1     -10.597  16.253  68.296  1.00  0.00    -0.300 A  
ENDBRANCH  21  22
ENDBRANCH  10  21
ENDBRANCH   7  10
ENDBRANCH   6   7
ENDBRANCH   5   6
BRANCH   5  28
HETATM   28  S   UNL     1     -11.866   6.902  71.344  1.00  0.00    -0.349 S  
HETATM   29  O   UNL     1     -11.689   5.939  72.406  1.00  0.00    -0.309 OA 
HETATM   30  O   UNL     1     -13.195   7.315  70.932  1.00  0.00    -0.201 OA 
BRANCH  28  31
HETATM   31  C   UNL     1     -11.038   6.244  69.923  1.00  0.00    -0.401 A  
HETATM   32  N   UNL     1      -9.023   4.727  66.560  1.00  0.00    -0.111 NA 
HETATM   33  H2  UNL     1      -8.535   5.525  66.153  1.00  0.00     0.000 HD 
HETATM   34  H1  UNL     1      -8.358   3.959  66.656  1.00  0.00     0.000 HD 
HETATM   35  C   UNL     1     -11.318   6.757  68.655  1.00  0.00    -0.076 A  
HETATM   36  C   UNL     1     -10.662   6.227  67.536  1.00  0.00    -0.398 A  
HETATM   37  C   UNL     1     -10.062   5.251  70.077  1.00  0.00    -0.336 A  
HETATM   38  C   UNL     1      -9.409   4.737  68.953  1.00  0.00    -0.190 A  
HETATM   39  C   UNL     1      -9.750   5.173  67.669  1.00  0.00    -0.148 A  
ENDBRANCH  28  31
ENDBRANCH   5  28
ENDBRANCH   4   5
TORSDOF 11
ENDMDL
MODEL      321
REMARK 921   NORMALIZED FREE ENERGY PREDICTED BY IDOCK:   -3.90 KCAL/MOL
REMARK 922        TOTAL FREE ENERGY PREDICTED BY IDOCK:   -8.17 KCAL/MOL
REMARK 923 INTER-LIGAND FREE ENERGY PREDICTED BY IDOCK:   -6.94 KCAL/MOL
REMARK 924 INTRA-LIGAND FREE ENERGY PREDICTED BY IDOCK:   -1.24 KCAL/MOL
REMARK 927      BINDING AFFINITY PREDICTED BY RF-SCORE:    0.00 PKD
ROOT
HETATM    1  C   UNL     1     -11.857  11.569  67.754  1.00  0.00    -0.228 C  
HETATM    2  C   UNL     1     -10.486  12.170  68.066  1.00  0.00    -0.227 C  
HETATM    3  C   UNL     1      -9.434  11.049  67.940  1.00  0.00    -0.170 C  
HETATM    4  C   UNL     1     -10.100  13.337  67.136  1.00  0.00    -0.239 C  
ENDROOT
BRANCH   4   5
HETATM    5  N   UNL     1     -11.030  14.545  67.110  1.00  0.00    -0.296 N  
BRANCH   5   6
HETATM    6  C   UNL     1     -10.286  15.859  67.449  1.00  0.00    -0.270 C  
BRANCH   6   7
HETATM    7  C   UNL     1      -9.550  15.914  68.833  1.00  0.00    -0.230 C  
HETATM    8  H   UNL     1      -9.742  15.027  70.564  1.00  0.00     0.000 HD 
HETATM    9  O   UNL     1     -10.188  14.994  69.726  1.00  0.00    -0.207 OA 
BRANCH   7  10
HETATM   10  C   UNL     1      -8.001  15.655  68.729  1.00  0.00    -0.172 C  
BRANCH  10  11
HETATM   11  N   UNL     1      -7.204  16.898  68.731  1.00  0.00    -0.209 N  
HETATM   12  O   UNL     1      -5.935  16.316  66.913  1.00  0.00    -0.326 OA 
HETATM   13  H   UNL     1      -7.392  17.614  69.433  1.00  0.00     0.000 HD 
HETATM   14  C   UNL     1      -6.214  17.105  67.802  1.00  0.00    -0.141 C  
BRANCH  14  15
HETATM   15  O   UNL     1      -5.564  18.286  68.012  1.00  0.00    -0.162 OA 
BRANCH  15  16
HETATM   16  C   UNL     1      -6.107  19.389  67.261  1.00  0.00    -0.186 C  
HETATM   17  C   UNL     1      -6.094  19.121  65.770  1.00  0.00    -0.231 C  
HETATM   18  O   UNL     1      -8.200  20.043  66.285  1.00  0.00    -0.327 OA 
HETATM   19  C   UNL     1      -7.194  20.030  65.267  1.00  0.00    -0.147 C  
HETATM   20  C   UNL     1      -7.591  19.635  67.522  1.00  0.00    -0.264 C  
ENDBRANCH  15  16
ENDBRANCH  14  15
ENDBRANCH  10  11
BRANCH  10  21
HETATM   21  C   UNL     1      -7.410  14.580  69.680  1.00  0.00    -0.011 C  
BRANCH  21  22
HETATM   22  C   UNL     1      -6.613  13.414  69.130  1.00  0.00    -0.106 A  
HETATM   23  C   UNL     1      -5.583  11.234  69.468  1.00  0.00    -0.057 A  
HETATM   24  C   UNL     1      -6.156  12.401  69.985  1.00  0.00    -0.123 A  
HETATM   25  C   UNL     1      -5.445  11.067  68.092  1.00  0.00    -0.042 A  
HETATM   26  C   UNL     1      -6.452  13.238  67.745  1.00  0.00    -0.161 A  
HETATM   27  C   UNL     1      -5.872  12.073  67.231  1.00  0.00    -0.142 A  
ENDBRANCH  21  22
ENDBRANCH  10  21
ENDBRANCH   7  10
ENDBRANCH   6   7
ENDBRANCH   5   6
BRANCH   5  28
HETATM   28  S   UNL     1     -11.836  14.667  65.549  1.00  0.00    -0.243 S  
HETATM   29  O   UNL     1     -13.258  14.494  65.734  1.00  0.00    -0.209 OA 
HETATM   30  O   UNL     1     -11.309  15.868  64.927  1.00  0.00    -0.335 OA 
BRANCH  28  31
HETATM   31  C   UNL     1     -11.278  13.277  64.602  1.00  0.00    -0.348 A  
HETATM   32  N   UNL     1      -9.950   9.943  62.412  1.00  0.00    -0.587 NA 
HETATM   33  H2  UNL     1      -9.313   9.446  63.034  1.00  0.00     0.000 HD 
HETATM   34  H1  UNL     1     -10.619   9.272  62.033  1.00  0.00     0.000 HD 
HETATM   35  C   UNL     1      -9.916  13.114  64.343  1.00  0.00    -0.095 A  
HETATM   36  C   UNL     1      -9.485  12.014  63.590  1.00  0.00     0.023 A  
HETATM   37  C   UNL     1     -12.196  12.313  64.163  1.00  0.00    -0.539 A  
HETATM   38  C   UNL     1     -11.751  11.217  63.418  1.00  0.00     0.224 A  
HETATM   39  C   UNL     1     -10.402  11.093  63.070  1.00  0.00    -0.156 A  
ENDBRANCH  28  31
ENDBRANCH   5  28
ENDBRANCH   4   5
TORSDOF 11
ENDMDL
MODEL      322
REMARK 921   NORMALIZED FREE ENERGY PREDICTED BY IDOCK:   -3.89 KCAL/MOL
REMARK 922        TOTAL FREE ENERGY PREDICTED BY IDOCK:   -8.16 KCAL/MOL
REMARK 923 INTER-LIGAND FREE ENERGY PREDICTED BY IDOCK:   -6.65 KCAL/MOL
REMARK 924 INTRA-LIGAND FREE ENERGY PREDICTED BY IDOCK:   -1.52 KCAL/MOL
REMARK 927      BINDING AFFINITY PREDICTED BY RF-SCORE:    0.00 PKD
ROOT
HETATM    1  C   UNL     1      -9.307   5.159  72.089  1.00  0.00    -0.162 C  
HETATM    2  C   UNL     1      -8.035   5.602  71.365  1.00  0.00    -0.113 C  
HETATM    3  C   UNL     1      -6.848   5.419  72.331  1.00  0.00    -0.075 C  
HETATM    4  C   UNL     1      -7.761   4.815  70.068  1.00  0.00    -0.055 C  
ENDROOT
BRANCH   4   5
HETATM    5  N   UNL     1      -8.833   4.863  68.984  1.00  0.00    -0.091 N  
BRANCH   5   6
HETATM    6  C   UNL     1      -9.052   6.297  68.444  1.00  0.00    -0.114 C  
BRANCH   6   7
HETATM    7  C   UNL     1     -10.512   6.667  68.006  1.00  0.00    -0.216 C  
HETATM    8  H   UNL     1     -12.276   6.660  68.847  1.00  0.00     0.000 HD 
HETATM    9  O   UNL     1     -11.392   6.435  69.112  1.00  0.00    -0.364 OA 
BRANCH   7  10
HETATM   10  C   UNL     1     -10.645   8.131  67.445  1.00  0.00    -0.255 C  
BRANCH  10  11
HETATM   11  N   UNL     1     -11.195   9.083  68.431  1.00  0.00    -0.344 N  
HETATM   12  O   UNL     1      -9.242   9.283  69.615  1.00  0.00    -0.156 OA 
HETATM   13  H   UNL     1     -12.166   9.384  68.351  1.00  0.00     0.000 HD 
HETATM   14  C   UNL     1     -10.419   9.569  69.454  1.00  0.00    -0.217 C  
BRANCH  14  15
HETATM   15  O   UNL     1     -11.129  10.388  70.282  1.00  0.00    -0.288 OA 
BRANCH  15  16
HETATM   16  C   UNL     1     -11.718  11.520  69.614  1.00  0.00    -0.351 C  
HETATM   17  C   UNL     1     -12.348  12.491  70.593  1.00  0.00    -0.369 C  
HETATM   18  O   UNL     1     -11.129  13.774  69.038  1.00  0.00    -0.250 OA 
HETATM   19  C   UNL     1     -12.328  13.791  69.818  1.00  0.00    -0.255 C  
HETATM   20  C   UNL     1     -10.700  12.409  68.904  1.00  0.00    -0.164 C  
ENDBRANCH  15  16
ENDBRANCH  14  15
ENDBRANCH  10  11
BRANCH  10  21
HETATM   21  C   UNL     1      -9.408   8.707  66.704  1.00  0.00    -0.246 C  
BRANCH  21  22
HETATM   22  C   UNL     1      -9.578   9.567  65.468  1.00  0.00    -0.349 A  
HETATM   23  C   UNL     1     -10.276  11.669  64.457  1.00  0.00    -0.337 A  
HETATM   24  C   UNL     1     -10.271  10.783  65.540  1.00  0.00    -0.330 A  
HETATM   25  C   UNL     1      -9.601  11.348  63.281  1.00  0.00    -0.373 A  
HETATM   26  C   UNL     1      -8.916   9.250  64.270  1.00  0.00    -0.142 A  
HETATM   27  C   UNL     1      -8.928  10.134  63.185  1.00  0.00    -0.260 A  
ENDBRANCH  21  22
ENDBRANCH  10  21
ENDBRANCH   7  10
ENDBRANCH   6   7
ENDBRANCH   5   6
BRANCH   5  28
HETATM   28  S   UNL     1      -8.432   3.755  67.675  1.00  0.00    -0.098 S  
HETATM   29  O   UNL     1      -7.391   2.856  68.114  1.00  0.00    -0.049 OA 
HETATM   30  O   UNL     1      -9.702   3.241  67.193  1.00  0.00    -0.127 OA 
BRANCH  28  31
HETATM   31  C   UNL     1      -7.730   4.752  66.390  1.00  0.00    -0.091 A  
HETATM   32  N   UNL     1      -6.037   7.064  63.313  1.00  0.00    -0.043 NA 
HETATM   33  H2  UNL     1      -5.176   6.583  63.055  1.00  0.00     0.000 HD 
HETATM   34  H1  UNL     1      -6.564   7.259  62.462  1.00  0.00     0.000 HD 
HETATM   35  C   UNL     1      -6.458   5.303  66.555  1.00  0.00    -0.044 A  
HETATM   36  C   UNL     1      -5.912   6.095  65.535  1.00  0.00    -0.025 A  
HETATM   37  C   UNL     1      -8.425   4.940  65.188  1.00  0.00    -0.139 A  
HETATM   38  C   UNL     1      -7.866   5.726  64.177  1.00  0.00    -0.118 A  
HETATM   39  C   UNL     1      -6.635   6.363  64.367  1.00  0.00    -0.034 A  
ENDBRANCH  28  31
ENDBRANCH   5  28
ENDBRANCH   4   5
TORSDOF 11
ENDMDL
MODEL      323
REMARK 921   NORMALIZED FREE ENERGY PREDICTED BY IDOCK:   -3.87 KCAL/MOL
REMARK 922        TOTAL FREE ENERGY PREDICTED BY IDOCK:   -8.13 KCAL/MOL
REMARK 923 INTER-LIGAND FREE ENERGY PREDICTED BY IDOCK:   -8.81 KCAL/MOL
REMARK 924 INTRA-LIGAND FREE ENERGY PREDICTED BY IDOCK:    0.68 KCAL/MOL
REMARK 927      BINDING AFFINITY PREDICTED BY RF-SCORE:    0.00 PKD
ROOT
HETATM    1  C   UNL     1     -10.117   8.452  71.648  1.00  0.00    -0.308 C  
HETATM    2  C   UNL     1      -8.922   9.009  70.874  1.00  0.00    -0.300 C  
HETATM    3  C   UNL     1      -7.659   8.801  71.733  1.00  0.00    -0.082 C  
HETATM    4  C   UNL     1      -8.717   8.345  69.498  1.00  0.00    -0.137 C  
ENDROOT
BRANCH   4   5
HETATM    5  N   UNL     1      -9.867   8.432  68.503  1.00  0.00    -0.168 N  
BRANCH   5   6
HETATM    6  C   UNL     1      -9.718   9.639  67.544  1.00  0.00    -0.158 C  
BRANCH   6   7
HETATM    7  C   UNL     1      -9.063  10.934  68.141  1.00  0.00    -0.155 C  
HETATM    8  H   UNL     1      -7.667  12.185  67.589  1.00  0.00     0.000 HD 
HETATM    9  O   UNL     1      -8.064  11.401  67.227  1.00  0.00    -0.135 OA 
BRANCH   7  10
HETATM   10  C   UNL     1     -10.106  12.056  68.498  1.00  0.00    -0.196 C  
BRANCH  10  11
HETATM   11  N   UNL     1     -10.333  13.010  67.393  1.00  0.00    -0.233 N  
HETATM   12  O   UNL     1     -12.200  11.944  66.598  1.00  0.00    -0.493 OA 
HETATM   13  H   UNL     1      -9.701  13.802  67.276  1.00  0.00     0.000 HD 
HETATM   14  C   UNL     1     -11.381  12.847  66.521  1.00  0.00    -0.318 C  
BRANCH  14  15
HETATM   15  O   UNL     1     -11.380  13.800  65.546  1.00  0.00    -0.303 OA 
BRANCH  15  16
HETATM   16  C   UNL     1     -10.893  15.082  65.987  1.00  0.00    -0.334 C  
HETATM   17  C   UNL     1     -11.336  15.401  67.400  1.00  0.00    -0.243 C  
HETATM   18  O   UNL     1      -9.055  15.971  67.248  1.00  0.00    -0.199 OA 
HETATM   19  C   UNL     1     -10.282  16.386  67.856  1.00  0.00    -0.268 C  
HETATM   20  C   UNL     1      -9.372  15.149  66.113  1.00  0.00    -0.311 C  
ENDBRANCH  15  16
ENDBRANCH  14  15
ENDBRANCH  10  11
BRANCH  10  21
HETATM   21  C   UNL     1     -11.436  11.588  69.148  1.00  0.00    -0.362 C  
BRANCH  21  22
HETATM   22  C   UNL     1     -12.111  12.425  70.216  1.00  0.00    -0.377 A  
HETATM   23  C   UNL     1     -13.437  12.549  72.254  1.00  0.00    -0.490 A  
HETATM   24  C   UNL     1     -12.958  11.824  71.158  1.00  0.00    -0.282 A  
HETATM   25  C   UNL     1     -13.092  13.889  72.417  1.00  0.00    -0.532 A  
HETATM   26  C   UNL     1     -11.785  13.781  70.386  1.00  0.00    -0.242 A  
HETATM   27  C   UNL     1     -12.272  14.507  71.478  1.00  0.00    -0.415 A  
ENDBRANCH  21  22
ENDBRANCH  10  21
ENDBRANCH   7  10
ENDBRANCH   6   7
ENDBRANCH   5   6
BRANCH   5  28
HETATM   28  S   UNL     1     -10.014   6.929  67.597  1.00  0.00    -0.156 S  
HETATM   29  O   UNL     1     -11.381   6.766  67.162  1.00  0.00    -0.330 OA 
HETATM   30  O   UNL     1      -8.926   6.942  66.636  1.00  0.00    -0.133 OA 
BRANCH  28  31
HETATM   31  C   UNL     1      -9.696   5.628  68.758  1.00  0.00    -0.137 A  
HETATM   32  N   UNL     1      -8.986   2.504  71.480  1.00  0.00    -0.079 NA 
HETATM   33  H2  UNL     1      -9.883   2.032  71.591  1.00  0.00     0.000 HD 
HETATM   34  H1  UNL     1      -8.274   1.801  71.287  1.00  0.00     0.000 HD 
HETATM   35  C   UNL     1     -10.402   5.582  69.961  1.00  0.00    -0.358 A  
HETATM   36  C   UNL     1     -10.140   4.552  70.875  1.00  0.00    -0.228 A  
HETATM   37  C   UNL     1      -8.779   4.616  68.443  1.00  0.00    -0.111 A  
HETATM   38  C   UNL     1      -8.533   3.591  69.361  1.00  0.00    -0.098 A  
HETATM   39  C   UNL     1      -9.162   3.586  70.610  1.00  0.00    -0.137 A  
ENDBRANCH  28  31
ENDBRANCH   5  28
ENDBRANCH   4   5
TORSDOF 11
ENDMDL
MODEL      324
REMARK 921   NORMALIZED FREE ENERGY PREDICTED BY IDOCK:   -3.85 KCAL/MOL
REMARK 922        TOTAL FREE ENERGY PREDICTED BY IDOCK:   -8.10 KCAL/MOL
REMARK 923 INTER-LIGAND FREE ENERGY PREDICTED BY IDOCK:   -7.30 KCAL/MOL
REMARK 924 INTRA-LIGAND FREE ENERGY PREDICTED BY IDOCK:   -0.80 KCAL/MOL
REMARK 927      BINDING AFFINITY PREDICTED BY RF-SCORE:    0.00 PKD
ROOT
HETATM    1  C   UNL     1      -9.984  12.568  63.961  1.00  0.00    -0.225 C  
HETATM    2  C   UNL     1      -9.871  11.044  64.031  1.00  0.00    -0.365 C  
HETATM    3  C   UNL     1      -9.613  10.520  62.604  1.00  0.00    -0.285 C  
HETATM    4  C   UNL     1      -8.745  10.555  64.964  1.00  0.00    -0.182 C  
ENDROOT
BRANCH   4   5
HETATM    5  N   UNL     1      -8.816  10.982  66.425  1.00  0.00    -0.171 N  
BRANCH   5   6
HETATM    6  C   UNL     1     -10.013  10.337  67.164  1.00  0.00    -0.197 C  
BRANCH   6   7
HETATM    7  C   UNL     1     -10.995  11.314  67.900  1.00  0.00    -0.248 C  
HETATM    8  H   UNL     1     -12.739  12.108  67.514  1.00  0.00     0.000 HD 
HETATM    9  O   UNL     1     -12.145  11.516  67.069  1.00  0.00    -0.443 OA 
BRANCH   7  10
HETATM   10  C   UNL     1     -11.390  10.835  69.345  1.00  0.00    -0.285 C  
BRANCH  10  11
HETATM   11  N   UNL     1     -10.221  10.518  70.191  1.00  0.00    -0.409 N  
HETATM   12  O   UNL     1     -10.871   8.361  70.617  1.00  0.00    -0.222 OA 
HETATM   13  H   UNL     1      -9.508  11.230  70.347  1.00  0.00     0.000 HD 
HETATM   14  C   UNL     1     -10.080   9.280  70.768  1.00  0.00    -0.291 C  
BRANCH  14  15
HETATM   15  O   UNL     1      -8.965   9.212  71.551  1.00  0.00    -0.319 OA 
BRANCH  15  16
HETATM   16  C   UNL     1      -8.489   7.870  71.769  1.00  0.00    -0.119 C  
HETATM   17  C   UNL     1      -7.697   7.350  70.587  1.00  0.00    -0.091 C  
HETATM   18  O   UNL     1      -6.496   6.769  72.529  1.00  0.00    -0.057 OA 
HETATM   19  C   UNL     1      -6.825   6.289  71.221  1.00  0.00    -0.067 C  
HETATM   20  C   UNL     1      -7.470   7.758  72.901  1.00  0.00    -0.104 C  
ENDBRANCH  15  16
ENDBRANCH  14  15
ENDBRANCH  10  11
BRANCH  10  21
HETATM   21  C   UNL     1     -12.441  11.692  70.100  1.00  0.00    -0.209 C  
BRANCH  21  22
HETATM   22  C   UNL     1     -12.275  13.194  70.217  1.00  0.00    -0.376 A  
HETATM   23  C   UNL     1     -12.037  15.173  71.614  1.00  0.00    -0.424 A  
HETATM   24  C   UNL     1     -12.370  13.823  71.466  1.00  0.00    -0.286 A  
HETATM   25  C   UNL     1     -11.618  15.920  70.514  1.00  0.00    -0.402 A  
HETATM   26  C   UNL     1     -11.867  13.964  69.115  1.00  0.00    -0.401 A  
HETATM   27  C   UNL     1     -11.542  15.317  69.263  1.00  0.00    -0.350 A  
ENDBRANCH  21  22
ENDBRANCH  10  21
ENDBRANCH   7  10
ENDBRANCH   6   7
ENDBRANCH   5   6
BRANCH   5  28
HETATM   28  S   UNL     1      -7.302  10.615  67.247  1.00  0.00    -0.095 S  
HETATM   29  O   UNL     1      -6.213  11.253  66.545  1.00  0.00    -0.130 OA 
HETATM   30  O   UNL     1      -7.541  10.891  68.652  1.00  0.00    -0.098 OA 
BRANCH  28  31
HETATM   31  C   UNL     1      -7.062   8.869  67.070  1.00  0.00    -0.078 A  
HETATM   32  N   UNL     1      -6.457   4.736  66.594  1.00  0.00    -0.040 NA 
HETATM   33  H2  UNL     1      -6.432   4.579  65.587  1.00  0.00     0.000 HD 
HETATM   34  H1  UNL     1      -5.646   4.279  67.011  1.00  0.00     0.000 HD 
HETATM   35  C   UNL     1      -8.006   8.103  66.383  1.00  0.00    -0.104 A  
HETATM   36  C   UNL     1      -7.810   6.722  66.252  1.00  0.00    -0.104 A  
HETATM   37  C   UNL     1      -5.899   8.267  67.569  1.00  0.00    -0.043 A  
HETATM   38  C   UNL     1      -5.713   6.888  67.425  1.00  0.00    -0.017 A  
HETATM   39  C   UNL     1      -6.696   6.095  66.824  1.00  0.00    -0.061 A  
ENDBRANCH  28  31
ENDBRANCH   5  28
ENDBRANCH   4   5
TORSDOF 11
ENDMDL
MODEL      325
REMARK 921   NORMALIZED FREE ENERGY PREDICTED BY IDOCK:   -3.85 KCAL/MOL
REMARK 922        TOTAL FREE ENERGY PREDICTED BY IDOCK:   -8.09 KCAL/MOL
REMARK 923 INTER-LIGAND FREE ENERGY PREDICTED BY IDOCK:   -8.49 KCAL/MOL
REMARK 924 INTRA-LIGAND FREE ENERGY PREDICTED BY IDOCK:    0.40 KCAL/MOL
REMARK 927      BINDING AFFINITY PREDICTED BY RF-SCORE:    0.00 PKD
ROOT
HETATM    1  C   UNL     1      -9.714  14.720  65.707  1.00  0.00    -0.347 C  
HETATM    2  C   UNL     1      -8.803  15.167  66.851  1.00  0.00    -0.284 C  
HETATM    3  C   UNL     1      -9.035  16.674  67.085  1.00  0.00    -0.225 C  
HETATM    4  C   UNL     1      -9.049  14.404  68.167  1.00  0.00    -0.194 C  
ENDROOT
BRANCH   4   5
HETATM    5  N   UNL     1      -8.880  12.889  68.138  1.00  0.00    -0.191 N  
BRANCH   5   6
HETATM    6  C   UNL     1      -9.926  12.203  67.226  1.00  0.00    -0.203 C  
BRANCH   6   7
HETATM    7  C   UNL     1     -11.435  12.450  67.578  1.00  0.00    -0.346 C  
HETATM    8  H   UNL     1     -13.128  12.424  66.603  1.00  0.00     0.000 HD 
HETATM    9  O   UNL     1     -12.214  12.275  66.390  1.00  0.00    -0.613 OA 
BRANCH   7  10
HETATM   10  C   UNL     1     -11.956  11.555  68.762  1.00  0.00    -0.271 C  
BRANCH  10  11
HETATM   11  N   UNL     1     -11.709  10.114  68.552  1.00  0.00    -0.485 N  
HETATM   12  O   UNL     1      -9.827  10.049  69.859  1.00  0.00    -0.235 OA 
HETATM   13  H   UNL     1     -12.349   9.575  67.969  1.00  0.00     0.000 HD 
HETATM   14  C   UNL     1     -10.631   9.489  69.129  1.00  0.00    -0.222 C  
BRANCH  14  15
HETATM   15  O   UNL     1     -10.554   8.177  68.766  1.00  0.00    -0.200 OA 
BRANCH  15  16
HETATM   16  C   UNL     1     -10.363   7.974  67.353  1.00  0.00    -0.284 C  
HETATM   17  C   UNL     1      -9.752   9.189  66.684  1.00  0.00    -0.287 C  
HETATM   18  O   UNL     1      -8.614   7.300  65.853  1.00  0.00    -0.145 OA 
HETATM   19  C   UNL     1      -9.096   8.589  65.460  1.00  0.00    -0.091 C  
HETATM   20  C   UNL     1      -9.341   6.889  67.023  1.00  0.00    -0.145 C  
ENDBRANCH  15  16
ENDBRANCH  14  15
ENDBRANCH  10  11
BRANCH  10  21
HETATM   21  C   UNL     1     -11.577  12.009  70.197  1.00  0.00    -0.228 C  
BRANCH  21  22
HETATM   22  C   UNL     1     -12.350  13.115  70.888  1.00  0.00    -0.393 A  
HETATM   23  C   UNL     1     -13.135  15.420  70.919  1.00  0.00    -0.528 A  
HETATM   24  C   UNL     1     -12.288  14.431  70.408  1.00  0.00    -0.406 A  
HETATM   25  C   UNL     1     -14.046  15.113  71.927  1.00  0.00    -0.649 A  
HETATM   26  C   UNL     1     -13.263  12.826  71.916  1.00  0.00    -0.511 A  
HETATM   27  C   UNL     1     -14.104  13.818  72.431  1.00  0.00    -0.593 A  
ENDBRANCH  21  22
ENDBRANCH  10  21
ENDBRANCH   7  10
ENDBRANCH   6   7
ENDBRANCH   5   6
BRANCH   5  28
HETATM   28  S   UNL     1      -7.244  12.463  67.644  1.00  0.00    -0.144 S  
HETATM   29  O   UNL     1      -7.273  11.943  66.298  1.00  0.00     0.190 OA 
HETATM   30  O   UNL     1      -6.421  13.612  67.977  1.00  0.00    -0.105 OA 
BRANCH  28  31
HETATM   31  C   UNL     1      -6.752  11.123  68.693  1.00  0.00    -0.062 A  
HETATM   32  N   UNL     1      -5.651   7.927  71.193  1.00  0.00    -0.034 NA 
HETATM   33  H2  UNL     1      -6.363   7.895  71.922  1.00  0.00     0.000 HD 
HETATM   34  H1  UNL     1      -5.537   6.988  70.813  1.00  0.00     0.000 HD 
HETATM   35  C   UNL     1      -6.487  11.357  70.043  1.00  0.00    -0.094 A  
HETATM   36  C   UNL     1      -6.094  10.291  70.864  1.00  0.00    -0.027 A  
HETATM   37  C   UNL     1      -6.686   9.820  68.181  1.00  0.00    -0.061 A  
HETATM   38  C   UNL     1      -6.300   8.764  69.013  1.00  0.00    -0.044 A  
HETATM   39  C   UNL     1      -5.938   9.001  70.343  1.00  0.00    -0.036 A  
ENDBRANCH  28  31
ENDBRANCH   5  28
ENDBRANCH   4   5
TORSDOF 11
ENDMDL
MODEL      326
REMARK 921   NORMALIZED FREE ENERGY PREDICTED BY IDOCK:   -3.80 KCAL/MOL
REMARK 922        TOTAL FREE ENERGY PREDICTED BY IDOCK:   -8.02 KCAL/MOL
REMARK 923 INTER-LIGAND FREE ENERGY PREDICTED BY IDOCK:   -5.73 KCAL/MOL
REMARK 924 INTRA-LIGAND FREE ENERGY PREDICTED BY IDOCK:   -2.30 KCAL/MOL
REMARK 927      BINDING AFFINITY PREDICTED BY RF-SCORE:    0.00 PKD
ROOT
HETATM    1  C   UNL     1     -10.998  10.246  70.187  1.00  0.00    -0.377 C  
HETATM    2  C   UNL     1     -11.842   9.729  71.353  1.00  0.00    -0.488 C  
HETATM    3  C   UNL     1     -13.135  10.567  71.414  1.00  0.00    -0.509 C  
HETATM    4  C   UNL     1     -12.208   8.237  71.232  1.00  0.00    -0.270 C  
ENDROOT
BRANCH   4   5
HETATM    5  N   UNL     1     -11.058   7.241  71.147  1.00  0.00    -0.248 N  
BRANCH   5   6
HETATM    6  C   UNL     1     -10.224   7.422  69.855  1.00  0.00    -0.211 C  
BRANCH   6   7
HETATM    7  C   UNL     1     -10.852   6.866  68.529  1.00  0.00    -0.180 C  
HETATM    8  H   UNL     1     -11.000   7.478  66.679  1.00  0.00     0.000 HD 
HETATM    9  O   UNL     1     -10.619   7.815  67.482  1.00  0.00    -0.260 OA 
BRANCH   7  10
HETATM   10  C   UNL     1     -10.338   5.429  68.147  1.00  0.00    -0.145 C  
BRANCH  10  11
HETATM   11  N   UNL     1      -9.438   5.427  66.976  1.00  0.00    -0.126 N  
HETATM   12  O   UNL     1     -10.975   4.493  65.555  1.00  0.00    -0.247 OA 
HETATM   13  H   UNL     1      -8.492   5.797  67.069  1.00  0.00     0.000 HD 
HETATM   14  C   UNL     1      -9.855   4.934  65.764  1.00  0.00    -0.168 C  
BRANCH  14  15
HETATM   15  O   UNL     1      -8.860   4.973  64.833  1.00  0.00    -0.153 OA 
BRANCH  15  16
HETATM   16  C   UNL     1      -8.832   3.825  63.963  1.00  0.00    -0.106 C  
HETATM   17  C   UNL     1      -7.858   4.006  62.817  1.00  0.00    -0.066 C  
HETATM   18  O   UNL     1      -7.534   1.829  63.660  1.00  0.00    -0.050 OA 
HETATM   19  C   UNL     1      -7.532   2.577  62.440  1.00  0.00    -0.041 C  
HETATM   20  C   UNL     1      -8.296   2.562  64.634  1.00  0.00    -0.088 C  
ENDBRANCH  15  16
ENDBRANCH  14  15
ENDBRANCH  10  11
BRANCH  10  21
HETATM   21  C   UNL     1      -9.788   4.557  69.308  1.00  0.00    -0.241 C  
BRANCH  21  22
HETATM   22  C   UNL     1      -8.333   4.135  69.336  1.00  0.00    -0.080 A  
HETATM   23  C   UNL     1      -5.994   4.699  69.709  1.00  0.00    -0.018 A  
HETATM   24  C   UNL     1      -7.320   5.091  69.496  1.00  0.00    -0.057 A  
HETATM   25  C   UNL     1      -5.657   3.348  69.749  1.00  0.00    -0.017 A  
HETATM   26  C   UNL     1      -7.974   2.776  69.363  1.00  0.00    -0.056 A  
HETATM   27  C   UNL     1      -6.646   2.387  69.568  1.00  0.00    -0.033 A  
ENDBRANCH  21  22
ENDBRANCH  10  21
ENDBRANCH   7  10
ENDBRANCH   6   7
ENDBRANCH   5   6
BRANCH   5  28
HETATM   28  S   UNL     1     -10.033   7.360  72.574  1.00  0.00    -0.198 S  
HETATM   29  O   UNL     1      -8.962   8.294  72.315  1.00  0.00    -0.172 OA 
HETATM   30  O   UNL     1     -10.938   7.561  73.691  1.00  0.00    -0.322 OA 
BRANCH  28  31
HETATM   31  C   UNL     1      -9.279   5.769  72.767  1.00  0.00    -0.136 A  
HETATM   32  N   UNL     1      -7.475   1.992  73.160  1.00  0.00    -0.036 NA 
HETATM   33  H2  UNL     1      -7.659   1.510  72.280  1.00  0.00     0.000 HD 
HETATM   34  H1  UNL     1      -6.480   1.912  73.368  1.00  0.00     0.000 HD 
HETATM   35  C   UNL     1     -10.056   4.614  72.667  1.00  0.00    -0.224 A  
HETATM   36  C   UNL     1      -9.452   3.359  72.825  1.00  0.00    -0.153 A  
HETATM   37  C   UNL     1      -7.895   5.668  72.963  1.00  0.00    -0.101 A  
HETATM   38  C   UNL     1      -7.304   4.409  73.113  1.00  0.00    -0.076 A  
HETATM   39  C   UNL     1      -8.086   3.250  73.111  1.00  0.00    -0.073 A  
ENDBRANCH  28  31
ENDBRANCH   5  28
ENDBRANCH   4   5
TORSDOF 11
ENDMDL
MODEL      327
REMARK 921   NORMALIZED FREE ENERGY PREDICTED BY IDOCK:   -3.80 KCAL/MOL
REMARK 922        TOTAL FREE ENERGY PREDICTED BY IDOCK:   -8.02 KCAL/MOL
REMARK 923 INTER-LIGAND FREE ENERGY PREDICTED BY IDOCK:   -7.97 KCAL/MOL
REMARK 924 INTRA-LIGAND FREE ENERGY PREDICTED BY IDOCK:   -0.05 KCAL/MOL
REMARK 927      BINDING AFFINITY PREDICTED BY RF-SCORE:    0.00 PKD
ROOT
HETATM    1  C   UNL     1      -6.171   6.443  68.756  1.00  0.00    -0.030 C  
HETATM    2  C   UNL     1      -6.761   5.801  70.013  1.00  0.00    -0.051 C  
HETATM    3  C   UNL     1      -5.639   5.699  71.066  1.00  0.00    -0.013 C  
HETATM    4  C   UNL     1      -7.946   6.588  70.606  1.00  0.00    -0.111 C  
ENDROOT
BRANCH   4   5
HETATM    5  N   UNL     1      -9.157   6.808  69.707  1.00  0.00    -0.144 N  
BRANCH   5   6
HETATM    6  C   UNL     1      -8.756   7.321  68.303  1.00  0.00    -0.125 C  
BRANCH   6   7
HETATM    7  C   UNL     1      -9.548   8.559  67.753  1.00  0.00    -0.156 C  
HETATM    8  H   UNL     1     -11.430   9.046  67.551  1.00  0.00     0.000 HD 
HETATM    9  O   UNL     1     -10.950   8.297  67.884  1.00  0.00    -0.029 OA 
BRANCH   7  10
HETATM   10  C   UNL     1      -9.137   9.917  68.433  1.00  0.00    -0.123 C  
BRANCH  10  11
HETATM   11  N   UNL     1      -9.829  11.087  67.855  1.00  0.00    -0.168 N  
HETATM   12  O   UNL     1      -8.304  11.402  66.173  1.00  0.00    -0.155 OA 
HETATM   13  H   UNL     1     -10.697  11.416  68.278  1.00  0.00     0.000 HD 
HETATM   14  C   UNL     1      -9.322  11.739  66.758  1.00  0.00    -0.194 C  
BRANCH  14  15
HETATM   15  O   UNL     1     -10.080  12.821  66.419  1.00  0.00    -0.248 OA 
BRANCH  15  16
HETATM   16  C   UNL     1     -10.430  12.871  65.022  1.00  0.00    -0.318 C  
HETATM   17  C   UNL     1     -11.313  11.708  64.618  1.00  0.00    -0.284 C  
HETATM   18  O   UNL     1     -12.239  13.646  63.648  1.00  0.00    -0.614 OA 
HETATM   19  C   UNL     1     -12.028  12.252  63.400  1.00  0.00    -0.494 C  
HETATM   20  C   UNL     1     -11.302  14.069  64.652  1.00  0.00    -0.375 C  
ENDBRANCH  15  16
ENDBRANCH  14  15
ENDBRANCH  10  11
BRANCH  10  21
HETATM   21  C   UNL     1      -9.135   9.946  69.984  1.00  0.00    -0.217 C  
BRANCH  21  22
HETATM   22  C   UNL     1     -10.437   9.901  70.760  1.00  0.00    -0.253 A  
HETATM   23  C   UNL     1     -12.775  10.545  70.970  1.00  0.00    -0.504 A  
HETATM   24  C   UNL     1     -11.517  10.711  70.382  1.00  0.00    -0.422 A  
HETATM   25  C   UNL     1     -12.970   9.580  71.956  1.00  0.00    -0.514 A  
HETATM   26  C   UNL     1     -10.645   8.943  71.767  1.00  0.00    -0.432 A  
HETATM   27  C   UNL     1     -11.903   8.784  72.359  1.00  0.00    -0.356 A  
ENDBRANCH  21  22
ENDBRANCH  10  21
ENDBRANCH   7  10
ENDBRANCH   6   7
ENDBRANCH   5   6
BRANCH   5  28
HETATM   28  S   UNL     1     -10.109   5.331  69.585  1.00  0.00    -0.274 S  
HETATM   29  O   UNL     1      -9.628   4.374  70.554  1.00  0.00    -0.164 OA 
HETATM   30  O   UNL     1     -11.497   5.757  69.589  1.00  0.00    -0.153 OA 
BRANCH  28  31
HETATM   31  C   UNL     1      -9.755   4.654  67.987  1.00  0.00    -0.140 A  
HETATM   32  N   UNL     1      -8.871   3.097  64.183  1.00  0.00    -0.096 NA 
HETATM   33  H2  UNL     1      -8.697   3.909  63.592  1.00  0.00     0.000 HD 
HETATM   34  H1  UNL     1      -8.102   2.438  64.059  1.00  0.00     0.000 HD 
HETATM   35  C   UNL     1     -10.551   4.997  66.894  1.00  0.00    -0.183 A  
HETATM   36  C   UNL     1     -10.266   4.453  65.634  1.00  0.00    -0.259 A  
HETATM   37  C   UNL     1      -8.642   3.820  67.810  1.00  0.00    -0.112 A  
HETATM   38  C   UNL     1      -8.365   3.289  66.546  1.00  0.00    -0.103 A  
HETATM   39  C   UNL     1      -9.211   3.549  65.463  1.00  0.00    -0.156 A  
ENDBRANCH  28  31
ENDBRANCH   5  28
ENDBRANCH   4   5
TORSDOF 11
ENDMDL
MODEL      328
REMARK 921   NORMALIZED FREE ENERGY PREDICTED BY IDOCK:   -3.80 KCAL/MOL
REMARK 922        TOTAL FREE ENERGY PREDICTED BY IDOCK:   -8.01 KCAL/MOL
REMARK 923 INTER-LIGAND FREE ENERGY PREDICTED BY IDOCK:   -8.05 KCAL/MOL
REMARK 924 INTRA-LIGAND FREE ENERGY PREDICTED BY IDOCK:    0.04 KCAL/MOL
REMARK 927      BINDING AFFINITY PREDICTED BY RF-SCORE:    0.00 PKD
ROOT
HETATM    1  C   UNL     1      -5.955  10.652  66.327  1.00  0.00    -0.106 C  
HETATM    2  C   UNL     1      -6.517  10.376  67.722  1.00  0.00    -0.061 C  
HETATM    3  C   UNL     1      -5.362   9.869  68.609  1.00  0.00    -0.036 C  
HETATM    4  C   UNL     1      -7.160  11.612  68.381  1.00  0.00    -0.083 C  
ENDROOT
BRANCH   4   5
HETATM    5  N   UNL     1      -8.321  12.270  67.645  1.00  0.00    -0.155 N  
BRANCH   5   6
HETATM    6  C   UNL     1      -9.690  11.898  68.266  1.00  0.00    -0.200 C  
BRANCH   6   7
HETATM    7  C   UNL     1     -10.500  10.761  67.551  1.00  0.00    -0.220 C  
HETATM    8  H   UNL     1     -10.318   9.728  65.902  1.00  0.00     0.000 HD 
HETATM    9  O   UNL     1      -9.827  10.417  66.335  1.00  0.00    -0.196 OA 
BRANCH   7  10
HETATM   10  C   UNL     1     -10.749   9.502  68.463  1.00  0.00    -0.182 C  
BRANCH  10  11
HETATM   11  N   UNL     1     -10.995   8.267  67.692  1.00  0.00    -0.489 N  
HETATM   12  O   UNL     1      -8.802   7.600  67.692  1.00  0.00    -0.125 OA 
HETATM   13  H   UNL     1     -11.946   8.040  67.398  1.00  0.00     0.000 HD 
HETATM   14  C   UNL     1      -9.965   7.420  67.364  1.00  0.00    -0.183 C  
BRANCH  14  15
HETATM   15  O   UNL     1     -10.396   6.371  66.606  1.00  0.00    -0.195 OA 
BRANCH  15  16
HETATM   16  C   UNL     1     -10.000   5.084  67.118  1.00  0.00    -0.195 C  
HETATM   17  C   UNL     1      -9.493   4.170  66.021  1.00  0.00    -0.182 C  
HETATM   18  O   UNL     1      -7.995   3.971  67.829  1.00  0.00    -0.088 OA 
HETATM   19  C   UNL     1      -8.606   3.209  66.782  1.00  0.00    -0.118 C  
HETATM   20  C   UNL     1      -8.796   5.143  68.056  1.00  0.00    -0.102 C  
ENDBRANCH  15  16
ENDBRANCH  14  15
ENDBRANCH  10  11
BRANCH  10  21
HETATM   21  C   UNL     1      -9.745   9.276  69.624  1.00  0.00    -0.192 C  
BRANCH  21  22
HETATM   22  C   UNL     1     -10.176   8.566  70.893  1.00  0.00    -0.246 A  
HETATM   23  C   UNL     1      -9.599   7.242  72.852  1.00  0.00    -0.206 A  
HETATM   24  C   UNL     1      -9.274   7.751  71.591  1.00  0.00    -0.168 A  
HETATM   25  C   UNL     1     -10.835   7.527  73.430  1.00  0.00    -0.339 A  
HETATM   26  C   UNL     1     -11.424   8.832  71.481  1.00  0.00    -0.375 A  
HETATM   27  C   UNL     1     -11.751   8.315  72.739  1.00  0.00    -0.305 A  
ENDBRANCH  21  22
ENDBRANCH  10  21
ENDBRANCH   7  10
ENDBRANCH   6   7
ENDBRANCH   5   6
BRANCH   5  28
HETATM   28  S   UNL     1      -8.109  14.018  67.598  1.00  0.00    -0.188 S  
HETATM   29  O   UNL     1      -8.498  14.579  68.871  1.00  0.00    -0.163 OA 
HETATM   30  O   UNL     1      -6.776  14.238  67.068  1.00  0.00    -0.043 OA 
BRANCH  28  31
HETATM   31  C   UNL     1      -9.273  14.618  66.406  1.00  0.00    -0.249 A  
HETATM   32  N   UNL     1     -12.085  16.040  63.621  1.00  0.00    -1.087 NA 
HETATM   33  H2  UNL     1     -12.961  15.578  63.861  1.00  0.00     0.000 HD 
HETATM   34  H1  UNL     1     -12.263  17.040  63.529  1.00  0.00     0.000 HD 
HETATM   35  C   UNL     1      -9.930  13.721  65.561  1.00  0.00    -0.260 A  
HETATM   36  C   UNL     1     -10.846  14.206  64.618  1.00  0.00    -0.401 A  
HETATM   37  C   UNL     1      -9.577  15.985  66.349  1.00  0.00    -0.309 A  
HETATM   38  C   UNL     1     -10.498  16.454  65.407  1.00  0.00    -0.333 A  
HETATM   39  C   UNL     1     -11.091  15.578  64.491  1.00  0.00    -0.274 A  
ENDBRANCH  28  31
ENDBRANCH   5  28
ENDBRANCH   4   5
TORSDOF 11
ENDMDL
MODEL      329
REMARK 921   NORMALIZED FREE ENERGY PREDICTED BY IDOCK:   -3.79 KCAL/MOL
REMARK 922        TOTAL FREE ENERGY PREDICTED BY IDOCK:   -8.00 KCAL/MOL
REMARK 923 INTER-LIGAND FREE ENERGY PREDICTED BY IDOCK:   -8.26 KCAL/MOL
REMARK 924 INTRA-LIGAND FREE ENERGY PREDICTED BY IDOCK:    0.25 KCAL/MOL
REMARK 927      BINDING AFFINITY PREDICTED BY RF-SCORE:    0.00 PKD
ROOT
HETATM    1  C   UNL     1      -5.800  11.974  67.068  1.00  0.00    -0.131 C  
HETATM    2  C   UNL     1      -6.774  11.759  68.228  1.00  0.00    -0.065 C  
HETATM    3  C   UNL     1      -6.141  10.743  69.200  1.00  0.00    -0.043 C  
HETATM    4  C   UNL     1      -7.112  13.053  68.994  1.00  0.00    -0.026 C  
ENDROOT
BRANCH   4   5
HETATM    5  N   UNL     1      -7.740  14.191  68.198  1.00  0.00    -0.127 N  
BRANCH   5   6
HETATM    6  C   UNL     1      -9.188  14.493  68.657  1.00  0.00    -0.192 C  
BRANCH   6   7
HETATM    7  C   UNL     1     -10.308  14.385  67.564  1.00  0.00    -0.251 C  
HETATM    8  H   UNL     1     -10.420  14.661  65.633  1.00  0.00     0.000 HD 
HETATM    9  O   UNL     1      -9.741  14.727  66.294  1.00  0.00    -0.271 OA 
BRANCH   7  10
HETATM   10  C   UNL     1     -11.019  12.981  67.534  1.00  0.00    -0.259 C  
BRANCH  10  11
HETATM   11  N   UNL     1     -11.287  12.496  66.164  1.00  0.00    -0.324 N  
HETATM   12  O   UNL     1      -9.173  11.670  65.837  1.00  0.00    -0.224 OA 
HETATM   13  H   UNL     1     -12.215  12.620  65.761  1.00  0.00     0.000 HD 
HETATM   14  C   UNL     1     -10.305  11.881  65.427  1.00  0.00    -0.267 C  
BRANCH  14  15
HETATM   15  O   UNL     1     -10.740  11.561  64.175  1.00  0.00    -0.317 OA 
BRANCH  15  16
HETATM   16  C   UNL     1     -10.028  10.460  63.576  1.00  0.00    -0.102 C  
HETATM   17  C   UNL     1      -8.920  10.935  62.658  1.00  0.00    -0.348 C  
HETATM   18  O   UNL     1      -8.030   9.188  63.964  1.00  0.00    -0.126 OA 
HETATM   19  C   UNL     1      -7.976   9.752  62.650  1.00  0.00    -0.126 C  
HETATM   20  C   UNL     1      -9.256   9.611  64.584  1.00  0.00    -0.234 C  
ENDBRANCH  15  16
ENDBRANCH  14  15
ENDBRANCH  10  11
BRANCH  10  21
HETATM   21  C   UNL     1     -10.412  11.875  68.437  1.00  0.00    -0.231 C  
BRANCH  21  22
HETATM   22  C   UNL     1     -11.160  11.377  69.658  1.00  0.00    -0.241 A  
HETATM   23  C   UNL     1     -12.939  11.677  71.293  1.00  0.00    -0.368 A  
HETATM   24  C   UNL     1     -12.115  12.189  70.286  1.00  0.00    -0.385 A  
HETATM   25  C   UNL     1     -12.812  10.350  71.700  1.00  0.00    -0.579 A  
HETATM   26  C   UNL     1     -11.034  10.045  70.090  1.00  0.00    -0.368 A  
HETATM   27  C   UNL     1     -11.854   9.537  71.103  1.00  0.00    -0.436 A  
ENDBRANCH  21  22
ENDBRANCH  10  21
ENDBRANCH   7  10
ENDBRANCH   6   7
ENDBRANCH   5   6
BRANCH   5  28
HETATM   28  S   UNL     1      -6.739  15.637  68.296  1.00  0.00    -0.128 S  
HETATM   29  O   UNL     1      -6.224  15.770  69.639  1.00  0.00    -0.150 OA 
HETATM   30  O   UNL     1      -5.837  15.567  67.160  1.00  0.00    -0.320 OA 
BRANCH  28  31
HETATM   31  C   UNL     1      -7.832  17.006  68.037  1.00  0.00    -0.182 A  
HETATM   32  N   UNL     1     -10.480  20.212  67.413  1.00  0.00    -0.343 NA 
HETATM   33  H2  UNL     1     -11.169  19.869  66.745  1.00  0.00     0.000 HD 
HETATM   34  H1  UNL     1     -10.976  20.634  68.198  1.00  0.00     0.000 HD 
HETATM   35  C   UNL     1      -7.994  17.534  66.755  1.00  0.00    -0.273 A  
HETATM   36  C   UNL     1      -8.858  18.620  66.560  1.00  0.00    -0.310 A  
HETATM   37  C   UNL     1      -8.577  17.520  69.106  1.00  0.00     0.099 A  
HETATM   38  C   UNL     1      -9.441  18.600  68.896  1.00  0.00    -0.297 A  
HETATM   39  C   UNL     1      -9.540  19.200  67.637  1.00  0.00    -0.311 A  
ENDBRANCH  28  31
ENDBRANCH   5  28
ENDBRANCH   4   5
TORSDOF 11
ENDMDL
MODEL      330
REMARK 921   NORMALIZED FREE ENERGY PREDICTED BY IDOCK:   -3.79 KCAL/MOL
REMARK 922        TOTAL FREE ENERGY PREDICTED BY IDOCK:   -8.00 KCAL/MOL
REMARK 923 INTER-LIGAND FREE ENERGY PREDICTED BY IDOCK:   -7.34 KCAL/MOL
REMARK 924 INTRA-LIGAND FREE ENERGY PREDICTED BY IDOCK:   -0.65 KCAL/MOL
REMARK 927      BINDING AFFINITY PREDICTED BY RF-SCORE:    0.00 PKD
ROOT
HETATM    1  C   UNL     1     -12.060  11.866  63.942  1.00  0.00    -0.505 C  
HETATM    2  C   UNL     1     -10.750  11.091  64.087  1.00  0.00    -0.344 C  
HETATM    3  C   UNL     1      -9.798  11.549  62.964  1.00  0.00    -0.367 C  
HETATM    4  C   UNL     1     -10.063  11.295  65.452  1.00  0.00    -0.264 C  
ENDROOT
BRANCH   4   5
HETATM    5  N   UNL     1     -10.854  10.908  66.696  1.00  0.00    -0.233 N  
BRANCH   5   6
HETATM    6  C   UNL     1     -10.553   9.460  67.151  1.00  0.00    -0.224 C  
BRANCH   6   7
HETATM    7  C   UNL     1      -9.336   8.746  66.466  1.00  0.00    -0.203 C  
HETATM    8  H   UNL     1      -7.412   9.062  66.337  1.00  0.00     0.000 HD 
HETATM    9  O   UNL     1      -8.149   9.494  66.752  1.00  0.00    -0.108 OA 
BRANCH   7  10
HETATM   10  C   UNL     1      -9.190   7.232  66.869  1.00  0.00    -0.152 C  
BRANCH  10  11
HETATM   11  N   UNL     1      -9.393   6.307  65.735  1.00  0.00    -0.374 N  
HETATM   12  O   UNL     1     -10.777   4.890  66.889  1.00  0.00    -0.150 OA 
HETATM   13  H   UNL     1      -8.942   6.503  64.841  1.00  0.00     0.000 HD 
HETATM   14  C   UNL     1     -10.181   5.190  65.866  1.00  0.00    -0.120 C  
BRANCH  14  15
HETATM   15  O   UNL     1     -10.193   4.445  64.723  1.00  0.00    -0.155 OA 
BRANCH  15  16
HETATM   16  C   UNL     1      -9.472   3.202  64.833  1.00  0.00    -0.143 C  
HETATM   17  C   UNL     1      -8.989   2.707  63.485  1.00  0.00    -0.092 C  
HETATM   18  O   UNL     1      -7.199   2.450  64.995  1.00  0.00    -0.055 OA 
HETATM   19  C   UNL     1      -7.816   1.829  63.863  1.00  0.00    -0.061 C  
HETATM   20  C   UNL     1      -8.163   3.320  65.610  1.00  0.00    -0.098 C  
ENDBRANCH  15  16
ENDBRANCH  14  15
ENDBRANCH  10  11
BRANCH  10  21
HETATM   21  C   UNL     1      -7.944   6.854  67.714  1.00  0.00    -0.114 C  
BRANCH  21  22
HETATM   22  C   UNL     1      -8.081   6.519  69.186  1.00  0.00    -0.112 A  
HETATM   23  C   UNL     1      -9.272   5.372  70.973  1.00  0.00    -0.179 A  
HETATM   24  C   UNL     1      -9.217   5.848  69.659  1.00  0.00    -0.151 A  
HETATM   25  C   UNL     1      -8.200   5.572  71.840  1.00  0.00    -0.119 A  
HETATM   26  C   UNL     1      -7.014   6.727  70.077  1.00  0.00    -0.062 A  
HETATM   27  C   UNL     1      -7.074   6.257  71.394  1.00  0.00    -0.078 A  
ENDBRANCH  21  22
ENDBRANCH  10  21
ENDBRANCH   7  10
ENDBRANCH   6   7
ENDBRANCH   5   6
BRANCH   5  28
HETATM   28  S   UNL     1     -10.546  12.051  68.001  1.00  0.00    -0.217 S  
HETATM   29  O   UNL     1     -11.675  12.061  68.901  1.00  0.00    -0.285 OA 
HETATM   30  O   UNL     1      -9.213  11.743  68.486  1.00  0.00    -0.196 OA 
BRANCH  28  31
HETATM   31  C   UNL     1     -10.491  13.652  67.243  1.00  0.00    -0.260 A  
HETATM   32  N   UNL     1     -10.388  17.477  65.502  1.00  0.00    -0.636 NA 
HETATM   33  H2  UNL     1     -11.220  17.955  65.848  1.00  0.00     0.000 HD 
HETATM   34  H1  UNL     1      -9.584  18.088  65.642  1.00  0.00     0.000 HD 
HETATM   35  C   UNL     1     -11.539  14.069  66.422  1.00  0.00    -0.381 A  
HETATM   36  C   UNL     1     -11.485  15.335  65.824  1.00  0.00    -0.101 A  
HETATM   37  C   UNL     1      -9.424  14.519  67.515  1.00  0.00    -0.203 A  
HETATM   38  C   UNL     1      -9.386  15.782  66.916  1.00  0.00    -0.246 A  
HETATM   39  C   UNL     1     -10.381  16.175  66.016  1.00  0.00    -0.358 A  
ENDBRANCH  28  31
ENDBRANCH   5  28
ENDBRANCH   4   5
TORSDOF 11
ENDMDL
MODEL      331
REMARK 921   NORMALIZED FREE ENERGY PREDICTED BY IDOCK:   -3.77 KCAL/MOL
REMARK 922        TOTAL FREE ENERGY PREDICTED BY IDOCK:   -7.96 KCAL/MOL
REMARK 923 INTER-LIGAND FREE ENERGY PREDICTED BY IDOCK:   -7.10 KCAL/MOL
REMARK 924 INTRA-LIGAND FREE ENERGY PREDICTED BY IDOCK:   -0.86 KCAL/MOL
REMARK 927      BINDING AFFINITY PREDICTED BY RF-SCORE:    0.00 PKD
ROOT
HETATM    1  C   UNL     1     -10.232   6.966  73.089  1.00  0.00    -0.264 C  
HETATM    2  C   UNL     1     -10.323   5.529  72.575  1.00  0.00    -0.246 C  
HETATM    3  C   UNL     1     -11.491   4.835  73.304  1.00  0.00    -0.361 C  
HETATM    4  C   UNL     1     -10.545   5.434  71.053  1.00  0.00    -0.205 C  
ENDROOT
BRANCH   4   5
HETATM    5  N   UNL     1      -9.495   6.076  70.153  1.00  0.00    -0.156 N  
BRANCH   5   6
HETATM    6  C   UNL     1      -8.713   7.198  70.879  1.00  0.00    -0.146 C  
BRANCH   6   7
HETATM    7  C   UNL     1      -8.379   8.480  70.038  1.00  0.00    -0.123 C  
HETATM    8  H   UNL     1      -7.122   8.939  68.614  1.00  0.00     0.000 HD 
HETATM    9  O   UNL     1      -7.324   8.163  69.123  1.00  0.00    -0.078 OA 
BRANCH   7  10
HETATM   10  C   UNL     1      -9.631   9.091  69.305  1.00  0.00    -0.162 C  
BRANCH  10  11
HETATM   11  N   UNL     1      -9.731   8.681  67.890  1.00  0.00    -0.156 N  
HETATM   12  O   UNL     1      -9.415  10.792  67.055  1.00  0.00    -0.162 OA 
HETATM   13  H   UNL     1      -9.885   7.698  67.662  1.00  0.00     0.000 HD 
HETATM   14  C   UNL     1      -9.622   9.601  66.877  1.00  0.00    -0.167 C  
BRANCH  14  15
HETATM   15  O   UNL     1      -9.798   9.028  65.652  1.00  0.00    -0.227 OA 
BRANCH  15  16
HETATM   16  C   UNL     1      -8.904   9.531  64.640  1.00  0.00    -0.213 C  
HETATM   17  C   UNL     1      -8.631   8.502  63.562  1.00  0.00     0.044 C  
HETATM   18  O   UNL     1      -9.034  10.551  62.472  1.00  0.00    -0.216 OA 
HETATM   19  C   UNL     1      -8.240   9.364  62.382  1.00  0.00    -0.145 C  
HETATM   20  C   UNL     1      -9.486  10.687  63.829  1.00  0.00    -0.290 C  
ENDBRANCH  15  16
ENDBRANCH  14  15
ENDBRANCH  10  11
BRANCH  10  21
HETATM   21  C   UNL     1     -10.991   8.981  70.043  1.00  0.00    -0.230 C  
BRANCH  21  22
HETATM   22  C   UNL     1     -11.653  10.210  70.634  1.00  0.00    -0.429 A  
HETATM   23  C   UNL     1     -12.329  12.538  70.410  1.00  0.00    -0.311 A  
HETATM   24  C   UNL     1     -11.573  11.445  69.975  1.00  0.00    -0.382 A  
HETATM   25  C   UNL     1     -13.163  12.420  71.520  1.00  0.00    -0.285 A  
HETATM   26  C   UNL     1     -12.486  10.111  71.761  1.00  0.00    -0.455 A  
HETATM   27  C   UNL     1     -13.235  11.209  72.201  1.00  0.00    -0.297 A  
ENDBRANCH  21  22
ENDBRANCH  10  21
ENDBRANCH   7  10
ENDBRANCH   6   7
ENDBRANCH   5   6
BRANCH   5  28
HETATM   28  S   UNL     1      -8.394   4.854  69.522  1.00  0.00    -0.084 S  
HETATM   29  O   UNL     1      -7.032   5.278  69.749  1.00  0.00    -0.054 OA 
HETATM   30  O   UNL     1      -8.874   3.587  70.044  1.00  0.00    -0.073 OA 
BRANCH  28  31
HETATM   31  C   UNL     1      -8.634   4.842  67.767  1.00  0.00    -0.103 A  
HETATM   32  N   UNL     1      -9.229   4.876  63.605  1.00  0.00    -0.349 NA 
HETATM   33  H2  UNL     1     -10.081   5.416  63.458  1.00  0.00     0.000 HD 
HETATM   34  H1  UNL     1      -8.507   5.238  62.982  1.00  0.00     0.000 HD 
HETATM   35  C   UNL     1      -9.804   4.306  67.228  1.00  0.00    -0.193 A  
HETATM   36  C   UNL     1      -9.983   4.296  65.838  1.00  0.00    -0.232 A  
HETATM   37  C   UNL     1      -7.676   5.423  66.925  1.00  0.00    -0.100 A  
HETATM   38  C   UNL     1      -7.870   5.413  65.540  1.00  0.00    -0.098 A  
HETATM   39  C   UNL     1      -8.993   4.793  64.982  1.00  0.00    -0.153 A  
ENDBRANCH  28  31
ENDBRANCH   5  28
ENDBRANCH   4   5
TORSDOF 11
ENDMDL
MODEL      332
REMARK 921   NORMALIZED FREE ENERGY PREDICTED BY IDOCK:   -3.75 KCAL/MOL
REMARK 922        TOTAL FREE ENERGY PREDICTED BY IDOCK:   -7.94 KCAL/MOL
REMARK 923 INTER-LIGAND FREE ENERGY PREDICTED BY IDOCK:   -7.34 KCAL/MOL
REMARK 924 INTRA-LIGAND FREE ENERGY PREDICTED BY IDOCK:   -0.60 KCAL/MOL
REMARK 927      BINDING AFFINITY PREDICTED BY RF-SCORE:    0.00 PKD
ROOT
HETATM    1  C   UNL     1     -10.036   8.196  67.416  1.00  0.00    -0.298 C  
HETATM    2  C   UNL     1     -10.652   8.522  68.778  1.00  0.00    -0.162 C  
HETATM    3  C   UNL     1     -10.507   7.278  69.677  1.00  0.00    -0.239 C  
HETATM    4  C   UNL     1      -9.997   9.732  69.473  1.00  0.00    -0.214 C  
ENDROOT
BRANCH   4   5
HETATM    5  N   UNL     1     -10.027  11.064  68.732  1.00  0.00    -0.202 N  
BRANCH   5   6
HETATM    6  C   UNL     1      -9.555  10.924  67.264  1.00  0.00    -0.164 C  
BRANCH   6   7
HETATM    7  C   UNL     1      -8.347  11.825  66.826  1.00  0.00    -0.165 C  
HETATM    8  H   UNL     1      -8.064  13.267  65.538  1.00  0.00     0.000 HD 
HETATM    9  O   UNL     1      -8.795  12.721  65.803  1.00  0.00     0.325 OA 
BRANCH   7  10
HETATM   10  C   UNL     1      -7.669  12.589  68.023  1.00  0.00    -0.140 C  
BRANCH  10  11
HETATM   11  N   UNL     1      -6.818  11.718  68.859  1.00  0.00    -0.095 N  
HETATM   12  O   UNL     1      -5.784  10.699  67.085  1.00  0.00    -0.041 OA 
HETATM   13  H   UNL     1      -6.881  11.780  69.875  1.00  0.00     0.000 HD 
HETATM   14  C   UNL     1      -5.943  10.826  68.290  1.00  0.00    -0.046 C  
BRANCH  14  15
HETATM   15  O   UNL     1      -5.295  10.082  69.232  1.00  0.00    -0.035 OA 
BRANCH  15  16
HETATM   16  C   UNL     1      -6.006   9.979  70.480  1.00  0.00    -0.092 C  
HETATM   17  C   UNL     1      -6.400   8.550  70.792  1.00  0.00    -0.039 C  
HETATM   18  O   UNL     1      -5.537   9.474  72.780  1.00  0.00    -0.251 OA 
HETATM   19  C   UNL     1      -6.539   8.572  72.298  1.00  0.00    -0.084 C  
HETATM   20  C   UNL     1      -5.159  10.341  71.698  1.00  0.00    -0.075 C  
ENDBRANCH  15  16
ENDBRANCH  14  15
ENDBRANCH  10  11
BRANCH  10  21
HETATM   21  C   UNL     1      -6.974  13.934  67.685  1.00  0.00    -0.189 C  
BRANCH  21  22
HETATM   22  C   UNL     1      -7.749  15.236  67.719  1.00  0.00    -0.164 A  
HETATM   23  C   UNL     1      -8.718  17.130  66.535  1.00  0.00    -0.293 A  
HETATM   24  C   UNL     1      -7.857  16.028  66.567  1.00  0.00    -0.226 A  
HETATM   25  C   UNL     1      -9.473  17.467  67.657  1.00  0.00    -0.256 A  
HETATM   26  C   UNL     1      -8.505  15.598  68.847  1.00  0.00    -0.213 A  
HETATM   27  C   UNL     1      -9.360  16.706  68.815  1.00  0.00    -0.256 A  
ENDBRANCH  21  22
ENDBRANCH  10  21
ENDBRANCH   7  10
ENDBRANCH   6   7
ENDBRANCH   5   6
BRANCH   5  28
HETATM   28  S   UNL     1     -11.638  11.773  68.806  1.00  0.00    -0.332 S  
HETATM   29  O   UNL     1     -12.625  10.723  68.710  1.00  0.00    -0.257 OA 
HETATM   30  O   UNL     1     -11.619  12.671  69.947  1.00  0.00    -0.263 OA 
BRANCH  28  31
HETATM   31  C   UNL     1     -11.804  12.758  67.343  1.00  0.00    -0.342 A  
HETATM   32  N   UNL     1     -12.265  15.105  63.886  1.00  0.00    -0.989 NA 
HETATM   33  H2  UNL     1     -13.207  14.911  63.550  1.00  0.00     0.000 HD 
HETATM   34  H1  UNL     1     -12.139  16.116  63.925  1.00  0.00     0.000 HD 
HETATM   35  C   UNL     1     -12.077  12.145  66.119  1.00  0.00    -0.068 A  
HETATM   36  C   UNL     1     -12.203  12.933  64.967  1.00  0.00    -0.515 A  
HETATM   37  C   UNL     1     -11.719  14.155  67.425  1.00  0.00    -0.422 A  
HETATM   38  C   UNL     1     -11.853  14.928  66.268  1.00  0.00    -0.125 A  
HETATM   39  C   UNL     1     -12.031  14.321  65.021  1.00  0.00    -0.410 A  
ENDBRANCH  28  31
ENDBRANCH   5  28
ENDBRANCH   4   5
TORSDOF 11
ENDMDL
MODEL      333
REMARK 921   NORMALIZED FREE ENERGY PREDICTED BY IDOCK:   -3.75 KCAL/MOL
REMARK 922        TOTAL FREE ENERGY PREDICTED BY IDOCK:   -7.93 KCAL/MOL
REMARK 923 INTER-LIGAND FREE ENERGY PREDICTED BY IDOCK:   -9.03 KCAL/MOL
REMARK 924 INTRA-LIGAND FREE ENERGY PREDICTED BY IDOCK:    1.10 KCAL/MOL
REMARK 927      BINDING AFFINITY PREDICTED BY RF-SCORE:    0.00 PKD
ROOT
HETATM    1  C   UNL     1      -6.802   9.105  69.081  1.00  0.00    -0.050 C  
HETATM    2  C   UNL     1      -7.161   8.515  70.446  1.00  0.00    -0.038 C  
HETATM    3  C   UNL     1      -5.927   8.646  71.361  1.00  0.00    -0.047 C  
HETATM    4  C   UNL     1      -8.366   9.204  71.115  1.00  0.00    -0.099 C  
ENDROOT
BRANCH   4   5
HETATM    5  N   UNL     1      -9.688   9.192  70.355  1.00  0.00    -0.204 N  
BRANCH   5   6
HETATM    6  C   UNL     1      -9.487   9.409  68.835  1.00  0.00    -0.154 C  
BRANCH   6   7
HETATM    7  C   UNL     1     -10.424  10.463  68.146  1.00  0.00    -0.188 C  
HETATM    8  H   UNL     1     -12.187  10.439  67.305  1.00  0.00     0.000 HD 
HETATM    9  O   UNL     1     -11.621   9.801  67.723  1.00  0.00     0.102 OA 
BRANCH   7  10
HETATM   10  C   UNL     1     -10.730  11.714  69.051  1.00  0.00    -0.179 C  
BRANCH  10  11
HETATM   11  N   UNL     1     -11.053  12.927  68.273  1.00  0.00    -0.249 N  
HETATM   12  O   UNL     1      -8.867  13.541  67.959  1.00  0.00    -0.166 OA 
HETATM   13  H   UNL     1     -12.029  13.157  68.084  1.00  0.00     0.000 HD 
HETATM   14  C   UNL     1     -10.060  13.750  67.801  1.00  0.00    -0.245 C  
BRANCH  14  15
HETATM   15  O   UNL     1     -10.570  14.839  67.158  1.00  0.00    -0.276 OA 
BRANCH  15  16
HETATM   16  C   UNL     1     -11.004  14.569  65.811  1.00  0.00    -0.319 C  
HETATM   17  C   UNL     1     -10.288  13.375  65.213  1.00  0.00    -0.330 C  
HETATM   18  O   UNL     1     -12.571  13.148  64.677  1.00  0.00    -0.587 OA 
HETATM   19  C   UNL     1     -11.261  12.911  64.152  1.00  0.00    -0.389 C  
HETATM   20  C   UNL     1     -12.466  14.138  65.714  1.00  0.00    -0.466 C  
ENDBRANCH  15  16
ENDBRANCH  14  15
ENDBRANCH  10  11
BRANCH  10  21
HETATM   21  C   UNL     1     -11.718  11.495  70.228  1.00  0.00    -0.379 C  
BRANCH  21  22
HETATM   22  C   UNL     1     -12.346  12.676  70.941  1.00  0.00    -0.352 A  
HETATM   23  C   UNL     1     -12.951  15.034  70.957  1.00  0.00    -0.466 A  
HETATM   24  C   UNL     1     -12.225  13.969  70.413  1.00  0.00    -0.433 A  
HETATM   25  C   UNL     1     -13.796  14.827  72.045  1.00  0.00    -0.548 A  
HETATM   26  C   UNL     1     -13.190  12.486  72.048  1.00  0.00    -0.524 A  
HETATM   27  C   UNL     1     -13.909  13.555  72.596  1.00  0.00    -0.475 A  
ENDBRANCH  21  22
ENDBRANCH  10  21
ENDBRANCH   7  10
ENDBRANCH   6   7
ENDBRANCH   5   6
BRANCH   5  28
HETATM   28  S   UNL     1     -10.561   7.694  70.663  1.00  0.00    -0.225 S  
HETATM   29  O   UNL     1     -10.004   7.050  71.829  1.00  0.00    -0.177 OA 
HETATM   30  O   UNL     1     -11.969   8.043  70.610  1.00  0.00    -0.185 OA 
BRANCH  28  31
HETATM   31  C   UNL     1     -10.213   6.635  69.286  1.00  0.00    -0.183 A  
HETATM   32  N   UNL     1      -9.426   4.073  66.047  1.00  0.00    -0.171 NA 
HETATM   33  H2  UNL     1      -9.402   3.134  66.444  1.00  0.00     0.000 HD 
HETATM   34  H1  UNL     1     -10.040   4.063  65.233  1.00  0.00     0.000 HD 
HETATM   35  C   UNL     1      -9.073   5.830  69.299  1.00  0.00    -0.128 A  
HETATM   36  C   UNL     1      -8.804   4.999  68.203  1.00  0.00    -0.110 A  
HETATM   37  C   UNL     1     -11.112   6.562  68.213  1.00  0.00    -0.332 A  
HETATM   38  C   UNL     1     -10.834   5.723  67.130  1.00  0.00    -0.308 A  
HETATM   39  C   UNL     1      -9.647   4.985  67.086  1.00  0.00    -0.152 A  
ENDBRANCH  28  31
ENDBRANCH   5  28
ENDBRANCH   4   5
TORSDOF 11
ENDMDL
MODEL      334
REMARK 921   NORMALIZED FREE ENERGY PREDICTED BY IDOCK:   -3.72 KCAL/MOL
REMARK 922        TOTAL FREE ENERGY PREDICTED BY IDOCK:   -7.88 KCAL/MOL
REMARK 923 INTER-LIGAND FREE ENERGY PREDICTED BY IDOCK:   -7.22 KCAL/MOL
REMARK 924 INTRA-LIGAND FREE ENERGY PREDICTED BY IDOCK:   -0.66 KCAL/MOL
REMARK 927      BINDING AFFINITY PREDICTED BY RF-SCORE:    0.00 PKD
ROOT
HETATM    1  C   UNL     1     -10.294   9.624  70.227  1.00  0.00    -0.336 C  
HETATM    2  C   UNL     1     -10.424   8.312  71.002  1.00  0.00    -0.241 C  
HETATM    3  C   UNL     1     -11.500   8.505  72.089  1.00  0.00    -0.446 C  
HETATM    4  C   UNL     1     -10.806   7.110  70.115  1.00  0.00    -0.257 C  
ENDROOT
BRANCH   4   5
HETATM    5  N   UNL     1      -9.864   6.764  68.967  1.00  0.00    -0.148 N  
BRANCH   5   6
HETATM    6  C   UNL     1      -9.221   8.024  68.340  1.00  0.00    -0.135 C  
BRANCH   6   7
HETATM    7  C   UNL     1      -9.666   8.389  66.880  1.00  0.00    -0.227 C  
HETATM    8  H   UNL     1     -11.299   9.046  66.031  1.00  0.00     0.000 HD 
HETATM    9  O   UNL     1     -11.029   8.826  66.915  1.00  0.00    -0.060 OA 
BRANCH   7  10
HETATM   10  C   UNL     1      -8.727   9.442  66.184  1.00  0.00    -0.147 C  
BRANCH  10  11
HETATM   11  N   UNL     1      -9.461  10.400  65.332  1.00  0.00    -0.212 N  
HETATM   12  O   UNL     1      -8.604   9.599  63.362  1.00  0.00    -0.178 OA 
HETATM   13  H   UNL     1     -10.087  11.079  65.764  1.00  0.00     0.000 HD 
HETATM   14  C   UNL     1      -9.313  10.389  63.967  1.00  0.00    -0.277 C  
BRANCH  14  15
HETATM   15  O   UNL     1     -10.032  11.385  63.373  1.00  0.00    -0.325 OA 
BRANCH  15  16
HETATM   16  C   UNL     1     -10.952  12.047  64.263  1.00  0.00    -0.346 C  
HETATM   17  C   UNL     1     -10.698  13.539  64.333  1.00  0.00    -0.402 C  
HETATM   18  O   UNL     1     -13.028  13.245  64.137  1.00  0.00    -0.542 OA 
HETATM   19  C   UNL     1     -12.045  14.077  64.762  1.00  0.00    -0.437 C  
HETATM   20  C   UNL     1     -12.403  11.998  63.789  1.00  0.00    -0.496 C  
ENDBRANCH  15  16
ENDBRANCH  14  15
ENDBRANCH  10  11
BRANCH  10  21
HETATM   21  C   UNL     1      -7.682  10.148  67.090  1.00  0.00    -0.092 C  
BRANCH  21  22
HETATM   22  C   UNL     1      -7.844  11.608  67.465  1.00  0.00    -0.137 A  
HETATM   23  C   UNL     1      -9.285  13.454  68.128  1.00  0.00    -0.215 A  
HETATM   24  C   UNL     1      -9.121  12.167  67.606  1.00  0.00    -0.181 A  
HETATM   25  C   UNL     1      -8.175  14.208  68.503  1.00  0.00    -0.146 A  
HETATM   26  C   UNL     1      -6.733  12.387  67.831  1.00  0.00    -0.100 A  
HETATM   27  C   UNL     1      -6.898  13.677  68.346  1.00  0.00    -0.102 A  
ENDBRANCH  21  22
ENDBRANCH  10  21
ENDBRANCH   7  10
ENDBRANCH   6   7
ENDBRANCH   5   6
BRANCH   5  28
HETATM   28  S   UNL     1      -8.627   5.632  69.506  1.00  0.00    -0.110 S  
HETATM   29  O   UNL     1      -7.355   6.311  69.568  1.00  0.00    -0.079 OA 
HETATM   30  O   UNL     1      -9.178   4.979  70.680  1.00  0.00    -0.137 OA 
BRANCH  28  31
HETATM   31  C   UNL     1      -8.488   4.416  68.225  1.00  0.00    -0.093 A  
HETATM   32  N   UNL     1      -8.201   1.490  65.219  1.00  0.00    -0.075 NA 
HETATM   33  H2  UNL     1      -8.277   0.596  65.703  1.00  0.00     0.000 HD 
HETATM   34  H1  UNL     1      -8.853   1.487  64.435  1.00  0.00     0.000 HD 
HETATM   35  C   UNL     1      -7.461   3.472  68.270  1.00  0.00    -0.057 A  
HETATM   36  C   UNL     1      -7.356   2.517  67.250  1.00  0.00    -0.057 A  
HETATM   37  C   UNL     1      -9.443   4.365  67.200  1.00  0.00    -0.193 A  
HETATM   38  C   UNL     1      -9.330   3.402  66.192  1.00  0.00    -0.151 A  
HETATM   39  C   UNL     1      -8.251   2.513  66.173  1.00  0.00    -0.088 A  
ENDBRANCH  28  31
ENDBRANCH   5  28
ENDBRANCH   4   5
TORSDOF 11
ENDMDL
MODEL      335
REMARK 921   NORMALIZED FREE ENERGY PREDICTED BY IDOCK:   -3.68 KCAL/MOL
REMARK 922        TOTAL FREE ENERGY PREDICTED BY IDOCK:   -7.82 KCAL/MOL
REMARK 923 INTER-LIGAND FREE ENERGY PREDICTED BY IDOCK:   -5.49 KCAL/MOL
REMARK 924 INTRA-LIGAND FREE ENERGY PREDICTED BY IDOCK:   -2.34 KCAL/MOL
REMARK 927      BINDING AFFINITY PREDICTED BY RF-SCORE:    0.00 PKD
ROOT
HETATM    1  C   UNL     1     -11.159  10.138  70.508  1.00  0.00    -0.400 C  
HETATM    2  C   UNL     1     -11.962   9.395  71.577  1.00  0.00    -0.456 C  
HETATM    3  C   UNL     1     -13.296  10.144  71.777  1.00  0.00    -0.485 C  
HETATM    4  C   UNL     1     -12.253   7.925  71.217  1.00  0.00    -0.294 C  
ENDROOT
BRANCH   4   5
HETATM    5  N   UNL     1     -11.053   7.018  70.968  1.00  0.00    -0.254 N  
BRANCH   5   6
HETATM    6  C   UNL     1     -10.274   7.419  69.691  1.00  0.00    -0.210 C  
BRANCH   6   7
HETATM    7  C   UNL     1     -10.910   7.000  68.319  1.00  0.00    -0.141 C  
HETATM    8  H   UNL     1     -11.227   7.864  66.595  1.00  0.00     0.000 HD 
HETATM    9  O   UNL     1     -10.841   8.117  67.426  1.00  0.00    -0.226 OA 
BRANCH   7  10
HETATM   10  C   UNL     1     -10.263   5.707  67.698  1.00  0.00    -0.199 C  
BRANCH  10  11
HETATM   11  N   UNL     1      -9.319   6.001  66.601  1.00  0.00    -0.140 N  
HETATM   12  O   UNL     1     -10.221   4.468  65.155  1.00  0.00    -0.183 OA 
HETATM   13  H   UNL     1      -8.606   6.719  66.731  1.00  0.00     0.000 HD 
HETATM   14  C   UNL     1      -9.387   5.324  65.408  1.00  0.00    -0.035 C  
BRANCH  14  15
HETATM   15  O   UNL     1      -8.395   5.706  64.553  1.00  0.00    -0.135 OA 
BRANCH  15  16
HETATM   16  C   UNL     1      -7.591   6.794  65.046  1.00  0.00    -0.100 C  
HETATM   17  C   UNL     1      -6.146   6.384  65.251  1.00  0.00    -0.030 C  
HETATM   18  O   UNL     1      -6.121   8.481  64.176  1.00  0.00    -0.066 OA 
HETATM   19  C   UNL     1      -5.417   7.706  65.151  1.00  0.00    -0.033 C  
HETATM   20  C   UNL     1      -7.451   7.949  64.055  1.00  0.00    -0.109 C  
ENDBRANCH  15  16
ENDBRANCH  14  15
ENDBRANCH  10  11
BRANCH  10  21
HETATM   21  C   UNL     1      -9.692   4.667  68.698  1.00  0.00    -0.217 C  
BRANCH  21  22
HETATM   22  C   UNL     1      -8.200   4.572  68.947  1.00  0.00    -0.082 A  
HETATM   23  C   UNL     1      -6.147   3.264  68.905  1.00  0.00    -0.028 A  
HETATM   24  C   UNL     1      -7.543   3.336  68.860  1.00  0.00    -0.048 A  
HETATM   25  C   UNL     1      -5.386   4.421  69.053  1.00  0.00    -0.011 A  
HETATM   26  C   UNL     1      -7.419   5.729  69.112  1.00  0.00    -0.084 A  
HETATM   27  C   UNL     1      -6.023   5.653  69.164  1.00  0.00    -0.024 A  
ENDBRANCH  21  22
ENDBRANCH  10  21
ENDBRANCH   7  10
ENDBRANCH   6   7
ENDBRANCH   5   6
BRANCH   5  28
HETATM   28  S   UNL     1      -9.989   7.005  72.372  1.00  0.00    -0.167 S  
HETATM   29  O   UNL     1      -8.910   7.941  72.160  1.00  0.00    -0.124 OA 
HETATM   30  O   UNL     1     -10.861   7.127  73.526  1.00  0.00    -0.361 OA 
BRANCH  28  31
HETATM   31  C   UNL     1      -9.258   5.392  72.414  1.00  0.00    -0.141 A  
HETATM   32  N   UNL     1      -7.539   1.559  72.579  1.00  0.00    -0.041 NA 
HETATM   33  H2  UNL     1      -7.152   1.475  73.519  1.00  0.00     0.000 HD 
HETATM   34  H1  UNL     1      -8.102   0.730  72.388  1.00  0.00     0.000 HD 
HETATM   35  C   UNL     1      -7.895   5.253  72.679  1.00  0.00    -0.099 A  
HETATM   36  C   UNL     1      -7.324   3.973  72.705  1.00  0.00    -0.071 A  
HETATM   37  C   UNL     1     -10.058   4.255  72.239  1.00  0.00    -0.249 A  
HETATM   38  C   UNL     1      -9.477   2.983  72.275  1.00  0.00    -0.187 A  
HETATM   39  C   UNL     1      -8.096   2.835  72.443  1.00  0.00    -0.055 A  
ENDBRANCH  28  31
ENDBRANCH   5  28
ENDBRANCH   4   5
TORSDOF 11
ENDMDL
MODEL      336
REMARK 921   NORMALIZED FREE ENERGY PREDICTED BY IDOCK:   -3.68 KCAL/MOL
REMARK 922        TOTAL FREE ENERGY PREDICTED BY IDOCK:   -7.82 KCAL/MOL
REMARK 923 INTER-LIGAND FREE ENERGY PREDICTED BY IDOCK:   -7.10 KCAL/MOL
REMARK 924 INTRA-LIGAND FREE ENERGY PREDICTED BY IDOCK:   -0.72 KCAL/MOL
REMARK 927      BINDING AFFINITY PREDICTED BY RF-SCORE:    0.00 PKD
ROOT
HETATM    1  C   UNL     1      -9.464   8.845  71.771  1.00  0.00    -0.334 C  
HETATM    2  C   UNL     1      -8.258   8.928  70.835  1.00  0.00    -0.207 C  
HETATM    3  C   UNL     1      -6.985   8.705  71.677  1.00  0.00    -0.093 C  
HETATM    4  C   UNL     1      -8.297   7.897  69.690  1.00  0.00    -0.131 C  
ENDROOT
BRANCH   4   5
HETATM    5  N   UNL     1      -9.493   7.947  68.746  1.00  0.00    -0.147 N  
BRANCH   5   6
HETATM    6  C   UNL     1      -9.113   8.506  67.353  1.00  0.00    -0.133 C  
BRANCH   6   7
HETATM    7  C   UNL     1      -8.055   9.664  67.325  1.00  0.00    -0.110 C  
HETATM    8  H   UNL     1      -6.256   9.906  66.602  1.00  0.00     0.000 HD 
HETATM    9  O   UNL     1      -6.897   9.205  66.619  1.00  0.00    -0.078 OA 
BRANCH   7  10
HETATM   10  C   UNL     1      -8.614  11.009  66.729  1.00  0.00    -0.152 C  
BRANCH  10  11
HETATM   11  N   UNL     1      -8.372  11.146  65.279  1.00  0.00    -0.377 N  
HETATM   12  O   UNL     1     -10.408  10.293  64.662  1.00  0.00    -0.266 OA 
HETATM   13  H   UNL     1      -7.489  11.539  64.953  1.00  0.00     0.000 HD 
HETATM   14  C   UNL     1      -9.316  10.752  64.363  1.00  0.00    -0.242 C  
BRANCH  14  15
HETATM   15  O   UNL     1      -8.875  10.912  63.082  1.00  0.00    -0.202 OA 
BRANCH  15  16
HETATM   16  C   UNL     1      -8.231   9.743  62.539  1.00  0.00    -0.136 C  
HETATM   17  C   UNL     1      -6.731   9.922  62.426  1.00  0.00    -0.115 C  
HETATM   18  O   UNL     1      -7.101   7.780  63.334  1.00  0.00    -0.069 OA 
HETATM   19  C   UNL     1      -6.231   8.495  62.451  1.00  0.00    -0.092 C  
HETATM   20  C   UNL     1      -8.332   8.515  63.442  1.00  0.00    -0.091 C  
ENDBRANCH  15  16
ENDBRANCH  14  15
ENDBRANCH  10  11
BRANCH  10  21
HETATM   21  C   UNL     1     -10.068  11.390  67.117  1.00  0.00    -0.226 C  
BRANCH  21  22
HETATM   22  C   UNL     1     -10.389  12.769  67.659  1.00  0.00    -0.221 A  
HETATM   23  C   UNL     1     -12.039  14.399  68.396  1.00  0.00    -0.278 A  
HETATM   24  C   UNL     1     -11.717  13.211  67.732  1.00  0.00    -0.401 A  
HETATM   25  C   UNL     1     -11.039  15.171  68.984  1.00  0.00    -0.260 A  
HETATM   26  C   UNL     1      -9.389  13.566  68.242  1.00  0.00    -0.205 A  
HETATM   27  C   UNL     1      -9.713  14.758  68.899  1.00  0.00    -0.215 A  
ENDBRANCH  21  22
ENDBRANCH  10  21
ENDBRANCH   7  10
ENDBRANCH   6   7
ENDBRANCH   5   6
BRANCH   5  28
HETATM   28  S   UNL     1     -10.231   6.355  68.602  1.00  0.00    -0.193 S  
HETATM   29  O   UNL     1     -11.485   6.473  67.895  1.00  0.00    -0.146 OA 
HETATM   30  O   UNL     1      -9.182   5.479  68.111  1.00  0.00    -0.108 OA 
BRANCH  28  31
HETATM   31  C   UNL     1     -10.628   5.851  70.253  1.00  0.00    -0.286 A  
HETATM   32  N   UNL     1     -11.531   4.703  74.196  1.00  0.00    -0.104 NA 
HETATM   33  H2  UNL     1     -10.682   4.879  74.731  1.00  0.00     0.000 HD 
HETATM   34  H1  UNL     1     -12.317   5.125  74.691  1.00  0.00     0.000 HD 
HETATM   35  C   UNL     1      -9.883   4.846  70.872  1.00  0.00    -0.277 A  
HETATM   36  C   UNL     1     -10.208   4.450  72.177  1.00  0.00    -0.247 A  
HETATM   37  C   UNL     1     -11.652   6.499  70.957  1.00  0.00    -0.405 A  
HETATM   38  C   UNL     1     -11.961   6.099  72.261  1.00  0.00    -0.285 A  
HETATM   39  C   UNL     1     -11.285   5.030  72.857  1.00  0.00    -0.271 A  
ENDBRANCH  28  31
ENDBRANCH   5  28
ENDBRANCH   4   5
TORSDOF 11
ENDMDL
MODEL      337
REMARK 921   NORMALIZED FREE ENERGY PREDICTED BY IDOCK:   -3.68 KCAL/MOL
REMARK 922        TOTAL FREE ENERGY PREDICTED BY IDOCK:   -7.82 KCAL/MOL
REMARK 923 INTER-LIGAND FREE ENERGY PREDICTED BY IDOCK:   -7.48 KCAL/MOL
REMARK 924 INTRA-LIGAND FREE ENERGY PREDICTED BY IDOCK:   -0.34 KCAL/MOL
REMARK 927      BINDING AFFINITY PREDICTED BY RF-SCORE:    0.00 PKD
ROOT
HETATM    1  C   UNL     1      -8.261   9.651  63.972  1.00  0.00    -0.159 C  
HETATM    2  C   UNL     1      -7.118   9.498  64.977  1.00  0.00    -0.109 C  
HETATM    3  C   UNL     1      -5.794   9.787  64.240  1.00  0.00    -0.093 C  
HETATM    4  C   UNL     1      -7.238  10.436  66.193  1.00  0.00    -0.131 C  
ENDROOT
BRANCH   4   5
HETATM    5  N   UNL     1      -8.494  10.311  67.049  1.00  0.00    -0.129 N  
BRANCH   5   6
HETATM    6  C   UNL     1      -8.273   9.393  68.276  1.00  0.00    -0.118 C  
BRANCH   6   7
HETATM    7  C   UNL     1      -9.338   8.266  68.512  1.00  0.00    -0.138 C  
HETATM    8  H   UNL     1      -9.937   6.675  67.549  1.00  0.00     0.000 HD 
HETATM    9  O   UNL     1      -9.292   7.358  67.406  1.00  0.00    -0.129 OA 
BRANCH   7  10
HETATM   10  C   UNL     1      -9.171   7.525  69.890  1.00  0.00    -0.147 C  
BRANCH  10  11
HETATM   11  N   UNL     1     -10.412   7.500  70.690  1.00  0.00    -0.214 N  
HETATM   12  O   UNL     1     -11.536   6.108  69.256  1.00  0.00    -0.404 OA 
HETATM   13  H   UNL     1     -10.457   8.024  71.563  1.00  0.00     0.000 HD 
HETATM   14  C   UNL     1     -11.507   6.782  70.275  1.00  0.00    -0.360 C  
BRANCH  14  15
HETATM   15  O   UNL     1     -12.563   6.935  71.124  1.00  0.00    -0.376 OA 
BRANCH  15  16
HETATM   16  C   UNL     1     -13.158   8.246  71.080  1.00  0.00    -0.024 C  
HETATM   17  C   UNL     1     -13.964   8.545  72.328  1.00  0.00    -0.423 C  
HETATM   18  O   UNL     1     -12.680  10.465  71.862  1.00  0.00    -0.420 OA 
HETATM   19  C   UNL     1     -13.957  10.057  72.365  1.00  0.00     0.195 C  
HETATM   20  C   UNL     1     -12.137   9.382  71.089  1.00  0.00    -0.328 C  
ENDBRANCH  15  16
ENDBRANCH  14  15
ENDBRANCH  10  11
BRANCH  10  21
HETATM   21  C   UNL     1      -8.470   6.140  69.855  1.00  0.00    -0.129 C  
BRANCH  21  22
HETATM   22  C   UNL     1      -7.529   5.720  70.967  1.00  0.00    -0.090 A  
HETATM   23  C   UNL     1      -5.261   5.509  71.824  1.00  0.00    -0.009 A  
HETATM   24  C   UNL     1      -6.143   5.714  70.758  1.00  0.00    -0.030 A  
HETATM   25  C   UNL     1      -5.749   5.291  73.111  1.00  0.00    -0.023 A  
HETATM   26  C   UNL     1      -8.007   5.483  72.267  1.00  0.00    -0.107 A  
HETATM   27  C   UNL     1      -7.123   5.270  73.330  1.00  0.00    -0.085 A  
ENDBRANCH  21  22
ENDBRANCH  10  21
ENDBRANCH   7  10
ENDBRANCH   6   7
ENDBRANCH   5   6
BRANCH   5  28
HETATM   28  S   UNL     1      -9.058  11.902  67.551  1.00  0.00    -0.184 S  
HETATM   29  O   UNL     1      -9.893  11.764  68.721  1.00  0.00    -0.178 OA 
HETATM   30  O   UNL     1      -7.877  12.747  67.577  1.00  0.00    -0.148 OA 
BRANCH  28  31
HETATM   31  C   UNL     1     -10.108  12.480  66.246  1.00  0.00    -0.250 A  
HETATM   32  N   UNL     1     -12.636  13.887  63.196  1.00  0.00    -0.976 NA 
HETATM   33  H2  UNL     1     -13.559  13.966  63.623  1.00  0.00     0.000 HD 
HETATM   34  H1  UNL     1     -12.429  14.761  62.713  1.00  0.00     0.000 HD 
HETATM   35  C   UNL     1     -11.210  11.720  65.852  1.00  0.00    -0.345 A  
HETATM   36  C   UNL     1     -12.033  12.183  64.816  1.00  0.00    -0.377 A  
HETATM   37  C   UNL     1      -9.866  13.726  65.651  1.00  0.00    -0.216 A  
HETATM   38  C   UNL     1     -10.699  14.178  64.623  1.00  0.00    -0.408 A  
HETATM   39  C   UNL     1     -11.749  13.383  64.153  1.00  0.00    -0.419 A  
ENDBRANCH  28  31
ENDBRANCH   5  28
ENDBRANCH   4   5
TORSDOF 11
ENDMDL
MODEL      338
REMARK 921   NORMALIZED FREE ENERGY PREDICTED BY IDOCK:   -3.67 KCAL/MOL
REMARK 922        TOTAL FREE ENERGY PREDICTED BY IDOCK:   -7.80 KCAL/MOL
REMARK 923 INTER-LIGAND FREE ENERGY PREDICTED BY IDOCK:   -7.18 KCAL/MOL
REMARK 924 INTRA-LIGAND FREE ENERGY PREDICTED BY IDOCK:   -0.61 KCAL/MOL
REMARK 927      BINDING AFFINITY PREDICTED BY RF-SCORE:    0.00 PKD
ROOT
HETATM    1  C   UNL     1      -9.930   8.425  72.107  1.00  0.00    -0.376 C  
HETATM    2  C   UNL     1      -8.913   8.964  71.101  1.00  0.00    -0.305 C  
HETATM    3  C   UNL     1      -7.509   8.822  71.721  1.00  0.00    -0.080 C  
HETATM    4  C   UNL     1      -8.946   8.234  69.743  1.00  0.00    -0.146 C  
ENDROOT
BRANCH   4   5
HETATM    5  N   UNL     1     -10.262   8.250  68.974  1.00  0.00    -0.214 N  
BRANCH   5   6
HETATM    6  C   UNL     1     -10.209   9.192  67.747  1.00  0.00    -0.224 C  
BRANCH   6   7
HETATM    7  C   UNL     1      -9.134  10.334  67.784  1.00  0.00    -0.134 C  
HETATM    8  H   UNL     1      -7.246  10.503  67.307  1.00  0.00     0.000 HD 
HETATM    9  O   UNL     1      -7.897   9.811  67.285  1.00  0.00    -0.098 OA 
BRANCH   7  10
HETATM   10  C   UNL     1      -9.576  11.635  67.016  1.00  0.00    -0.184 C  
BRANCH  10  11
HETATM   11  N   UNL     1      -9.073  11.688  65.629  1.00  0.00    -0.383 N  
HETATM   12  O   UNL     1     -10.647  10.244  64.797  1.00  0.00    -0.099 OA 
HETATM   13  H   UNL     1      -8.270  12.278  65.408  1.00  0.00     0.000 HD 
HETATM   14  C   UNL     1      -9.669  10.957  64.631  1.00  0.00    -0.280 C  
BRANCH  14  15
HETATM   15  O   UNL     1      -9.020  11.105  63.440  1.00  0.00    -0.170 OA 
BRANCH  15  16
HETATM   16  C   UNL     1      -8.157  10.001  63.108  1.00  0.00    -0.156 C  
HETATM   17  C   UNL     1      -6.695  10.395  63.139  1.00  0.00    -0.075 C  
HETATM   18  O   UNL     1      -6.872   8.319  64.239  1.00  0.00    -0.065 OA 
HETATM   19  C   UNL     1      -6.007   9.070  63.381  1.00  0.00    -0.088 C  
HETATM   20  C   UNL     1      -8.197   8.865  64.128  1.00  0.00    -0.167 C  
ENDBRANCH  15  16
ENDBRANCH  14  15
ENDBRANCH  10  11
BRANCH  10  21
HETATM   21  C   UNL     1     -11.076  12.021  67.109  1.00  0.00    -0.344 C  
BRANCH  21  22
HETATM   22  C   UNL     1     -11.586  12.870  68.257  1.00  0.00    -0.374 A  
HETATM   23  C   UNL     1     -12.225  13.064  70.598  1.00  0.00    -0.390 A  
HETATM   24  C   UNL     1     -11.931  12.277  69.480  1.00  0.00    -0.333 A  
HETATM   25  C   UNL     1     -12.195  14.454  70.509  1.00  0.00    -0.411 A  
HETATM   26  C   UNL     1     -11.576  14.273  68.178  1.00  0.00    -0.365 A  
HETATM   27  C   UNL     1     -11.878  15.058  69.296  1.00  0.00    -0.344 A  
ENDBRANCH  21  22
ENDBRANCH  10  21
ENDBRANCH   7  10
ENDBRANCH   6   7
ENDBRANCH   5   6
BRANCH   5  28
HETATM   28  S   UNL     1     -10.713   6.617  68.491  1.00  0.00    -0.259 S  
HETATM   29  O   UNL     1     -11.270   5.921  69.627  1.00  0.00    -0.395 OA 
HETATM   30  O   UNL     1     -11.476   6.767  67.265  1.00  0.00    -0.193 OA 
BRANCH  28  31
HETATM   31  C   UNL     1      -9.197   5.793  68.089  1.00  0.00    -0.109 A  
HETATM   32  N   UNL     1      -5.566   3.884  67.168  1.00  0.00    -0.020 NA 
HETATM   33  H2  UNL     1      -4.885   4.635  67.057  1.00  0.00     0.000 HD 
HETATM   34  H1  UNL     1      -5.174   3.185  67.798  1.00  0.00     0.000 HD 
HETATM   35  C   UNL     1      -8.549   6.077  66.886  1.00  0.00    -0.108 A  
HETATM   36  C   UNL     1      -7.352   5.416  66.574  1.00  0.00    -0.086 A  
HETATM   37  C   UNL     1      -8.620   4.900  69.003  1.00  0.00    -0.093 A  
HETATM   38  C   UNL     1      -7.423   4.254  68.682  1.00  0.00    -0.059 A  
HETATM   39  C   UNL     1      -6.814   4.457  67.439  1.00  0.00    -0.055 A  
ENDBRANCH  28  31
ENDBRANCH   5  28
ENDBRANCH   4   5
TORSDOF 11
ENDMDL
MODEL      339
REMARK 921   NORMALIZED FREE ENERGY PREDICTED BY IDOCK:   -3.67 KCAL/MOL
REMARK 922        TOTAL FREE ENERGY PREDICTED BY IDOCK:   -7.80 KCAL/MOL
REMARK 923 INTER-LIGAND FREE ENERGY PREDICTED BY IDOCK:   -5.34 KCAL/MOL
REMARK 924 INTRA-LIGAND FREE ENERGY PREDICTED BY IDOCK:   -2.46 KCAL/MOL
REMARK 927      BINDING AFFINITY PREDICTED BY RF-SCORE:    0.00 PKD
ROOT
HETATM    1  C   UNL     1      -7.716   3.401  65.497  1.00  0.00    -0.081 C  
HETATM    2  C   UNL     1      -8.254   4.797  65.181  1.00  0.00    -0.121 C  
HETATM    3  C   UNL     1      -9.033   4.718  63.853  1.00  0.00    -0.075 C  
HETATM    4  C   UNL     1      -9.176   5.364  66.279  1.00  0.00    -0.152 C  
ENDROOT
BRANCH   4   5
HETATM    5  N   UNL     1      -8.588   5.509  67.678  1.00  0.00    -0.109 N  
BRANCH   5   6
HETATM    6  C   UNL     1      -8.469   6.991  68.108  1.00  0.00    -0.129 C  
BRANCH   6   7
HETATM    7  C   UNL     1      -7.386   7.323  69.194  1.00  0.00    -0.087 C  
HETATM    8  H   UNL     1      -5.530   6.811  69.530  1.00  0.00     0.000 HD 
HETATM    9  O   UNL     1      -6.186   6.609  68.873  1.00  0.00    -0.025 OA 
BRANCH   7  10
HETATM   10  C   UNL     1      -7.125   8.866  69.366  1.00  0.00    -0.057 C  
BRANCH  10  11
HETATM   11  N   UNL     1      -7.532   9.658  68.189  1.00  0.00    -0.081 N  
HETATM   12  O   UNL     1      -5.395   9.980  67.425  1.00  0.00    -0.041 OA 
HETATM   13  H   UNL     1      -8.523   9.835  68.021  1.00  0.00     0.000 HD 
HETATM   14  C   UNL     1      -6.599  10.161  67.317  1.00  0.00    -0.069 C  
BRANCH  14  15
HETATM   15  O   UNL     1      -7.177  10.906  66.332  1.00  0.00    -0.134 OA 
BRANCH  15  16
HETATM   16  C   UNL     1      -8.448  10.396  65.887  1.00  0.00    -0.156 C  
HETATM   17  C   UNL     1      -9.483  11.493  65.750  1.00  0.00    -0.255 C  
HETATM   18  O   UNL     1      -9.663  10.135  63.833  1.00  0.00    -0.297 OA 
HETATM   19  C   UNL     1     -10.451  10.904  64.747  1.00  0.00    -0.303 C  
HETATM   20  C   UNL     1      -8.415   9.819  64.473  1.00  0.00    -0.176 C  
ENDBRANCH  15  16
ENDBRANCH  14  15
ENDBRANCH  10  11
BRANCH  10  21
HETATM   21  C   UNL     1      -7.604   9.507  70.696  1.00  0.00    -0.145 C  
BRANCH  21  22
HETATM   22  C   UNL     1      -8.904   9.069  71.342  1.00  0.00    -0.220 A  
HETATM   23  C   UNL     1     -11.331   8.905  71.264  1.00  0.00    -0.371 A  
HETATM   24  C   UNL     1     -10.134   9.450  70.789  1.00  0.00    -0.366 A  
HETATM   25  C   UNL     1     -11.320   7.982  72.308  1.00  0.00    -0.413 A  
HETATM   26  C   UNL     1      -8.909   8.150  72.405  1.00  0.00    -0.260 A  
HETATM   27  C   UNL     1     -10.109   7.611  72.883  1.00  0.00    -0.343 A  
ENDBRANCH  21  22
ENDBRANCH  10  21
ENDBRANCH   7  10
ENDBRANCH   6   7
ENDBRANCH   5   6
BRANCH   5  28
HETATM   28  S   UNL     1      -9.538   4.593  68.843  1.00  0.00    -0.162 S  
HETATM   29  O   UNL     1     -10.557   5.449  69.405  1.00  0.00    -0.276 OA 
HETATM   30  O   UNL     1      -9.896   3.356  68.172  1.00  0.00    -0.063 OA 
BRANCH  28  31
HETATM   31  C   UNL     1      -8.431   4.191  70.166  1.00  0.00    -0.064 A  
HETATM   32  N   UNL     1      -5.830   3.176  73.310  1.00  0.00    -0.004 NA 
HETATM   33  H2  UNL     1      -6.368   2.559  73.919  1.00  0.00     0.000 HD 
HETATM   34  H1  UNL     1      -4.932   2.733  73.117  1.00  0.00     0.000 HD 
HETATM   35  C   UNL     1      -8.773   4.510  71.481  1.00  0.00    -0.139 A  
HETATM   36  C   UNL     1      -7.888   4.192  72.521  1.00  0.00    -0.086 A  
HETATM   37  C   UNL     1      -7.240   3.502  69.899  1.00  0.00    -0.041 A  
HETATM   38  C   UNL     1      -6.370   3.185  70.947  1.00  0.00    -0.023 A  
HETATM   39  C   UNL     1      -6.655   3.584  72.256  1.00  0.00    -0.015 A  
ENDBRANCH  28  31
ENDBRANCH   5  28
ENDBRANCH   4   5
TORSDOF 11
ENDMDL
MODEL      340
REMARK 921   NORMALIZED FREE ENERGY PREDICTED BY IDOCK:   -3.64 KCAL/MOL
REMARK 922        TOTAL FREE ENERGY PREDICTED BY IDOCK:   -7.75 KCAL/MOL
REMARK 923 INTER-LIGAND FREE ENERGY PREDICTED BY IDOCK:   -7.08 KCAL/MOL
REMARK 924 INTRA-LIGAND FREE ENERGY PREDICTED BY IDOCK:   -0.67 KCAL/MOL
REMARK 927      BINDING AFFINITY PREDICTED BY RF-SCORE:    0.00 PKD
ROOT
HETATM    1  C   UNL     1      -8.673   4.879  67.229  1.00  0.00    -0.103 C  
HETATM    2  C   UNL     1      -9.711   5.700  66.463  1.00  0.00    -0.181 C  
HETATM    3  C   UNL     1     -10.495   4.741  65.545  1.00  0.00    -0.168 C  
HETATM    4  C   UNL     1     -10.700   6.449  67.379  1.00  0.00    -0.336 C  
ENDROOT
BRANCH   4   5
HETATM    5  N   UNL     1     -10.112   7.442  68.375  1.00  0.00    -0.172 N  
BRANCH   5   6
HETATM    6  C   UNL     1     -10.251   8.906  67.889  1.00  0.00    -0.222 C  
BRANCH   6   7
HETATM    7  C   UNL     1      -8.972   9.807  67.997  1.00  0.00    -0.118 C  
HETATM    8  H   UNL     1      -7.060   9.580  67.664  1.00  0.00     0.000 HD 
HETATM    9  O   UNL     1      -7.834   9.034  67.599  1.00  0.00    -0.099 OA 
BRANCH   7  10
HETATM   10  C   UNL     1      -9.083  11.152  67.188  1.00  0.00    -0.147 C  
BRANCH  10  11
HETATM   11  N   UNL     1      -8.329  11.129  65.918  1.00  0.00    -0.304 N  
HETATM   12  O   UNL     1      -9.904   9.911  64.782  1.00  0.00    -0.307 OA 
HETATM   13  H   UNL     1      -7.427  11.601  65.862  1.00  0.00     0.000 HD 
HETATM   14  C   UNL     1      -8.824  10.482  64.813  1.00  0.00    -0.196 C  
BRANCH  14  15
HETATM   15  O   UNL     1      -7.952  10.532  63.765  1.00  0.00    -0.121 OA 
BRANCH  15  16
HETATM   16  C   UNL     1      -7.461   9.242  63.355  1.00  0.00    -0.097 C  
HETATM   17  C   UNL     1      -7.399   8.265  64.511  1.00  0.00    -0.091 C  
HETATM   18  O   UNL     1      -8.343   7.111  62.687  1.00  0.00    -0.069 OA 
HETATM   19  C   UNL     1      -7.476   6.926  63.810  1.00  0.00    -0.091 C  
HETATM   20  C   UNL     1      -8.389   8.515  62.382  1.00  0.00    -0.192 C  
ENDBRANCH  15  16
ENDBRANCH  14  15
ENDBRANCH  10  11
BRANCH  10  21
HETATM   21  C   UNL     1     -10.508  11.741  67.011  1.00  0.00    -0.252 C  
BRANCH  21  22
HETATM   22  C   UNL     1     -11.229  12.386  68.178  1.00  0.00    -0.313 A  
HETATM   23  C   UNL     1     -12.283  12.181  70.363  1.00  0.00    -0.378 A  
HETATM   24  C   UNL     1     -11.781  11.596  69.196  1.00  0.00    -0.390 A  
HETATM   25  C   UNL     1     -12.255  13.565  70.525  1.00  0.00    -0.433 A  
HETATM   26  C   UNL     1     -11.223  13.781  68.349  1.00  0.00    -0.300 A  
HETATM   27  C   UNL     1     -11.733  14.365  69.513  1.00  0.00    -0.362 A  
ENDBRANCH  21  22
ENDBRANCH  10  21
ENDBRANCH   7  10
ENDBRANCH   6   7
ENDBRANCH   5   6
BRANCH   5  28
HETATM   28  S   UNL     1     -10.853   7.236  69.959  1.00  0.00    -0.250 S  
HETATM   29  O   UNL     1     -10.838   8.499  70.660  1.00  0.00    -0.215 OA 
HETATM   30  O   UNL     1     -12.102   6.536  69.721  1.00  0.00    -0.167 OA 
BRANCH  28  31
HETATM   31  C   UNL     1      -9.785   6.147  70.859  1.00  0.00    -0.177 A  
HETATM   32  N   UNL     1      -7.298   3.551  73.039  1.00  0.00    -0.054 NA 
HETATM   33  H2  UNL     1      -7.546   3.695  74.017  1.00  0.00     0.000 HD 
HETATM   34  H1  UNL     1      -7.302   2.549  72.850  1.00  0.00     0.000 HD 
HETATM   35  C   UNL     1      -8.905   6.664  71.811  1.00  0.00    -0.130 A  
HETATM   36  C   UNL     1      -8.060   5.795  72.515  1.00  0.00    -0.103 A  
HETATM   37  C   UNL     1      -9.863   4.762  70.656  1.00  0.00    -0.292 A  
HETATM   38  C   UNL     1      -9.019   3.906  71.370  1.00  0.00    -0.159 A  
HETATM   39  C   UNL     1      -8.067   4.419  72.256  1.00  0.00    -0.096 A  
ENDBRANCH  28  31
ENDBRANCH   5  28
ENDBRANCH   4   5
TORSDOF 11
ENDMDL
MODEL      341
REMARK 921   NORMALIZED FREE ENERGY PREDICTED BY IDOCK:   -3.63 KCAL/MOL
REMARK 922        TOTAL FREE ENERGY PREDICTED BY IDOCK:   -7.74 KCAL/MOL
REMARK 923 INTER-LIGAND FREE ENERGY PREDICTED BY IDOCK:   -6.74 KCAL/MOL
REMARK 924 INTRA-LIGAND FREE ENERGY PREDICTED BY IDOCK:   -0.99 KCAL/MOL
REMARK 927      BINDING AFFINITY PREDICTED BY RF-SCORE:    0.00 PKD
ROOT
HETATM    1  C   UNL     1     -10.032  14.403  66.223  1.00  0.00    -0.320 C  
HETATM    2  C   UNL     1      -8.958  13.951  67.213  1.00  0.00    -0.225 C  
HETATM    3  C   UNL     1      -8.391  15.206  67.906  1.00  0.00    -0.153 C  
HETATM    4  C   UNL     1      -9.481  12.971  68.282  1.00  0.00    -0.208 C  
ENDROOT
BRANCH   4   5
HETATM    5  N   UNL     1     -10.095  11.666  67.791  1.00  0.00    -0.184 N  
BRANCH   5   6
HETATM    6  C   UNL     1      -9.480  10.431  68.494  1.00  0.00    -0.159 C  
BRANCH   6   7
HETATM    7  C   UNL     1      -9.460   9.093  67.676  1.00  0.00    -0.140 C  
HETATM    8  H   UNL     1      -8.596   8.456  66.043  1.00  0.00     0.000 HD 
HETATM    9  O   UNL     1      -8.608   9.267  66.538  1.00  0.00    -0.127 OA 
BRANCH   7  10
HETATM   10  C   UNL     1      -9.048   7.840  68.535  1.00  0.00    -0.132 C  
BRANCH  10  11
HETATM   11  N   UNL     1      -8.031   6.995  67.877  1.00  0.00    -0.113 N  
HETATM   12  O   UNL     1      -9.478   5.278  67.416  1.00  0.00    -0.119 OA 
HETATM   13  H   UNL     1      -7.074   7.336  67.792  1.00  0.00     0.000 HD 
HETATM   14  C   UNL     1      -8.355   5.757  67.379  1.00  0.00    -0.104 C  
BRANCH  14  15
HETATM   15  O   UNL     1      -7.265   5.119  66.863  1.00  0.00    -0.074 OA 
BRANCH  15  16
HETATM   16  C   UNL     1      -7.254   5.058  65.424  1.00  0.00    -0.068 C  
HETATM   17  C   UNL     1      -5.889   5.384  64.853  1.00  0.00    -0.021 C  
HETATM   18  O   UNL     1      -6.687   3.494  63.695  1.00  0.00    -0.039 OA 
HETATM   19  C   UNL     1      -5.926   4.692  63.508  1.00  0.00    -0.018 C  
HETATM   20  C   UNL     1      -7.499   3.657  64.869  1.00  0.00    -0.073 C  
ENDBRANCH  15  16
ENDBRANCH  14  15
ENDBRANCH  10  11
BRANCH  10  21
HETATM   21  C   UNL     1      -8.714   8.101  70.028  1.00  0.00    -0.131 C  
BRANCH  21  22
HETATM   22  C   UNL     1      -9.489   7.400  71.127  1.00  0.00    -0.157 A  
HETATM   23  C   UNL     1     -10.458   5.360  72.035  1.00  0.00    -0.278 A  
HETATM   24  C   UNL     1      -9.908   6.073  70.964  1.00  0.00    -0.220 A  
HETATM   25  C   UNL     1     -10.611   5.966  73.280  1.00  0.00    -0.277 A  
HETATM   26  C   UNL     1      -9.664   8.003  72.385  1.00  0.00    -0.305 A  
HETATM   27  C   UNL     1     -10.221   7.290  73.452  1.00  0.00    -0.394 A  
ENDBRANCH  21  22
ENDBRANCH  10  21
ENDBRANCH   7  10
ENDBRANCH   6   7
ENDBRANCH   5   6
BRANCH   5  28
HETATM   28  S   UNL     1     -11.844  11.694  67.993  1.00  0.00    -0.131 S  
HETATM   29  O   UNL     1     -12.448  12.304  66.831  1.00  0.00    -0.221 OA 
HETATM   30  O   UNL     1     -12.214  10.351  68.402  1.00  0.00    -0.099 OA 
BRANCH  28  31
HETATM   31  C   UNL     1     -12.160  12.782  69.355  1.00  0.00    -0.192 A  
HETATM   32  N   UNL     1     -12.841  15.368  72.598  1.00  0.00    -0.364 NA 
HETATM   33  H2  UNL     1     -12.103  15.161  73.271  1.00  0.00     0.000 HD 
HETATM   34  H1  UNL     1     -12.874  16.378  72.458  1.00  0.00     0.000 HD 
HETATM   35  C   UNL     1     -12.398  12.255  70.625  1.00  0.00    -0.375 A  
HETATM   36  C   UNL     1     -12.651  13.123  71.696  1.00  0.00    -0.229 A  
HETATM   37  C   UNL     1     -12.112  14.170  69.169  1.00  0.00    -0.362 A  
HETATM   38  C   UNL     1     -12.360  15.025  70.248  1.00  0.00    -0.392 A  
HETATM   39  C   UNL     1     -12.695  14.509  71.504  1.00  0.00    -0.339 A  
ENDBRANCH  28  31
ENDBRANCH   5  28
ENDBRANCH   4   5
TORSDOF 11
ENDMDL
MODEL      342
REMARK 921   NORMALIZED FREE ENERGY PREDICTED BY IDOCK:   -3.63 KCAL/MOL
REMARK 922        TOTAL FREE ENERGY PREDICTED BY IDOCK:   -7.73 KCAL/MOL
REMARK 923 INTER-LIGAND FREE ENERGY PREDICTED BY IDOCK:   -7.09 KCAL/MOL
REMARK 924 INTRA-LIGAND FREE ENERGY PREDICTED BY IDOCK:   -0.64 KCAL/MOL
REMARK 927      BINDING AFFINITY PREDICTED BY RF-SCORE:    0.00 PKD
ROOT
HETATM    1  C   UNL     1      -5.554   9.769  67.215  1.00  0.00    -0.046 C  
HETATM    2  C   UNL     1      -6.333   9.954  65.912  1.00  0.00    -0.085 C  
HETATM    3  C   UNL     1      -5.363  10.517  64.853  1.00  0.00    -0.147 C  
HETATM    4  C   UNL     1      -6.963   8.650  65.383  1.00  0.00    -0.075 C  
ENDROOT
BRANCH   4   5
HETATM    5  N   UNL     1      -7.948   7.931  66.296  1.00  0.00    -0.099 N  
BRANCH   5   6
HETATM    6  C   UNL     1      -9.417   8.149  65.857  1.00  0.00    -0.012 C  
BRANCH   6   7
HETATM    7  C   UNL     1     -10.441   8.519  66.986  1.00  0.00    -0.292 C  
HETATM    8  H   UNL     1     -11.292   7.581  68.474  1.00  0.00     0.000 HD 
HETATM    9  O   UNL     1     -10.671   7.357  67.791  1.00  0.00    -0.223 OA 
BRANCH   7  10
HETATM   10  C   UNL     1      -9.999   9.757  67.852  1.00  0.00    -0.163 C  
BRANCH  10  11
HETATM   11  N   UNL     1      -9.589  10.918  67.036  1.00  0.00    -0.172 N  
HETATM   12  O   UNL     1      -9.852  12.443  68.727  1.00  0.00    -0.129 OA 
HETATM   13  H   UNL     1      -9.319  10.777  66.063  1.00  0.00     0.000 HD 
HETATM   14  C   UNL     1      -9.567  12.183  67.568  1.00  0.00    -0.179 C  
BRANCH  14  15
HETATM   15  O   UNL     1      -9.214  13.116  66.637  1.00  0.00    -0.246 OA 
BRANCH  15  16
HETATM   16  C   UNL     1     -10.305  13.542  65.798  1.00  0.00    -0.292 C  
HETATM   17  C   UNL     1     -11.330  12.444  65.601  1.00  0.00    -0.387 C  
HETATM   18  O   UNL     1     -12.523  14.427  66.044  1.00  0.00    -0.391 OA 
HETATM   19  C   UNL     1     -12.583  13.225  65.269  1.00  0.00    -0.470 C  
HETATM   20  C   UNL     1     -11.153  14.653  66.414  1.00  0.00    -0.334 C  
ENDBRANCH  15  16
ENDBRANCH  14  15
ENDBRANCH  10  11
BRANCH  10  21
HETATM   21  C   UNL     1     -10.942  10.163  69.015  1.00  0.00    -0.265 C  
BRANCH  21  22
HETATM   22  C   UNL     1     -10.979   9.358  70.299  1.00  0.00    -0.305 A  
HETATM   23  C   UNL     1      -9.806   8.393  72.202  1.00  0.00    -0.372 A  
HETATM   24  C   UNL     1      -9.787   8.972  70.929  1.00  0.00    -0.330 A  
HETATM   25  C   UNL     1     -11.016   8.176  72.859  1.00  0.00    -0.307 A  
HETATM   26  C   UNL     1     -12.191   9.118  70.967  1.00  0.00    -0.302 A  
HETATM   27  C   UNL     1     -12.209   8.531  72.237  1.00  0.00    -0.454 A  
ENDBRANCH  21  22
ENDBRANCH  10  21
ENDBRANCH   7  10
ENDBRANCH   6   7
ENDBRANCH   5   6
BRANCH   5  28
HETATM   28  S   UNL     1      -7.569   6.213  66.380  1.00  0.00    -0.095 S  
HETATM   29  O   UNL     1      -8.512   5.478  65.569  1.00  0.00    -0.133 OA 
HETATM   30  O   UNL     1      -6.142   6.113  66.132  1.00  0.00    -0.027 OA 
BRANCH  28  31
HETATM   31  C   UNL     1      -7.863   5.730  68.059  1.00  0.00    -0.100 A  
HETATM   32  N   UNL     1      -8.506   4.542  72.040  1.00  0.00    -0.111 NA 
HETATM   33  H2  UNL     1      -8.232   3.561  72.078  1.00  0.00     0.000 HD 
HETATM   34  H1  UNL     1      -8.048   5.033  72.808  1.00  0.00     0.000 HD 
HETATM   35  C   UNL     1      -8.751   4.690  68.339  1.00  0.00    -0.111 A  
HETATM   36  C   UNL     1      -8.980   4.319  69.670  1.00  0.00    -0.158 A  
HETATM   37  C   UNL     1      -7.160   6.352  69.100  1.00  0.00    -0.084 A  
HETATM   38  C   UNL     1      -7.393   5.966  70.424  1.00  0.00    -0.087 A  
HETATM   39  C   UNL     1      -8.352   4.993  70.724  1.00  0.00    -0.107 A  
ENDBRANCH  28  31
ENDBRANCH   5  28
ENDBRANCH   4   5
TORSDOF 11
ENDMDL
MODEL      343
REMARK 921   NORMALIZED FREE ENERGY PREDICTED BY IDOCK:   -3.62 KCAL/MOL
REMARK 922        TOTAL FREE ENERGY PREDICTED BY IDOCK:   -7.72 KCAL/MOL
REMARK 923 INTER-LIGAND FREE ENERGY PREDICTED BY IDOCK:   -7.17 KCAL/MOL
REMARK 924 INTRA-LIGAND FREE ENERGY PREDICTED BY IDOCK:   -0.55 KCAL/MOL
REMARK 927      BINDING AFFINITY PREDICTED BY RF-SCORE:    0.00 PKD
ROOT
HETATM    1  C   UNL     1      -8.966   4.422  68.397  1.00  0.00    -0.149 C  
HETATM    2  C   UNL     1      -9.483   5.512  67.457  1.00  0.00    -0.123 C  
HETATM    3  C   UNL     1     -10.398   4.844  66.411  1.00  0.00    -0.328 C  
HETATM    4  C   UNL     1     -10.265   6.626  68.179  1.00  0.00    -0.170 C  
ENDROOT
BRANCH   4   5
HETATM    5  N   UNL     1      -9.529   7.402  69.266  1.00  0.00    -0.154 N  
BRANCH   5   6
HETATM    6  C   UNL     1      -9.215   8.855  68.834  1.00  0.00    -0.140 C  
BRANCH   6   7
HETATM    7  C   UNL     1     -10.274   9.560  67.915  1.00  0.00    -0.205 C  
HETATM    8  H   UNL     1     -12.160  10.049  68.063  1.00  0.00     0.000 HD 
HETATM    9  O   UNL     1     -11.519   9.622  68.619  1.00  0.00     0.063 OA 
BRANCH   7  10
HETATM   10  C   UNL     1      -9.815  10.975  67.403  1.00  0.00    -0.173 C  
BRANCH  10  11
HETATM   11  N   UNL     1     -10.477  11.380  66.146  1.00  0.00    -0.248 N  
HETATM   12  O   UNL     1     -12.275  12.355  67.182  1.00  0.00    -0.492 OA 
HETATM   13  H   UNL     1     -10.032  11.167  65.254  1.00  0.00     0.000 HD 
HETATM   14  C   UNL     1     -11.682  12.039  66.162  1.00  0.00    -0.241 C  
BRANCH  14  15
HETATM   15  O   UNL     1     -12.146  12.272  64.901  1.00  0.00    -0.396 OA 
BRANCH  15  16
HETATM   16  C   UNL     1     -11.691  13.516  64.335  1.00  0.00    -0.407 C  
HETATM   17  C   UNL     1     -12.619  14.665  64.669  1.00  0.00    -0.173 C  
HETATM   18  O   UNL     1     -10.419  15.438  65.005  1.00  0.00    -0.406 OA 
HETATM   19  C   UNL     1     -11.706  15.866  64.549  1.00  0.00    -0.161 C  
HETATM   20  C   UNL     1     -10.366  14.004  64.917  1.00  0.00    -0.409 C  
ENDBRANCH  15  16
ENDBRANCH  14  15
ENDBRANCH  10  11
BRANCH  10  21
HETATM   21  C   UNL     1      -9.797  12.121  68.450  1.00  0.00    -0.200 C  
BRANCH  21  22
HETATM   22  C   UNL     1      -8.875  13.312  68.278  1.00  0.00    -0.168 A  
HETATM   23  C   UNL     1      -8.512  15.716  68.399  1.00  0.00    -0.164 A  
HETATM   24  C   UNL     1      -9.377  14.617  68.372  1.00  0.00    -0.201 A  
HETATM   25  C   UNL     1      -7.134  15.529  68.318  1.00  0.00    -0.116 A  
HETATM   26  C   UNL     1      -7.484  13.141  68.180  1.00  0.00    -0.131 A  
HETATM   27  C   UNL     1      -6.620  14.242  68.200  1.00  0.00    -0.132 A  
ENDBRANCH  21  22
ENDBRANCH  10  21
ENDBRANCH   7  10
ENDBRANCH   6   7
ENDBRANCH   5   6
BRANCH   5  28
HETATM   28  S   UNL     1     -10.450   7.381  70.768  1.00  0.00    -0.214 S  
HETATM   29  O   UNL     1     -10.170   8.585  71.515  1.00  0.00    -0.208 OA 
HETATM   30  O   UNL     1     -11.810   7.043  70.389  1.00  0.00    -0.306 OA 
BRANCH  28  31
HETATM   31  C   UNL     1      -9.801   6.034  71.718  1.00  0.00    -0.165 A  
HETATM   32  N   UNL     1      -8.277   2.871  74.031  1.00  0.00    -0.068 NA 
HETATM   33  H2  UNL     1      -7.887   3.309  74.865  1.00  0.00     0.000 HD 
HETATM   34  H1  UNL     1      -8.883   2.105  74.323  1.00  0.00     0.000 HD 
HETATM   35  C   UNL     1      -8.444   6.003  72.044  1.00  0.00    -0.121 A  
HETATM   36  C   UNL     1      -7.939   4.931  72.792  1.00  0.00    -0.098 A  
HETATM   37  C   UNL     1     -10.659   5.033  72.191  1.00  0.00    -0.259 A  
HETATM   38  C   UNL     1     -10.143   3.973  72.943  1.00  0.00    -0.214 A  
HETATM   39  C   UNL     1      -8.770   3.879  73.194  1.00  0.00    -0.094 A  
ENDBRANCH  28  31
ENDBRANCH   5  28
ENDBRANCH   4   5
TORSDOF 11
ENDMDL
MODEL      344
REMARK 921   NORMALIZED FREE ENERGY PREDICTED BY IDOCK:   -3.59 KCAL/MOL
REMARK 922        TOTAL FREE ENERGY PREDICTED BY IDOCK:   -7.67 KCAL/MOL
REMARK 923 INTER-LIGAND FREE ENERGY PREDICTED BY IDOCK:   -7.40 KCAL/MOL
REMARK 924 INTRA-LIGAND FREE ENERGY PREDICTED BY IDOCK:   -0.27 KCAL/MOL
REMARK 927      BINDING AFFINITY PREDICTED BY RF-SCORE:    0.00 PKD
ROOT
HETATM    1  C   UNL     1      -7.465   4.591  68.551  1.00  0.00    -0.064 C  
HETATM    2  C   UNL     1      -7.967   4.174  69.934  1.00  0.00    -0.055 C  
HETATM    3  C   UNL     1      -6.998   3.112  70.492  1.00  0.00    -0.033 C  
HETATM    4  C   UNL     1      -8.065   5.346  70.930  1.00  0.00    -0.112 C  
ENDROOT
BRANCH   4   5
HETATM    5  N   UNL     1      -8.972   6.511  70.550  1.00  0.00    -0.151 N  
BRANCH   5   6
HETATM    6  C   UNL     1      -8.651   7.064  69.140  1.00  0.00    -0.133 C  
BRANCH   6   7
HETATM    7  C   UNL     1      -7.695   8.306  69.073  1.00  0.00    -0.098 C  
HETATM    8  H   UNL     1      -5.947   8.776  69.811  1.00  0.00     0.000 HD 
HETATM    9  O   UNL     1      -6.526   8.024  69.852  1.00  0.00    -0.035 OA 
BRANCH   7  10
HETATM   10  C   UNL     1      -7.333   8.739  67.604  1.00  0.00    -0.085 C  
BRANCH  10  11
HETATM   11  N   UNL     1      -8.490   9.271  66.855  1.00  0.00    -0.126 N  
HETATM   12  O   UNL     1      -9.261  10.563  68.584  1.00  0.00    -0.156 OA 
HETATM   13  H   UNL     1      -8.637   8.983  65.888  1.00  0.00     0.000 HD 
HETATM   14  C   UNL     1      -9.370  10.146  67.441  1.00  0.00    -0.148 C  
BRANCH  14  15
HETATM   15  O   UNL     1     -10.394  10.472  66.600  1.00  0.00    -0.228 OA 
BRANCH  15  16
HETATM   16  C   UNL     1     -10.008  11.354  65.529  1.00  0.00    -0.239 C  
HETATM   17  C   UNL     1     -10.826  11.117  64.276  1.00  0.00    -0.354 C  
HETATM   18  O   UNL     1     -10.703  13.449  64.586  1.00  0.00    -0.365 OA 
HETATM   19  C   UNL     1     -10.723  12.447  63.564  1.00  0.00    -0.430 C  
HETATM   20  C   UNL     1     -10.295  12.827  65.816  1.00  0.00    -0.281 C  
ENDBRANCH  15  16
ENDBRANCH  14  15
ENDBRANCH  10  11
BRANCH  10  21
HETATM   21  C   UNL     1      -6.069   9.622  67.430  1.00  0.00    -0.059 C  
BRANCH  21  22
HETATM   22  C   UNL     1      -6.032  11.036  67.975  1.00  0.00    -0.049 A  
HETATM   23  C   UNL     1      -6.475  13.411  67.672  1.00  0.00    -0.169 A  
HETATM   24  C   UNL     1      -6.325  12.125  67.142  1.00  0.00    -0.139 A  
HETATM   25  C   UNL     1      -6.320  13.632  69.039  1.00  0.00    -0.102 A  
HETATM   26  C   UNL     1      -5.862  11.277  69.349  1.00  0.00    -0.057 A  
HETATM   27  C   UNL     1      -6.005  12.566  69.876  1.00  0.00    -0.144 A  
ENDBRANCH  21  22
ENDBRANCH  10  21
ENDBRANCH   7  10
ENDBRANCH   6   7
ENDBRANCH   5   6
BRANCH   5  28
HETATM   28  S   UNL     1     -10.664   6.036  70.666  1.00  0.00    -0.291 S  
HETATM   29  O   UNL     1     -11.134   5.628  69.362  1.00  0.00    -0.294 OA 
HETATM   30  O   UNL     1     -10.742   5.132  71.799  1.00  0.00    -0.208 OA 
BRANCH  28  31
HETATM   31  C   UNL     1     -11.556   7.508  71.085  1.00  0.00    -0.282 A  
HETATM   32  N   UNL     1     -13.650  10.996  72.144  1.00  0.00    -0.449 NA 
HETATM   33  H2  UNL     1     -13.954  10.849  73.107  1.00  0.00     0.000 HD 
HETATM   34  H1  UNL     1     -13.199  11.909  72.086  1.00  0.00     0.000 HD 
HETATM   35  C   UNL     1     -12.896   7.425  71.468  1.00  0.00    -0.416 A  
HETATM   36  C   UNL     1     -13.594   8.595  71.794  1.00  0.00    -0.439 A  
HETATM   37  C   UNL     1     -10.901   8.747  71.088  1.00  0.00    -0.335 A  
HETATM   38  C   UNL     1     -11.609   9.906  71.422  1.00  0.00    -0.428 A  
HETATM   39  C   UNL     1     -12.975   9.849  71.714  1.00  0.00    -0.449 A  
ENDBRANCH  28  31
ENDBRANCH   5  28
ENDBRANCH   4   5
TORSDOF 11
ENDMDL
MODEL      345
REMARK 921   NORMALIZED FREE ENERGY PREDICTED BY IDOCK:   -3.59 KCAL/MOL
REMARK 922        TOTAL FREE ENERGY PREDICTED BY IDOCK:   -7.67 KCAL/MOL
REMARK 923 INTER-LIGAND FREE ENERGY PREDICTED BY IDOCK:   -7.26 KCAL/MOL
REMARK 924 INTRA-LIGAND FREE ENERGY PREDICTED BY IDOCK:   -0.41 KCAL/MOL
REMARK 927      BINDING AFFINITY PREDICTED BY RF-SCORE:    0.00 PKD
ROOT
HETATM    1  C   UNL     1      -7.250  15.358  67.756  1.00  0.00    -0.182 C  
HETATM    2  C   UNL     1      -8.759  15.556  67.906  1.00  0.00    -0.163 C  
HETATM    3  C   UNL     1      -9.159  16.801  67.088  1.00  0.00    -0.224 C  
HETATM    4  C   UNL     1      -9.588  14.347  67.429  1.00  0.00    -0.216 C  
ENDROOT
BRANCH   4   5
HETATM    5  N   UNL     1      -9.327  13.010  68.113  1.00  0.00    -0.214 N  
BRANCH   5   6
HETATM    6  C   UNL     1     -10.640  12.304  68.532  1.00  0.00    -0.234 C  
BRANCH   6   7
HETATM    7  C   UNL     1     -11.384  12.886  69.785  1.00  0.00    -0.037 C  
HETATM    8  H   UNL     1     -12.665  14.323  70.116  1.00  0.00     0.000 HD 
HETATM    9  O   UNL     1     -12.215  13.971  69.358  1.00  0.00    -0.336 OA 
BRANCH   7  10
HETATM   10  C   UNL     1     -12.193  11.804  70.591  1.00  0.00    -0.349 C  
BRANCH  10  11
HETATM   11  N   UNL     1     -11.337  10.953  71.441  1.00  0.00     0.390 N  
HETATM   12  O   UNL     1     -11.260   9.211  69.952  1.00  0.00    -0.206 OA 
HETATM   13  H   UNL     1     -11.025  11.301  72.347  1.00  0.00     0.000 HD 
HETATM   14  C   UNL     1     -10.954   9.700  71.029  1.00  0.00    -0.361 C  
BRANCH  14  15
HETATM   15  O   UNL     1     -10.214   9.060  71.980  1.00  0.00    -0.339 OA 
BRANCH  15  16
HETATM   16  C   UNL     1     -10.946   8.056  72.709  1.00  0.00    -0.382 C  
HETATM   17  C   UNL     1     -11.966   7.354  71.836  1.00  0.00    -0.337 C  
HETATM   18  O   UNL     1     -10.863   5.687  73.084  1.00  0.00    -0.245 OA 
HETATM   19  C   UNL     1     -12.144   6.030  72.547  1.00  0.00    -0.060 C  
HETATM   20  C   UNL     1     -10.081   6.889  73.180  1.00  0.00    -0.215 C  
ENDBRANCH  15  16
ENDBRANCH  14  15
ENDBRANCH  10  11
BRANCH  10  21
HETATM   21  C   UNL     1     -13.456  12.300  71.344  1.00  0.00     0.178 C  
BRANCH  21  22
HETATM   22  C   UNL     1     -13.435  13.604  72.116  1.00  0.00    -0.606 A  
HETATM   23  C   UNL     1     -12.242  15.175  73.543  1.00  0.00    -0.598 A  
HETATM   24  C   UNL     1     -12.365  13.905  72.971  1.00  0.00     0.319 A  
HETATM   25  C   UNL     1     -13.192  16.160  73.282  1.00  0.00    -0.559 A  
HETATM   26  C   UNL     1     -14.393  14.603  71.875  1.00  0.00    -0.656 A  
HETATM   27  C   UNL     1     -14.273  15.871  72.454  1.00  0.00    -0.280 A  
ENDBRANCH  21  22
ENDBRANCH  10  21
ENDBRANCH   7  10
ENDBRANCH   6   7
ENDBRANCH   5   6
BRANCH   5  28
HETATM   28  S   UNL     1      -8.358  11.967  67.077  1.00  0.00    -0.174 S  
HETATM   29  O   UNL     1      -9.039  11.784  65.816  1.00  0.00    -0.187 OA 
HETATM   30  O   UNL     1      -7.013  12.509  67.122  1.00  0.00    -0.141 OA 
BRANCH  28  31
HETATM   31  C   UNL     1      -8.331  10.382  67.869  1.00  0.00    -0.114 A  
HETATM   32  N   UNL     1      -8.328   6.634  69.773  1.00  0.00    -0.130 NA 
HETATM   33  H2  UNL     1      -8.876   6.761  70.623  1.00  0.00     0.000 HD 
HETATM   34  H1  UNL     1      -8.675   5.806  69.288  1.00  0.00     0.000 HD 
HETATM   35  C   UNL     1      -7.802  10.257  69.155  1.00  0.00    -0.127 A  
HETATM   36  C   UNL     1      -7.780   8.998  69.772  1.00  0.00    -0.077 A  
HETATM   37  C   UNL     1      -8.892   9.269  67.229  1.00  0.00    -0.132 A  
HETATM   38  C   UNL     1      -8.870   8.021  67.860  1.00  0.00    -0.130 A  
HETATM   39  C   UNL     1      -8.256   7.862  69.107  1.00  0.00    -0.132 A  
ENDBRANCH  28  31
ENDBRANCH   5  28
ENDBRANCH   4   5
TORSDOF 11
ENDMDL
MODEL      346
REMARK 921   NORMALIZED FREE ENERGY PREDICTED BY IDOCK:   -3.59 KCAL/MOL
REMARK 922        TOTAL FREE ENERGY PREDICTED BY IDOCK:   -7.66 KCAL/MOL
REMARK 923 INTER-LIGAND FREE ENERGY PREDICTED BY IDOCK:   -8.41 KCAL/MOL
REMARK 924 INTRA-LIGAND FREE ENERGY PREDICTED BY IDOCK:    0.75 KCAL/MOL
REMARK 927      BINDING AFFINITY PREDICTED BY RF-SCORE:    0.00 PKD
ROOT
HETATM    1  C   UNL     1     -10.274  12.294  65.033  1.00  0.00    -0.312 C  
HETATM    2  C   UNL     1     -11.104  13.481  64.540  1.00  0.00    -0.394 C  
HETATM    3  C   UNL     1     -12.301  12.926  63.743  1.00  0.00    -0.500 C  
HETATM    4  C   UNL     1     -11.624  14.382  65.678  1.00  0.00    -0.347 C  
ENDROOT
BRANCH   4   5
HETATM    5  N   UNL     1     -10.584  15.020  66.592  1.00  0.00    -0.295 N  
BRANCH   5   6
HETATM    6  C   UNL     1      -9.454  14.032  66.969  1.00  0.00    -0.250 C  
BRANCH   6   7
HETATM    7  C   UNL     1      -9.479  13.457  68.428  1.00  0.00    -0.176 C  
HETATM    8  H   UNL     1      -9.830  14.170  70.214  1.00  0.00     0.000 HD 
HETATM    9  O   UNL     1      -9.815  14.518  69.330  1.00  0.00    -0.140 OA 
BRANCH   7  10
HETATM   10  C   UNL     1     -10.434  12.217  68.597  1.00  0.00    -0.208 C  
BRANCH  10  11
HETATM   11  N   UNL     1      -9.801  10.941  68.206  1.00  0.00    -0.164 N  
HETATM   12  O   UNL     1     -11.747   9.982  67.463  1.00  0.00     0.150 OA 
HETATM   13  H   UNL     1      -8.797  10.819  68.334  1.00  0.00     0.000 HD 
HETATM   14  C   UNL     1     -10.545   9.917  67.673  1.00  0.00    -0.270 C  
BRANCH  14  15
HETATM   15  O   UNL     1      -9.783   8.812  67.433  1.00  0.00    -0.157 OA 
BRANCH  15  16
HETATM   16  C   UNL     1      -8.989   8.397  68.561  1.00  0.00    -0.136 C  
HETATM   17  C   UNL     1      -9.694   7.347  69.395  1.00  0.00    -0.159 C  
HETATM   18  O   UNL     1      -7.463   6.635  69.135  1.00  0.00    -0.090 OA 
HETATM   19  C   UNL     1      -8.540   6.646  70.077  1.00  0.00    -0.140 C  
HETATM   20  C   UNL     1      -7.702   7.673  68.170  1.00  0.00    -0.119 C  
ENDBRANCH  15  16
ENDBRANCH  14  15
ENDBRANCH  10  11
BRANCH  10  21
HETATM   21  C   UNL     1     -11.195  12.104  69.944  1.00  0.00     0.018 C  
BRANCH  21  22
HETATM   22  C   UNL     1     -12.197  13.163  70.359  1.00  0.00    -0.389 A  
HETATM   23  C   UNL     1     -13.609  14.155  72.076  1.00  0.00    -0.540 A  
HETATM   24  C   UNL     1     -12.828  13.093  71.609  1.00  0.00    -0.388 A  
HETATM   25  C   UNL     1     -13.786  15.296  71.296  1.00  0.00    -0.570 A  
HETATM   26  C   UNL     1     -12.398  14.313  69.577  1.00  0.00    -0.272 A  
HETATM   27  C   UNL     1     -13.187  15.371  70.043  1.00  0.00     0.263 A  
ENDBRANCH  21  22
ENDBRANCH  10  21
ENDBRANCH   7  10
ENDBRANCH   6   7
ENDBRANCH   5   6
BRANCH   5  28
HETATM   28  S   UNL     1      -9.923  16.475  65.851  1.00  0.00    -0.287 S  
HETATM   29  O   UNL     1      -8.497  16.317  65.682  1.00  0.00    -0.163 OA 
HETATM   30  O   UNL     1     -10.778  16.758  64.712  1.00  0.00    -0.726 OA 
BRANCH  28  31
HETATM   31  C   UNL     1     -10.151  17.772  67.036  1.00  0.00    -0.337 A  
HETATM   32  N   UNL     1     -10.752  20.826  69.862  1.00  0.00    -0.187 NA 
HETATM   33  H2  UNL     1     -11.748  21.043  69.819  1.00  0.00     0.000 HD 
HETATM   34  H1  UNL     1     -10.496  20.685  70.839  1.00  0.00     0.000 HD 
HETATM   35  C   UNL     1     -10.655  19.007  66.627  1.00  0.00    -0.499 A  
HETATM   36  C   UNL     1     -10.827  20.029  67.571  1.00  0.00    -0.236 A  
HETATM   37  C   UNL     1      -9.880  17.539  68.391  1.00  0.00    -0.325 A  
HETATM   38  C   UNL     1     -10.063  18.565  69.323  1.00  0.00    -0.042 A  
HETATM   39  C   UNL     1     -10.475  19.836  68.912  1.00  0.00    -0.021 A  
ENDBRANCH  28  31
ENDBRANCH   5  28
ENDBRANCH   4   5
TORSDOF 11
ENDMDL
MODEL      347
REMARK 921   NORMALIZED FREE ENERGY PREDICTED BY IDOCK:   -3.55 KCAL/MOL
REMARK 922        TOTAL FREE ENERGY PREDICTED BY IDOCK:   -7.61 KCAL/MOL
REMARK 923 INTER-LIGAND FREE ENERGY PREDICTED BY IDOCK:   -7.07 KCAL/MOL
REMARK 924 INTRA-LIGAND FREE ENERGY PREDICTED BY IDOCK:   -0.54 KCAL/MOL
REMARK 927      BINDING AFFINITY PREDICTED BY RF-SCORE:    0.00 PKD
ROOT
HETATM    1  C   UNL     1     -10.789   9.710  71.231  1.00  0.00    -0.366 C  
HETATM    2  C   UNL     1     -11.660  10.457  70.220  1.00  0.00    -0.410 C  
HETATM    3  C   UNL     1     -12.744  11.226  71.001  1.00  0.00    -0.457 C  
HETATM    4  C   UNL     1     -10.869  11.444  69.339  1.00  0.00    -0.162 C  
ENDROOT
BRANCH   4   5
HETATM    5  N   UNL     1      -9.737  10.873  68.493  1.00  0.00    -0.176 N  
BRANCH   5   6
HETATM    6  C   UNL     1     -10.241   9.803  67.493  1.00  0.00    -0.220 C  
BRANCH   6   7
HETATM    7  C   UNL     1      -9.510   8.415  67.522  1.00  0.00    -0.149 C  
HETATM    8  H   UNL     1      -9.335   6.945  68.798  1.00  0.00     0.000 HD 
HETATM    9  O   UNL     1      -9.777   7.786  68.780  1.00  0.00    -0.153 OA 
BRANCH   7  10
HETATM   10  C   UNL     1      -9.883   7.486  66.308  1.00  0.00     0.011 C  
BRANCH  10  11
HETATM   11  N   UNL     1      -9.096   7.776  65.092  1.00  0.00    -0.292 N  
HETATM   12  O   UNL     1      -7.198   8.372  66.231  1.00  0.00    -0.076 OA 
HETATM   13  H   UNL     1      -9.524   7.648  64.175  1.00  0.00     0.000 HD 
HETATM   14  C   UNL     1      -7.797   8.213  65.178  1.00  0.00    -0.118 C  
BRANCH  14  15
HETATM   15  O   UNL     1      -7.270   8.474  63.948  1.00  0.00    -0.092 OA 
BRANCH  15  16
HETATM   16  C   UNL     1      -6.635   7.336  63.334  1.00  0.00    -0.053 C  
HETATM   17  C   UNL     1      -6.253   6.282  64.354  1.00  0.00    -0.030 C  
HETATM   18  O   UNL     1      -7.239   5.155  62.535  1.00  0.00    -0.036 OA 
HETATM   19  C   UNL     1      -6.206   5.023  63.517  1.00  0.00    -0.022 C  
HETATM   20  C   UNL     1      -7.556   6.550  62.403  1.00  0.00    -0.084 C  
ENDBRANCH  15  16
ENDBRANCH  14  15
ENDBRANCH  10  11
BRANCH  10  21
HETATM   21  C   UNL     1      -9.971   5.964  66.598  1.00  0.00    -0.214 C  
BRANCH  21  22
HETATM   22  C   UNL     1      -8.714   5.134  66.762  1.00  0.00    -0.108 A  
HETATM   23  C   UNL     1      -6.686   4.625  68.009  1.00  0.00    -0.054 A  
HETATM   24  C   UNL     1      -7.754   5.481  67.723  1.00  0.00    -0.092 A  
HETATM   25  C   UNL     1      -6.551   3.416  67.329  1.00  0.00    -0.038 A  
HETATM   26  C   UNL     1      -8.555   3.919  66.073  1.00  0.00    -0.112 A  
HETATM   27  C   UNL     1      -7.481   3.067  66.355  1.00  0.00    -0.076 A  
ENDBRANCH  21  22
ENDBRANCH  10  21
ENDBRANCH   7  10
ENDBRANCH   6   7
ENDBRANCH   5   6
BRANCH   5  28
HETATM   28  S   UNL     1      -8.886  12.165  67.651  1.00  0.00    -0.182 S  
HETATM   29  O   UNL     1      -8.700  13.278  68.552  1.00  0.00    -0.151 OA 
HETATM   30  O   UNL     1      -7.748  11.532  67.010  1.00  0.00    -0.144 OA 
BRANCH  28  31
HETATM   31  C   UNL     1      -9.984  12.723  66.378  1.00  0.00    -0.265 A  
HETATM   32  N   UNL     1     -12.635  14.003  63.376  1.00  0.00    -1.030 NA 
HETATM   33  H2  UNL     1     -13.132  13.164  63.078  1.00  0.00     0.000 HD 
HETATM   34  H1  UNL     1     -13.322  14.732  63.568  1.00  0.00     0.000 HD 
HETATM   35  C   UNL     1      -9.890  12.186  65.093  1.00  0.00    -0.200 A  
HETATM   36  C   UNL     1     -10.760  12.638  64.091  1.00  0.00    -0.435 A  
HETATM   37  C   UNL     1     -10.983  13.660  66.675  1.00  0.00    -0.295 A  
HETATM   38  C   UNL     1     -11.849  14.097  65.668  1.00  0.00    -0.377 A  
HETATM   39  C   UNL     1     -11.703  13.639  64.354  1.00  0.00    -0.411 A  
ENDBRANCH  28  31
ENDBRANCH   5  28
ENDBRANCH   4   5
TORSDOF 11
ENDMDL
MODEL      348
REMARK 921   NORMALIZED FREE ENERGY PREDICTED BY IDOCK:   -3.55 KCAL/MOL
REMARK 922        TOTAL FREE ENERGY PREDICTED BY IDOCK:   -7.60 KCAL/MOL
REMARK 923 INTER-LIGAND FREE ENERGY PREDICTED BY IDOCK:   -7.40 KCAL/MOL
REMARK 924 INTRA-LIGAND FREE ENERGY PREDICTED BY IDOCK:   -0.20 KCAL/MOL
REMARK 927      BINDING AFFINITY PREDICTED BY RF-SCORE:    0.00 PKD
ROOT
HETATM    1  C   UNL     1      -6.147   9.194  68.852  1.00  0.00    -0.044 C  
HETATM    2  C   UNL     1      -6.656   8.467  70.098  1.00  0.00    -0.038 C  
HETATM    3  C   UNL     1      -5.817   8.942  71.302  1.00  0.00    -0.050 C  
HETATM    4  C   UNL     1      -8.149   8.716  70.389  1.00  0.00    -0.107 C  
ENDROOT
BRANCH   4   5
HETATM    5  N   UNL     1      -9.146   8.321  69.305  1.00  0.00    -0.150 N  
BRANCH   5   6
HETATM    6  C   UNL     1      -8.501   8.303  67.898  1.00  0.00    -0.132 C  
BRANCH   6   7
HETATM    7  C   UNL     1      -9.128   9.261  66.825  1.00  0.00    -0.140 C  
HETATM    8  H   UNL     1     -10.656   9.200  65.609  1.00  0.00     0.000 HD 
HETATM    9  O   UNL     1     -10.277   8.620  66.259  1.00  0.00    -0.264 OA 
BRANCH   7  10
HETATM   10  C   UNL     1      -9.467  10.692  67.385  1.00  0.00    -0.154 C  
BRANCH  10  11
HETATM   11  N   UNL     1      -8.473  11.715  67.003  1.00  0.00    -0.162 N  
HETATM   12  O   UNL     1      -7.726  12.065  69.141  1.00  0.00     0.033 OA 
HETATM   13  H   UNL     1      -8.369  11.971  66.021  1.00  0.00     0.000 HD 
HETATM   14  C   UNL     1      -7.687  12.325  67.948  1.00  0.00    -0.133 C  
BRANCH  14  15
HETATM   15  O   UNL     1      -6.878  13.275  67.396  1.00  0.00    -0.164 OA 
BRANCH  15  16
HETATM   16  C   UNL     1      -7.354  14.622  67.578  1.00  0.00    -0.197 C  
HETATM   17  C   UNL     1      -8.800  14.775  67.152  1.00  0.00    -0.234 C  
HETATM   18  O   UNL     1      -8.567  15.894  69.211  1.00  0.00    -0.246 OA 
HETATM   19  C   UNL     1      -9.250  15.974  67.956  1.00  0.00    -0.193 C  
HETATM   20  C   UNL     1      -7.412  15.057  69.041  1.00  0.00    -0.156 C  
ENDBRANCH  15  16
ENDBRANCH  14  15
ENDBRANCH  10  11
BRANCH  10  21
HETATM   21  C   UNL     1     -10.924  11.189  67.186  1.00  0.00    -0.350 C  
BRANCH  21  22
HETATM   22  C   UNL     1     -11.287  12.066  66.004  1.00  0.00    -0.398 A  
HETATM   23  C   UNL     1     -11.579  12.329  63.601  1.00  0.00    -0.581 A  
HETATM   24  C   UNL     1     -11.081  11.611  64.694  1.00  0.00    -0.342 A  
HETATM   25  C   UNL     1     -12.277  13.519  63.800  1.00  0.00    -0.449 A  
HETATM   26  C   UNL     1     -11.978  13.275  66.187  1.00  0.00    -0.470 A  
HETATM   27  C   UNL     1     -12.469  13.996  65.092  1.00  0.00    -0.472 A  
ENDBRANCH  21  22
ENDBRANCH  10  21
ENDBRANCH   7  10
ENDBRANCH   6   7
ENDBRANCH   5   6
BRANCH   5  28
HETATM   28  S   UNL     1      -9.874   6.761  69.679  1.00  0.00    -0.166 S  
HETATM   29  O   UNL     1      -9.157   6.151  70.774  1.00  0.00    -0.148 OA 
HETATM   30  O   UNL     1     -11.302   7.008  69.773  1.00  0.00    -0.249 OA 
BRANCH  28  31
HETATM   31  C   UNL     1      -9.593   5.739  68.260  1.00  0.00    -0.121 A  
HETATM   32  N   UNL     1      -8.898   3.366  64.859  1.00  0.00    -0.119 NA 
HETATM   33  H2  UNL     1      -9.005   3.995  64.064  1.00  0.00     0.000 HD 
HETATM   34  H1  UNL     1      -8.020   2.859  64.753  1.00  0.00     0.000 HD 
HETATM   35  C   UNL     1     -10.591   5.600  67.294  1.00  0.00    -0.328 A  
HETATM   36  C   UNL     1     -10.362   4.786  66.177  1.00  0.00    -0.337 A  
HETATM   37  C   UNL     1      -8.350   5.118  68.078  1.00  0.00    -0.097 A  
HETATM   38  C   UNL     1      -8.132   4.314  66.955  1.00  0.00    -0.101 A  
HETATM   39  C   UNL     1      -9.156   4.089  66.030  1.00  0.00    -0.144 A  
ENDBRANCH  28  31
ENDBRANCH   5  28
ENDBRANCH   4   5
TORSDOF 11
ENDMDL
MODEL      349
REMARK 921   NORMALIZED FREE ENERGY PREDICTED BY IDOCK:   -3.54 KCAL/MOL
REMARK 922        TOTAL FREE ENERGY PREDICTED BY IDOCK:   -7.59 KCAL/MOL
REMARK 923 INTER-LIGAND FREE ENERGY PREDICTED BY IDOCK:   -5.84 KCAL/MOL
REMARK 924 INTRA-LIGAND FREE ENERGY PREDICTED BY IDOCK:   -1.75 KCAL/MOL
REMARK 927      BINDING AFFINITY PREDICTED BY RF-SCORE:    0.00 PKD
ROOT
HETATM    1  C   UNL     1     -10.673   7.529  67.444  1.00  0.00    -0.331 C  
HETATM    2  C   UNL     1      -9.923   8.683  68.111  1.00  0.00    -0.210 C  
HETATM    3  C   UNL     1     -10.825   9.258  69.222  1.00  0.00    -0.170 C  
HETATM    4  C   UNL     1      -8.570   8.266  68.719  1.00  0.00    -0.133 C  
ENDROOT
BRANCH   4   5
HETATM    5  N   UNL     1      -7.538   7.659  67.776  1.00  0.00    -0.114 N  
BRANCH   5   6
HETATM    6  C   UNL     1      -6.466   8.689  67.344  1.00  0.00    -0.058 C  
BRANCH   6   7
HETATM    7  C   UNL     1      -6.439  10.047  68.129  1.00  0.00    -0.055 C  
HETATM    8  H   UNL     1      -5.163  10.983  69.275  1.00  0.00     0.000 HD 
HETATM    9  O   UNL     1      -5.179  10.160  68.799  1.00  0.00    -0.036 OA 
BRANCH   7  10
HETATM   10  C   UNL     1      -6.741  11.299  67.225  1.00  0.00    -0.104 C  
BRANCH  10  11
HETATM   11  N   UNL     1      -8.097  11.847  67.427  1.00  0.00    -0.156 N  
HETATM   12  O   UNL     1      -8.913  11.084  65.425  1.00  0.00    -0.198 OA 
HETATM   13  H   UNL     1      -8.312  12.350  68.288  1.00  0.00     0.000 HD 
HETATM   14  C   UNL     1      -9.073  11.690  66.474  1.00  0.00    -0.197 C  
BRANCH  14  15
HETATM   15  O   UNL     1     -10.232  12.316  66.830  1.00  0.00    -0.212 OA 
BRANCH  15  16
HETATM   16  C   UNL     1     -10.993  12.809  65.712  1.00  0.00    -0.277 C  
HETATM   17  C   UNL     1     -12.304  13.431  66.148  1.00  0.00    -0.440 C  
HETATM   18  O   UNL     1     -11.352  14.881  64.554  1.00  0.00    -0.364 OA 
HETATM   19  C   UNL     1     -12.611  14.375  65.007  1.00  0.00    -0.301 C  
HETATM   20  C   UNL     1     -10.324  13.971  64.981  1.00  0.00    -0.409 C  
ENDBRANCH  15  16
ENDBRANCH  14  15
ENDBRANCH  10  11
BRANCH  10  21
HETATM   21  C   UNL     1      -5.659  12.412  67.195  1.00  0.00    -0.048 C  
BRANCH  21  22
HETATM   22  C   UNL     1      -5.801  13.652  68.055  1.00  0.00    -0.132 A  
HETATM   23  C   UNL     1      -6.817  15.831  68.438  1.00  0.00    -0.116 A  
HETATM   24  C   UNL     1      -6.523  14.759  67.588  1.00  0.00    -0.162 A  
HETATM   25  C   UNL     1      -6.381  15.821  69.761  1.00  0.00    -0.173 A  
HETATM   26  C   UNL     1      -5.354  13.663  69.387  1.00  0.00    -0.083 A  
HETATM   27  C   UNL     1      -5.642  14.740  70.233  1.00  0.00    -0.127 A  
ENDBRANCH  21  22
ENDBRANCH  10  21
ENDBRANCH   7  10
ENDBRANCH   6   7
ENDBRANCH   5   6
BRANCH   5  28
HETATM   28  S   UNL     1      -6.787   6.245  68.511  1.00  0.00    -0.077 S  
HETATM   29  O   UNL     1      -6.733   5.176  67.541  1.00  0.00    -0.052 OA 
HETATM   30  O   UNL     1      -5.576   6.731  69.148  1.00  0.00    -0.016 OA 
BRANCH  28  31
HETATM   31  C   UNL     1      -7.895   5.714  69.787  1.00  0.00    -0.087 A  
HETATM   32  N   UNL     1     -10.488   4.397  72.823  1.00  0.00    -0.183 NA 
HETATM   33  H2  UNL     1     -10.516   3.381  72.734  1.00  0.00     0.000 HD 
HETATM   34  H1  UNL     1     -10.303   4.629  73.799  1.00  0.00     0.000 HD 
HETATM   35  C   UNL     1      -9.047   4.999  69.455  1.00  0.00    -0.150 A  
HETATM   36  C   UNL     1      -9.920   4.587  70.471  1.00  0.00    -0.278 A  
HETATM   37  C   UNL     1      -7.586   5.961  71.132  1.00  0.00    -0.100 A  
HETATM   38  C   UNL     1      -8.462   5.537  72.136  1.00  0.00    -0.126 A  
HETATM   39  C   UNL     1      -9.667   4.905  71.811  1.00  0.00    -0.166 A  
ENDBRANCH  28  31
ENDBRANCH   5  28
ENDBRANCH   4   5
TORSDOF 11
ENDMDL
MODEL      350
REMARK 921   NORMALIZED FREE ENERGY PREDICTED BY IDOCK:   -3.52 KCAL/MOL
REMARK 922        TOTAL FREE ENERGY PREDICTED BY IDOCK:   -7.56 KCAL/MOL
REMARK 923 INTER-LIGAND FREE ENERGY PREDICTED BY IDOCK:   -5.48 KCAL/MOL
REMARK 924 INTRA-LIGAND FREE ENERGY PREDICTED BY IDOCK:   -2.07 KCAL/MOL
REMARK 927      BINDING AFFINITY PREDICTED BY RF-SCORE:    0.00 PKD
ROOT
HETATM    1  C   UNL     1     -11.001   9.487  67.879  1.00  0.00    -0.172 C  
HETATM    2  C   UNL     1      -9.513   9.573  68.222  1.00  0.00    -0.143 C  
HETATM    3  C   UNL     1      -9.384  10.186  69.631  1.00  0.00    -0.215 C  
HETATM    4  C   UNL     1      -8.796   8.209  68.193  1.00  0.00    -0.132 C  
ENDROOT
BRANCH   4   5
HETATM    5  N   UNL     1      -8.822   7.435  66.880  1.00  0.00    -0.127 N  
BRANCH   5   6
HETATM    6  C   UNL     1      -7.467   7.509  66.133  1.00  0.00    -0.083 C  
BRANCH   6   7
HETATM    7  C   UNL     1      -7.488   8.148  64.700  1.00  0.00    -0.096 C  
HETATM    8  H   UNL     1      -8.611   7.994  63.109  1.00  0.00     0.000 HD 
HETATM    9  O   UNL     1      -8.599   7.607  63.976  1.00  0.00     0.166 OA 
BRANCH   7  10
HETATM   10  C   UNL     1      -7.505   9.721  64.717  1.00  0.00    -0.130 C  
BRANCH  10  11
HETATM   11  N   UNL     1      -8.808  10.283  65.129  1.00  0.00    -0.173 N  
HETATM   12  O   UNL     1      -9.501  10.746  62.994  1.00  0.00    -0.281 OA 
HETATM   13  H   UNL     1      -9.050  10.313  66.120  1.00  0.00     0.000 HD 
HETATM   14  C   UNL     1      -9.697  10.763  64.200  1.00  0.00    -0.309 C  
BRANCH  14  15
HETATM   15  O   UNL     1     -10.811  11.286  64.789  1.00  0.00    -0.302 OA 
BRANCH  15  16
HETATM   16  C   UNL     1     -10.576  12.532  65.472  1.00  0.00    -0.275 C  
HETATM   17  C   UNL     1     -10.329  13.671  64.503  1.00  0.00    -0.355 C  
HETATM   18  O   UNL     1     -11.816  14.474  66.145  1.00  0.00    -0.374 OA 
HETATM   19  C   UNL     1     -10.720  14.883  65.321  1.00  0.00    -0.393 C  
HETATM   20  C   UNL     1     -11.789  13.041  66.249  1.00  0.00    -0.408 C  
ENDBRANCH  15  16
ENDBRANCH  14  15
ENDBRANCH  10  11
BRANCH  10  21
HETATM   21  C   UNL     1      -6.316  10.422  65.427  1.00  0.00    -0.122 C  
BRANCH  21  22
HETATM   22  C   UNL     1      -6.441  10.895  66.862  1.00  0.00    -0.097 A  
HETATM   23  C   UNL     1      -5.759  10.721  69.192  1.00  0.00    -0.040 A  
HETATM   24  C   UNL     1      -5.805  10.195  67.897  1.00  0.00    -0.041 A  
HETATM   25  C   UNL     1      -6.361  11.945  69.477  1.00  0.00    -0.122 A  
HETATM   26  C   UNL     1      -7.057  12.120  67.168  1.00  0.00    -0.120 A  
HETATM   27  C   UNL     1      -7.017  12.641  68.466  1.00  0.00    -0.094 A  
ENDBRANCH  21  22
ENDBRANCH  10  21
ENDBRANCH   7  10
ENDBRANCH   6   7
ENDBRANCH   5   6
BRANCH   5  28
HETATM   28  S   UNL     1      -9.291   5.761  67.161  1.00  0.00    -0.119 S  
HETATM   29  O   UNL     1      -8.753   5.322  68.427  1.00  0.00    -0.099 OA 
HETATM   30  O   UNL     1     -10.719   5.705  66.903  1.00  0.00    -0.283 OA 
BRANCH  28  31
HETATM   31  C   UNL     1      -8.476   4.809  65.909  1.00  0.00    -0.117 A  
HETATM   32  N   UNL     1      -6.583   2.498  62.951  1.00  0.00    -0.025 NA 
HETATM   33  H2  UNL     1      -6.600   1.541  63.302  1.00  0.00     0.000 HD 
HETATM   34  H1  UNL     1      -6.931   2.496  61.993  1.00  0.00     0.000 HD 
HETATM   35  C   UNL     1      -7.328   4.081  66.225  1.00  0.00    -0.079 A  
HETATM   36  C   UNL     1      -6.688   3.334  65.227  1.00  0.00    -0.041 A  
HETATM   37  C   UNL     1      -9.016   4.742  64.617  1.00  0.00    -0.138 A  
HETATM   38  C   UNL     1      -8.370   3.987  63.633  1.00  0.00    -0.094 A  
HETATM   39  C   UNL     1      -7.167   3.331  63.912  1.00  0.00    -0.054 A  
ENDBRANCH  28  31
ENDBRANCH   5  28
ENDBRANCH   4   5
TORSDOF 11
ENDMDL
MODEL      351
REMARK 921   NORMALIZED FREE ENERGY PREDICTED BY IDOCK:   -3.49 KCAL/MOL
REMARK 922        TOTAL FREE ENERGY PREDICTED BY IDOCK:   -7.51 KCAL/MOL
REMARK 923 INTER-LIGAND FREE ENERGY PREDICTED BY IDOCK:   -7.19 KCAL/MOL
REMARK 924 INTRA-LIGAND FREE ENERGY PREDICTED BY IDOCK:   -0.32 KCAL/MOL
REMARK 927      BINDING AFFINITY PREDICTED BY RF-SCORE:    0.00 PKD
ROOT
HETATM    1  C   UNL     1     -10.974  13.913  67.494  1.00  0.00    -0.288 C  
HETATM    2  C   UNL     1      -9.564  13.330  67.608  1.00  0.00    -0.213 C  
HETATM    3  C   UNL     1      -8.592  14.490  67.906  1.00  0.00    -0.161 C  
HETATM    4  C   UNL     1      -9.430  12.259  68.709  1.00  0.00     0.086 C  
ENDROOT
BRANCH   4   5
HETATM    5  N   UNL     1     -10.324  11.029  68.597  1.00  0.00    -0.185 N  
BRANCH   5   6
HETATM    6  C   UNL     1      -9.550   9.718  68.879  1.00  0.00    -0.167 C  
BRANCH   6   7
HETATM    7  C   UNL     1      -9.686   8.578  67.811  1.00  0.00    -0.162 C  
HETATM    8  H   UNL     1     -11.091   7.930  66.617  1.00  0.00     0.000 HD 
HETATM    9  O   UNL     1     -11.009   8.621  67.264  1.00  0.00    -0.114 OA 
BRANCH   7  10
HETATM   10  C   UNL     1      -8.583   8.635  66.690  1.00  0.00    -0.117 C  
BRANCH  10  11
HETATM   11  N   UNL     1      -8.730   7.571  65.676  1.00  0.00    -0.291 N  
HETATM   12  O   UNL     1      -6.498   7.051  65.619  1.00  0.00    -0.045 OA 
HETATM   13  H   UNL     1      -9.657   7.352  65.309  1.00  0.00     0.000 HD 
HETATM   14  C   UNL     1      -7.640   6.872  65.220  1.00  0.00    -0.099 C  
BRANCH  14  15
HETATM   15  O   UNL     1      -7.983   5.976  64.251  1.00  0.00    -0.115 OA 
BRANCH  15  16
HETATM   16  C   UNL     1      -8.117   4.624  64.731  1.00  0.00    -0.107 C  
HETATM   17  C   UNL     1      -9.559   4.160  64.723  1.00  0.00    -0.176 C  
HETATM   18  O   UNL     1      -8.266   2.403  63.833  1.00  0.00    -0.080 OA 
HETATM   19  C   UNL     1      -9.416   2.656  64.646  1.00  0.00    -0.135 C  
HETATM   20  C   UNL     1      -7.450   3.586  63.831  1.00  0.00    -0.066 C  
ENDBRANCH  15  16
ENDBRANCH  14  15
ENDBRANCH  10  11
BRANCH  10  21
HETATM   21  C   UNL     1      -8.318  10.022  66.046  1.00  0.00    -0.126 C  
BRANCH  21  22
HETATM   22  C   UNL     1      -9.198  10.536  64.924  1.00  0.00    -0.254 A  
HETATM   23  C   UNL     1     -11.078  11.898  64.192  1.00  0.00    -0.441 A  
HETATM   24  C   UNL     1     -10.361  11.264  65.212  1.00  0.00    -0.337 A  
HETATM   25  C   UNL     1     -10.655  11.802  62.868  1.00  0.00     0.010 A  
HETATM   26  C   UNL     1      -8.793  10.435  63.583  1.00  0.00    -0.222 A  
HETATM   27  C   UNL     1      -9.516  11.063  62.563  1.00  0.00    -0.263 A  
ENDBRANCH  21  22
ENDBRANCH  10  21
ENDBRANCH   7  10
ENDBRANCH   6   7
ENDBRANCH   5   6
BRANCH   5  28
HETATM   28  S   UNL     1     -11.713  11.179  69.670  1.00  0.00    -0.371 S  
HETATM   29  O   UNL     1     -11.667  12.462  70.332  1.00  0.00    -0.234 OA 
HETATM   30  O   UNL     1     -12.866  10.794  68.876  1.00  0.00     0.061 OA 
BRANCH  28  31
HETATM   31  C   UNL     1     -11.490   9.953  70.930  1.00  0.00    -0.376 A  
HETATM   32  N   UNL     1     -10.955   6.997  73.871  1.00  0.00    -0.470 NA 
HETATM   33  H2  UNL     1     -11.396   6.158  73.496  1.00  0.00     0.000 HD 
HETATM   34  H1  UNL     1     -10.019   6.751  74.194  1.00  0.00     0.000 HD 
HETATM   35  C   UNL     1     -12.602   9.340  71.509  1.00  0.00    -0.430 A  
HETATM   36  C   UNL     1     -12.416   8.375  72.508  1.00  0.00    -0.337 A  
HETATM   37  C   UNL     1     -10.198   9.558  71.302  1.00  0.00    -0.245 A  
HETATM   38  C   UNL     1     -10.027   8.589  72.296  1.00  0.00    -0.385 A  
HETATM   39  C   UNL     1     -11.132   8.037  72.952  1.00  0.00    -0.331 A  
ENDBRANCH  28  31
ENDBRANCH   5  28
ENDBRANCH   4   5
TORSDOF 11
ENDMDL
MODEL      352
REMARK 921   NORMALIZED FREE ENERGY PREDICTED BY IDOCK:   -3.49 KCAL/MOL
REMARK 922        TOTAL FREE ENERGY PREDICTED BY IDOCK:   -7.50 KCAL/MOL
REMARK 923 INTER-LIGAND FREE ENERGY PREDICTED BY IDOCK:   -5.84 KCAL/MOL
REMARK 924 INTRA-LIGAND FREE ENERGY PREDICTED BY IDOCK:   -1.65 KCAL/MOL
REMARK 927      BINDING AFFINITY PREDICTED BY RF-SCORE:    0.00 PKD
ROOT
HETATM    1  C   UNL     1      -9.322   4.175  65.829  1.00  0.00    -0.162 C  
HETATM    2  C   UNL     1      -8.330   3.972  66.975  1.00  0.00    -0.100 C  
HETATM    3  C   UNL     1      -7.779   2.535  66.879  1.00  0.00    -0.071 C  
HETATM    4  C   UNL     1      -7.155   4.969  66.954  1.00  0.00    -0.072 C  
ENDROOT
BRANCH   4   5
HETATM    5  N   UNL     1      -7.498   6.453  67.029  1.00  0.00    -0.083 N  
BRANCH   5   6
HETATM    6  C   UNL     1      -7.301   7.026  68.454  1.00  0.00    -0.100 C  
BRANCH   6   7
HETATM    7  C   UNL     1      -8.597   7.468  69.219  1.00  0.00    -0.136 C  
HETATM    8  H   UNL     1     -10.503   7.050  69.114  1.00  0.00     0.000 HD 
HETATM    9  O   UNL     1      -9.719   6.783  68.650  1.00  0.00    -0.131 OA 
BRANCH   7  10
HETATM   10  C   UNL     1      -8.507   7.258  70.776  1.00  0.00    -0.132 C  
BRANCH  10  11
HETATM   11  N   UNL     1      -9.826   7.261  71.440  1.00  0.00    -0.185 N  
HETATM   12  O   UNL     1      -9.305   8.952  72.897  1.00  0.00    -0.169 OA 
HETATM   13  H   UNL     1     -10.547   6.611  71.126  1.00  0.00     0.000 HD 
HETATM   14  C   UNL     1     -10.097   8.126  72.472  1.00  0.00    -0.300 C  
BRANCH  14  15
HETATM   15  O   UNL     1     -11.348   7.930  72.979  1.00  0.00    -0.408 OA 
BRANCH  15  16
HETATM   16  C   UNL     1     -12.271   8.994  72.678  1.00  0.00    -0.015 C  
HETATM   17  C   UNL     1     -12.031   9.580  71.302  1.00  0.00    -0.445 C  
HETATM   18  O   UNL     1     -14.358   9.295  71.532  1.00  0.00    -0.150 OA 
HETATM   19  C   UNL     1     -13.381  10.170  70.960  1.00  0.00    -0.261 C  
HETATM   20  C   UNL     1     -13.723   8.534  72.573  1.00  0.00    -0.221 C  
ENDBRANCH  15  16
ENDBRANCH  14  15
ENDBRANCH  10  11
BRANCH  10  21
HETATM   21  C   UNL     1      -7.607   6.094  71.270  1.00  0.00    -0.094 C  
BRANCH  21  22
HETATM   22  C   UNL     1      -7.902   4.663  70.865  1.00  0.00    -0.077 A  
HETATM   23  C   UNL     1      -7.237   2.322  70.806  1.00  0.00    -0.033 A  
HETATM   24  C   UNL     1      -6.922   3.671  71.000  1.00  0.00    -0.033 A  
HETATM   25  C   UNL     1      -8.533   1.945  70.459  1.00  0.00    -0.084 A  
HETATM   26  C   UNL     1      -9.201   4.269  70.499  1.00  0.00    -0.192 A  
HETATM   27  C   UNL     1      -9.513   2.919  70.298  1.00  0.00    -0.200 A  
ENDBRANCH  21  22
ENDBRANCH  10  21
ENDBRANCH   7  10
ENDBRANCH   6   7
ENDBRANCH   5   6
BRANCH   5  28
HETATM   28  S   UNL     1      -6.554   7.363  65.853  1.00  0.00    -0.046 S  
HETATM   29  O   UNL     1      -5.564   8.152  66.546  1.00  0.00    -0.031 OA 
HETATM   30  O   UNL     1      -6.160   6.402  64.838  1.00  0.00    -0.029 OA 
BRANCH  28  31
HETATM   31  C   UNL     1      -7.681   8.508  65.106  1.00  0.00    -0.102 A  
HETATM   32  N   UNL     1     -10.393  11.175  63.314  1.00  0.00    -0.593 NA 
HETATM   33  H2  UNL     1     -10.770  10.677  62.508  1.00  0.00     0.000 HD 
HETATM   34  H1  UNL     1     -11.172  11.558  63.849  1.00  0.00     0.000 HD 
HETATM   35  C   UNL     1      -7.484   8.916  63.785  1.00  0.00    -0.112 A  
HETATM   36  C   UNL     1      -8.378   9.826  63.204  1.00  0.00    -0.166 A  
HETATM   37  C   UNL     1      -8.799   8.959  65.820  1.00  0.00    -0.223 A  
HETATM   38  C   UNL     1      -9.686   9.861  65.225  1.00  0.00    -0.383 A  
HETATM   39  C   UNL     1      -9.448  10.352  63.938  1.00  0.00    -0.304 A  
ENDBRANCH  28  31
ENDBRANCH   5  28
ENDBRANCH   4   5
TORSDOF 11
ENDMDL
MODEL      353
REMARK 921   NORMALIZED FREE ENERGY PREDICTED BY IDOCK:   -3.43 KCAL/MOL
REMARK 922        TOTAL FREE ENERGY PREDICTED BY IDOCK:   -7.41 KCAL/MOL
REMARK 923 INTER-LIGAND FREE ENERGY PREDICTED BY IDOCK:   -7.07 KCAL/MOL
REMARK 924 INTRA-LIGAND FREE ENERGY PREDICTED BY IDOCK:   -0.34 KCAL/MOL
REMARK 927      BINDING AFFINITY PREDICTED BY RF-SCORE:    0.00 PKD
ROOT
HETATM    1  C   UNL     1     -10.760   6.737  67.199  1.00  0.00    -0.441 C  
HETATM    2  C   UNL     1     -10.180   5.769  68.231  1.00  0.00    -0.235 C  
HETATM    3  C   UNL     1      -9.646   4.534  67.478  1.00  0.00    -0.211 C  
HETATM    4  C   UNL     1      -9.045   6.381  69.075  1.00  0.00    -0.130 C  
ENDROOT
BRANCH   4   5
HETATM    5  N   UNL     1      -9.374   7.626  69.890  1.00  0.00    -0.151 N  
BRANCH   5   6
HETATM    6  C   UNL     1      -9.763   8.825  68.991  1.00  0.00    -0.172 C  
BRANCH   6   7
HETATM    7  C   UNL     1      -9.259  10.239  69.447  1.00  0.00    -0.189 C  
HETATM    8  H   UNL     1      -7.599  10.973  70.172  1.00  0.00     0.000 HD 
HETATM    9  O   UNL     1      -7.905  10.117  69.896  1.00  0.00    -0.167 OA 
BRANCH   7  10
HETATM   10  C   UNL     1      -9.414  11.346  68.339  1.00  0.00    -0.194 C  
BRANCH  10  11
HETATM   11  N   UNL     1      -9.829  12.655  68.882  1.00  0.00    -0.414 N  
HETATM   12  O   UNL     1     -11.321  13.097  67.199  1.00  0.00    -0.289 OA 
HETATM   13  H   UNL     1      -9.417  12.991  69.753  1.00  0.00     0.000 HD 
HETATM   14  C   UNL     1     -10.760  13.428  68.233  1.00  0.00    -0.258 C  
BRANCH  14  15
HETATM   15  O   UNL     1     -10.960  14.618  68.868  1.00  0.00    -0.235 OA 
BRANCH  15  16
HETATM   16  C   UNL     1     -10.344  15.740  68.208  1.00  0.00    -0.239 C  
HETATM   17  C   UNL     1     -11.113  17.025  68.436  1.00  0.00    -0.164 C  
HETATM   18  O   UNL     1      -8.830  17.528  68.734  1.00  0.00    -0.278 OA 
HETATM   19  C   UNL     1     -10.050  18.082  68.230  1.00  0.00    -0.385 C  
HETATM   20  C   UNL     1      -8.967  16.097  68.764  1.00  0.00    -0.236 C  
ENDBRANCH  15  16
ENDBRANCH  14  15
ENDBRANCH  10  11
BRANCH  10  21
HETATM   21  C   UNL     1      -8.251  11.478  67.320  1.00  0.00    -0.155 C  
BRANCH  21  22
HETATM   22  C   UNL     1      -7.917  10.340  66.376  1.00  0.00    -0.121 A  
HETATM   23  C   UNL     1      -8.617   8.779  64.644  1.00  0.00    -0.140 A  
HETATM   24  C   UNL     1      -8.930   9.700  65.649  1.00  0.00    -0.208 A  
HETATM   25  C   UNL     1      -7.288   8.471  64.359  1.00  0.00    -0.097 A  
HETATM   26  C   UNL     1      -6.582  10.007  66.089  1.00  0.00    -0.088 A  
HETATM   27  C   UNL     1      -6.271   9.080  65.088  1.00  0.00    -0.060 A  
ENDBRANCH  21  22
ENDBRANCH  10  21
ENDBRANCH   7  10
ENDBRANCH   6   7
ENDBRANCH   5   6
BRANCH   5  28
HETATM   28  S   UNL     1     -10.648   7.280  71.056  1.00  0.00    -0.222 S  
HETATM   29  O   UNL     1     -10.807   8.412  71.938  1.00  0.00    -0.257 OA 
HETATM   30  O   UNL     1     -11.769   6.784  70.277  1.00  0.00    -0.363 OA 
BRANCH  28  31
HETATM   31  C   UNL     1     -10.047   5.944  72.052  1.00  0.00    -0.189 A  
HETATM   32  N   UNL     1      -8.661   2.792  74.465  1.00  0.00    -0.074 NA 
HETATM   33  H2  UNL     1      -8.696   3.147  75.420  1.00  0.00     0.000 HD 
HETATM   34  H1  UNL     1      -9.121   1.882  74.443  1.00  0.00     0.000 HD 
HETATM   35  C   UNL     1      -8.916   6.125  72.850  1.00  0.00    -0.125 A  
HETATM   36  C   UNL     1      -8.445   5.061  73.631  1.00  0.00    -0.105 A  
HETATM   37  C   UNL     1     -10.739   4.726  72.083  1.00  0.00    -0.150 A  
HETATM   38  C   UNL     1     -10.261   3.675  72.872  1.00  0.00    -0.236 A  
HETATM   39  C   UNL     1      -9.076   3.812  73.601  1.00  0.00    -0.094 A  
ENDBRANCH  28  31
ENDBRANCH   5  28
ENDBRANCH   4   5
TORSDOF 11
ENDMDL
MODEL      354
REMARK 921   NORMALIZED FREE ENERGY PREDICTED BY IDOCK:   -3.41 KCAL/MOL
REMARK 922        TOTAL FREE ENERGY PREDICTED BY IDOCK:   -7.37 KCAL/MOL
REMARK 923 INTER-LIGAND FREE ENERGY PREDICTED BY IDOCK:   -5.11 KCAL/MOL
REMARK 924 INTRA-LIGAND FREE ENERGY PREDICTED BY IDOCK:   -2.26 KCAL/MOL
REMARK 927      BINDING AFFINITY PREDICTED BY RF-SCORE:    0.00 PKD
ROOT
HETATM    1  C   UNL     1     -11.383   8.542  68.636  1.00  0.00     0.707 C  
HETATM    2  C   UNL     1     -10.015   9.026  69.118  1.00  0.00    -0.187 C  
HETATM    3  C   UNL     1     -10.225   9.827  70.419  1.00  0.00    -0.343 C  
HETATM    4  C   UNL     1      -9.015   7.882  69.381  1.00  0.00    -0.145 C  
ENDROOT
BRANCH   4   5
HETATM    5  N   UNL     1      -8.684   6.964  68.210  1.00  0.00    -0.124 N  
BRANCH   5   6
HETATM    6  C   UNL     1      -7.275   7.243  67.631  1.00  0.00    -0.091 C  
BRANCH   6   7
HETATM    7  C   UNL     1      -7.197   7.571  66.099  1.00  0.00    -0.074 C  
HETATM    8  H   UNL     1      -8.188   7.049  64.498  1.00  0.00     0.000 HD 
HETATM    9  O   UNL     1      -8.236   6.851  65.425  1.00  0.00    -0.128 OA 
BRANCH   7  10
HETATM   10  C   UNL     1      -7.249   9.112  65.785  1.00  0.00    -0.089 C  
BRANCH  10  11
HETATM   11  N   UNL     1      -8.483   9.762  66.272  1.00  0.00    -0.123 N  
HETATM   12  O   UNL     1      -9.342  10.135  64.179  1.00  0.00    -0.250 OA 
HETATM   13  H   UNL     1      -8.635   9.862  67.275  1.00  0.00     0.000 HD 
HETATM   14  C   UNL     1      -9.428  10.232  65.394  1.00  0.00    -0.232 C  
BRANCH  14  15
HETATM   15  O   UNL     1     -10.460  10.843  66.043  1.00  0.00    -0.251 OA 
BRANCH  15  16
HETATM   16  C   UNL     1     -10.080  12.050  66.732  1.00  0.00    -0.203 C  
HETATM   17  C   UNL     1     -10.064  13.250  65.806  1.00  0.00    -0.293 C  
HETATM   18  O   UNL     1     -11.139  13.926  67.791  1.00  0.00    -0.251 OA 
HETATM   19  C   UNL     1     -10.262  14.403  66.766  1.00  0.00    -0.270 C  
HETATM   20  C   UNL     1     -11.084  12.490  67.795  1.00  0.00    -0.249 C  
ENDBRANCH  15  16
ENDBRANCH  14  15
ENDBRANCH  10  11
BRANCH  10  21
HETATM   21  C   UNL     1      -5.980   9.935  66.131  1.00  0.00    -0.065 C  
BRANCH  21  22
HETATM   22  C   UNL     1      -5.950  10.836  67.350  1.00  0.00    -0.049 A  
HETATM   23  C   UNL     1      -6.131  13.064  68.315  1.00  0.00    -0.086 A  
HETATM   24  C   UNL     1      -5.972  12.230  67.203  1.00  0.00    -0.117 A  
HETATM   25  C   UNL     1      -6.255  12.519  69.591  1.00  0.00    -0.126 A  
HETATM   26  C   UNL     1      -6.060  10.302  68.645  1.00  0.00    -0.047 A  
HETATM   27  C   UNL     1      -6.211  11.139  69.757  1.00  0.00    -0.119 A  
ENDBRANCH  21  22
ENDBRANCH  10  21
ENDBRANCH   7  10
ENDBRANCH   6   7
ENDBRANCH   5   6
BRANCH   5  28
HETATM   28  S   UNL     1      -8.840   5.276  68.689  1.00  0.00    -0.097 S  
HETATM   29  O   UNL     1      -9.876   4.652  67.899  1.00  0.00    -0.158 OA 
HETATM   30  O   UNL     1      -7.490   4.743  68.696  1.00  0.00    -0.064 OA 
BRANCH  28  31
HETATM   31  C   UNL     1      -9.424   5.296  70.362  1.00  0.00    -0.166 A  
HETATM   32  N   UNL     1     -10.819   5.278  74.327  1.00  0.00    -0.417 NA 
HETATM   33  H2  UNL     1     -11.549   4.567  74.355  1.00  0.00     0.000 HD 
HETATM   34  H1  UNL     1     -10.177   5.110  75.102  1.00  0.00     0.000 HD 
HETATM   35  C   UNL     1     -10.765   5.576  70.627  1.00  0.00    -0.303 A  
HETATM   36  C   UNL     1     -11.216   5.594  71.954  1.00  0.00    -0.246 A  
HETATM   37  C   UNL     1      -8.553   4.976  71.412  1.00  0.00    -0.132 A  
HETATM   38  C   UNL     1      -9.018   4.991  72.730  1.00  0.00    -0.124 A  
HETATM   39  C   UNL     1     -10.335   5.363  73.017  1.00  0.00    -0.197 A  
ENDBRANCH  28  31
ENDBRANCH   5  28
ENDBRANCH   4   5
TORSDOF 11
ENDMDL
MODEL      355
REMARK 921   NORMALIZED FREE ENERGY PREDICTED BY IDOCK:   -3.39 KCAL/MOL
REMARK 922        TOTAL FREE ENERGY PREDICTED BY IDOCK:   -7.34 KCAL/MOL
REMARK 923 INTER-LIGAND FREE ENERGY PREDICTED BY IDOCK:   -6.56 KCAL/MOL
REMARK 924 INTRA-LIGAND FREE ENERGY PREDICTED BY IDOCK:   -0.78 KCAL/MOL
REMARK 927      BINDING AFFINITY PREDICTED BY RF-SCORE:    0.00 PKD
ROOT
HETATM    1  C   UNL     1     -11.862  11.624  67.876  1.00  0.00    -0.273 C  
HETATM    2  C   UNL     1     -11.275  12.756  68.721  1.00  0.00    -0.327 C  
HETATM    3  C   UNL     1     -12.140  12.900  69.989  1.00  0.00    -0.357 C  
HETATM    4  C   UNL     1      -9.808  12.520  69.129  1.00  0.00     0.448 C  
ENDROOT
BRANCH   4   5
HETATM    5  N   UNL     1      -8.791  12.341  68.007  1.00  0.00    -0.176 N  
BRANCH   5   6
HETATM    6  C   UNL     1      -7.736  13.473  67.989  1.00  0.00    -0.143 C  
BRANCH   6   7
HETATM    7  C   UNL     1      -7.678  14.400  69.254  1.00  0.00    -0.002 C  
HETATM    8  H   UNL     1      -6.368  14.795  70.649  1.00  0.00     0.000 HD 
HETATM    9  O   UNL     1      -6.403  14.233  69.883  1.00  0.00    -0.135 OA 
BRANCH   7  10
HETATM   10  C   UNL     1      -7.986  15.910  68.937  1.00  0.00    -0.204 C  
BRANCH  10  11
HETATM   11  N   UNL     1      -6.771  16.707  68.673  1.00  0.00    -0.155 N  
HETATM   12  O   UNL     1      -6.950  16.581  66.391  1.00  0.00    -0.164 OA 
HETATM   13  H   UNL     1      -6.232  17.075  69.457  1.00  0.00     0.000 HD 
HETATM   14  C   UNL     1      -6.356  16.960  67.389  1.00  0.00    -0.156 C  
BRANCH  14  15
HETATM   15  O   UNL     1      -5.187  17.664  67.365  1.00  0.00    -0.124 OA 
BRANCH  15  16
HETATM   16  C   UNL     1      -5.339  19.054  67.708  1.00  0.00    -0.170 C  
HETATM   17  C   UNL     1      -6.400  19.734  66.866  1.00  0.00    -0.198 C  
HETATM   18  O   UNL     1      -6.743  20.423  69.092  1.00  0.00    -0.230 OA 
HETATM   19  C   UNL     1      -6.817  20.893  67.743  1.00  0.00    -0.294 C  
HETATM   20  C   UNL     1      -5.870  19.282  69.122  1.00  0.00    -0.228 C  
ENDBRANCH  15  16
ENDBRANCH  14  15
ENDBRANCH  10  11
BRANCH  10  21
HETATM   21  C   UNL     1      -9.105  16.188  67.897  1.00  0.00    -0.192 C  
BRANCH  21  22
HETATM   22  C   UNL     1      -9.737  17.562  67.790  1.00  0.00    -0.274 A  
HETATM   23  C   UNL     1     -10.120  19.772  68.736  1.00  0.00    -0.523 A  
HETATM   24  C   UNL     1      -9.707  18.444  68.880  1.00  0.00    -0.318 A  
HETATM   25  C   UNL     1     -10.583  20.237  67.507  1.00  0.00    -0.223 A  
HETATM   26  C   UNL     1     -10.222  18.041  66.561  1.00  0.00    -0.383 A  
HETATM   27  C   UNL     1     -10.642  19.368  66.421  1.00  0.00    -0.558 A  
ENDBRANCH  21  22
ENDBRANCH  10  21
ENDBRANCH   7  10
ENDBRANCH   6   7
ENDBRANCH   5   6
BRANCH   5  28
HETATM   28  S   UNL     1      -8.016  10.764  68.125  1.00  0.00    -0.119 S  
HETATM   29  O   UNL     1      -6.611  10.944  68.406  1.00  0.00    -0.057 OA 
HETATM   30  O   UNL     1      -8.855   9.980  69.013  1.00  0.00    -0.139 OA 
BRANCH  28  31
HETATM   31  C   UNL     1      -8.120  10.047  66.509  1.00  0.00    -0.119 A  
HETATM   32  N   UNL     1      -8.396   8.402  62.649  1.00  0.00    -0.309 NA 
HETATM   33  H2  UNL     1      -9.266   8.765  62.261  1.00  0.00     0.000 HD 
HETATM   34  H1  UNL     1      -7.652   8.552  61.968  1.00  0.00     0.000 HD 
HETATM   35  C   UNL     1      -9.210   9.243  66.172  1.00  0.00    -0.249 A  
HETATM   36  C   UNL     1      -9.281   8.677  64.892  1.00  0.00     0.225 A  
HETATM   37  C   UNL     1      -7.138  10.333  65.551  1.00  0.00    -0.142 A  
HETATM   38  C   UNL     1      -7.225   9.767  64.275  1.00  0.00    -0.129 A  
HETATM   39  C   UNL     1      -8.261   8.883  63.956  1.00  0.00    -0.168 A  
ENDBRANCH  28  31
ENDBRANCH   5  28
ENDBRANCH   4   5
TORSDOF 11
ENDMDL
MODEL      356
REMARK 921   NORMALIZED FREE ENERGY PREDICTED BY IDOCK:   -3.38 KCAL/MOL
REMARK 922        TOTAL FREE ENERGY PREDICTED BY IDOCK:   -7.33 KCAL/MOL
REMARK 923 INTER-LIGAND FREE ENERGY PREDICTED BY IDOCK:   -7.35 KCAL/MOL
REMARK 924 INTRA-LIGAND FREE ENERGY PREDICTED BY IDOCK:    0.02 KCAL/MOL
REMARK 927      BINDING AFFINITY PREDICTED BY RF-SCORE:    0.00 PKD
ROOT
HETATM    1  C   UNL     1     -11.304  10.080  70.872  1.00  0.00    -0.439 C  
HETATM    2  C   UNL     1     -11.550  11.075  69.737  1.00  0.00    -0.401 C  
HETATM    3  C   UNL     1     -12.091  12.379  70.355  1.00  0.00    -0.381 C  
HETATM    4  C   UNL     1     -10.286  11.388  68.911  1.00  0.00    -0.184 C  
ENDROOT
BRANCH   4   5
HETATM    5  N   UNL     1      -9.593  10.217  68.225  1.00  0.00    -0.139 N  
BRANCH   5   6
HETATM    6  C   UNL     1     -10.603   9.239  67.578  1.00  0.00    -0.262 C  
BRANCH   6   7
HETATM    7  C   UNL     1     -10.344   7.708  67.804  1.00  0.00    -0.219 C  
HETATM    8  H   UNL     1     -10.010   6.156  66.664  1.00  0.00     0.000 HD 
HETATM    9  O   UNL     1     -10.167   7.083  66.528  1.00  0.00    -0.166 OA 
BRANCH   7  10
HETATM   10  C   UNL     1      -9.141   7.414  68.776  1.00  0.00    -0.131 C  
BRANCH  10  11
HETATM   11  N   UNL     1      -9.564   7.211  70.176  1.00  0.00    -0.168 N  
HETATM   12  O   UNL     1     -11.261   5.760  69.656  1.00  0.00    -0.353 OA 
HETATM   13  H   UNL     1      -9.063   7.688  70.925  1.00  0.00     0.000 HD 
HETATM   14  C   UNL     1     -10.620   6.389  70.484  1.00  0.00    -0.239 C  
BRANCH  14  15
HETATM   15  O   UNL     1     -10.881   6.383  71.823  1.00  0.00    -0.227 OA 
BRANCH  15  16
HETATM   16  C   UNL     1     -10.066   5.458  72.569  1.00  0.00    -0.175 C  
HETATM   17  C   UNL     1     -10.184   4.043  72.040  1.00  0.00    -0.186 C  
HETATM   18  O   UNL     1      -7.894   4.448  72.418  1.00  0.00    -0.087 OA 
HETATM   19  C   UNL     1      -8.884   3.417  72.494  1.00  0.00    -0.085 C  
HETATM   20  C   UNL     1      -8.567   5.718  72.435  1.00  0.00    -0.121 C  
ENDBRANCH  15  16
ENDBRANCH  14  15
ENDBRANCH  10  11
BRANCH  10  21
HETATM   21  C   UNL     1      -8.119   6.342  68.312  1.00  0.00    -0.112 C  
BRANCH  21  22
HETATM   22  C   UNL     1      -8.514   4.881  68.232  1.00  0.00    -0.098 A  
HETATM   23  C   UNL     1      -9.534   3.050  66.992  1.00  0.00    -0.097 A  
HETATM   24  C   UNL     1      -9.317   4.419  67.179  1.00  0.00    -0.173 A  
HETATM   25  C   UNL     1      -8.965   2.122  67.861  1.00  0.00    -0.192 A  
HETATM   26  C   UNL     1      -7.960   3.933  69.109  1.00  0.00    -0.058 A  
HETATM   27  C   UNL     1      -8.184   2.564  68.925  1.00  0.00    -0.071 A  
ENDBRANCH  21  22
ENDBRANCH  10  21
ENDBRANCH   7  10
ENDBRANCH   6   7
ENDBRANCH   5   6
BRANCH   5  28
HETATM   28  S   UNL     1      -8.435  10.800  67.033  1.00  0.00    -0.130 S  
HETATM   29  O   UNL     1      -7.668  11.882  67.604  1.00  0.00    -0.123 OA 
HETATM   30  O   UNL     1      -7.775   9.616  66.515  1.00  0.00    -0.097 OA 
BRANCH  28  31
HETATM   31  C   UNL     1      -9.398  11.501  65.721  1.00  0.00    -0.221 A  
HETATM   32  N   UNL     1     -11.738  13.157  62.646  1.00  0.00    -0.196 NA 
HETATM   33  H2  UNL     1     -12.633  12.671  62.695  1.00  0.00     0.000 HD 
HETATM   34  H1  UNL     1     -11.919  14.160  62.615  1.00  0.00     0.000 HD 
HETATM   35  C   UNL     1      -9.888  10.681  64.703  1.00  0.00    -0.382 A  
HETATM   36  C   UNL     1     -10.645  11.245  63.667  1.00  0.00    -0.453 A  
HETATM   37  C   UNL     1      -9.715  12.866  65.737  1.00  0.00    -0.155 A  
HETATM   38  C   UNL     1     -10.477  13.414  64.700  1.00  0.00    -0.428 A  
HETATM   39  C   UNL     1     -10.893  12.623  63.625  1.00  0.00    -0.395 A  
ENDBRANCH  28  31
ENDBRANCH   5  28
ENDBRANCH   4   5
TORSDOF 11
ENDMDL
MODEL      357
REMARK 921   NORMALIZED FREE ENERGY PREDICTED BY IDOCK:   -3.37 KCAL/MOL
REMARK 922        TOTAL FREE ENERGY PREDICTED BY IDOCK:   -7.31 KCAL/MOL
REMARK 923 INTER-LIGAND FREE ENERGY PREDICTED BY IDOCK:   -6.62 KCAL/MOL
REMARK 924 INTRA-LIGAND FREE ENERGY PREDICTED BY IDOCK:   -0.69 KCAL/MOL
REMARK 927      BINDING AFFINITY PREDICTED BY RF-SCORE:    0.00 PKD
ROOT
HETATM    1  C   UNL     1      -7.861   4.068  69.289  1.00  0.00    -0.056 C  
HETATM    2  C   UNL     1      -7.490   5.153  70.302  1.00  0.00    -0.067 C  
HETATM    3  C   UNL     1      -5.971   5.071  70.553  1.00  0.00    -0.018 C  
HETATM    4  C   UNL     1      -7.854   6.577  69.838  1.00  0.00    -0.115 C  
ENDROOT
BRANCH   4   5
HETATM    5  N   UNL     1      -9.320   6.856  69.526  1.00  0.00    -0.148 N  
BRANCH   5   6
HETATM    6  C   UNL     1      -9.854   5.958  68.383  1.00  0.00    -0.134 C  
BRANCH   6   7
HETATM    7  C   UNL     1     -10.382   6.691  67.101  1.00  0.00    -0.252 C  
HETATM    8  H   UNL     1     -11.233   8.407  66.713  1.00  0.00     0.000 HD 
HETATM    9  O   UNL     1     -10.913   7.963  67.489  1.00  0.00    -0.141 OA 
BRANCH   7  10
HETATM   10  C   UNL     1      -9.300   6.825  65.966  1.00  0.00     0.016 C  
BRANCH  10  11
HETATM   11  N   UNL     1      -9.120   8.214  65.498  1.00  0.00    -0.396 N  
HETATM   12  O   UNL     1      -7.615   8.775  67.133  1.00  0.00    -0.087 OA 
HETATM   13  H   UNL     1      -9.629   8.536  64.674  1.00  0.00     0.000 HD 
HETATM   14  C   UNL     1      -8.280   9.079  66.154  1.00  0.00    -0.115 C  
BRANCH  14  15
HETATM   15  O   UNL     1      -8.299  10.323  65.596  1.00  0.00    -0.145 OA 
BRANCH  15  16
HETATM   16  C   UNL     1      -9.550  11.017  65.764  1.00  0.00    -0.222 C  
HETATM   17  C   UNL     1      -9.383  12.306  66.542  1.00  0.00    -0.230 C  
HETATM   18  O   UNL     1     -10.783  12.784  64.707  1.00  0.00    -0.289 OA 
HETATM   19  C   UNL     1     -10.575  13.118  66.083  1.00  0.00    -0.279 C  
HETATM   20  C   UNL     1     -10.153  11.517  64.453  1.00  0.00    -0.282 C  
ENDBRANCH  15  16
ENDBRANCH  14  15
ENDBRANCH  10  11
BRANCH  10  21
HETATM   21  C   UNL     1      -7.944   6.110  66.210  1.00  0.00    -0.106 C  
BRANCH  21  22
HETATM   22  C   UNL     1      -7.512   4.952  65.333  1.00  0.00    -0.077 A  
HETATM   23  C   UNL     1      -7.756   2.624  64.665  1.00  0.00    -0.077 A  
HETATM   24  C   UNL     1      -8.000   3.660  65.572  1.00  0.00    -0.093 A  
HETATM   25  C   UNL     1      -7.008   2.858  63.513  1.00  0.00    -0.043 A  
HETATM   26  C   UNL     1      -6.746   5.169  64.175  1.00  0.00    -0.046 A  
HETATM   27  C   UNL     1      -6.496   4.129  63.273  1.00  0.00    -0.026 A  
ENDBRANCH  21  22
ENDBRANCH  10  21
ENDBRANCH   7  10
ENDBRANCH   6   7
ENDBRANCH   5   6
BRANCH   5  28
HETATM   28  S   UNL     1     -10.303   6.675  70.976  1.00  0.00    -0.210 S  
HETATM   29  O   UNL     1     -11.287   5.641  70.758  1.00  0.00    -0.142 OA 
HETATM   30  O   UNL     1      -9.363   6.583  72.078  1.00  0.00    -0.148 OA 
BRANCH  28  31
HETATM   31  C   UNL     1     -11.197   8.194  71.151  1.00  0.00    -0.257 A  
HETATM   32  N   UNL     1     -13.279  11.816  71.618  1.00  0.00    -0.363 NA 
HETATM   33  H2  UNL     1     -13.264  12.011  72.619  1.00  0.00     0.000 HD 
HETATM   34  H1  UNL     1     -12.977  12.655  71.123  1.00  0.00     0.000 HD 
HETATM   35  C   UNL     1     -12.343   8.239  71.947  1.00  0.00    -0.379 A  
HETATM   36  C   UNL     1     -13.046   9.444  72.076  1.00  0.00    -0.516 A  
HETATM   37  C   UNL     1     -10.722   9.362  70.538  1.00  0.00    -0.335 A  
HETATM   38  C   UNL     1     -11.430  10.559  70.681  1.00  0.00    -0.418 A  
HETATM   39  C   UNL     1     -12.632  10.596  71.396  1.00  0.00    -0.421 A  
ENDBRANCH  28  31
ENDBRANCH   5  28
ENDBRANCH   4   5
TORSDOF 11
ENDMDL
MODEL      358
REMARK 921   NORMALIZED FREE ENERGY PREDICTED BY IDOCK:   -3.33 KCAL/MOL
REMARK 922        TOTAL FREE ENERGY PREDICTED BY IDOCK:   -7.24 KCAL/MOL
REMARK 923 INTER-LIGAND FREE ENERGY PREDICTED BY IDOCK:   -5.73 KCAL/MOL
REMARK 924 INTRA-LIGAND FREE ENERGY PREDICTED BY IDOCK:   -1.51 KCAL/MOL
REMARK 927      BINDING AFFINITY PREDICTED BY RF-SCORE:    0.00 PKD
ROOT
HETATM    1  C   UNL     1      -9.913  10.024  64.925  1.00  0.00    -0.286 C  
HETATM    2  C   UNL     1      -8.709   9.186  64.493  1.00  0.00    -0.192 C  
HETATM    3  C   UNL     1      -8.627   9.230  62.954  1.00  0.00    -0.220 C  
HETATM    4  C   UNL     1      -7.375   9.676  65.088  1.00  0.00    -0.115 C  
ENDROOT
BRANCH   4   5
HETATM    5  N   UNL     1      -7.262   9.717  66.608  1.00  0.00    -0.089 N  
BRANCH   5   6
HETATM    6  C   UNL     1      -6.827   8.353  67.197  1.00  0.00    -0.070 C  
BRANCH   6   7
HETATM    7  C   UNL     1      -7.722   7.765  68.344  1.00  0.00    -0.119 C  
HETATM    8  H   UNL     1      -9.230   8.397  69.415  1.00  0.00     0.000 HD 
HETATM    9  O   UNL     1      -8.688   8.753  68.720  1.00  0.00    -0.135 OA 
BRANCH   7  10
HETATM   10  C   UNL     1      -8.397   6.394  67.970  1.00  0.00    -0.115 C  
BRANCH  10  11
HETATM   11  N   UNL     1      -9.103   5.766  69.106  1.00  0.00    -0.117 N  
HETATM   12  O   UNL     1     -11.160   6.605  68.542  1.00  0.00    -0.256 OA 
HETATM   13  H   UNL     1      -8.580   5.188  69.764  1.00  0.00     0.000 HD 
HETATM   14  C   UNL     1     -10.451   5.949  69.290  1.00  0.00    -0.274 C  
BRANCH  14  15
HETATM   15  O   UNL     1     -10.895   5.332  70.423  1.00  0.00    -0.213 OA 
BRANCH  15  16
HETATM   16  C   UNL     1     -10.295   5.836  71.632  1.00  0.00    -0.214 C  
HETATM   17  C   UNL     1     -10.525   7.324  71.801  1.00  0.00    -0.218 C  
HETATM   18  O   UNL     1     -10.941   6.322  73.892  1.00  0.00    -0.073 OA 
HETATM   19  C   UNL     1     -10.397   7.504  73.298  1.00  0.00    -0.357 C  
HETATM   20  C   UNL     1     -10.924   5.276  72.906  1.00  0.00    -0.287 C  
ENDBRANCH  15  16
ENDBRANCH  14  15
ENDBRANCH  10  11
BRANCH  10  21
HETATM   21  C   UNL     1      -9.244   6.367  66.670  1.00  0.00    -0.167 C  
BRANCH  21  22
HETATM   22  C   UNL     1      -9.071   5.253  65.657  1.00  0.00    -0.158 A  
HETATM   23  C   UNL     1      -9.523   2.964  64.961  1.00  0.00    -0.104 A  
HETATM   24  C   UNL     1      -9.508   3.953  65.949  1.00  0.00    -0.182 A  
HETATM   25  C   UNL     1      -9.087   3.252  63.669  1.00  0.00    -0.096 A  
HETATM   26  C   UNL     1      -8.619   5.524  64.354  1.00  0.00    -0.025 A  
HETATM   27  C   UNL     1      -8.627   4.531  63.369  1.00  0.00    -0.118 A  
ENDBRANCH  21  22
ENDBRANCH  10  21
ENDBRANCH   7  10
ENDBRANCH   6   7
ENDBRANCH   5   6
BRANCH   5  28
HETATM   28  S   UNL     1      -6.159  10.996  67.109  1.00  0.00    -0.084 S  
HETATM   29  O   UNL     1      -5.414  10.555  68.265  1.00  0.00    -0.035 OA 
HETATM   30  O   UNL     1      -5.474  11.418  65.901  1.00  0.00    -0.243 OA 
BRANCH  28  31
HETATM   31  C   UNL     1      -7.182  12.338  67.649  1.00  0.00    -0.128 A  
HETATM   32  N   UNL     1      -9.605  15.498  68.994  1.00  0.00    -0.221 NA 
HETATM   33  H2  UNL     1     -10.157  15.111  69.759  1.00  0.00     0.000 HD 
HETATM   34  H1  UNL     1      -9.188  16.374  69.310  1.00  0.00     0.000 HD 
HETATM   35  C   UNL     1      -8.572  12.211  67.613  1.00  0.00    -0.166 A  
HETATM   36  C   UNL     1      -9.373  13.280  68.038  1.00  0.00    -0.218 A  
HETATM   37  C   UNL     1      -6.596  13.501  68.166  1.00  0.00    -0.121 A  
HETATM   38  C   UNL     1      -7.408  14.557  68.593  1.00  0.00    -0.128 A  
HETATM   39  C   UNL     1      -8.799  14.481  68.472  1.00  0.00    -0.182 A  
ENDBRANCH  28  31
ENDBRANCH   5  28
ENDBRANCH   4   5
TORSDOF 11
ENDMDL
MODEL      359
REMARK 921   NORMALIZED FREE ENERGY PREDICTED BY IDOCK:   -3.28 KCAL/MOL
REMARK 922        TOTAL FREE ENERGY PREDICTED BY IDOCK:   -7.16 KCAL/MOL
REMARK 923 INTER-LIGAND FREE ENERGY PREDICTED BY IDOCK:   -6.15 KCAL/MOL
REMARK 924 INTRA-LIGAND FREE ENERGY PREDICTED BY IDOCK:   -1.00 KCAL/MOL
REMARK 927      BINDING AFFINITY PREDICTED BY RF-SCORE:    0.00 PKD
ROOT
HETATM    1  C   UNL     1      -9.571   4.113  72.573  1.00  0.00    -0.190 C  
HETATM    2  C   UNL     1      -8.305   4.572  71.848  1.00  0.00    -0.108 C  
HETATM    3  C   UNL     1      -7.096   3.897  72.527  1.00  0.00    -0.055 C  
HETATM    4  C   UNL     1      -8.300   4.231  70.345  1.00  0.00    -0.065 C  
ENDROOT
BRANCH   4   5
HETATM    5  N   UNL     1      -9.432   4.800  69.496  1.00  0.00    -0.141 N  
BRANCH   5   6
HETATM    6  C   UNL     1      -9.604   6.325  69.703  1.00  0.00    -0.145 C  
BRANCH   6   7
HETATM    7  C   UNL     1     -11.075   6.860  69.801  1.00  0.00    -0.271 C  
HETATM    8  H   UNL     1     -12.394   7.092  71.225  1.00  0.00     0.000 HD 
HETATM    9  O   UNL     1     -11.503   6.768  71.165  1.00  0.00    -0.280 OA 
BRANCH   7  10
HETATM   10  C   UNL     1     -11.253   8.313  69.224  1.00  0.00     0.299 C  
BRANCH  10  11
HETATM   11  N   UNL     1     -11.977   9.216  70.142  1.00  0.00    -0.443 N  
HETATM   12  O   UNL     1     -10.114   9.801  71.343  1.00  0.00    -0.025 OA 
HETATM   13  H   UNL     1     -12.982   9.349  70.027  1.00  0.00     0.000 HD 
HETATM   14  C   UNL     1     -11.317   9.881  71.146  1.00  0.00    -0.370 C  
BRANCH  14  15
HETATM   15  O   UNL     1     -12.173  10.618  71.911  1.00  0.00    -0.143 OA 
BRANCH  15  16
HETATM   16  C   UNL     1     -12.849  11.662  71.184  1.00  0.00    -0.294 C  
HETATM   17  C   UNL     1     -13.451  12.699  72.110  1.00  0.00    -0.561 C  
HETATM   18  O   UNL     1     -12.389  13.871  70.364  1.00  0.00    -0.332 OA 
HETATM   19  C   UNL     1     -13.534  13.920  71.221  1.00  0.00    -0.200 C  
HETATM   20  C   UNL     1     -11.915  12.514  70.326  1.00  0.00    -0.283 C  
ENDBRANCH  15  16
ENDBRANCH  14  15
ENDBRANCH  10  11
BRANCH  10  21
HETATM   21  C   UNL     1      -9.989   8.981  68.622  1.00  0.00    -0.187 C  
BRANCH  21  22
HETATM   22  C   UNL     1     -10.114  10.059  67.563  1.00  0.00    -0.243 A  
HETATM   23  C   UNL     1      -9.930  12.401  66.925  1.00  0.00    -0.223 A  
HETATM   24  C   UNL     1     -10.001  11.412  67.911  1.00  0.00    -0.190 A  
HETATM   25  C   UNL     1      -9.985  12.056  65.576  1.00  0.00    -0.267 A  
HETATM   26  C   UNL     1     -10.185   9.728  66.199  1.00  0.00    -0.278 A  
HETATM   27  C   UNL     1     -10.121  10.719  65.214  1.00  0.00    -0.353 A  
ENDBRANCH  21  22
ENDBRANCH  10  21
ENDBRANCH   7  10
ENDBRANCH   6   7
ENDBRANCH   5   6
BRANCH   5  28
HETATM   28  S   UNL     1      -9.175   4.424  67.795  1.00  0.00    -0.146 S  
HETATM   29  O   UNL     1      -8.570   3.117  67.683  1.00  0.00    -0.089 OA 
HETATM   30  O   UNL     1     -10.433   4.718  67.134  1.00  0.00    -0.138 OA 
BRANCH  28  31
HETATM   31  C   UNL     1      -7.973   5.588  67.214  1.00  0.00    -0.101 A  
HETATM   32  N   UNL     1      -5.144   8.397  65.879  1.00  0.00    -0.027 NA 
HETATM   33  H2  UNL     1      -5.614   9.301  65.930  1.00  0.00     0.000 HD 
HETATM   34  H1  UNL     1      -4.238   8.479  66.340  1.00  0.00     0.000 HD 
HETATM   35  C   UNL     1      -8.252   6.378  66.098  1.00  0.00    -0.122 A  
HETATM   36  C   UNL     1      -7.293   7.293  65.643  1.00  0.00    -0.075 A  
HETATM   37  C   UNL     1      -6.767   5.756  67.909  1.00  0.00    -0.058 A  
HETATM   38  C   UNL     1      -5.822   6.678  67.448  1.00  0.00    -0.013 A  
HETATM   39  C   UNL     1      -6.049   7.406  66.276  1.00  0.00    -0.037 A  
ENDBRANCH  28  31
ENDBRANCH   5  28
ENDBRANCH   4   5
TORSDOF 11
ENDMDL
MODEL      360
REMARK 921   NORMALIZED FREE ENERGY PREDICTED BY IDOCK:   -3.27 KCAL/MOL
REMARK 922        TOTAL FREE ENERGY PREDICTED BY IDOCK:   -7.14 KCAL/MOL
REMARK 923 INTER-LIGAND FREE ENERGY PREDICTED BY IDOCK:   -5.83 KCAL/MOL
REMARK 924 INTRA-LIGAND FREE ENERGY PREDICTED BY IDOCK:   -1.31 KCAL/MOL
REMARK 927      BINDING AFFINITY PREDICTED BY RF-SCORE:    0.00 PKD
ROOT
HETATM    1  C   UNL     1     -10.419  15.071  69.608  1.00  0.00    -0.226 C  
HETATM    2  C   UNL     1     -11.083  13.694  69.630  1.00  0.00    -0.067 C  
HETATM    3  C   UNL     1     -12.603  13.895  69.463  1.00  0.00     0.031 C  
HETATM    4  C   UNL     1     -10.570  12.747  68.527  1.00  0.00    -0.252 C  
ENDROOT
BRANCH   4   5
HETATM    5  N   UNL     1      -9.079  12.432  68.516  1.00  0.00    -0.123 N  
BRANCH   5   6
HETATM    6  C   UNL     1      -8.801  10.921  68.708  1.00  0.00    -0.161 C  
BRANCH   6   7
HETATM    7  C   UNL     1      -9.853   9.930  68.098  1.00  0.00    -0.147 C  
HETATM    8  H   UNL     1      -9.956   8.788  66.515  1.00  0.00     0.000 HD 
HETATM    9  O   UNL     1      -9.319   9.389  66.884  1.00  0.00    -0.139 OA 
BRANCH   7  10
HETATM   10  C   UNL     1     -10.303   8.801  69.098  1.00  0.00    -0.217 C  
BRANCH  10  11
HETATM   11  N   UNL     1      -9.513   7.560  68.966  1.00  0.00    -0.146 N  
HETATM   12  O   UNL     1     -11.272   6.163  69.424  1.00  0.00    -0.391 OA 
HETATM   13  H   UNL     1      -8.523   7.618  68.727  1.00  0.00     0.000 HD 
HETATM   14  C   UNL     1     -10.091   6.330  69.159  1.00  0.00    -0.168 C  
BRANCH  14  15
HETATM   15  O   UNL     1      -9.181   5.320  69.045  1.00  0.00    -0.111 OA 
BRANCH  15  16
HETATM   16  C   UNL     1      -8.209   5.292  70.108  1.00  0.00    -0.091 C  
HETATM   17  C   UNL     1      -8.837   4.941  71.441  1.00  0.00    -0.153 C  
HETATM   18  O   UNL     1      -6.854   3.682  71.263  1.00  0.00    -0.030 OA 
HETATM   19  C   UNL     1      -7.665   4.378  72.215  1.00  0.00    -0.086 C  
HETATM   20  C   UNL     1      -7.166   4.186  69.954  1.00  0.00    -0.046 C  
ENDBRANCH  15  16
ENDBRANCH  14  15
ENDBRANCH  10  11
BRANCH  10  21
HETATM   21  C   UNL     1     -10.490   9.220  70.581  1.00  0.00    -0.325 C  
BRANCH  21  22
HETATM   22  C   UNL     1     -11.869   9.519  71.133  1.00  0.00    -0.436 A  
HETATM   23  C   UNL     1     -13.897   8.746  72.236  1.00  0.00    -0.505 A  
HETATM   24  C   UNL     1     -12.704   8.476  71.558  1.00  0.00    -0.340 A  
HETATM   25  C   UNL     1     -14.283  10.062  72.486  1.00  0.00     0.496 A  
HETATM   26  C   UNL     1     -12.279  10.840  71.378  1.00  0.00    -0.374 A  
HETATM   27  C   UNL     1     -13.477  11.109  72.050  1.00  0.00    -0.280 A  
ENDBRANCH  21  22
ENDBRANCH  10  21
ENDBRANCH   7  10
ENDBRANCH   6   7
ENDBRANCH   5   6
BRANCH   5  28
HETATM   28  S   UNL     1      -8.336  13.021  67.032  1.00  0.00    -0.031 S  
HETATM   29  O   UNL     1      -7.099  12.312  66.805  1.00  0.00    -0.015 OA 
HETATM   30  O   UNL     1      -9.391  13.011  66.034  1.00  0.00    -0.152 OA 
BRANCH  28  31
HETATM   31  C   UNL     1      -7.901  14.710  67.342  1.00  0.00    -0.202 A  
HETATM   32  N   UNL     1      -6.880  18.709  68.145  1.00  0.00    -0.226 NA 
HETATM   33  H2  UNL     1      -7.479  18.992  68.919  1.00  0.00     0.000 HD 
HETATM   34  H1  UNL     1      -5.919  18.962  68.373  1.00  0.00     0.000 HD 
HETATM   35  C   UNL     1      -8.872  15.708  67.243  1.00  0.00    -0.215 A  
HETATM   36  C   UNL     1      -8.517  17.042  67.486  1.00  0.00    -0.208 A  
HETATM   37  C   UNL     1      -6.598  15.036  67.743  1.00  0.00    -0.189 A  
HETATM   38  C   UNL     1      -6.260  16.370  67.989  1.00  0.00    -0.134 A  
HETATM   39  C   UNL     1      -7.197  17.390  67.800  1.00  0.00    -0.168 A  
ENDBRANCH  28  31
ENDBRANCH   5  28
ENDBRANCH   4   5
TORSDOF 11
ENDMDL
MODEL      361
REMARK 921   NORMALIZED FREE ENERGY PREDICTED BY IDOCK:   -3.27 KCAL/MOL
REMARK 922        TOTAL FREE ENERGY PREDICTED BY IDOCK:   -7.13 KCAL/MOL
REMARK 923 INTER-LIGAND FREE ENERGY PREDICTED BY IDOCK:   -6.74 KCAL/MOL
REMARK 924 INTRA-LIGAND FREE ENERGY PREDICTED BY IDOCK:   -0.39 KCAL/MOL
REMARK 927      BINDING AFFINITY PREDICTED BY RF-SCORE:    0.00 PKD
ROOT
HETATM    1  C   UNL     1     -10.307   6.715  73.543  1.00  0.00    -0.318 C  
HETATM    2  C   UNL     1      -9.907   5.252  73.342  1.00  0.00    -0.173 C  
HETATM    3  C   UNL     1     -10.950   4.371  74.059  1.00  0.00    -0.268 C  
HETATM    4  C   UNL     1      -9.822   4.837  71.860  1.00  0.00    -0.176 C  
ENDROOT
BRANCH   4   5
HETATM    5  N   UNL     1      -8.846   5.605  70.975  1.00  0.00    -0.136 N  
BRANCH   5   6
HETATM    6  C   UNL     1      -8.279   6.859  71.685  1.00  0.00    -0.109 C  
BRANCH   6   7
HETATM    7  C   UNL     1      -8.342   8.208  70.887  1.00  0.00    -0.121 C  
HETATM    8  H   UNL     1      -7.093   9.272  69.825  1.00  0.00     0.000 HD 
HETATM    9  O   UNL     1      -7.055   8.455  70.308  1.00  0.00    -0.039 OA 
BRANCH   7  10
HETATM   10  C   UNL     1      -9.489   8.245  69.810  1.00  0.00    -0.163 C  
BRANCH  10  11
HETATM   11  N   UNL     1      -8.996   8.056  68.431  1.00  0.00    -0.133 N  
HETATM   12  O   UNL     1     -10.668   9.288  67.459  1.00  0.00    -0.277 OA 
HETATM   13  H   UNL     1      -8.149   7.511  68.271  1.00  0.00     0.000 HD 
HETATM   14  C   UNL     1      -9.661   8.603  67.361  1.00  0.00    -0.159 C  
BRANCH  14  15
HETATM   15  O   UNL     1      -9.074   8.266  66.176  1.00  0.00    -0.173 OA 
BRANCH  15  16
HETATM   16  C   UNL     1      -8.499   9.385  65.474  1.00  0.00    -0.143 C  
HETATM   17  C   UNL     1      -7.005   9.224  65.278  1.00  0.00    -0.089 C  
HETATM   18  O   UNL     1      -7.890   9.978  63.229  1.00  0.00    -0.140 OA 
HETATM   19  C   UNL     1      -6.740  10.097  64.072  1.00  0.00    -0.107 C  
HETATM   20  C   UNL     1      -8.990   9.520  64.034  1.00  0.00    -0.188 C  
ENDBRANCH  15  16
ENDBRANCH  14  15
ENDBRANCH  10  11
BRANCH  10  21
HETATM   21  C   UNL     1     -10.747   7.384  70.104  1.00  0.00    -0.254 C  
BRANCH  21  22
HETATM   22  C   UNL     1     -11.981   8.006  70.726  1.00  0.00    -0.132 A  
HETATM   23  C   UNL     1     -14.139   7.735  71.821  1.00  0.00    -0.519 A  
HETATM   24  C   UNL     1     -13.076   7.206  71.083  1.00  0.00    -0.294 A  
HETATM   25  C   UNL     1     -14.133   9.076  72.202  1.00  0.00    -0.461 A  
HETATM   26  C   UNL     1     -11.997   9.359  71.103  1.00  0.00    -0.413 A  
HETATM   27  C   UNL     1     -13.065   9.890  71.835  1.00  0.00    -0.559 A  
ENDBRANCH  21  22
ENDBRANCH  10  21
ENDBRANCH   7  10
ENDBRANCH   6   7
ENDBRANCH   5   6
BRANCH   5  28
HETATM   28  S   UNL     1      -7.545   4.550  70.433  1.00  0.00    -0.053 S  
HETATM   29  O   UNL     1      -6.397   5.352  70.082  1.00  0.00    -0.028 OA 
HETATM   30  O   UNL     1      -7.442   3.506  71.437  1.00  0.00    -0.042 OA 
BRANCH  28  31
HETATM   31  C   UNL     1      -8.117   3.803  68.932  1.00  0.00    -0.058 A  
HETATM   32  N   UNL     1      -9.527   2.072  65.370  1.00  0.00    -0.337 NA 
HETATM   33  H2  UNL     1     -10.544   2.112  65.432  1.00  0.00     0.000 HD 
HETATM   34  H1  UNL     1      -9.246   2.447  64.464  1.00  0.00     0.000 HD 
HETATM   35  C   UNL     1      -8.933   2.672  68.985  1.00  0.00    -0.171 A  
HETATM   36  C   UNL     1      -9.377   2.085  67.792  1.00  0.00    -0.187 A  
HETATM   37  C   UNL     1      -7.798   4.380  67.696  1.00  0.00    -0.085 A  
HETATM   38  C   UNL     1      -8.253   3.788  66.514  1.00  0.00    -0.100 A  
HETATM   39  C   UNL     1      -8.991   2.601  66.549  1.00  0.00    -0.139 A  
ENDBRANCH  28  31
ENDBRANCH   5  28
ENDBRANCH   4   5
TORSDOF 11
ENDMDL
MODEL      362
REMARK 921   NORMALIZED FREE ENERGY PREDICTED BY IDOCK:   -3.23 KCAL/MOL
REMARK 922        TOTAL FREE ENERGY PREDICTED BY IDOCK:   -7.08 KCAL/MOL
REMARK 923 INTER-LIGAND FREE ENERGY PREDICTED BY IDOCK:   -6.43 KCAL/MOL
REMARK 924 INTRA-LIGAND FREE ENERGY PREDICTED BY IDOCK:   -0.65 KCAL/MOL
REMARK 927      BINDING AFFINITY PREDICTED BY RF-SCORE:    0.00 PKD
ROOT
HETATM    1  C   UNL     1      -9.346   4.230  65.789  1.00  0.00    -0.164 C  
HETATM    2  C   UNL     1      -8.276   4.088  66.873  1.00  0.00    -0.100 C  
HETATM    3  C   UNL     1      -7.718   2.652  66.805  1.00  0.00    -0.071 C  
HETATM    4  C   UNL     1      -7.116   5.093  66.726  1.00  0.00    -0.069 C  
ENDROOT
BRANCH   4   5
HETATM    5  N   UNL     1      -7.469   6.575  66.757  1.00  0.00    -0.078 N  
BRANCH   5   6
HETATM    6  C   UNL     1      -7.206   7.209  68.144  1.00  0.00    -0.095 C  
BRANCH   6   7
HETATM    7  C   UNL     1      -8.462   7.717  68.935  1.00  0.00    -0.129 C  
HETATM    8  H   UNL     1     -10.265   7.051  69.288  1.00  0.00     0.000 HD 
HETATM    9  O   UNL     1      -9.504   6.743  68.809  1.00  0.00    -0.132 OA 
BRANCH   7  10
HETATM   10  C   UNL     1      -8.156   8.062  70.440  1.00  0.00    -0.112 C  
BRANCH  10  11
HETATM   11  N   UNL     1      -9.355   8.481  71.194  1.00  0.00    -0.179 N  
HETATM   12  O   UNL     1      -9.820  10.269  69.837  1.00  0.00    -0.211 OA 
HETATM   13  H   UNL     1      -9.648   7.944  72.010  1.00  0.00     0.000 HD 
HETATM   14  C   UNL     1     -10.082   9.582  70.813  1.00  0.00    -0.282 C  
BRANCH  14  15
HETATM   15  O   UNL     1     -11.114   9.828  71.670  1.00  0.00    -0.294 OA 
BRANCH  15  16
HETATM   16  C   UNL     1     -12.363   9.238  71.261  1.00  0.00    -0.328 C  
HETATM   17  C   UNL     1     -12.329   7.725  71.343  1.00  0.00    -0.346 C  
HETATM   18  O   UNL     1     -14.380   8.418  72.271  1.00  0.00    -0.415 OA 
HETATM   19  C   UNL     1     -13.793   7.375  71.487  1.00  0.00    -0.374 C  
HETATM   20  C   UNL     1     -13.530   9.574  72.186  1.00  0.00    -0.456 C  
ENDBRANCH  15  16
ENDBRANCH  14  15
ENDBRANCH  10  11
BRANCH  10  21
HETATM   21  C   UNL     1      -7.299   7.036  71.228  1.00  0.00    -0.080 C  
BRANCH  21  22
HETATM   22  C   UNL     1      -7.915   6.198  72.331  1.00  0.00    -0.105 A  
HETATM   23  C   UNL     1      -9.833   4.992  73.224  1.00  0.00    -0.172 A  
HETATM   24  C   UNL     1      -9.288   5.911  72.321  1.00  0.00    -0.152 A  
HETATM   25  C   UNL     1      -9.019   4.357  74.160  1.00  0.00    -0.108 A  
HETATM   26  C   UNL     1      -7.111   5.562  73.291  1.00  0.00    -0.086 A  
HETATM   27  C   UNL     1      -7.659   4.648  74.198  1.00  0.00    -0.085 A  
ENDBRANCH  21  22
ENDBRANCH  10  21
ENDBRANCH   7  10
ENDBRANCH   6   7
ENDBRANCH   5   6
BRANCH   5  28
HETATM   28  S   UNL     1      -6.595   7.442  65.497  1.00  0.00    -0.045 S  
HETATM   29  O   UNL     1      -5.515   8.190  66.096  1.00  0.00    -0.028 OA 
HETATM   30  O   UNL     1      -6.333   6.463  64.457  1.00  0.00    -0.029 OA 
BRANCH  28  31
HETATM   31  C   UNL     1      -7.734   8.633  64.845  1.00  0.00    -0.106 A  
HETATM   32  N   UNL     1     -10.383  11.496  63.277  1.00  0.00    -0.560 NA 
HETATM   33  H2  UNL     1      -9.905  12.391  63.375  1.00  0.00     0.000 HD 
HETATM   34  H1  UNL     1     -10.724  11.416  62.319  1.00  0.00     0.000 HD 
HETATM   35  C   UNL     1      -8.195   9.671  65.657  1.00  0.00    -0.121 A  
HETATM   36  C   UNL     1      -9.099  10.606  65.134  1.00  0.00    -0.227 A  
HETATM   37  C   UNL     1      -8.126   8.566  63.502  1.00  0.00    -0.155 A  
HETATM   38  C   UNL     1      -9.023   9.510  62.991  1.00  0.00    -0.221 A  
HETATM   39  C   UNL     1      -9.567  10.497  63.819  1.00  0.00    -0.311 A  
ENDBRANCH  28  31
ENDBRANCH   5  28
ENDBRANCH   4   5
TORSDOF 11
ENDMDL
MODEL      363
REMARK 921   NORMALIZED FREE ENERGY PREDICTED BY IDOCK:   -3.21 KCAL/MOL
REMARK 922        TOTAL FREE ENERGY PREDICTED BY IDOCK:   -7.05 KCAL/MOL
REMARK 923 INTER-LIGAND FREE ENERGY PREDICTED BY IDOCK:   -6.86 KCAL/MOL
REMARK 924 INTRA-LIGAND FREE ENERGY PREDICTED BY IDOCK:   -0.18 KCAL/MOL
REMARK 927      BINDING AFFINITY PREDICTED BY RF-SCORE:    0.00 PKD
ROOT
HETATM    1  C   UNL     1      -9.421  15.718  68.659  1.00  0.00    -0.208 C  
HETATM    2  C   UNL     1     -10.402  14.743  69.312  1.00  0.00    -0.213 C  
HETATM    3  C   UNL     1     -11.773  15.442  69.410  1.00  0.00    -0.369 C  
HETATM    4  C   UNL     1     -10.560  13.419  68.538  1.00  0.00    -0.253 C  
ENDROOT
BRANCH   4   5
HETATM    5  N   UNL     1      -9.304  12.582  68.325  1.00  0.00    -0.207 N  
BRANCH   5   6
HETATM    6  C   UNL     1      -9.598  11.064  68.390  1.00  0.00    -0.181 C  
BRANCH   6   7
HETATM    7  C   UNL     1      -8.409  10.135  68.820  1.00  0.00    -0.122 C  
HETATM    8  H   UNL     1      -7.213  10.004  70.360  1.00  0.00     0.000 HD 
HETATM    9  O   UNL     1      -7.933  10.567  70.100  1.00  0.00    -0.001 OA 
BRANCH   7  10
HETATM   10  C   UNL     1      -8.776   8.605  68.814  1.00  0.00    -0.135 C  
BRANCH  10  11
HETATM   11  N   UNL     1      -8.216   7.879  67.656  1.00  0.00    -0.123 N  
HETATM   12  O   UNL     1     -10.154   7.943  66.433  1.00  0.00    -0.209 OA 
HETATM   13  H   UNL     1      -7.241   7.578  67.675  1.00  0.00     0.000 HD 
HETATM   14  C   UNL     1      -8.987   7.602  66.553  1.00  0.00    -0.158 C  
BRANCH  14  15
HETATM   15  O   UNL     1      -8.298   6.880  65.624  1.00  0.00    -0.138 OA 
BRANCH  15  16
HETATM   16  C   UNL     1      -8.325   5.458  65.857  1.00  0.00    -0.123 C  
HETATM   17  C   UNL     1      -8.782   4.692  64.632  1.00  0.00    -0.151 C  
HETATM   18  O   UNL     1      -6.913   3.551  65.500  1.00  0.00    -0.055 OA 
HETATM   19  C   UNL     1      -8.171   3.326  64.857  1.00  0.00    -0.090 C  
HETATM   20  C   UNL     1      -6.945   4.853  66.107  1.00  0.00    -0.070 C  
ENDBRANCH  15  16
ENDBRANCH  14  15
ENDBRANCH  10  11
BRANCH  10  21
HETATM   21  C   UNL     1      -8.566   7.834  70.144  1.00  0.00    -0.139 C  
BRANCH  21  22
HETATM   22  C   UNL     1      -9.752   7.389  70.976  1.00  0.00    -0.164 A  
HETATM   23  C   UNL     1     -11.970   7.841  71.873  1.00  0.00    -0.340 A  
HETATM   24  C   UNL     1     -10.790   8.285  71.267  1.00  0.00    -0.285 A  
HETATM   25  C   UNL     1     -12.126   6.498  72.211  1.00  0.00    -0.236 A  
HETATM   26  C   UNL     1      -9.917   6.041  71.338  1.00  0.00    -0.223 A  
HETATM   27  C   UNL     1     -11.095   5.600  71.950  1.00  0.00    -0.278 A  
ENDBRANCH  21  22
ENDBRANCH  10  21
ENDBRANCH   7  10
ENDBRANCH   6   7
ENDBRANCH   5   6
BRANCH   5  28
HETATM   28  S   UNL     1      -8.533  13.006  66.799  1.00  0.00     0.095 S  
HETATM   29  O   UNL     1      -8.089  14.379  66.856  1.00  0.00    -0.131 OA 
HETATM   30  O   UNL     1      -7.595  11.934  66.522  1.00  0.00    -0.022 OA 
BRANCH  28  31
HETATM   31  C   UNL     1      -9.811  12.939  65.573  1.00  0.00    -0.146 A  
HETATM   32  N   UNL     1     -12.886  12.761  62.712  1.00  0.00    -0.132 NA 
HETATM   33  H2  UNL     1     -13.494  12.000  63.015  1.00  0.00     0.000 HD 
HETATM   34  H1  UNL     1     -13.464  13.579  62.521  1.00  0.00     0.000 HD 
HETATM   35  C   UNL     1     -10.009  11.769  64.839  1.00  0.00    -0.280 A  
HETATM   36  C   UNL     1     -11.019  11.726  63.868  1.00  0.00    -0.476 A  
HETATM   37  C   UNL     1     -10.658  14.039  65.382  1.00  0.00    -0.351 A  
HETATM   38  C   UNL     1     -11.666  13.980  64.415  1.00  0.00    -0.415 A  
HETATM   39  C   UNL     1     -11.813  12.849  63.606  1.00  0.00    -0.532 A  
ENDBRANCH  28  31
ENDBRANCH   5  28
ENDBRANCH   4   5
TORSDOF 11
ENDMDL
MODEL      364
REMARK 921   NORMALIZED FREE ENERGY PREDICTED BY IDOCK:   -3.14 KCAL/MOL
REMARK 922        TOTAL FREE ENERGY PREDICTED BY IDOCK:   -6.93 KCAL/MOL
REMARK 923 INTER-LIGAND FREE ENERGY PREDICTED BY IDOCK:   -5.81 KCAL/MOL
REMARK 924 INTRA-LIGAND FREE ENERGY PREDICTED BY IDOCK:   -1.12 KCAL/MOL
REMARK 927      BINDING AFFINITY PREDICTED BY RF-SCORE:    0.00 PKD
ROOT
HETATM    1  C   UNL     1      -9.979  16.882  68.556  1.00  0.00    -0.275 C  
HETATM    2  C   UNL     1      -9.690  16.639  67.075  1.00  0.00    -0.253 C  
HETATM    3  C   UNL     1      -9.682  18.005  66.360  1.00  0.00    -0.324 C  
HETATM    4  C   UNL     1      -8.348  15.924  66.820  1.00  0.00    -0.271 C  
ENDROOT
BRANCH   4   5
HETATM    5  N   UNL     1      -8.155  14.553  67.458  1.00  0.00    -0.175 N  
BRANCH   5   6
HETATM    6  C   UNL     1      -8.959  13.451  66.725  1.00  0.00    -0.179 C  
BRANCH   6   7
HETATM    7  C   UNL     1      -9.502  12.272  67.606  1.00  0.00    -0.188 C  
HETATM    8  H   UNL     1     -10.486  12.111  69.287  1.00  0.00     0.000 HD 
HETATM    9  O   UNL     1     -10.157  12.825  68.753  1.00  0.00    -0.167 OA 
BRANCH   7  10
HETATM   10  C   UNL     1     -10.433  11.279  66.817  1.00  0.00    -0.248 C  
BRANCH  10  11
HETATM   11  N   UNL     1      -9.779  10.686  65.633  1.00  0.00    -0.215 N  
HETATM   12  O   UNL     1      -7.890  10.042  66.761  1.00  0.00    -0.108 OA 
HETATM   13  H   UNL     1     -10.261  10.698  64.735  1.00  0.00     0.000 HD 
HETATM   14  C   UNL     1      -8.531  10.121  65.724  1.00  0.00    -0.147 C  
BRANCH  14  15
HETATM   15  O   UNL     1      -8.086   9.683  64.511  1.00  0.00    -0.127 OA 
BRANCH  15  16
HETATM   16  C   UNL     1      -7.127   8.611  64.596  1.00  0.00    -0.081 C  
HETATM   17  C   UNL     1      -7.556   7.401  63.793  1.00  0.00    -0.118 C  
HETATM   18  O   UNL     1      -5.272   7.754  63.337  1.00  0.00    -0.040 OA 
HETATM   19  C   UNL     1      -6.238   6.713  63.512  1.00  0.00    -0.038 C  
HETATM   20  C   UNL     1      -5.778   8.946  63.961  1.00  0.00    -0.070 C  
ENDBRANCH  15  16
ENDBRANCH  14  15
ENDBRANCH  10  11
BRANCH  10  21
HETATM   21  C   UNL     1     -11.189  10.217  67.660  1.00  0.00    -0.232 C  
BRANCH  21  22
HETATM   22  C   UNL     1     -10.447   9.349  68.657  1.00  0.00    -0.236 A  
HETATM   23  C   UNL     1      -9.786   8.895  70.956  1.00  0.00    -0.321 A  
HETATM   24  C   UNL     1     -10.303   9.763  69.989  1.00  0.00    -0.307 A  
HETATM   25  C   UNL     1      -9.390   7.606  70.605  1.00  0.00    -0.163 A  
HETATM   26  C   UNL     1     -10.028   8.053  68.315  1.00  0.00    -0.210 A  
HETATM   27  C   UNL     1      -9.503   7.188  69.282  1.00  0.00    -0.152 A  
ENDBRANCH  21  22
ENDBRANCH  10  21
ENDBRANCH   7  10
ENDBRANCH   6   7
ENDBRANCH   5   6
BRANCH   5  28
HETATM   28  S   UNL     1      -6.445  14.140  67.526  1.00  0.00     0.092 S  
HETATM   29  O   UNL     1      -6.231  12.885  66.844  1.00  0.00    -0.138 OA 
HETATM   30  O   UNL     1      -5.735  15.338  67.116  1.00  0.00    -0.285 OA 
BRANCH  28  31
HETATM   31  C   UNL     1      -6.080  13.853  69.236  1.00  0.00    -0.098 A  
HETATM   32  N   UNL     1      -5.149  13.180  73.280  1.00  0.00    -0.379 NA 
HETATM   33  H2  UNL     1      -4.256  12.687  73.274  1.00  0.00     0.000 HD 
HETATM   34  H1  UNL     1      -5.082  13.961  73.933  1.00  0.00     0.000 HD 
HETATM   35  C   UNL     1      -5.915  12.548  69.703  1.00  0.00    -0.123 A  
HETATM   36  C   UNL     1      -5.631  12.331  71.058  1.00  0.00    -0.048 A  
HETATM   37  C   UNL     1      -5.901  14.937  70.106  1.00  0.00    -0.141 A  
HETATM   38  C   UNL     1      -5.611  14.706  71.454  1.00  0.00    -0.085 A  
HETATM   39  C   UNL     1      -5.538  13.402  71.954  1.00  0.00     0.042 A  
ENDBRANCH  28  31
ENDBRANCH   5  28
ENDBRANCH   4   5
TORSDOF 11
ENDMDL
MODEL      365
REMARK 921   NORMALIZED FREE ENERGY PREDICTED BY IDOCK:   -3.13 KCAL/MOL
REMARK 922        TOTAL FREE ENERGY PREDICTED BY IDOCK:   -6.91 KCAL/MOL
REMARK 923 INTER-LIGAND FREE ENERGY PREDICTED BY IDOCK:   -5.59 KCAL/MOL
REMARK 924 INTRA-LIGAND FREE ENERGY PREDICTED BY IDOCK:   -1.32 KCAL/MOL
REMARK 927      BINDING AFFINITY PREDICTED BY RF-SCORE:    0.00 PKD
ROOT
HETATM    1  C   UNL     1      -8.016   2.636  66.395  1.00  0.00    -0.081 C  
HETATM    2  C   UNL     1      -7.003   3.193  67.397  1.00  0.00    -0.050 C  
HETATM    3  C   UNL     1      -5.721   2.342  67.301  1.00  0.00    -0.019 C  
HETATM    4  C   UNL     1      -6.650   4.674  67.154  1.00  0.00    -0.050 C  
ENDROOT
BRANCH   4   5
HETATM    5  N   UNL     1      -7.794   5.680  67.197  1.00  0.00    -0.101 N  
BRANCH   5   6
HETATM    6  C   UNL     1      -7.421   6.954  67.993  1.00  0.00    -0.099 C  
BRANCH   6   7
HETATM    7  C   UNL     1      -8.305   7.285  69.246  1.00  0.00    -0.132 C  
HETATM    8  H   UNL     1     -10.150   6.944  69.794  1.00  0.00     0.000 HD 
HETATM    9  O   UNL     1      -9.614   6.743  69.035  1.00  0.00    -0.136 OA 
BRANCH   7  10
HETATM   10  C   UNL     1      -7.677   6.796  70.603  1.00  0.00    -0.097 C  
BRANCH  10  11
HETATM   11  N   UNL     1      -8.653   6.748  71.710  1.00  0.00    -0.121 N  
HETATM   12  O   UNL     1      -8.096   8.808  72.547  1.00  0.00    -0.381 OA 
HETATM   13  H   UNL     1      -9.256   5.932  71.812  1.00  0.00     0.000 HD 
HETATM   14  C   UNL     1      -8.760   7.784  72.604  1.00  0.00    -0.146 C  
BRANCH  14  15
HETATM   15  O   UNL     1      -9.678   7.518  73.578  1.00  0.00    -0.261 OA 
BRANCH  15  16
HETATM   16  C   UNL     1     -11.030   7.419  73.090  1.00  0.00    -0.359 C  
HETATM   17  C   UNL     1     -11.312   8.424  71.992  1.00  0.00    -0.411 C  
HETATM   18  O   UNL     1     -12.220   6.366  71.291  1.00  0.00    -0.285 OA 
HETATM   19  C   UNL     1     -12.457   7.776  71.245  1.00  0.00    -0.279 C  
HETATM   20  C   UNL     1     -11.331   6.096  72.388  1.00  0.00    -0.296 C  
ENDBRANCH  15  16
ENDBRANCH  14  15
ENDBRANCH  10  11
BRANCH  10  21
HETATM   21  C   UNL     1      -6.798   5.518  70.542  1.00  0.00    -0.049 C  
BRANCH  21  22
HETATM   22  C   UNL     1      -7.416   4.146  70.726  1.00  0.00    -0.047 A  
HETATM   23  C   UNL     1      -9.301   2.637  70.414  1.00  0.00    -0.212 A  
HETATM   24  C   UNL     1      -8.768   3.930  70.425  1.00  0.00    -0.126 A  
HETATM   25  C   UNL     1      -8.495   1.541  70.717  1.00  0.00    -0.076 A  
HETATM   26  C   UNL     1      -6.620   3.032  71.045  1.00  0.00    -0.031 A  
HETATM   27  C   UNL     1      -7.157   1.740  71.040  1.00  0.00    -0.032 A  
ENDBRANCH  21  22
ENDBRANCH  10  21
ENDBRANCH   7  10
ENDBRANCH   6   7
ENDBRANCH   5   6
BRANCH   5  28
HETATM   28  S   UNL     1      -8.313   6.091  65.565  1.00  0.00    -0.148 S  
HETATM   29  O   UNL     1      -7.246   5.796  64.637  1.00  0.00    -0.058 OA 
HETATM   30  O   UNL     1      -9.623   5.487  65.405  1.00  0.00     0.019 OA 
BRANCH  28  31
HETATM   31  C   UNL     1      -8.523   7.851  65.549  1.00  0.00    -0.139 A  
HETATM   32  N   UNL     1      -8.987  12.029  65.571  1.00  0.00    -0.408 NA 
HETATM   33  H2  UNL     1      -9.089  12.285  66.553  1.00  0.00     0.000 HD 
HETATM   34  H1  UNL     1      -8.277  12.631  65.154  1.00  0.00     0.000 HD 
HETATM   35  C   UNL     1      -9.681   8.418  66.083  1.00  0.00    -0.223 A  
HETATM   36  C   UNL     1      -9.840   9.810  66.062  1.00  0.00    -0.342 A  
HETATM   37  C   UNL     1      -7.502   8.674  65.055  1.00  0.00    -0.088 A  
HETATM   38  C   UNL     1      -7.671  10.062  65.047  1.00  0.00    -0.138 A  
HETATM   39  C   UNL     1      -8.866  10.637  65.489  1.00  0.00    -0.188 A  
ENDBRANCH  28  31
ENDBRANCH   5  28
ENDBRANCH   4   5
TORSDOF 11
ENDMDL
MODEL      366
REMARK 921   NORMALIZED FREE ENERGY PREDICTED BY IDOCK:   -3.07 KCAL/MOL
REMARK 922        TOTAL FREE ENERGY PREDICTED BY IDOCK:   -6.81 KCAL/MOL
REMARK 923 INTER-LIGAND FREE ENERGY PREDICTED BY IDOCK:   -6.65 KCAL/MOL
REMARK 924 INTRA-LIGAND FREE ENERGY PREDICTED BY IDOCK:   -0.16 KCAL/MOL
REMARK 927      BINDING AFFINITY PREDICTED BY RF-SCORE:    0.00 PKD
ROOT
HETATM    1  C   UNL     1     -10.655   9.110  67.365  1.00  0.00    -0.315 C  
HETATM    2  C   UNL     1     -10.217  10.519  66.961  1.00  0.00    -0.275 C  
HETATM    3  C   UNL     1     -11.344  11.498  67.346  1.00  0.00    -0.367 C  
HETATM    4  C   UNL     1      -8.902  10.968  67.628  1.00  0.00    -0.131 C  
ENDROOT
BRANCH   4   5
HETATM    5  N   UNL     1      -7.664  10.115  67.375  1.00  0.00    -0.095 N  
BRANCH   5   6
HETATM    6  C   UNL     1      -7.835   8.670  67.903  1.00  0.00    -0.103 C  
BRANCH   6   7
HETATM    7  C   UNL     1      -7.539   8.437  69.426  1.00  0.00    -0.091 C  
HETATM    8  H   UNL     1      -6.784   9.491  70.888  1.00  0.00     0.000 HD 
HETATM    9  O   UNL     1      -6.964   9.632  69.966  1.00  0.00    -0.066 OA 
BRANCH   7  10
HETATM   10  C   UNL     1      -8.798   7.967  70.244  1.00  0.00    -0.145 C  
BRANCH  10  11
HETATM   11  N   UNL     1      -8.705   6.565  70.698  1.00  0.00    -0.143 N  
HETATM   12  O   UNL     1      -6.961   6.945  72.137  1.00  0.00    -0.065 OA 
HETATM   13  H   UNL     1      -9.352   5.872  70.323  1.00  0.00     0.000 HD 
HETATM   14  C   UNL     1      -7.760   6.181  71.617  1.00  0.00    -0.101 C  
BRANCH  14  15
HETATM   15  O   UNL     1      -7.807   4.839  71.859  1.00  0.00    -0.094 OA 
BRANCH  15  16
HETATM   16  C   UNL     1      -8.753   4.465  72.879  1.00  0.00    -0.108 C  
HETATM   17  C   UNL     1      -9.081   5.623  73.800  1.00  0.00    -0.127 C  
HETATM   18  O   UNL     1     -11.120   4.570  73.263  1.00  0.00    -0.263 OA 
HETATM   19  C   UNL     1     -10.443   5.237  74.334  1.00  0.00    -0.242 C  
HETATM   20  C   UNL     1     -10.131   4.100  72.332  1.00  0.00    -0.177 C  
ENDBRANCH  15  16
ENDBRANCH  14  15
ENDBRANCH  10  11
BRANCH  10  21
HETATM   21  C   UNL     1      -9.288   8.915  71.371  1.00  0.00    -0.338 C  
BRANCH  21  22
HETATM   22  C   UNL     1     -10.767   9.182  71.569  1.00  0.00    -0.437 A  
HETATM   23  C   UNL     1     -12.804  10.316  70.868  1.00  0.00    -0.463 A  
HETATM   24  C   UNL     1     -11.413  10.184  70.831  1.00  0.00    -0.444 A  
HETATM   25  C   UNL     1     -13.572   9.459  71.654  1.00  0.00    -0.437 A  
HETATM   26  C   UNL     1     -11.554   8.336  72.369  1.00  0.00    -0.464 A  
HETATM   27  C   UNL     1     -12.945   8.475  72.411  1.00  0.00    -0.354 A  
ENDBRANCH  21  22
ENDBRANCH  10  21
ENDBRANCH   7  10
ENDBRANCH   6   7
ENDBRANCH   5   6
BRANCH   5  28
HETATM   28  S   UNL     1      -7.259  10.112  65.662  1.00  0.00    -0.141 S  
HETATM   29  O   UNL     1      -8.367  10.652  64.909  1.00  0.00    -0.160 OA 
HETATM   30  O   UNL     1      -5.939  10.710  65.570  1.00  0.00    -0.124 OA 
BRANCH  28  31
HETATM   31  C   UNL     1      -7.115   8.409  65.197  1.00  0.00    -0.075 A  
HETATM   32  N   UNL     1      -6.760   4.385  64.033  1.00  0.00    -0.043 NA 
HETATM   33  H2  UNL     1      -7.082   4.353  63.066  1.00  0.00     0.000 HD 
HETATM   34  H1  UNL     1      -5.861   3.907  64.089  1.00  0.00     0.000 HD 
HETATM   35  C   UNL     1      -8.246   7.703  64.783  1.00  0.00    -0.081 A  
HETATM   36  C   UNL     1      -8.124   6.355  64.422  1.00  0.00    -0.076 A  
HETATM   37  C   UNL     1      -5.859   7.787  65.191  1.00  0.00    -0.038 A  
HETATM   38  C   UNL     1      -5.751   6.443  64.822  1.00  0.00    -0.022 A  
HETATM   39  C   UNL     1      -6.890   5.698  64.498  1.00  0.00    -0.050 A  
ENDBRANCH  28  31
ENDBRANCH   5  28
ENDBRANCH   4   5
TORSDOF 11
ENDMDL
MODEL      367
REMARK 921   NORMALIZED FREE ENERGY PREDICTED BY IDOCK:   -3.06 KCAL/MOL
REMARK 922        TOTAL FREE ENERGY PREDICTED BY IDOCK:   -6.80 KCAL/MOL
REMARK 923 INTER-LIGAND FREE ENERGY PREDICTED BY IDOCK:   -7.02 KCAL/MOL
REMARK 924 INTRA-LIGAND FREE ENERGY PREDICTED BY IDOCK:    0.22 KCAL/MOL
REMARK 927      BINDING AFFINITY PREDICTED BY RF-SCORE:    0.00 PKD
ROOT
HETATM    1  C   UNL     1      -6.997  13.704  69.421  1.00  0.00     0.021 C  
HETATM    2  C   UNL     1      -6.595  12.263  69.101  1.00  0.00    -0.105 C  
HETATM    3  C   UNL     1      -5.576  11.807  70.164  1.00  0.00    -0.131 C  
HETATM    4  C   UNL     1      -7.785  11.284  69.083  1.00  0.00    -0.046 C  
ENDROOT
BRANCH   4   5
HETATM    5  N   UNL     1      -8.913  11.573  68.099  1.00  0.00    -0.166 N  
BRANCH   5   6
HETATM    6  C   UNL     1      -8.497  11.287  66.636  1.00  0.00    -0.168 C  
BRANCH   6   7
HETATM    7  C   UNL     1      -7.617  10.011  66.392  1.00  0.00    -0.104 C  
HETATM    8  H   UNL     1      -6.684   8.711  67.514  1.00  0.00     0.000 HD 
HETATM    9  O   UNL     1      -7.217   9.484  67.662  1.00  0.00    -0.081 OA 
BRANCH   7  10
HETATM   10  C   UNL     1      -8.324   8.924  65.499  1.00  0.00    -0.136 C  
BRANCH  10  11
HETATM   11  N   UNL     1      -9.412   9.476  64.666  1.00  0.00    -0.441 N  
HETATM   12  O   UNL     1      -8.008  10.454  63.140  1.00  0.00    -0.151 OA 
HETATM   13  H   UNL     1     -10.382   9.304  64.930  1.00  0.00     0.000 HD 
HETATM   14  C   UNL     1      -9.137  10.217  63.544  1.00  0.00    -0.264 C  
BRANCH  14  15
HETATM   15  O   UNL     1     -10.276  10.677  62.951  1.00  0.00    -0.177 OA 
BRANCH  15  16
HETATM   16  C   UNL     1     -11.085  11.503  63.810  1.00  0.00    -0.390 C  
HETATM   17  C   UNL     1     -10.480  12.877  64.010  1.00  0.00    -0.395 C  
HETATM   18  O   UNL     1     -12.780  13.191  63.606  1.00  0.00    -0.706 OA 
HETATM   19  C   UNL     1     -11.687  13.715  64.368  1.00  0.00    -0.411 C  
HETATM   20  C   UNL     1     -12.451  11.847  63.218  1.00  0.00    -0.384 C  
ENDBRANCH  15  16
ENDBRANCH  14  15
ENDBRANCH  10  11
BRANCH  10  21
HETATM   21  C   UNL     1      -7.397   7.974  64.695  1.00  0.00    -0.084 C  
BRANCH  21  22
HETATM   22  C   UNL     1      -7.891   6.618  64.234  1.00  0.00    -0.115 A  
HETATM   23  C   UNL     1      -8.925   4.476  64.756  1.00  0.00    -0.152 A  
HETATM   24  C   UNL     1      -8.297   5.655  65.170  1.00  0.00    -0.146 A  
HETATM   25  C   UNL     1      -9.144   4.233  63.401  1.00  0.00    -0.138 A  
HETATM   26  C   UNL     1      -8.104   6.351  62.872  1.00  0.00    -0.059 A  
HETATM   27  C   UNL     1      -8.726   5.167  62.459  1.00  0.00    -0.097 A  
ENDBRANCH  21  22
ENDBRANCH  10  21
ENDBRANCH   7  10
ENDBRANCH   6   7
ENDBRANCH   5   6
BRANCH   5  28
HETATM   28  S   UNL     1     -10.356  10.660  68.530  1.00  0.00    -0.196 S  
HETATM   29  O   UNL     1     -11.157  11.441  69.444  1.00  0.00    -0.244 OA 
HETATM   30  O   UNL     1     -10.911  10.187  67.275  1.00  0.00    -0.271 OA 
BRANCH  28  31
HETATM   31  C   UNL     1      -9.786   9.249  69.438  1.00  0.00    -0.174 A  
HETATM   32  N   UNL     1      -8.499   5.884  71.603  1.00  0.00    -0.127 NA 
HETATM   33  H2  UNL     1      -9.187   5.759  72.345  1.00  0.00     0.000 HD 
HETATM   34  H1  UNL     1      -8.364   4.987  71.136  1.00  0.00     0.000 HD 
HETATM   35  C   UNL     1      -9.488   9.370  70.796  1.00  0.00    -0.307 A  
HETATM   36  C   UNL     1      -9.034   8.249  71.505  1.00  0.00    -0.223 A  
HETATM   37  C   UNL     1      -9.691   8.002  68.807  1.00  0.00    -0.157 A  
HETATM   38  C   UNL     1      -9.242   6.890  69.527  1.00  0.00    -0.148 A  
HETATM   39  C   UNL     1      -8.849   7.018  70.863  1.00  0.00    -0.148 A  
ENDBRANCH  28  31
ENDBRANCH   5  28
ENDBRANCH   4   5
TORSDOF 11
ENDMDL
MODEL      368
REMARK 921   NORMALIZED FREE ENERGY PREDICTED BY IDOCK:   -2.90 KCAL/MOL
REMARK 922        TOTAL FREE ENERGY PREDICTED BY IDOCK:   -6.54 KCAL/MOL
REMARK 923 INTER-LIGAND FREE ENERGY PREDICTED BY IDOCK:   -6.96 KCAL/MOL
REMARK 924 INTRA-LIGAND FREE ENERGY PREDICTED BY IDOCK:    0.43 KCAL/MOL
REMARK 927      BINDING AFFINITY PREDICTED BY RF-SCORE:    0.00 PKD
ROOT
HETATM    1  C   UNL     1     -10.292   8.924  67.990  1.00  0.00    -0.271 C  
HETATM    2  C   UNL     1     -11.009   9.098  69.329  1.00  0.00    -0.081 C  
HETATM    3  C   UNL     1     -10.881   7.776  70.113  1.00  0.00    -0.248 C  
HETATM    4  C   UNL     1     -10.446  10.252  70.182  1.00  0.00    -0.203 C  
ENDROOT
BRANCH   4   5
HETATM    5  N   UNL     1     -10.473  11.648  69.571  1.00  0.00     0.097 N  
BRANCH   5   6
HETATM    6  C   UNL     1      -9.658  11.725  68.256  1.00  0.00    -0.199 C  
BRANCH   6   7
HETATM    7  C   UNL     1      -8.690  12.950  68.100  1.00  0.00    -0.190 C  
HETATM    8  H   UNL     1      -8.681  14.817  68.674  1.00  0.00     0.000 HD 
HETATM    9  O   UNL     1      -9.268  14.076  68.769  1.00  0.00    -0.158 OA 
BRANCH   7  10
HETATM   10  C   UNL     1      -7.225  12.657  68.596  1.00  0.00    -0.108 C  
BRANCH  10  11
HETATM   11  N   UNL     1      -6.875  11.223  68.555  1.00  0.00    -0.066 N  
HETATM   12  O   UNL     1      -6.828  11.101  66.267  1.00  0.00    -0.123 OA 
HETATM   13  H   UNL     1      -6.748  10.713  69.429  1.00  0.00     0.000 HD 
HETATM   14  C   UNL     1      -6.718  10.566  67.360  1.00  0.00    -0.071 C  
BRANCH  14  15
HETATM   15  O   UNL     1      -6.451   9.241  67.542  1.00  0.00    -0.062 OA 
BRANCH  15  16
HETATM   16  C   UNL     1      -6.366   8.491  66.316  1.00  0.00    -0.057 C  
HETATM   17  C   UNL     1      -5.807   7.101  66.539  1.00  0.00    -0.034 C  
HETATM   18  O   UNL     1      -7.661   6.874  65.104  1.00  0.00    -0.094 OA 
HETATM   19  C   UNL     1      -6.360   6.334  65.358  1.00  0.00    -0.038 C  
HETATM   20  C   UNL     1      -7.726   8.184  65.691  1.00  0.00    -0.090 C  
ENDBRANCH  15  16
ENDBRANCH  14  15
ENDBRANCH  10  11
BRANCH  10  21
HETATM   21  C   UNL     1      -6.101  13.550  68.007  1.00  0.00    -0.133 C  
BRANCH  21  22
HETATM   22  C   UNL     1      -6.063  15.038  68.296  1.00  0.00    -0.122 A  
HETATM   23  C   UNL     1      -6.335  17.330  67.522  1.00  0.00    -0.169 A  
HETATM   24  C   UNL     1      -6.183  15.966  67.252  1.00  0.00    -0.117 A  
HETATM   25  C   UNL     1      -6.355  17.790  68.838  1.00  0.00    -0.211 A  
HETATM   26  C   UNL     1      -6.069  15.518  69.616  1.00  0.00    -0.150 A  
HETATM   27  C   UNL     1      -6.214  16.884  69.884  1.00  0.00    -0.139 A  
ENDBRANCH  21  22
ENDBRANCH  10  21
ENDBRANCH   7  10
ENDBRANCH   6   7
ENDBRANCH   5   6
BRANCH   5  28
HETATM   28  S   UNL     1     -12.133  12.174  69.310  1.00  0.00    -0.098 S  
HETATM   29  O   UNL     1     -12.218  12.876  68.051  1.00  0.00    -0.225 OA 
HETATM   30  O   UNL     1     -12.959  11.008  69.565  1.00  0.00    -0.092 OA 
BRANCH  28  31
HETATM   31  C   UNL     1     -12.472  13.366  70.576  1.00  0.00    -0.279 A  
HETATM   32  N   UNL     1     -13.335  16.206  73.552  1.00  0.00    -0.819 NA 
HETATM   33  H2  UNL     1     -13.889  16.926  73.088  1.00  0.00     0.000 HD 
HETATM   34  H1  UNL     1     -13.818  15.931  74.407  1.00  0.00     0.000 HD 
HETATM   35  C   UNL     1     -12.047  14.686  70.420  1.00  0.00    -0.383 A  
HETATM   36  C   UNL     1     -12.316  15.621  71.429  1.00  0.00    -0.485 A  
HETATM   37  C   UNL     1     -13.215  12.997  71.705  1.00  0.00    -0.486 A  
HETATM   38  C   UNL     1     -13.481  13.941  72.701  1.00  0.00    -0.652 A  
HETATM   39  C   UNL     1     -12.979  15.243  72.603  1.00  0.00    -0.408 A  
ENDBRANCH  28  31
ENDBRANCH   5  28
ENDBRANCH   4   5
TORSDOF 11
ENDMDL
MODEL      369
REMARK 921   NORMALIZED FREE ENERGY PREDICTED BY IDOCK:   -2.85 KCAL/MOL
REMARK 922        TOTAL FREE ENERGY PREDICTED BY IDOCK:   -6.45 KCAL/MOL
REMARK 923 INTER-LIGAND FREE ENERGY PREDICTED BY IDOCK:   -5.86 KCAL/MOL
REMARK 924 INTRA-LIGAND FREE ENERGY PREDICTED BY IDOCK:   -0.60 KCAL/MOL
REMARK 927      BINDING AFFINITY PREDICTED BY RF-SCORE:    0.00 PKD
ROOT
HETATM    1  C   UNL     1     -10.797  16.573  68.459  1.00  0.00    -0.349 C  
HETATM    2  C   UNL     1     -10.367  16.136  67.058  1.00  0.00    -0.290 C  
HETATM    3  C   UNL     1     -10.409  17.373  66.139  1.00  0.00    -0.329 C  
HETATM    4  C   UNL     1      -8.956  15.517  67.015  1.00  0.00    -0.226 C  
ENDROOT
BRANCH   4   5
HETATM    5  N   UNL     1      -8.709  14.282  67.873  1.00  0.00    -0.169 N  
BRANCH   5   6
HETATM    6  C   UNL     1      -9.831  13.228  67.714  1.00  0.00    -0.224 C  
BRANCH   6   7
HETATM    7  C   UNL     1     -10.447  12.652  69.037  1.00  0.00     0.007 C  
HETATM    8  H   UNL     1     -11.012  13.382  70.759  1.00  0.00     0.000 HD 
HETATM    9  O   UNL     1     -10.639  13.731  69.958  1.00  0.00     0.406 OA 
BRANCH   7  10
HETATM   10  C   UNL     1     -11.770  11.831  68.806  1.00  0.00    -0.329 C  
BRANCH  10  11
HETATM   11  N   UNL     1     -11.553  10.580  68.052  1.00  0.00    -0.450 N  
HETATM   12  O   UNL     1      -9.755   9.909  69.307  1.00  0.00    -0.184 OA 
HETATM   13  H   UNL     1     -12.172  10.348  67.275  1.00  0.00     0.000 HD 
HETATM   14  C   UNL     1     -10.530   9.725  68.380  1.00  0.00    -0.218 C  
BRANCH  14  15
HETATM   15  O   UNL     1     -10.469   8.660  67.530  1.00  0.00    -0.255 OA 
BRANCH  15  16
HETATM   16  C   UNL     1     -10.063   7.432  68.164  1.00  0.00    -0.179 C  
HETATM   17  C   UNL     1     -11.243   6.668  68.727  1.00  0.00    -0.256 C  
HETATM   18  O   UNL     1      -9.875   5.103  67.617  1.00  0.00    -0.144 OA 
HETATM   19  C   UNL     1     -10.722   5.247  68.761  1.00  0.00     0.057 C  
HETATM   20  C   UNL     1      -9.463   6.414  67.196  1.00  0.00    -0.129 C  
ENDBRANCH  15  16
ENDBRANCH  14  15
ENDBRANCH  10  11
BRANCH  10  21
HETATM   21  C   UNL     1     -12.680  11.616  70.045  1.00  0.00     0.084 C  
BRANCH  21  22
HETATM   22  C   UNL     1     -12.750  10.265  70.729  1.00  0.00    -0.434 A  
HETATM   23  C   UNL     1     -11.755   8.617  72.219  1.00  0.00    -0.428 A  
HETATM   24  C   UNL     1     -11.644   9.769  71.434  1.00  0.00    -0.452 A  
HETATM   25  C   UNL     1     -12.967   7.934  72.300  1.00  0.00    -0.126 A  
HETATM   26  C   UNL     1     -13.960   9.556  70.807  1.00  0.00     0.297 A  
HETATM   27  C   UNL     1     -14.067   8.399  71.587  1.00  0.00    -0.487 A  
ENDBRANCH  21  22
ENDBRANCH  10  21
ENDBRANCH   7  10
ENDBRANCH   6   7
ENDBRANCH   5   6
BRANCH   5  28
HETATM   28  S   UNL     1      -7.135  13.581  67.505  1.00  0.00    -0.099 S  
HETATM   29  O   UNL     1      -7.311  12.458  66.614  1.00  0.00     0.110 OA 
HETATM   30  O   UNL     1      -6.286  14.698  67.132  1.00  0.00    -0.225 OA 
BRANCH  28  31
HETATM   31  C   UNL     1      -6.525  12.923  69.033  1.00  0.00    -0.103 A  
HETATM   32  N   UNL     1      -5.141  11.365  72.684  1.00  0.00    -0.311 NA 
HETATM   33  H2  UNL     1      -5.709  11.812  73.403  1.00  0.00     0.000 HD 
HETATM   34  H1  UNL     1      -5.143  10.359  72.852  1.00  0.00     0.000 HD 
HETATM   35  C   UNL     1      -6.008  13.783  70.003  1.00  0.00    -0.144 A  
HETATM   36  C   UNL     1      -5.523  13.253  71.207  1.00  0.00    -0.184 A  
HETATM   37  C   UNL     1      -6.616  11.549  69.290  1.00  0.00    -0.113 A  
HETATM   38  C   UNL     1      -6.135  11.034  70.498  1.00  0.00    -0.094 A  
HETATM   39  C   UNL     1      -5.527  11.872  71.438  1.00  0.00     0.115 A  
ENDBRANCH  28  31
ENDBRANCH   5  28
ENDBRANCH   4   5
TORSDOF 11
ENDMDL
MODEL      370
REMARK 921   NORMALIZED FREE ENERGY PREDICTED BY IDOCK:   -2.81 KCAL/MOL
REMARK 922        TOTAL FREE ENERGY PREDICTED BY IDOCK:   -6.38 KCAL/MOL
REMARK 923 INTER-LIGAND FREE ENERGY PREDICTED BY IDOCK:   -6.64 KCAL/MOL
REMARK 924 INTRA-LIGAND FREE ENERGY PREDICTED BY IDOCK:    0.26 KCAL/MOL
REMARK 927      BINDING AFFINITY PREDICTED BY RF-SCORE:    0.00 PKD
ROOT
HETATM    1  C   UNL     1      -7.325  17.244  66.788  1.00  0.00    -0.248 C  
HETATM    2  C   UNL     1      -8.608  16.413  66.846  1.00  0.00    -0.245 C  
HETATM    3  C   UNL     1      -9.287  16.487  65.464  1.00  0.00     0.279 C  
HETATM    4  C   UNL     1      -8.367  14.936  67.216  1.00  0.00    -0.210 C  
ENDROOT
BRANCH   4   5
HETATM    5  N   UNL     1      -7.689  14.653  68.552  1.00  0.00    -0.119 N  
BRANCH   5   6
HETATM    6  C   UNL     1      -8.665  14.030  69.580  1.00  0.00     0.795 C  
BRANCH   6   7
HETATM    7  C   UNL     1     -10.184  14.382  69.410  1.00  0.00     0.021 C  
HETATM    8  H   UNL     1     -11.212  15.961  68.894  1.00  0.00     0.000 HD 
HETATM    9  O   UNL     1     -10.292  15.749  68.997  1.00  0.00    -0.202 OA 
BRANCH   7  10
HETATM   10  C   UNL     1     -10.946  13.410  68.434  1.00  0.00    -0.267 C  
BRANCH  10  11
HETATM   11  N   UNL     1     -11.823  12.452  69.138  1.00  0.00    -0.310 N  
HETATM   12  O   UNL     1     -12.367  13.898  70.832  1.00  0.00    -0.341 OA 
HETATM   13  H   UNL     1     -11.960  11.519  68.750  1.00  0.00     0.000 HD 
HETATM   14  C   UNL     1     -12.455  12.798  70.307  1.00  0.00    -0.105 C  
BRANCH  14  15
HETATM   15  O   UNL     1     -13.170  11.757  70.822  1.00  0.00     0.081 OA 
BRANCH  15  16
HETATM   16  C   UNL     1     -12.367  10.798  71.537  1.00  0.00    -0.276 C  
HETATM   17  C   UNL     1     -13.218   9.790  72.282  1.00  0.00    -0.468 C  
HETATM   18  O   UNL     1     -11.499   8.584  71.214  1.00  0.00    -0.258 OA 
HETATM   19  C   UNL     1     -12.282   8.608  72.411  1.00  0.00    -0.349 C  
HETATM   20  C   UNL     1     -11.538   9.895  70.626  1.00  0.00    -0.335 C  
ENDBRANCH  15  16
ENDBRANCH  14  15
ENDBRANCH  10  11
BRANCH  10  21
HETATM   21  C   UNL     1     -11.652  14.061  67.215  1.00  0.00    -0.396 C  
BRANCH  21  22
HETATM   22  C   UNL     1     -11.383  13.563  65.809  1.00  0.00    -0.318 A  
HETATM   23  C   UNL     1     -10.114  12.137  64.297  1.00  0.00    -0.317 A  
HETATM   24  C   UNL     1     -10.271  12.751  65.544  1.00  0.00    -0.293 A  
HETATM   25  C   UNL     1     -11.057  12.336  63.291  1.00  0.00    -0.389 A  
HETATM   26  C   UNL     1     -12.316  13.767  64.779  1.00  0.00    -0.420 A  
HETATM   27  C   UNL     1     -12.154  13.158  63.529  1.00  0.00    -0.585 A  
ENDBRANCH  21  22
ENDBRANCH  10  21
ENDBRANCH   7  10
ENDBRANCH   6   7
ENDBRANCH   5   6
BRANCH   5  28
HETATM   28  S   UNL     1      -6.280  13.621  68.320  1.00  0.00    -0.123 S  
HETATM   29  O   UNL     1      -5.407  14.220  67.338  1.00  0.00    -0.336 OA 
HETATM   30  O   UNL     1      -5.796  13.313  69.654  1.00  0.00    -0.099 OA 
BRANCH  28  31
HETATM   31  C   UNL     1      -6.889  12.119  67.605  1.00  0.00    -0.119 A  
HETATM   32  N   UNL     1      -8.294   8.519  65.949  1.00  0.00    -0.130 NA 
HETATM   33  H2  UNL     1      -7.505   7.875  65.990  1.00  0.00     0.000 HD 
HETATM   34  H1  UNL     1      -9.111   8.052  66.342  1.00  0.00     0.000 HD 
HETATM   35  C   UNL     1      -6.268  11.585  66.475  1.00  0.00    -0.072 A  
HETATM   36  C   UNL     1      -6.759  10.399  65.913  1.00  0.00    -0.127 A  
HETATM   37  C   UNL     1      -7.956  11.438  68.206  1.00  0.00    -0.136 A  
HETATM   38  C   UNL     1      -8.432  10.252  67.639  1.00  0.00    -0.118 A  
HETATM   39  C   UNL     1      -7.880   9.757  66.452  1.00  0.00    -0.106 A  
ENDBRANCH  28  31
ENDBRANCH   5  28
ENDBRANCH   4   5
TORSDOF 11
ENDMDL
MODEL      371
REMARK 921   NORMALIZED FREE ENERGY PREDICTED BY IDOCK:   -2.78 KCAL/MOL
REMARK 922        TOTAL FREE ENERGY PREDICTED BY IDOCK:   -6.34 KCAL/MOL
REMARK 923 INTER-LIGAND FREE ENERGY PREDICTED BY IDOCK:   -5.30 KCAL/MOL
REMARK 924 INTRA-LIGAND FREE ENERGY PREDICTED BY IDOCK:   -1.04 KCAL/MOL
REMARK 927      BINDING AFFINITY PREDICTED BY RF-SCORE:    0.00 PKD
ROOT
HETATM    1  C   UNL     1      -8.833   5.517  71.406  1.00  0.00    -0.142 C  
HETATM    2  C   UNL     1      -7.729   5.939  70.436  1.00  0.00    -0.096 C  
HETATM    3  C   UNL     1      -6.398   5.348  70.943  1.00  0.00    -0.031 C  
HETATM    4  C   UNL     1      -7.973   5.474  68.987  1.00  0.00    -0.095 C  
ENDROOT
BRANCH   4   5
HETATM    5  N   UNL     1      -9.254   5.948  68.309  1.00  0.00    -0.117 N  
BRANCH   5   6
HETATM    6  C   UNL     1      -9.129   7.395  67.774  1.00  0.00    -0.129 C  
BRANCH   6   7
HETATM    7  C   UNL     1     -10.093   8.462  68.402  1.00  0.00    -0.198 C  
HETATM    8  H   UNL     1     -10.232   9.399  70.111  1.00  0.00     0.000 HD 
HETATM    9  O   UNL     1      -9.648   8.754  69.731  1.00  0.00    -0.167 OA 
BRANCH   7  10
HETATM   10  C   UNL     1     -10.238   9.764  67.530  1.00  0.00    -0.220 C  
BRANCH  10  11
HETATM   11  N   UNL     1     -10.847  10.890  68.266  1.00  0.00    -0.207 N  
HETATM   12  O   UNL     1      -8.844  11.808  68.903  1.00  0.00    -0.031 OA 
HETATM   13  H   UNL     1     -11.862  10.978  68.299  1.00  0.00     0.000 HD 
HETATM   14  C   UNL     1     -10.066  11.820  68.908  1.00  0.00    -0.071 C  
BRANCH  14  15
HETATM   15  O   UNL     1     -10.821  12.743  69.571  1.00  0.00     0.012 OA 
BRANCH  15  16
HETATM   16  C   UNL     1     -10.767  14.061  68.994  1.00  0.00    -0.211 C  
HETATM   17  C   UNL     1     -12.102  14.773  69.079  1.00  0.00    -0.256 C  
HETATM   18  O   UNL     1     -10.452  16.329  69.716  1.00  0.00    -0.281 OA 
HETATM   19  C   UNL     1     -11.698  16.229  69.020  1.00  0.00    -0.165 C  
HETATM   20  C   UNL     1      -9.852  15.023  69.750  1.00  0.00    -0.027 C  
ENDBRANCH  15  16
ENDBRANCH  14  15
ENDBRANCH  10  11
BRANCH  10  21
HETATM   21  C   UNL     1      -8.988  10.202  66.721  1.00  0.00    -0.147 C  
BRANCH  21  22
HETATM   22  C   UNL     1      -9.080  10.452  65.229  1.00  0.00    -0.227 A  
HETATM   23  C   UNL     1      -8.829   9.638  62.948  1.00  0.00    -0.252 A  
HETATM   24  C   UNL     1      -8.585   9.507  64.319  1.00  0.00    -0.215 A  
HETATM   25  C   UNL     1      -9.557  10.723  62.463  1.00  0.00    -0.241 A  
HETATM   26  C   UNL     1      -9.799  11.548  64.723  1.00  0.00    -0.286 A  
HETATM   27  C   UNL     1     -10.035  11.682  63.350  1.00  0.00    -0.447 A  
ENDBRANCH  21  22
ENDBRANCH  10  21
ENDBRANCH   7  10
ENDBRANCH   6   7
ENDBRANCH   5   6
BRANCH   5  28
HETATM   28  S   UNL     1      -9.712   4.841  67.018  1.00  0.00    -0.201 S  
HETATM   29  O   UNL     1      -9.748   3.494  67.537  1.00  0.00    -0.178 OA 
HETATM   30  O   UNL     1     -10.884   5.428  66.395  1.00  0.00    -0.284 OA 
BRANCH  28  31
HETATM   31  C   UNL     1      -8.390   4.892  65.840  1.00  0.00    -0.114 A  
HETATM   32  N   UNL     1      -5.287   4.974  63.004  1.00  0.00    -0.012 NA 
HETATM   33  H2  UNL     1      -5.299   4.055  62.562  1.00  0.00     0.000 HD 
HETATM   34  H1  UNL     1      -5.274   5.683  62.271  1.00  0.00     0.000 HD 
HETATM   35  C   UNL     1      -7.340   3.977  65.932  1.00  0.00    -0.076 A  
HETATM   36  C   UNL     1      -6.296   4.028  64.999  1.00  0.00    -0.028 A  
HETATM   37  C   UNL     1      -8.427   5.813  64.784  1.00  0.00    -0.079 A  
HETATM   38  C   UNL     1      -7.382   5.848  63.856  1.00  0.00    -0.061 A  
HETATM   39  C   UNL     1      -6.277   5.001  63.992  1.00  0.00    -0.022 A  
ENDBRANCH  28  31
ENDBRANCH   5  28
ENDBRANCH   4   5
TORSDOF 11
ENDMDL
MODEL      372
REMARK 921   NORMALIZED FREE ENERGY PREDICTED BY IDOCK:   -2.71 KCAL/MOL
REMARK 922        TOTAL FREE ENERGY PREDICTED BY IDOCK:   -6.23 KCAL/MOL
REMARK 923 INTER-LIGAND FREE ENERGY PREDICTED BY IDOCK:   -6.93 KCAL/MOL
REMARK 924 INTRA-LIGAND FREE ENERGY PREDICTED BY IDOCK:    0.70 KCAL/MOL
REMARK 927      BINDING AFFINITY PREDICTED BY RF-SCORE:    0.00 PKD
ROOT
HETATM    1  C   UNL     1     -11.262  16.397  67.959  1.00  0.00    -0.235 C  
HETATM    2  C   UNL     1     -10.372  16.353  66.716  1.00  0.00    -0.293 C  
HETATM    3  C   UNL     1     -10.640  17.628  65.892  1.00  0.00    -0.203 C  
HETATM    4  C   UNL     1      -8.867  16.264  67.041  1.00  0.00    -0.205 C  
ENDROOT
BRANCH   4   5
HETATM    5  N   UNL     1      -8.401  15.069  67.865  1.00  0.00    -0.142 N  
BRANCH   5   6
HETATM    6  C   UNL     1      -8.769  13.722  67.199  1.00  0.00    -0.221 C  
BRANCH   6   7
HETATM    7  C   UNL     1      -9.427  12.637  68.122  1.00  0.00    -0.218 C  
HETATM    8  H   UNL     1     -10.073  12.564  69.964  1.00  0.00     0.000 HD 
HETATM    9  O   UNL     1      -9.675  13.221  69.405  1.00  0.00     0.524 OA 
BRANCH   7  10
HETATM   10  C   UNL     1     -10.724  11.993  67.506  1.00  0.00    -0.226 C  
BRANCH  10  11
HETATM   11  N   UNL     1     -10.438  10.843  66.625  1.00  0.00    -0.246 N  
HETATM   12  O   UNL     1      -8.395  10.387  67.560  1.00  0.00    -0.114 OA 
HETATM   13  H   UNL     1     -11.125  10.566  65.923  1.00  0.00     0.000 HD 
HETATM   14  C   UNL     1      -9.263  10.142  66.735  1.00  0.00    -0.151 C  
BRANCH  14  15
HETATM   15  O   UNL     1      -9.173   9.156  65.796  1.00  0.00    -0.201 OA 
BRANCH  15  16
HETATM   16  C   UNL     1      -8.166   9.398  64.795  1.00  0.00    -0.145 C  
HETATM   17  C   UNL     1      -7.857   8.153  63.989  1.00  0.00    -0.143 C  
HETATM   18  O   UNL     1      -8.045   9.934  62.459  1.00  0.00    -0.118 OA 
HETATM   19  C   UNL     1      -7.315   8.727  62.699  1.00  0.00    -0.097 C  
HETATM   20  C   UNL     1      -8.607  10.374  63.706  1.00  0.00    -0.177 C  
ENDBRANCH  15  16
ENDBRANCH  14  15
ENDBRANCH  10  11
BRANCH  10  21
HETATM   21  C   UNL     1     -11.889  11.702  68.489  1.00  0.00    -0.357 C  
BRANCH  21  22
HETATM   22  C   UNL     1     -11.745  10.647  69.568  1.00  0.00    -0.356 A  
HETATM   23  C   UNL     1     -10.319   9.180  70.888  1.00  0.00    -0.349 A  
HETATM   24  C   UNL     1     -10.513  10.014  69.782  1.00  0.00    -0.291 A  
HETATM   25  C   UNL     1     -11.358   8.953  71.789  1.00  0.00    -0.431 A  
HETATM   26  C   UNL     1     -12.787  10.396  70.476  1.00  0.00    -0.326 A  
HETATM   27  C   UNL     1     -12.595   9.555  71.578  1.00  0.00    -0.462 A  
ENDBRANCH  21  22
ENDBRANCH  10  21
ENDBRANCH   7  10
ENDBRANCH   6   7
ENDBRANCH   5   6
BRANCH   5  28
HETATM   28  S   UNL     1      -6.668  15.167  68.163  1.00  0.00    -0.146 S  
HETATM   29  O   UNL     1      -6.382  14.652  69.482  1.00  0.00    -0.108 OA 
HETATM   30  O   UNL     1      -6.034  14.594  66.990  1.00  0.00    -0.005 OA 
BRANCH  28  31
HETATM   31  C   UNL     1      -6.276  16.895  68.201  1.00  0.00    -0.132 A  
HETATM   32  N   UNL     1      -5.413  21.008  68.301  1.00  0.00    -0.312 NA 
HETATM   33  H2  UNL     1      -6.231  21.467  67.900  1.00  0.00     0.000 HD 
HETATM   34  H1  UNL     1      -5.186  21.469  69.183  1.00  0.00     0.000 HD 
HETATM   35  C   UNL     1      -6.246  17.627  67.013  1.00  0.00    -0.185 A  
HETATM   36  C   UNL     1      -5.931  18.992  67.053  1.00  0.00    -0.172 A  
HETATM   37  C   UNL     1      -6.055  17.537  69.427  1.00  0.00    -0.245 A  
HETATM   38  C   UNL     1      -5.748  18.901  69.452  1.00  0.00    -0.237 A  
HETATM   39  C   UNL     1      -5.620  19.625  68.262  1.00  0.00    -0.205 A  
ENDBRANCH  28  31
ENDBRANCH   5  28
ENDBRANCH   4   5
TORSDOF 11
ENDMDL
MODEL      373
REMARK 921   NORMALIZED FREE ENERGY PREDICTED BY IDOCK:   -2.56 KCAL/MOL
REMARK 922        TOTAL FREE ENERGY PREDICTED BY IDOCK:   -5.97 KCAL/MOL
REMARK 923 INTER-LIGAND FREE ENERGY PREDICTED BY IDOCK:   -4.91 KCAL/MOL
REMARK 924 INTRA-LIGAND FREE ENERGY PREDICTED BY IDOCK:   -1.06 KCAL/MOL
REMARK 927      BINDING AFFINITY PREDICTED BY RF-SCORE:    0.00 PKD
ROOT
HETATM    1  C   UNL     1      -8.929   7.921  65.457  1.00  0.00    -0.016 C  
HETATM    2  C   UNL     1      -9.392   8.499  66.795  1.00  0.00    -0.232 C  
HETATM    3  C   UNL     1     -10.885   8.155  66.972  1.00  0.00    -0.086 C  
HETATM    4  C   UNL     1      -8.600   7.962  68.003  1.00  0.00    -0.126 C  
ENDROOT
BRANCH   4   5
HETATM    5  N   UNL     1      -7.093   8.195  68.008  1.00  0.00    -0.084 N  
BRANCH   5   6
HETATM    6  C   UNL     1      -6.619   8.914  69.294  1.00  0.00    -0.049 C  
BRANCH   6   7
HETATM    7  C   UNL     1      -7.355  10.249  69.665  1.00  0.00    -0.150 C  
HETATM    8  H   UNL     1      -7.193  11.601  71.067  1.00  0.00     0.000 HD 
HETATM    9  O   UNL     1      -6.748  10.793  70.842  1.00  0.00    -0.218 OA 
BRANCH   7  10
HETATM   10  C   UNL     1      -7.391  11.292  68.486  1.00  0.00    -0.106 C  
BRANCH  10  11
HETATM   11  N   UNL     1      -8.635  12.087  68.454  1.00  0.00    -0.228 N  
HETATM   12  O   UNL     1      -8.871  11.981  66.176  1.00  0.00    -0.141 OA 
HETATM   13  H   UNL     1      -9.033  12.432  69.327  1.00  0.00     0.000 HD 
HETATM   14  C   UNL     1      -9.263  12.370  67.266  1.00  0.00    -0.187 C  
BRANCH  14  15
HETATM   15  O   UNL     1     -10.360  13.160  67.450  1.00  0.00    -0.236 OA 
BRANCH  15  16
HETATM   16  C   UNL     1     -10.048  14.492  67.900  1.00  0.00    -0.227 C  
HETATM   17  C   UNL     1      -9.461  15.342  66.791  1.00  0.00    -0.264 C  
HETATM   18  O   UNL     1     -11.056  16.671  67.905  1.00  0.00    -0.315 OA 
HETATM   19  C   UNL     1      -9.785  16.746  67.252  1.00  0.00    -0.250 C  
HETATM   20  C   UNL     1     -11.277  15.306  68.300  1.00  0.00    -0.314 C  
ENDBRANCH  15  16
ENDBRANCH  14  15
ENDBRANCH  10  11
BRANCH  10  21
HETATM   21  C   UNL     1      -6.128  12.174  68.299  1.00  0.00    -0.052 C  
BRANCH  21  22
HETATM   22  C   UNL     1      -6.201  13.677  68.479  1.00  0.00    -0.091 A  
HETATM   23  C   UNL     1      -6.450  15.603  69.947  1.00  0.00    -0.137 A  
HETATM   24  C   UNL     1      -6.558  14.228  69.717  1.00  0.00    -0.125 A  
HETATM   25  C   UNL     1      -5.999  16.452  68.938  1.00  0.00    -0.134 A  
HETATM   26  C   UNL     1      -5.763  14.548  67.466  1.00  0.00     0.141 A  
HETATM   27  C   UNL     1      -5.663  15.925  67.695  1.00  0.00    -0.163 A  
ENDBRANCH  21  22
ENDBRANCH  10  21
ENDBRANCH   7  10
ENDBRANCH   6   7
ENDBRANCH   5   6
BRANCH   5  28
HETATM   28  S   UNL     1      -6.235   6.672  67.790  1.00  0.00    -0.037 S  
HETATM   29  O   UNL     1      -5.125   6.877  66.888  1.00  0.00    -0.012 OA 
HETATM   30  O   UNL     1      -6.018   6.149  69.127  1.00  0.00    -0.022 OA 
BRANCH  28  31
HETATM   31  C   UNL     1      -7.366   5.590  66.961  1.00  0.00    -0.080 A  
HETATM   32  N   UNL     1     -10.089   3.074  64.979  1.00  0.00    -0.369 NA 
HETATM   33  H2  UNL     1     -11.006   3.494  65.129  1.00  0.00     0.000 HD 
HETATM   34  H1  UNL     1      -9.984   2.878  63.984  1.00  0.00     0.000 HD 
HETATM   35  C   UNL     1      -8.391   4.973  67.680  1.00  0.00    -0.105 A  
HETATM   36  C   UNL     1      -9.279   4.114  67.017  1.00  0.00    -0.173 A  
HETATM   37  C   UNL     1      -7.267   5.399  65.577  1.00  0.00    -0.068 A  
HETATM   38  C   UNL     1      -8.164   4.545  64.927  1.00  0.00    -0.107 A  
HETATM   39  C   UNL     1      -9.135   3.846  65.650  1.00  0.00    -0.144 A  
ENDBRANCH  28  31
ENDBRANCH   5  28
ENDBRANCH   4   5
TORSDOF 11
ENDMDL
MODEL      374
REMARK 921   NORMALIZED FREE ENERGY PREDICTED BY IDOCK:   -2.53 KCAL/MOL
REMARK 922        TOTAL FREE ENERGY PREDICTED BY IDOCK:   -5.93 KCAL/MOL
REMARK 923 INTER-LIGAND FREE ENERGY PREDICTED BY IDOCK:   -5.88 KCAL/MOL
REMARK 924 INTRA-LIGAND FREE ENERGY PREDICTED BY IDOCK:   -0.05 KCAL/MOL
REMARK 927      BINDING AFFINITY PREDICTED BY RF-SCORE:    0.00 PKD
ROOT
HETATM    1  C   UNL     1     -11.252  16.393  67.947  1.00  0.00    -0.184 C  
HETATM    2  C   UNL     1     -10.398  16.347  66.678  1.00  0.00    -0.292 C  
HETATM    3  C   UNL     1     -10.665  17.637  65.878  1.00  0.00    -0.113 C  
HETATM    4  C   UNL     1      -8.888  16.224  66.958  1.00  0.00    -0.205 C  
ENDROOT
BRANCH   4   5
HETATM    5  N   UNL     1      -8.422  15.011  67.754  1.00  0.00    -0.149 N  
BRANCH   5   6
HETATM    6  C   UNL     1      -8.861  13.679  67.097  1.00  0.00    -0.230 C  
BRANCH   6   7
HETATM    7  C   UNL     1      -9.541  12.622  68.037  1.00  0.00    -0.213 C  
HETATM    8  H   UNL     1     -10.172  12.585  69.886  1.00  0.00     0.000 HD 
HETATM    9  O   UNL     1      -9.761  13.225  69.317  1.00  0.00     0.354 OA 
BRANCH   7  10
HETATM   10  C   UNL     1     -10.862  12.011  67.438  1.00  0.00    -0.242 C  
BRANCH  10  11
HETATM   11  N   UNL     1     -10.619  10.834  66.579  1.00  0.00    -0.240 N  
HETATM   12  O   UNL     1      -8.600  10.313  67.533  1.00  0.00    -0.119 OA 
HETATM   13  H   UNL     1     -11.313  10.573  65.879  1.00  0.00     0.000 HD 
HETATM   14  C   UNL     1      -9.474  10.088  66.709  1.00  0.00    -0.168 C  
BRANCH  14  15
HETATM   15  O   UNL     1      -9.419   9.083  65.788  1.00  0.00    -0.245 OA 
BRANCH  15  16
HETATM   16  C   UNL     1      -8.399   9.266  64.788  1.00  0.00    -0.162 C  
HETATM   17  C   UNL     1      -8.142   7.997  64.002  1.00  0.00    -0.102 C  
HETATM   18  O   UNL     1      -8.246   9.762  62.444  1.00  0.00    -0.122 OA 
HETATM   19  C   UNL     1      -7.570   8.528  62.706  1.00  0.00    -0.111 C  
HETATM   20  C   UNL     1      -8.794  10.244  63.683  1.00  0.00    -0.222 C  
ENDBRANCH  15  16
ENDBRANCH  14  15
ENDBRANCH  10  11
BRANCH  10  21
HETATM   21  C   UNL     1     -12.032  11.779  68.431  1.00  0.00    -0.250 C  
BRANCH  21  22
HETATM   22  C   UNL     1     -11.918  10.744  69.533  1.00  0.00    -0.364 A  
HETATM   23  C   UNL     1     -10.535   9.264  70.883  1.00  0.00    -0.372 A  
HETATM   24  C   UNL     1     -10.705  10.079  69.759  1.00  0.00    -0.304 A  
HETATM   25  C   UNL     1     -11.578   9.087  71.789  1.00  0.00    -0.444 A  
HETATM   26  C   UNL     1     -12.966  10.544  70.447  1.00  0.00    -0.208 A  
HETATM   27  C   UNL     1     -12.797   9.721  71.566  1.00  0.00    -0.502 A  
ENDBRANCH  21  22
ENDBRANCH  10  21
ENDBRANCH   7  10
ENDBRANCH   6   7
ENDBRANCH   5   6
BRANCH   5  28
HETATM   28  S   UNL     1      -6.675  15.053  67.975  1.00  0.00    -0.161 S  
HETATM   29  O   UNL     1      -6.042  15.340  66.709  1.00  0.00     0.161 OA 
HETATM   30  O   UNL     1      -6.446  15.904  69.129  1.00  0.00    -0.133 OA 
BRANCH  28  31
HETATM   31  C   UNL     1      -6.199  13.405  68.415  1.00  0.00    -0.088 A  
HETATM   32  N   UNL     1      -5.128   9.469  69.432  1.00  0.00    -0.036 NA 
HETATM   33  H2  UNL     1      -6.003   9.000  69.664  1.00  0.00     0.000 HD 
HETATM   34  H1  UNL     1      -4.615   8.884  68.772  1.00  0.00     0.000 HD 
HETATM   35  C   UNL     1      -6.498  12.909  69.685  1.00  0.00    -0.044 A  
HETATM   36  C   UNL     1      -6.114  11.605  70.026  1.00  0.00    -0.158 A  
HETATM   37  C   UNL     1      -5.575  12.579  67.470  1.00  0.00    -0.131 A  
HETATM   38  C   UNL     1      -5.203  11.278  67.821  1.00  0.00    -0.041 A  
HETATM   39  C   UNL     1      -5.410  10.803  69.120  1.00  0.00    -0.041 A  
ENDBRANCH  28  31
ENDBRANCH   5  28
ENDBRANCH   4   5
TORSDOF 11
ENDMDL
MODEL      375
REMARK 921   NORMALIZED FREE ENERGY PREDICTED BY IDOCK:   -2.53 KCAL/MOL
REMARK 922        TOTAL FREE ENERGY PREDICTED BY IDOCK:   -5.92 KCAL/MOL
REMARK 923 INTER-LIGAND FREE ENERGY PREDICTED BY IDOCK:   -5.48 KCAL/MOL
REMARK 924 INTRA-LIGAND FREE ENERGY PREDICTED BY IDOCK:   -0.44 KCAL/MOL
REMARK 927      BINDING AFFINITY PREDICTED BY RF-SCORE:    0.00 PKD
ROOT
HETATM    1  C   UNL     1      -7.752   3.745  68.721  1.00  0.00    -0.053 C  
HETATM    2  C   UNL     1      -6.566   4.508  69.313  1.00  0.00    -0.040 C  
HETATM    3  C   UNL     1      -5.271   3.828  68.825  1.00  0.00    -0.011 C  
HETATM    4  C   UNL     1      -6.538   5.999  68.921  1.00  0.00    -0.051 C  
ENDROOT
BRANCH   4   5
HETATM    5  N   UNL     1      -7.745   6.845  69.308  1.00  0.00    -0.103 N  
BRANCH   5   6
HETATM    6  C   UNL     1      -9.082   6.145  68.966  1.00  0.00    -0.124 C  
BRANCH   6   7
HETATM    7  C   UNL     1     -10.136   6.991  68.170  1.00  0.00    -0.169 C  
HETATM    8  H   UNL     1     -10.607   8.883  68.036  1.00  0.00     0.000 HD 
HETATM    9  O   UNL     1      -9.969   8.370  68.518  1.00  0.00    -0.176 OA 
BRANCH   7  10
HETATM   10  C   UNL     1     -10.075   6.764  66.614  1.00  0.00    -0.136 C  
BRANCH  10  11
HETATM   11  N   UNL     1      -9.900   8.017  65.851  1.00  0.00    -0.399 N  
HETATM   12  O   UNL     1      -7.616   8.042  66.044  1.00  0.00    -0.082 OA 
HETATM   13  H   UNL     1     -10.719   8.492  65.471  1.00  0.00     0.000 HD 
HETATM   14  C   UNL     1      -8.652   8.553  65.647  1.00  0.00    -0.177 C  
BRANCH  14  15
HETATM   15  O   UNL     1      -8.715   9.735  64.970  1.00  0.00    -0.150 OA 
BRANCH  15  16
HETATM   16  C   UNL     1      -9.713  10.642  65.476  1.00  0.00    -0.237 C  
HETATM   17  C   UNL     1      -9.109  11.712  66.363  1.00  0.00    -0.209 C  
HETATM   18  O   UNL     1     -10.634  12.790  64.927  1.00  0.00    -0.291 OA 
HETATM   19  C   UNL     1     -10.126  12.828  66.264  1.00  0.00    -0.259 C  
HETATM   20  C   UNL     1     -10.385  11.480  64.390  1.00  0.00    -0.312 C  
ENDBRANCH  15  16
ENDBRANCH  14  15
ENDBRANCH  10  11
BRANCH  10  21
HETATM   21  C   UNL     1      -9.132   5.638  66.112  1.00  0.00    -0.158 C  
BRANCH  21  22
HETATM   22  C   UNL     1      -9.394   4.942  64.791  1.00  0.00    -0.010 A  
HETATM   23  C   UNL     1      -8.606   4.253  62.593  1.00  0.00    -0.094 A  
HETATM   24  C   UNL     1      -8.467   5.036  63.744  1.00  0.00    -0.128 A  
HETATM   25  C   UNL     1      -9.680   3.375  62.464  1.00  0.00    -0.099 A  
HETATM   26  C   UNL     1     -10.481   4.064  64.640  1.00  0.00    -0.208 A  
HETATM   27  C   UNL     1     -10.622   3.287  63.485  1.00  0.00    -0.257 A  
ENDBRANCH  21  22
ENDBRANCH  10  21
ENDBRANCH   7  10
ENDBRANCH   6   7
ENDBRANCH   5   6
BRANCH   5  28
HETATM   28  S   UNL     1      -7.678   7.267  71.017  1.00  0.00    -0.089 S  
HETATM   29  O   UNL     1      -6.502   6.673  71.608  1.00  0.00    -0.045 OA 
HETATM   30  O   UNL     1      -7.894   8.701  71.076  1.00  0.00    -0.087 OA 
BRANCH  28  31
HETATM   31  C   UNL     1      -9.074   6.476  71.768  1.00  0.00    -0.142 A  
HETATM   32  N   UNL     1     -12.407   4.579  73.490  1.00  0.00     0.012 NA 
HETATM   33  H2  UNL     1     -13.151   4.655  72.797  1.00  0.00     0.000 HD 
HETATM   34  H1  UNL     1     -12.350   3.608  73.796  1.00  0.00     0.000 HD 
HETATM   35  C   UNL     1     -10.253   7.195  71.974  1.00  0.00    -0.209 A  
HETATM   36  C   UNL     1     -11.351   6.563  72.574  1.00  0.00    -0.299 A  
HETATM   37  C   UNL     1      -9.014   5.116  72.102  1.00  0.00    -0.139 A  
HETATM   38  C   UNL     1     -10.120   4.496  72.693  1.00  0.00    -0.229 A  
HETATM   39  C   UNL     1     -11.272   5.229  72.993  1.00  0.00    -0.324 A  
ENDBRANCH  28  31
ENDBRANCH   5  28
ENDBRANCH   4   5
TORSDOF 11
ENDMDL
MODEL      376
REMARK 921   NORMALIZED FREE ENERGY PREDICTED BY IDOCK:   -2.48 KCAL/MOL
REMARK 922        TOTAL FREE ENERGY PREDICTED BY IDOCK:   -5.85 KCAL/MOL
REMARK 923 INTER-LIGAND FREE ENERGY PREDICTED BY IDOCK:   -4.74 KCAL/MOL
REMARK 924 INTRA-LIGAND FREE ENERGY PREDICTED BY IDOCK:   -1.10 KCAL/MOL
REMARK 927      BINDING AFFINITY PREDICTED BY RF-SCORE:    0.00 PKD
ROOT
HETATM    1  C   UNL     1     -10.695  16.649  68.506  1.00  0.00    -0.351 C  
HETATM    2  C   UNL     1     -10.485  16.095  67.096  1.00  0.00    -0.305 C  
HETATM    3  C   UNL     1     -10.575  17.272  66.104  1.00  0.00    -0.204 C  
HETATM    4  C   UNL     1      -9.134  15.377  66.913  1.00  0.00    -0.242 C  
ENDROOT
BRANCH   4   5
HETATM    5  N   UNL     1      -8.850  14.183  67.818  1.00  0.00    -0.175 N  
BRANCH   5   6
HETATM    6  C   UNL     1      -9.825  13.010  67.558  1.00  0.00    -0.209 C  
BRANCH   6   7
HETATM    7  C   UNL     1     -10.226  12.140  68.801  1.00  0.00    -0.116 C  
HETATM    8  H   UNL     1     -11.235  12.426  70.450  1.00  0.00     0.000 HD 
HETATM    9  O   UNL     1     -10.993  12.953  69.697  1.00  0.00     0.007 OA 
BRANCH   7  10
HETATM   10  C   UNL     1     -10.979  10.812  68.420  1.00  0.00    -0.248 C  
BRANCH  10  11
HETATM   11  N   UNL     1     -10.112   9.830  67.738  1.00  0.00    -0.169 N  
HETATM   12  O   UNL     1      -8.458   9.900  69.323  1.00  0.00    -0.132 OA 
HETATM   13  H   UNL     1     -10.421   9.412  66.860  1.00  0.00     0.000 HD 
HETATM   14  C   UNL     1      -8.898   9.470  68.268  1.00  0.00    -0.124 C  
BRANCH  14  15
HETATM   15  O   UNL     1      -8.233   8.596  67.459  1.00  0.00    -0.109 OA 
BRANCH  15  16
HETATM   16  C   UNL     1      -7.073   8.002  68.073  1.00  0.00    -0.086 C  
HETATM   17  C   UNL     1      -7.430   6.782  68.897  1.00  0.00    -0.096 C  
HETATM   18  O   UNL     1      -5.517   6.227  67.637  1.00  0.00    -0.005 OA 
HETATM   19  C   UNL     1      -6.129   6.010  68.913  1.00  0.00    -0.031 C  
HETATM   20  C   UNL     1      -6.078   7.422  67.069  1.00  0.00    -0.046 C  
ENDBRANCH  15  16
ENDBRANCH  14  15
ENDBRANCH  10  11
BRANCH  10  21
HETATM   21  C   UNL     1     -11.842  10.158  69.532  1.00  0.00    -0.067 C  
BRANCH  21  22
HETATM   22  C   UNL     1     -11.356   8.921  70.260  1.00  0.00    -0.179 A  
HETATM   23  C   UNL     1     -10.548   7.874  72.304  1.00  0.00    -0.331 A  
HETATM   24  C   UNL     1     -10.826   9.021  71.554  1.00  0.00    -0.416 A  
HETATM   25  C   UNL     1     -10.780   6.609  71.768  1.00  0.00    -0.257 A  
HETATM   26  C   UNL     1     -11.570   7.638  69.728  1.00  0.00     0.248 A  
HETATM   27  C   UNL     1     -11.283   6.491  70.477  1.00  0.00    -0.401 A  
ENDBRANCH  21  22
ENDBRANCH  10  21
ENDBRANCH   7  10
ENDBRANCH   6   7
ENDBRANCH   5   6
BRANCH   5  28
HETATM   28  S   UNL     1      -7.178  13.659  67.638  1.00  0.00    -0.160 S  
HETATM   29  O   UNL     1      -7.149  12.382  66.965  1.00  0.00    -0.116 OA 
HETATM   30  O   UNL     1      -6.465  14.801  67.094  1.00  0.00    -0.250 OA 
BRANCH  28  31
HETATM   31  C   UNL     1      -6.577  13.377  69.281  1.00  0.00    -0.097 A  
HETATM   32  N   UNL     1      -5.211  12.686  73.196  1.00  0.00    -0.273 NA 
HETATM   33  H2  UNL     1      -6.008  12.885  73.801  1.00  0.00     0.000 HD 
HETATM   34  H1  UNL     1      -4.828  11.778  73.459  1.00  0.00     0.000 HD 
HETATM   35  C   UNL     1      -6.596  14.413  70.216  1.00  0.00    -0.076 A  
HETATM   36  C   UNL     1      -6.114  14.182  71.512  1.00  0.00     0.058 A  
HETATM   37  C   UNL     1      -6.136  12.101  69.656  1.00  0.00    -0.129 A  
HETATM   38  C   UNL     1      -5.664  11.883  70.954  1.00  0.00    -0.012 A  
HETATM   39  C   UNL     1      -5.589  12.935  71.872  1.00  0.00     0.357 A  
ENDBRANCH  28  31
ENDBRANCH   5  28
ENDBRANCH   4   5
TORSDOF 11
ENDMDL
MODEL      377
REMARK 921   NORMALIZED FREE ENERGY PREDICTED BY IDOCK:   -2.47 KCAL/MOL
REMARK 922        TOTAL FREE ENERGY PREDICTED BY IDOCK:   -5.83 KCAL/MOL
REMARK 923 INTER-LIGAND FREE ENERGY PREDICTED BY IDOCK:   -6.11 KCAL/MOL
REMARK 924 INTRA-LIGAND FREE ENERGY PREDICTED BY IDOCK:    0.27 KCAL/MOL
REMARK 927      BINDING AFFINITY PREDICTED BY RF-SCORE:    0.00 PKD
ROOT
HETATM    1  C   UNL     1      -7.034  17.196  66.243  1.00  0.00    -0.257 C  
HETATM    2  C   UNL     1      -8.389  16.532  66.494  1.00  0.00    -0.327 C  
HETATM    3  C   UNL     1      -9.102  16.378  65.135  1.00  0.00     1.624 C  
HETATM    4  C   UNL     1      -8.279  15.151  67.170  1.00  0.00    -0.221 C  
ENDROOT
BRANCH   4   5
HETATM    5  N   UNL     1      -7.589  15.092  68.528  1.00  0.00    -0.115 N  
BRANCH   5   6
HETATM    6  C   UNL     1      -8.604  15.002  69.694  1.00  0.00     0.009 C  
BRANCH   6   7
HETATM    7  C   UNL     1     -10.102  14.751  69.304  1.00  0.00    -0.157 C  
HETATM    8  H   UNL     1     -11.797  14.592  70.265  1.00  0.00     0.000 HD 
HETATM    9  O   UNL     1     -10.889  14.744  70.501  1.00  0.00    -0.104 OA 
BRANCH   7  10
HETATM   10  C   UNL     1     -10.652  15.774  68.243  1.00  0.00    -0.271 C  
BRANCH  10  11
HETATM   11  N   UNL     1     -11.685  15.195  67.360  1.00  0.00    -0.274 N  
HETATM   12  O   UNL     1     -10.802  13.080  67.392  1.00  0.00    -0.245 OA 
HETATM   13  H   UNL     1     -12.437  15.790  67.011  1.00  0.00     0.000 HD 
HETATM   14  C   UNL     1     -11.649  13.870  67.003  1.00  0.00    -0.369 C  
BRANCH  14  15
HETATM   15  O   UNL     1     -12.658  13.551  66.142  1.00  0.00    -0.391 OA 
BRANCH  15  16
HETATM   16  C   UNL     1     -12.217  13.315  64.792  1.00  0.00    -0.417 C  
HETATM   17  C   UNL     1     -10.713  13.156  64.706  1.00  0.00    -0.381 C  
HETATM   18  O   UNL     1     -11.661  11.454  63.381  1.00  0.00    -0.294 OA 
HETATM   19  C   UNL     1     -10.543  12.347  63.440  1.00  0.00    -0.332 C  
HETATM   20  C   UNL     1     -12.705  11.989  64.212  1.00  0.00    -0.188 C  
ENDBRANCH  15  16
ENDBRANCH  14  15
ENDBRANCH  10  11
BRANCH  10  21
HETATM   21  C   UNL     1     -11.055  17.176  68.773  1.00  0.00     0.001 C  
BRANCH  21  22
HETATM   22  C   UNL     1     -10.502  18.434  68.132  1.00  0.00    -0.355 A  
HETATM   23  C   UNL     1      -8.799  20.171  68.054  1.00  0.00    -0.239 A  
HETATM   24  C   UNL     1      -9.436  19.123  68.725  1.00  0.00    -0.454 A  
HETATM   25  C   UNL     1      -9.228  20.558  66.785  1.00  0.00    -0.345 A  
HETATM   26  C   UNL     1     -10.934  18.846  66.860  1.00  0.00    -0.197 A  
HETATM   27  C   UNL     1     -10.301  19.901  66.192  1.00  0.00    -0.604 A  
ENDBRANCH  21  22
ENDBRANCH  10  21
ENDBRANCH   7  10
ENDBRANCH   6   7
ENDBRANCH   5   6
BRANCH   5  28
HETATM   28  S   UNL     1      -6.451  13.749  68.582  1.00  0.00    -0.103 S  
HETATM   29  O   UNL     1      -5.475  13.910  67.531  1.00  0.00    -0.339 OA 
HETATM   30  O   UNL     1      -6.037  13.642  69.969  1.00  0.00    -0.135 OA 
BRANCH  28  31
HETATM   31  C   UNL     1      -7.389  12.300  68.183  1.00  0.00    -0.105 A  
HETATM   32  N   UNL     1      -9.666   8.900  67.218  1.00  0.00    -0.169 NA 
HETATM   33  H2  UNL     1     -10.628   9.142  67.455  1.00  0.00     0.000 HD 
HETATM   34  H1  UNL     1      -9.654   8.520  66.272  1.00  0.00     0.000 HD 
HETATM   35  C   UNL     1      -8.126  11.653  69.176  1.00  0.00     0.186 A  
HETATM   36  C   UNL     1      -8.861  10.504  68.852  1.00  0.00    -0.166 A  
HETATM   37  C   UNL     1      -7.437  11.839  66.861  1.00  0.00    -0.106 A  
HETATM   38  C   UNL     1      -8.180  10.695  66.550  1.00  0.00    -0.138 A  
HETATM   39  C   UNL     1      -8.844   9.982  67.553  1.00  0.00    -0.128 A  
ENDBRANCH  28  31
ENDBRANCH   5  28
ENDBRANCH   4   5
TORSDOF 11
ENDMDL
MODEL      378
REMARK 921   NORMALIZED FREE ENERGY PREDICTED BY IDOCK:   -2.45 KCAL/MOL
REMARK 922        TOTAL FREE ENERGY PREDICTED BY IDOCK:   -5.79 KCAL/MOL
REMARK 923 INTER-LIGAND FREE ENERGY PREDICTED BY IDOCK:   -5.78 KCAL/MOL
REMARK 924 INTRA-LIGAND FREE ENERGY PREDICTED BY IDOCK:   -0.01 KCAL/MOL
REMARK 927      BINDING AFFINITY PREDICTED BY RF-SCORE:    0.00 PKD
ROOT
HETATM    1  C   UNL     1     -11.683   8.010  70.618  1.00  0.00    -0.158 C  
HETATM    2  C   UNL     1     -10.643   6.912  70.387  1.00  0.00    -0.247 C  
HETATM    3  C   UNL     1     -11.319   5.777  69.591  1.00  0.00     0.043 C  
HETATM    4  C   UNL     1      -9.397   7.398  69.622  1.00  0.00    -0.149 C  
ENDROOT
BRANCH   4   5
HETATM    5  N   UNL     1      -8.593   8.533  70.246  1.00  0.00    -0.131 N  
BRANCH   5   6
HETATM    6  C   UNL     1      -9.246   9.915  69.998  1.00  0.00    -0.183 C  
BRANCH   6   7
HETATM    7  C   UNL     1      -9.831  10.169  68.564  1.00  0.00    -0.154 C  
HETATM    8  H   UNL     1     -11.479  10.922  67.831  1.00  0.00     0.000 HD 
HETATM    9  O   UNL     1     -11.125  10.768  68.700  1.00  0.00    -0.221 OA 
BRANCH   7  10
HETATM   10  C   UNL     1      -8.881  11.019  67.642  1.00  0.00    -0.131 C  
BRANCH  10  11
HETATM   11  N   UNL     1      -8.122  10.199  66.677  1.00  0.00    -0.118 N  
HETATM   12  O   UNL     1      -6.232  10.082  67.968  1.00  0.00    -0.053 OA 
HETATM   13  H   UNL     1      -8.565   9.916  65.802  1.00  0.00     0.000 HD 
HETATM   14  C   UNL     1      -6.832   9.810  66.939  1.00  0.00    -0.083 C  
BRANCH  14  15
HETATM   15  O   UNL     1      -6.295   9.108  65.900  1.00  0.00    -0.059 OA 
BRANCH  15  16
HETATM   16  C   UNL     1      -7.195   8.141  65.326  1.00  0.00    -0.068 C  
HETATM   17  C   UNL     1      -6.949   7.948  63.843  1.00  0.00    -0.063 C  
HETATM   18  O   UNL     1      -7.212   5.803  64.782  1.00  0.00    -0.061 OA 
HETATM   19  C   UNL     1      -7.499   6.559  63.601  1.00  0.00    -0.082 C  
HETATM   20  C   UNL     1      -6.994   6.725  65.863  1.00  0.00    -0.064 C  
ENDBRANCH  15  16
ENDBRANCH  14  15
ENDBRANCH  10  11
BRANCH  10  21
HETATM   21  C   UNL     1      -9.500  12.279  66.979  1.00  0.00    -0.204 C  
BRANCH  21  22
HETATM   22  C   UNL     1     -10.387  12.152  65.756  1.00  0.00    -0.289 A  
HETATM   23  C   UNL     1     -12.591  12.334  64.737  1.00  0.00    -0.312 A  
HETATM   24  C   UNL     1     -11.779  12.264  65.875  1.00  0.00    -0.451 A  
HETATM   25  C   UNL     1     -12.026  12.278  63.465  1.00  0.00    -0.625 A  
HETATM   26  C   UNL     1      -9.833  12.081  64.467  1.00  0.00    -0.179 A  
HETATM   27  C   UNL     1     -10.647  12.143  63.330  1.00  0.00    -0.454 A  
ENDBRANCH  21  22
ENDBRANCH  10  21
ENDBRANCH   7  10
ENDBRANCH   6   7
ENDBRANCH   5   6
BRANCH   5  28
HETATM   28  S   UNL     1      -8.364   8.250  71.969  1.00  0.00    -0.174 S  
HETATM   29  O   UNL     1      -7.196   8.969  72.419  1.00  0.00    -0.332 OA 
HETATM   30  O   UNL     1      -9.660   8.483  72.581  1.00  0.00    -0.280 OA 
BRANCH  28  31
HETATM   31  C   UNL     1      -7.990   6.526  72.134  1.00  0.00    -0.102 A  
HETATM   32  N   UNL     1      -7.071   2.448  72.583  1.00  0.00    -0.030 NA 
HETATM   33  H2  UNL     1      -6.178   2.424  73.075  1.00  0.00     0.000 HD 
HETATM   34  H1  UNL     1      -7.718   1.820  73.059  1.00  0.00     0.000 HD 
HETATM   35  C   UNL     1      -6.816   6.013  71.579  1.00  0.00    -0.067 A  
HETATM   36  C   UNL     1      -6.530   4.648  71.711  1.00  0.00    -0.023 A  
HETATM   37  C   UNL     1      -8.842   5.690  72.868  1.00  0.00    -0.124 A  
HETATM   38  C   UNL     1      -8.541   4.331  72.997  1.00  0.00    -0.097 A  
HETATM   39  C   UNL     1      -7.418   3.786  72.365  1.00  0.00    -0.055 A  
ENDBRANCH  28  31
ENDBRANCH   5  28
ENDBRANCH   4   5
TORSDOF 11
ENDMDL
MODEL      379
REMARK 921   NORMALIZED FREE ENERGY PREDICTED BY IDOCK:   -2.34 KCAL/MOL
REMARK 922        TOTAL FREE ENERGY PREDICTED BY IDOCK:   -5.62 KCAL/MOL
REMARK 923 INTER-LIGAND FREE ENERGY PREDICTED BY IDOCK:   -5.46 KCAL/MOL
REMARK 924 INTRA-LIGAND FREE ENERGY PREDICTED BY IDOCK:   -0.16 KCAL/MOL
REMARK 927      BINDING AFFINITY PREDICTED BY RF-SCORE:    0.00 PKD
ROOT
HETATM    1  C   UNL     1      -8.939   7.924  65.448  1.00  0.00     0.056 C  
HETATM    2  C   UNL     1      -9.413   8.591  66.740  1.00  0.00    -0.253 C  
HETATM    3  C   UNL     1     -10.907   8.260  66.927  1.00  0.00     0.010 C  
HETATM    4  C   UNL     1      -8.630   8.137  67.988  1.00  0.00    -0.129 C  
ENDROOT
BRANCH   4   5
HETATM    5  N   UNL     1      -7.124   8.370  67.990  1.00  0.00    -0.084 N  
BRANCH   5   6
HETATM    6  C   UNL     1      -6.664   9.202  69.211  1.00  0.00    -0.049 C  
BRANCH   6   7
HETATM    7  C   UNL     1      -7.376  10.583  69.429  1.00  0.00    -0.133 C  
HETATM    8  H   UNL     1      -7.206  12.069  70.687  1.00  0.00     0.000 HD 
HETATM    9  O   UNL     1      -6.775  11.233  70.555  1.00  0.00    -0.154 OA 
BRANCH   7  10
HETATM   10  C   UNL     1      -7.373  11.498  68.149  1.00  0.00    -0.094 C  
BRANCH  10  11
HETATM   11  N   UNL     1      -8.643  11.448  67.397  1.00  0.00    -0.139 N  
HETATM   12  O   UNL     1      -7.643  11.402  65.334  1.00  0.00     0.393 OA 
HETATM   13  H   UNL     1      -9.527  11.437  67.905  1.00  0.00     0.000 HD 
HETATM   14  C   UNL     1      -8.651  11.415  66.024  1.00  0.00    -0.094 C  
BRANCH  14  15
HETATM   15  O   UNL     1      -9.921  11.427  65.526  1.00  0.00    -0.218 OA 
BRANCH  15  16
HETATM   16  C   UNL     1     -10.624  12.662  65.757  1.00  0.00    -0.272 C  
HETATM   17  C   UNL     1     -10.421  13.650  64.627  1.00  0.00    -0.442 C  
HETATM   18  O   UNL     1     -12.715  13.680  65.161  1.00  0.00    -0.611 OA 
HETATM   19  C   UNL     1     -11.645  14.532  64.742  1.00  0.00    -0.413 C  
HETATM   20  C   UNL     1     -12.144  12.508  65.767  1.00  0.00    -0.378 C  
ENDBRANCH  15  16
ENDBRANCH  14  15
ENDBRANCH  10  11
BRANCH  10  21
HETATM   21  C   UNL     1      -6.860  12.951  68.334  1.00  0.00    -0.096 C  
BRANCH  21  22
HETATM   22  C   UNL     1      -7.777  14.132  68.085  1.00  0.00    -0.140 A  
HETATM   23  C   UNL     1      -8.277  16.175  66.857  1.00  0.00    -0.273 A  
HETATM   24  C   UNL     1      -7.375  15.177  67.240  1.00  0.00    -0.216 A  
HETATM   25  C   UNL     1      -9.590  16.154  67.324  1.00  0.00    -0.231 A  
HETATM   26  C   UNL     1      -9.099  14.134  68.560  1.00  0.00    -0.176 A  
HETATM   27  C   UNL     1      -9.998  15.138  68.182  1.00  0.00    -0.221 A  
ENDBRANCH  21  22
ENDBRANCH  10  21
ENDBRANCH   7  10
ENDBRANCH   6   7
ENDBRANCH   5   6
BRANCH   5  28
HETATM   28  S   UNL     1      -6.264   6.834  67.920  1.00  0.00    -0.034 S  
HETATM   29  O   UNL     1      -5.143   6.957  67.018  1.00  0.00    -0.012 OA 
HETATM   30  O   UNL     1      -6.065   6.432  69.301  1.00  0.00    -0.024 OA 
BRANCH  28  31
HETATM   31  C   UNL     1      -7.386   5.681  67.176  1.00  0.00    -0.080 A  
HETATM   32  N   UNL     1     -10.011   2.896  65.438  1.00  0.00    -0.334 NA 
HETATM   33  H2  UNL     1      -9.433   2.090  65.200  1.00  0.00     0.000 HD 
HETATM   34  H1  UNL     1     -10.829   2.565  65.950  1.00  0.00     0.000 HD 
HETATM   35  C   UNL     1      -7.169   5.246  65.868  1.00  0.00    -0.073 A  
HETATM   36  C   UNL     1      -8.065   4.338  65.286  1.00  0.00    -0.101 A  
HETATM   37  C   UNL     1      -8.455   5.164  67.920  1.00  0.00    -0.104 A  
HETATM   38  C   UNL     1      -9.336   4.253  67.330  1.00  0.00    -0.186 A  
HETATM   39  C   UNL     1      -9.187   3.883  65.989  1.00  0.00    -0.158 A  
ENDBRANCH  28  31
ENDBRANCH   5  28
ENDBRANCH   4   5
TORSDOF 11
ENDMDL
MODEL      380
REMARK 921   NORMALIZED FREE ENERGY PREDICTED BY IDOCK:   -2.28 KCAL/MOL
REMARK 922        TOTAL FREE ENERGY PREDICTED BY IDOCK:   -5.52 KCAL/MOL
REMARK 923 INTER-LIGAND FREE ENERGY PREDICTED BY IDOCK:   -4.84 KCAL/MOL
REMARK 924 INTRA-LIGAND FREE ENERGY PREDICTED BY IDOCK:   -0.68 KCAL/MOL
REMARK 927      BINDING AFFINITY PREDICTED BY RF-SCORE:    0.00 PKD
ROOT
HETATM    1  C   UNL     1     -10.646   6.883  73.172  1.00  0.00    -0.330 C  
HETATM    2  C   UNL     1     -10.185   5.425  73.140  1.00  0.00    -0.216 C  
HETATM    3  C   UNL     1     -11.392   4.535  73.498  1.00  0.00    -0.355 C  
HETATM    4  C   UNL     1      -9.619   4.989  71.774  1.00  0.00    -0.154 C  
ENDROOT
BRANCH   4   5
HETATM    5  N   UNL     1      -8.419   5.762  71.237  1.00  0.00    -0.127 N  
BRANCH   5   6
HETATM    6  C   UNL     1      -8.365   7.209  71.786  1.00  0.00    -0.105 C  
BRANCH   6   7
HETATM    7  C   UNL     1      -8.175   8.354  70.731  1.00  0.00    -0.124 C  
HETATM    8  H   UNL     1      -6.796   8.864  69.443  1.00  0.00     0.000 HD 
HETATM    9  O   UNL     1      -6.912   8.171  70.082  1.00  0.00    -0.040 OA 
BRANCH   7  10
HETATM   10  C   UNL     1      -9.358   8.457  69.698  1.00  0.00    -0.161 C  
BRANCH  10  11
HETATM   11  N   UNL     1      -9.805   7.142  69.195  1.00  0.00    -0.158 N  
HETATM   12  O   UNL     1      -8.586   7.253  67.257  1.00  0.00    -0.120 OA 
HETATM   13  H   UNL     1     -10.447   6.582  69.757  1.00  0.00     0.000 HD 
HETATM   14  C   UNL     1      -9.371   6.663  67.984  1.00  0.00    -0.113 C  
BRANCH  14  15
HETATM   15  O   UNL     1      -9.942   5.462  67.682  1.00  0.00    -0.142 OA 
BRANCH  15  16
HETATM   16  C   UNL     1      -9.712   5.033  66.326  1.00  0.00    -0.183 C  
HETATM   17  C   UNL     1      -9.323   3.571  66.252  1.00  0.00    -0.177 C  
HETATM   18  O   UNL     1     -10.913   3.947  64.555  1.00  0.00    -0.246 OA 
HETATM   19  C   UNL     1      -9.727   3.198  64.843  1.00  0.00    -0.078 C  
HETATM   20  C   UNL     1     -10.964   5.068  65.452  1.00  0.00     0.291 C  
ENDBRANCH  15  16
ENDBRANCH  14  15
ENDBRANCH  10  11
BRANCH  10  21
HETATM   21  C   UNL     1     -10.551   9.367  70.097  1.00  0.00    -0.279 C  
BRANCH  21  22
HETATM   22  C   UNL     1     -11.065  10.429  69.145  1.00  0.00    -0.296 A  
HETATM   23  C   UNL     1     -12.247  12.527  68.787  1.00  0.00     0.019 A  
HETATM   24  C   UNL     1     -11.917  11.443  69.607  1.00  0.00    -0.416 A  
HETATM   25  C   UNL     1     -11.745  12.608  67.490  1.00  0.00    -0.429 A  
HETATM   26  C   UNL     1     -10.580  10.517  67.829  1.00  0.00    -0.285 A  
HETATM   27  C   UNL     1     -10.918  11.598  67.009  1.00  0.00    -0.338 A  
ENDBRANCH  21  22
ENDBRANCH  10  21
ENDBRANCH   7  10
ENDBRANCH   6   7
ENDBRANCH   5   6
BRANCH   5  28
HETATM   28  S   UNL     1      -6.924   4.901  71.592  1.00  0.00    -0.054 S  
HETATM   29  O   UNL     1      -5.912   5.851  71.992  1.00  0.00    -0.033 OA 
HETATM   30  O   UNL     1      -7.300   3.806  72.467  1.00  0.00    -0.051 OA 
BRANCH  28  31
HETATM   31  C   UNL     1      -6.385   4.206  70.054  1.00  0.00    -0.028 A  
HETATM   32  N   UNL     1      -5.169   2.563  66.381  1.00  0.00    -0.005 NA 
HETATM   33  H2  UNL     1      -5.972   2.034  66.041  1.00  0.00     0.000 HD 
HETATM   34  H1  UNL     1      -4.839   3.166  65.627  1.00  0.00     0.000 HD 
HETATM   35  C   UNL     1      -6.381   2.821  69.880  1.00  0.00    -0.028 A  
HETATM   36  C   UNL     1      -5.948   2.281  68.662  1.00  0.00    -0.024 A  
HETATM   37  C   UNL     1      -6.020   5.048  68.995  1.00  0.00    -0.021 A  
HETATM   38  C   UNL     1      -5.597   4.494  67.782  1.00  0.00    -0.017 A  
HETATM   39  C   UNL     1      -5.496   3.108  67.628  1.00  0.00    -0.017 A  
ENDBRANCH  28  31
ENDBRANCH   5  28
ENDBRANCH   4   5
TORSDOF 11
ENDMDL
MODEL      381
REMARK 921   NORMALIZED FREE ENERGY PREDICTED BY IDOCK:   -2.08 KCAL/MOL
REMARK 922        TOTAL FREE ENERGY PREDICTED BY IDOCK:   -5.18 KCAL/MOL
REMARK 923 INTER-LIGAND FREE ENERGY PREDICTED BY IDOCK:   -7.35 KCAL/MOL
REMARK 924 INTRA-LIGAND FREE ENERGY PREDICTED BY IDOCK:    2.17 KCAL/MOL
REMARK 927      BINDING AFFINITY PREDICTED BY RF-SCORE:    0.00 PKD
ROOT
HETATM    1  C   UNL     1     -10.980   8.612  69.187  1.00  0.00     0.041 C  
HETATM    2  C   UNL     1     -10.399   7.227  69.478  1.00  0.00    -0.230 C  
HETATM    3  C   UNL     1     -10.991   6.238  68.454  1.00  0.00    -0.409 C  
HETATM    4  C   UNL     1      -8.861   7.178  69.402  1.00  0.00    -0.136 C  
ENDROOT
BRANCH   4   5
HETATM    5  N   UNL     1      -8.086   8.100  70.337  1.00  0.00    -0.105 N  
BRANCH   5   6
HETATM    6  C   UNL     1      -7.766   9.464  69.676  1.00  0.00    -0.098 C  
BRANCH   6   7
HETATM    7  C   UNL     1      -8.799   9.993  68.621  1.00  0.00    -0.132 C  
HETATM    8  H   UNL     1      -9.667  11.702  68.239  1.00  0.00     0.000 HD 
HETATM    9  O   UNL     1      -9.041  11.381  68.878  1.00  0.00    -0.127 OA 
BRANCH   7  10
HETATM   10  C   UNL     1      -8.359   9.738  67.132  1.00  0.00    -0.121 C  
BRANCH  10  11
HETATM   11  N   UNL     1      -8.666  10.870  66.234  1.00  0.00    -0.165 N  
HETATM   12  O   UNL     1     -10.529   9.892  65.324  1.00  0.00    -0.066 OA 
HETATM   13  H   UNL     1      -8.066  11.695  66.244  1.00  0.00     0.000 HD 
HETATM   14  C   UNL     1      -9.745  10.828  65.386  1.00  0.00    -0.245 C  
BRANCH  14  15
HETATM   15  O   UNL     1      -9.819  11.944  64.607  1.00  0.00    -0.245 OA 
BRANCH  15  16
HETATM   16  C   UNL     1     -11.062  12.661  64.735  1.00  0.00    -0.300 C  
HETATM   17  C   UNL     1     -10.842  14.150  64.912  1.00  0.00    -0.423 C  
HETATM   18  O   UNL     1     -12.579  13.893  63.341  1.00  0.00    -0.853 OA 
HETATM   19  C   UNL     1     -12.148  14.732  64.417  1.00  0.00    -0.440 C  
HETATM   20  C   UNL     1     -11.924  12.620  63.475  1.00  0.00    -0.548 C  
ENDBRANCH  15  16
ENDBRANCH  14  15
ENDBRANCH  10  11
BRANCH  10  21
HETATM   21  C   UNL     1      -6.922   9.193  66.915  1.00  0.00    -0.081 C  
BRANCH  21  22
HETATM   22  C   UNL     1      -6.681   7.963  66.063  1.00  0.00    -0.053 A  
HETATM   23  C   UNL     1      -5.290   6.048  65.493  1.00  0.00    -0.013 A  
HETATM   24  C   UNL     1      -5.458   7.281  66.131  1.00  0.00    -0.027 A  
HETATM   25  C   UNL     1      -6.336   5.484  64.764  1.00  0.00    -0.037 A  
HETATM   26  C   UNL     1      -7.720   7.390  65.311  1.00  0.00    -0.113 A  
HETATM   27  C   UNL     1      -7.548   6.160  64.667  1.00  0.00    -0.093 A  
ENDBRANCH  21  22
ENDBRANCH  10  21
ENDBRANCH   7  10
ENDBRANCH   6   7
ENDBRANCH   5   6
BRANCH   5  28
HETATM   28  S   UNL     1      -8.966   8.327  71.846  1.00  0.00    -0.207 S  
HETATM   29  O   UNL     1      -8.037   8.700  72.887  1.00  0.00    -0.388 OA 
HETATM   30  O   UNL     1     -10.094   9.180  71.518  1.00  0.00    -0.319 OA 
BRANCH  28  31
HETATM   31  C   UNL     1      -9.601   6.732  72.283  1.00  0.00    -0.144 A  
HETATM   32  N   UNL     1     -11.102   2.963  73.387  1.00  0.00    -0.202 NA 
HETATM   33  H2  UNL     1     -10.605   2.713  74.242  1.00  0.00     0.000 HD 
HETATM   34  H1  UNL     1     -12.100   2.829  73.544  1.00  0.00     0.000 HD 
HETATM   35  C   UNL     1      -8.735   5.642  72.384  1.00  0.00    -0.128 A  
HETATM   36  C   UNL     1      -9.248   4.383  72.726  1.00  0.00    -0.145 A  
HETATM   37  C   UNL     1     -10.961   6.578  72.585  1.00  0.00    -0.287 A  
HETATM   38  C   UNL     1     -11.457   5.317  72.932  1.00  0.00    -0.339 A  
HETATM   39  C   UNL     1     -10.619   4.199  72.942  1.00  0.00    -0.167 A  
ENDBRANCH  28  31
ENDBRANCH   5  28
ENDBRANCH   4   5
TORSDOF 11
ENDMDL
MODEL      382
REMARK 921   NORMALIZED FREE ENERGY PREDICTED BY IDOCK:   -1.95 KCAL/MOL
REMARK 922        TOTAL FREE ENERGY PREDICTED BY IDOCK:   -4.97 KCAL/MOL
REMARK 923 INTER-LIGAND FREE ENERGY PREDICTED BY IDOCK:   -4.59 KCAL/MOL
REMARK 924 INTRA-LIGAND FREE ENERGY PREDICTED BY IDOCK:   -0.38 KCAL/MOL
REMARK 927      BINDING AFFINITY PREDICTED BY RF-SCORE:    0.00 PKD
ROOT
HETATM    1  C   UNL     1      -8.873  15.919  68.616  1.00  0.00    -0.206 C  
HETATM    2  C   UNL     1      -9.755  14.946  69.399  1.00  0.00    -0.099 C  
HETATM    3  C   UNL     1     -11.157  15.574  69.532  1.00  0.00    -0.286 C  
HETATM    4  C   UNL     1      -9.880  13.560  68.736  1.00  0.00    -0.042 C  
ENDROOT
BRANCH   4   5
HETATM    5  N   UNL     1      -8.591  12.778  68.506  1.00  0.00    -0.105 N  
BRANCH   5   6
HETATM    6  C   UNL     1      -8.744  11.282  68.872  1.00  0.00    -0.046 C  
BRANCH   6   7
HETATM    7  C   UNL     1      -7.458  10.550  69.395  1.00  0.00    -0.141 C  
HETATM    8  H   UNL     1      -6.155  10.845  70.820  1.00  0.00     0.000 HD 
HETATM    9  O   UNL     1      -6.934  11.288  70.504  1.00  0.00     0.095 OA 
BRANCH   7  10
HETATM   10  C   UNL     1      -7.701   9.038  69.755  1.00  0.00    -0.077 C  
BRANCH  10  11
HETATM   11  N   UNL     1      -7.585   8.760  71.200  1.00  0.00    -0.106 N  
HETATM   12  O   UNL     1      -5.534   7.749  71.039  1.00  0.00    -0.030 OA 
HETATM   13  H   UNL     1      -8.334   9.052  71.829  1.00  0.00     0.000 HD 
HETATM   14  C   UNL     1      -6.487   8.114  71.711  1.00  0.00    -0.052 C  
BRANCH  14  15
HETATM   15  O   UNL     1      -6.602   7.907  73.055  1.00  0.00    -0.065 OA 
BRANCH  15  16
HETATM   16  C   UNL     1      -7.411   6.767  73.400  1.00  0.00    -0.079 C  
HETATM   17  C   UNL     1      -7.673   5.874  72.204  1.00  0.00    -0.102 C  
HETATM   18  O   UNL     1      -7.107   4.464  74.005  1.00  0.00    -0.064 OA 
HETATM   19  C   UNL     1      -7.953   4.537  72.853  1.00  0.00    -0.092 C  
HETATM   20  C   UNL     1      -6.727   5.802  74.366  1.00  0.00    -0.076 C  
ENDBRANCH  15  16
ENDBRANCH  14  15
ENDBRANCH  10  11
BRANCH  10  21
HETATM   21  C   UNL     1      -8.952   8.366  69.128  1.00  0.00    -0.147 C  
BRANCH  21  22
HETATM   22  C   UNL     1      -8.805   7.255  68.109  1.00  0.00    -0.126 A  
HETATM   23  C   UNL     1      -9.057   4.906  67.517  1.00  0.00    -0.127 A  
HETATM   24  C   UNL     1      -9.008   5.918  68.481  1.00  0.00    -0.113 A  
HETATM   25  C   UNL     1      -8.889   5.211  66.168  1.00  0.00    -0.132 A  
HETATM   26  C   UNL     1      -8.621   7.543  66.746  1.00  0.00    -0.127 A  
HETATM   27  C   UNL     1      -8.662   6.529  65.783  1.00  0.00    -0.129 A  
ENDBRANCH  21  22
ENDBRANCH  10  21
ENDBRANCH   7  10
ENDBRANCH   6   7
ENDBRANCH   5   6
BRANCH   5  28
HETATM   28  S   UNL     1      -8.048  12.963  66.841  1.00  0.00     0.137 S  
HETATM   29  O   UNL     1      -7.578  14.313  66.641  1.00  0.00     0.390 OA 
HETATM   30  O   UNL     1      -7.179  11.829  66.583  1.00  0.00    -0.089 OA 
BRANCH  28  31
HETATM   31  C   UNL     1      -9.494  12.777  65.834  1.00  0.00    -0.066 A  
HETATM   32  N   UNL     1     -12.963  12.331  63.500  1.00  0.00    -0.775 NA 
HETATM   33  H2  UNL     1     -13.561  11.692  64.023  1.00  0.00     0.000 HD 
HETATM   34  H1  UNL     1     -13.517  13.145  63.234  1.00  0.00     0.000 HD 
HETATM   35  C   UNL     1      -9.863  11.512  65.372  1.00  0.00    -0.271 A  
HETATM   36  C   UNL     1     -11.006  11.376  64.573  1.00  0.00    -0.346 A  
HETATM   37  C   UNL     1     -10.298  13.889  65.549  1.00  0.00    -0.347 A  
HETATM   38  C   UNL     1     -11.439  13.738  64.756  1.00  0.00    -0.366 A  
HETATM   39  C   UNL     1     -11.766  12.493  64.208  1.00  0.00    -0.382 A  
ENDBRANCH  28  31
ENDBRANCH   5  28
ENDBRANCH   4   5
TORSDOF 11
ENDMDL
MODEL      383
REMARK 921   NORMALIZED FREE ENERGY PREDICTED BY IDOCK:   -1.50 KCAL/MOL
REMARK 922        TOTAL FREE ENERGY PREDICTED BY IDOCK:   -4.24 KCAL/MOL
REMARK 923 INTER-LIGAND FREE ENERGY PREDICTED BY IDOCK:   -8.17 KCAL/MOL
REMARK 924 INTRA-LIGAND FREE ENERGY PREDICTED BY IDOCK:    3.93 KCAL/MOL
REMARK 927      BINDING AFFINITY PREDICTED BY RF-SCORE:    0.00 PKD
ROOT
HETATM    1  C   UNL     1      -9.714  15.972  66.740  1.00  0.00    -0.253 C  
HETATM    2  C   UNL     1     -10.307  15.727  68.128  1.00  0.00    -0.242 C  
HETATM    3  C   UNL     1     -11.520  16.663  68.299  1.00  0.00     0.008 C  
HETATM    4  C   UNL     1     -10.752  14.270  68.358  1.00  0.00    -0.251 C  
ENDROOT
BRANCH   4   5
HETATM    5  N   UNL     1      -9.689  13.185  68.221  1.00  0.00    -0.226 N  
BRANCH   5   6
HETATM    6  C   UNL     1     -10.249  11.777  68.536  1.00  0.00    -0.210 C  
BRANCH   6   7
HETATM    7  C   UNL     1      -9.206  10.682  68.953  1.00  0.00    -0.183 C  
HETATM    8  H   UNL     1      -7.409  10.673  69.722  1.00  0.00     0.000 HD 
HETATM    9  O   UNL     1      -8.041  11.336  69.469  1.00  0.00     0.126 OA 
BRANCH   7  10
HETATM   10  C   UNL     1      -9.782   9.622  69.963  1.00  0.00    -0.241 C  
BRANCH  10  11
HETATM   11  N   UNL     1      -8.734   8.942  70.751  1.00  0.00    -0.186 N  
HETATM   12  O   UNL     1      -8.676   7.074  69.423  1.00  0.00    -0.133 OA 
HETATM   13  H   UNL     1      -8.341   9.406  71.569  1.00  0.00     0.000 HD 
HETATM   14  C   UNL     1      -8.281   7.695  70.398  1.00  0.00    -0.122 C  
BRANCH  14  15
HETATM   15  O   UNL     1      -7.356   7.224  71.284  1.00  0.00    -0.075 OA 
BRANCH  15  16
HETATM   16  C   UNL     1      -7.667   5.920  71.810  1.00  0.00    -0.101 C  
HETATM   17  C   UNL     1      -6.852   5.598  73.046  1.00  0.00    -0.075 C  
HETATM   18  O   UNL     1      -9.071   4.950  73.498  1.00  0.00    -0.120 OA 
HETATM   19  C   UNL     1      -7.714   4.570  73.745  1.00  0.00    -0.090 C  
HETATM   20  C   UNL     1      -9.095   5.798  72.337  1.00  0.00    -0.141 C  
ENDBRANCH  15  16
ENDBRANCH  14  15
ENDBRANCH  10  11
BRANCH  10  21
HETATM   21  C   UNL     1     -10.973  10.079  70.847  1.00  0.00    -0.337 C  
BRANCH  21  22
HETATM   22  C   UNL     1     -12.121   9.135  71.147  1.00  0.00    -0.365 A  
HETATM   23  C   UNL     1     -12.948   6.861  71.418  1.00  0.00    -0.339 A  
HETATM   24  C   UNL     1     -11.966   7.752  70.972  1.00  0.00    -0.281 A  
HETATM   25  C   UNL     1     -14.105   7.337  72.031  1.00  0.00    -0.315 A  
HETATM   26  C   UNL     1     -13.300   9.600  71.752  1.00  0.00    -0.505 A  
HETATM   27  C   UNL     1     -14.285   8.708  72.191  1.00  0.00    -0.520 A  
ENDBRANCH  21  22
ENDBRANCH  10  21
ENDBRANCH   7  10
ENDBRANCH   6   7
ENDBRANCH   5   6
BRANCH   5  28
HETATM   28  S   UNL     1      -8.970  13.229  66.614  1.00  0.00    -0.055 S  
HETATM   29  O   UNL     1      -8.581  14.585  66.303  1.00  0.00     0.045 OA 
HETATM   30  O   UNL     1      -7.994  12.154  66.592  1.00  0.00    -0.079 OA 
BRANCH  28  31
HETATM   31  C   UNL     1     -10.269  12.805  65.487  1.00  0.00    -0.279 A  
HETATM   32  N   UNL     1     -13.361  11.739  62.846  1.00  0.00    -0.396 NA 
HETATM   33  H2  UNL     1     -13.301  10.726  62.752  1.00  0.00     0.000 HD 
HETATM   34  H1  UNL     1     -14.329  11.986  63.054  1.00  0.00     0.000 HD 
HETATM   35  C   UNL     1      -9.966  12.156  64.289  1.00  0.00    -0.262 A  
HETATM   36  C   UNL     1     -11.000  11.828  63.401  1.00  0.00    -0.458 A  
HETATM   37  C   UNL     1     -11.603  13.068  65.825  1.00  0.00    -0.396 A  
HETATM   38  C   UNL     1     -12.626  12.729  64.933  1.00  0.00    -0.541 A  
HETATM   39  C   UNL     1     -12.329  12.167  63.688  1.00  0.00    -0.568 A  
ENDBRANCH  28  31
ENDBRANCH   5  28
ENDBRANCH   4   5
TORSDOF 11
ENDMDL
MODEL      384
REMARK 921   NORMALIZED FREE ENERGY PREDICTED BY IDOCK:   -1.41 KCAL/MOL
REMARK 922        TOTAL FREE ENERGY PREDICTED BY IDOCK:   -4.09 KCAL/MOL
REMARK 923 INTER-LIGAND FREE ENERGY PREDICTED BY IDOCK:   -4.28 KCAL/MOL
REMARK 924 INTRA-LIGAND FREE ENERGY PREDICTED BY IDOCK:    0.20 KCAL/MOL
REMARK 927      BINDING AFFINITY PREDICTED BY RF-SCORE:    0.00 PKD
ROOT
HETATM    1  C   UNL     1     -11.237   8.524  68.064  1.00  0.00     0.554 C  
HETATM    2  C   UNL     1      -9.924   7.961  67.518  1.00  0.00    -0.250 C  
HETATM    3  C   UNL     1     -10.257   7.065  66.308  1.00  0.00     0.162 C  
HETATM    4  C   UNL     1      -8.922   9.049  67.086  1.00  0.00    -0.130 C  
ENDROOT
BRANCH   4   5
HETATM    5  N   UNL     1      -8.475  10.047  68.147  1.00  0.00    -0.113 N  
BRANCH   5   6
HETATM    6  C   UNL     1      -7.253   9.538  68.949  1.00  0.00    -0.072 C  
BRANCH   6   7
HETATM    7  C   UNL     1      -6.537   8.254  68.400  1.00  0.00    -0.060 C  
HETATM    8  H   UNL     1      -4.702   7.749  67.958  1.00  0.00     0.000 HD 
HETATM    9  O   UNL     1      -5.135   8.526  68.290  1.00  0.00    -0.032 OA 
BRANCH   7  10
HETATM   10  C   UNL     1      -6.822   6.964  69.255  1.00  0.00    -0.058 C  
BRANCH  10  11
HETATM   11  N   UNL     1      -8.197   6.915  69.790  1.00  0.00    -0.129 N  
HETATM   12  O   UNL     1      -8.183   4.651  70.149  1.00  0.00    -0.067 OA 
HETATM   13  H   UNL     1      -8.736   7.778  69.868  1.00  0.00     0.000 HD 
HETATM   14  C   UNL     1      -8.761   5.727  70.185  1.00  0.00    -0.139 C  
BRANCH  14  15
HETATM   15  O   UNL     1     -10.051   5.892  70.595  1.00  0.00    -0.181 OA 
BRANCH  15  16
HETATM   16  C   UNL     1     -10.216   6.913  71.598  1.00  0.00    -0.191 C  
HETATM   17  C   UNL     1     -11.027   6.421  72.780  1.00  0.00    -0.289 C  
HETATM   18  O   UNL     1      -9.182   7.599  73.653  1.00  0.00    -0.240 OA 
HETATM   19  C   UNL     1     -10.569   7.339  73.892  1.00  0.00    -0.062 C  
HETATM   20  C   UNL     1      -8.908   7.329  72.268  1.00  0.00    -0.127 C  
ENDBRANCH  15  16
ENDBRANCH  14  15
ENDBRANCH  10  11
BRANCH  10  21
HETATM   21  C   UNL     1      -6.387   5.609  68.634  1.00  0.00    -0.041 C  
BRANCH  21  22
HETATM   22  C   UNL     1      -6.717   5.277  67.193  1.00  0.00    -0.059 A  
HETATM   23  C   UNL     1      -7.897   3.887  65.579  1.00  0.00    -0.093 A  
HETATM   24  C   UNL     1      -7.428   4.110  66.878  1.00  0.00    -0.077 A  
HETATM   25  C   UNL     1      -7.651   4.817  64.572  1.00  0.00    -0.073 A  
HETATM   26  C   UNL     1      -6.464   6.199  66.162  1.00  0.00    -0.046 A  
HETATM   27  C   UNL     1      -6.927   5.970  64.862  1.00  0.00    -0.055 A  
ENDBRANCH  21  22
ENDBRANCH  10  21
ENDBRANCH   7  10
ENDBRANCH   6   7
ENDBRANCH   5   6
BRANCH   5  28
HETATM   28  S   UNL     1      -8.135  11.613  67.415  1.00  0.00    -0.161 S  
HETATM   29  O   UNL     1      -7.671  12.524  68.435  1.00  0.00    -0.128 OA 
HETATM   30  O   UNL     1      -7.321  11.331  66.247  1.00  0.00    -0.101 OA 
BRANCH  28  31
HETATM   31  C   UNL     1      -9.694  12.236  66.852  1.00  0.00    -0.212 A  
HETATM   32  N   UNL     1     -13.385  13.773  65.550  1.00  0.00    -0.562 NA 
HETATM   33  H2  UNL     1     -13.728  14.345  66.322  1.00  0.00     0.000 HD 
HETATM   34  H1  UNL     1     -13.444  14.322  64.693  1.00  0.00     0.000 HD 
HETATM   35  C   UNL     1     -10.858  11.949  67.568  1.00  0.00    -0.283 A  
HETATM   36  C   UNL     1     -12.088  12.443  67.112  1.00  0.00    -0.072 A  
HETATM   37  C   UNL     1      -9.752  13.064  65.723  1.00  0.00    -0.157 A  
HETATM   38  C   UNL     1     -10.985  13.556  65.283  1.00  0.00    -0.303 A  
HETATM   39  C   UNL     1     -12.169  13.197  65.935  1.00  0.00    -0.436 A  
ENDBRANCH  28  31
ENDBRANCH   5  28
ENDBRANCH   4   5
TORSDOF 11
ENDMDL
MODEL      385
REMARK 921   NORMALIZED FREE ENERGY PREDICTED BY IDOCK:   -1.33 KCAL/MOL
REMARK 922        TOTAL FREE ENERGY PREDICTED BY IDOCK:   -3.96 KCAL/MOL
REMARK 923 INTER-LIGAND FREE ENERGY PREDICTED BY IDOCK:   -4.31 KCAL/MOL
REMARK 924 INTRA-LIGAND FREE ENERGY PREDICTED BY IDOCK:    0.35 KCAL/MOL
REMARK 927      BINDING AFFINITY PREDICTED BY RF-SCORE:    0.00 PKD
ROOT
HETATM    1  C   UNL     1      -7.509   2.836  68.711  1.00  0.00    -0.048 C  
HETATM    2  C   UNL     1      -6.105   3.438  68.635  1.00  0.00    -0.028 C  
HETATM    3  C   UNL     1      -5.235   2.508  67.766  1.00  0.00    -0.012 C  
HETATM    4  C   UNL     1      -6.078   4.860  68.042  1.00  0.00    -0.031 C  
ENDROOT
BRANCH   4   5
HETATM    5  N   UNL     1      -6.893   5.930  68.759  1.00  0.00    -0.064 N  
BRANCH   5   6
HETATM    6  C   UNL     1      -8.376   5.518  68.927  1.00  0.00    -0.102 C  
BRANCH   6   7
HETATM    7  C   UNL     1      -9.441   6.416  68.206  1.00  0.00    -0.121 C  
HETATM    8  H   UNL     1      -9.609   8.310  67.752  1.00  0.00     0.000 HD 
HETATM    9  O   UNL     1      -8.963   7.766  68.189  1.00  0.00    -0.128 OA 
BRANCH   7  10
HETATM   10  C   UNL     1      -9.818   5.906  66.766  1.00  0.00    -0.160 C  
BRANCH  10  11
HETATM   11  N   UNL     1      -9.631   6.932  65.720  1.00  0.00    -0.313 N  
HETATM   12  O   UNL     1      -7.345   6.758  65.688  1.00  0.00    -0.074 OA 
HETATM   13  H   UNL     1     -10.446   7.394  65.317  1.00  0.00     0.000 HD 
HETATM   14  C   UNL     1      -8.375   7.273  65.281  1.00  0.00    -0.104 C  
BRANCH  14  15
HETATM   15  O   UNL     1      -8.419   8.275  64.356  1.00  0.00    -0.120 OA 
BRANCH  15  16
HETATM   16  C   UNL     1      -7.120   8.725  63.925  1.00  0.00    -0.091 C  
HETATM   17  C   UNL     1      -7.088   9.028  62.441  1.00  0.00    -0.098 C  
HETATM   18  O   UNL     1      -5.976  10.798  63.529  1.00  0.00    -0.057 OA 
HETATM   19  C   UNL     1      -5.941  10.009  62.335  1.00  0.00    -0.102 C  
HETATM   20  C   UNL     1      -6.708  10.067  64.527  1.00  0.00    -0.128 C  
ENDBRANCH  15  16
ENDBRANCH  14  15
ENDBRANCH  10  11
BRANCH  10  21
HETATM   21  C   UNL     1      -9.242   4.528  66.343  1.00  0.00    -0.137 C  
BRANCH  21  22
HETATM   22  C   UNL     1      -9.385   4.034  64.917  1.00  0.00    -0.163 A  
HETATM   23  C   UNL     1      -8.390   3.018  62.941  1.00  0.00    -0.078 A  
HETATM   24  C   UNL     1      -8.256   3.646  64.184  1.00  0.00    -0.090 A  
HETATM   25  C   UNL     1      -9.655   2.782  62.405  1.00  0.00    -0.092 A  
HETATM   26  C   UNL     1     -10.653   3.804  64.356  1.00  0.00    -0.209 A  
HETATM   27  C   UNL     1     -10.786   3.183  63.109  1.00  0.00    -0.225 A  
ENDBRANCH  21  22
ENDBRANCH  10  21
ENDBRANCH   7  10
ENDBRANCH   6   7
ENDBRANCH   5   6
BRANCH   5  28
HETATM   28  S   UNL     1      -6.170   6.314  70.318  1.00  0.00    -0.036 S  
HETATM   29  O   UNL     1      -5.462   5.156  70.812  1.00  0.00    -0.004 OA 
HETATM   30  O   UNL     1      -5.483   7.579  70.132  1.00  0.00    -0.023 OA 
BRANCH  28  31
HETATM   31  C   UNL     1      -7.523   6.589  71.428  1.00  0.00    -0.089 A  
HETATM   32  N   UNL     1     -10.776   7.229  74.013  1.00  0.00    -0.572 NA 
HETATM   33  H2  UNL     1     -11.509   7.636  73.431  1.00  0.00     0.000 HD 
HETATM   34  H1  UNL     1     -11.178   6.456  74.542  1.00  0.00     0.000 HD 
HETATM   35  C   UNL     1      -8.024   7.880  71.607  1.00  0.00    -0.112 A  
HETATM   36  C   UNL     1      -9.092   8.088  72.491  1.00  0.00    -0.271 A  
HETATM   37  C   UNL     1      -8.125   5.506  72.081  1.00  0.00    -0.111 A  
HETATM   38  C   UNL     1      -9.194   5.728  72.955  1.00  0.00    -0.140 A  
HETATM   39  C   UNL     1      -9.643   7.026  73.217  1.00  0.00    -0.177 A  
ENDBRANCH  28  31
ENDBRANCH   5  28
ENDBRANCH   4   5
TORSDOF 11
ENDMDL
MODEL      386
REMARK 921   NORMALIZED FREE ENERGY PREDICTED BY IDOCK:   -1.32 KCAL/MOL
REMARK 922        TOTAL FREE ENERGY PREDICTED BY IDOCK:   -3.93 KCAL/MOL
REMARK 923 INTER-LIGAND FREE ENERGY PREDICTED BY IDOCK:   -6.26 KCAL/MOL
REMARK 924 INTRA-LIGAND FREE ENERGY PREDICTED BY IDOCK:    2.33 KCAL/MOL
REMARK 927      BINDING AFFINITY PREDICTED BY RF-SCORE:    0.00 PKD
ROOT
HETATM    1  C   UNL     1     -12.239  12.031  66.658  1.00  0.00     0.439 C  
HETATM    2  C   UNL     1     -11.203  12.364  65.583  1.00  0.00    -0.360 C  
HETATM    3  C   UNL     1     -11.298  11.289  64.481  1.00  0.00    -0.091 C  
HETATM    4  C   UNL     1     -11.398  13.757  64.953  1.00  0.00    -0.347 C  
ENDROOT
BRANCH   4   5
HETATM    5  N   UNL     1     -11.349  14.959  65.889  1.00  0.00    -0.332 N  
BRANCH   5   6
HETATM    6  C   UNL     1     -10.784  14.590  67.283  1.00  0.00    -0.287 C  
BRANCH   6   7
HETATM    7  C   UNL     1      -9.509  13.677  67.305  1.00  0.00    -0.230 C  
HETATM    8  H   UNL     1      -7.593  13.945  67.577  1.00  0.00     0.000 HD 
HETATM    9  O   UNL     1      -8.365  14.498  67.564  1.00  0.00    -0.162 OA 
BRANCH   7  10
HETATM   10  C   UNL     1      -9.615  12.478  68.318  1.00  0.00    -0.209 C  
BRANCH  10  11
HETATM   11  N   UNL     1      -8.403  12.308  69.145  1.00  0.00    -0.195 N  
HETATM   12  O   UNL     1      -7.269  11.083  67.573  1.00  0.00    -0.090 OA 
HETATM   13  H   UNL     1      -8.367  12.725  70.075  1.00  0.00     0.000 HD 
HETATM   14  C   UNL     1      -7.324  11.597  68.680  1.00  0.00    -0.111 C  
BRANCH  14  15
HETATM   15  O   UNL     1      -6.334  11.512  69.615  1.00  0.00    -0.106 OA 
BRANCH  15  16
HETATM   16  C   UNL     1      -5.510  12.690  69.696  1.00  0.00    -0.085 C  
HETATM   17  C   UNL     1      -5.636  13.557  68.460  1.00  0.00    -0.089 C  
HETATM   18  O   UNL     1      -5.726  14.998  70.322  1.00  0.00    -0.131 OA 
HETATM   19  C   UNL     1      -5.239  14.922  68.978  1.00  0.00    -0.094 C  
HETATM   20  C   UNL     1      -5.931  13.658  70.800  1.00  0.00    -0.130 C  
ENDBRANCH  15  16
ENDBRANCH  14  15
ENDBRANCH  10  11
BRANCH  10  21
HETATM   21  C   UNL     1     -10.915  12.395  69.163  1.00  0.00    -0.206 C  
BRANCH  21  22
HETATM   22  C   UNL     1     -11.255  11.137  69.938  1.00  0.00    -0.293 A  
HETATM   23  C   UNL     1     -10.681   8.867  70.605  1.00  0.00    -0.282 A  
HETATM   24  C   UNL     1     -10.495   9.971  69.767  1.00  0.00    -0.291 A  
HETATM   25  C   UNL     1     -11.637   8.905  71.618  1.00  0.00    -0.408 A  
HETATM   26  C   UNL     1     -12.226  11.154  70.953  1.00  0.00    -0.468 A  
HETATM   27  C   UNL     1     -12.416  10.046  71.786  1.00  0.00    -0.475 A  
ENDBRANCH  21  22
ENDBRANCH  10  21
ENDBRANCH   7  10
ENDBRANCH   6   7
ENDBRANCH   5   6
BRANCH   5  28
HETATM   28  S   UNL     1     -10.420  16.268  65.163  1.00  0.00    -0.107 S  
HETATM   29  O   UNL     1      -9.191  15.736  64.624  1.00  0.00     1.108 OA 
HETATM   30  O   UNL     1     -11.353  16.987  64.315  1.00  0.00    -1.191 OA 
BRANCH  28  31
HETATM   31  C   UNL     1      -9.964  17.340  66.498  1.00  0.00    -0.305 A  
HETATM   32  N   UNL     1      -8.897  19.937  69.627  1.00  0.00     0.403 NA 
HETATM   33  H2  UNL     1      -8.528  20.772  69.173  1.00  0.00     0.000 HD 
HETATM   34  H1  UNL     1      -9.589  20.227  70.318  1.00  0.00     0.000 HD 
HETATM   35  C   UNL     1      -8.641  17.767  66.626  1.00  0.00    -0.280 A  
HETATM   36  C   UNL     1      -8.288  18.612  67.687  1.00  0.00    -0.283 A  
HETATM   37  C   UNL     1     -10.940  17.804  67.390  1.00  0.00    -0.074 A  
HETATM   38  C   UNL     1     -10.575  18.652  68.440  1.00  0.00    -0.132 A  
HETATM   39  C   UNL     1      -9.238  19.010  68.636  1.00  0.00    -0.368 A  
ENDBRANCH  28  31
ENDBRANCH   5  28
ENDBRANCH   4   5
TORSDOF 11
ENDMDL
MODEL      387
REMARK 921   NORMALIZED FREE ENERGY PREDICTED BY IDOCK:   -0.64 KCAL/MOL
REMARK 922        TOTAL FREE ENERGY PREDICTED BY IDOCK:   -2.82 KCAL/MOL
REMARK 923 INTER-LIGAND FREE ENERGY PREDICTED BY IDOCK:   -4.54 KCAL/MOL
REMARK 924 INTRA-LIGAND FREE ENERGY PREDICTED BY IDOCK:    1.72 KCAL/MOL
REMARK 927      BINDING AFFINITY PREDICTED BY RF-SCORE:    0.00 PKD
ROOT
HETATM    1  C   UNL     1     -12.246  12.000  66.537  1.00  0.00     0.433 C  
HETATM    2  C   UNL     1     -11.099  12.401  65.609  1.00  0.00    -0.343 C  
HETATM    3  C   UNL     1     -11.028  11.368  64.467  1.00  0.00    -0.346 C  
HETATM    4  C   UNL     1     -11.258  13.812  65.010  1.00  0.00    -0.335 C  
ENDROOT
BRANCH   4   5
HETATM    5  N   UNL     1     -11.359  14.978  65.987  1.00  0.00    -0.313 N  
BRANCH   5   6
HETATM    6  C   UNL     1     -10.868  14.594  67.404  1.00  0.00    -0.298 C  
BRANCH   6   7
HETATM    7  C   UNL     1      -9.409  14.029  67.514  1.00  0.00    -0.209 C  
HETATM    8  H   UNL     1      -7.668  14.727  68.060  1.00  0.00     0.000 HD 
HETATM    9  O   UNL     1      -8.552  15.070  67.994  1.00  0.00    -0.151 OA 
BRANCH   7  10
HETATM   10  C   UNL     1      -9.307  12.728  68.394  1.00  0.00    -0.143 C  
BRANCH  10  11
HETATM   11  N   UNL     1      -8.096  12.694  69.239  1.00  0.00    -0.050 N  
HETATM   12  O   UNL     1      -6.821  11.568  67.702  1.00  0.00    -0.072 OA 
HETATM   13  H   UNL     1      -8.117  13.126  70.163  1.00  0.00     0.000 HD 
HETATM   14  C   UNL     1      -6.944  12.089  68.801  1.00  0.00    -0.101 C  
BRANCH  14  15
HETATM   15  O   UNL     1      -5.965  12.119  69.750  1.00  0.00    -0.109 OA 
BRANCH  15  16
HETATM   16  C   UNL     1      -5.274  13.380  69.832  1.00  0.00    -0.087 C  
HETATM   17  C   UNL     1      -5.335  14.146  68.527  1.00  0.00    -0.098 C  
HETATM   18  O   UNL     1      -5.786  15.688  70.251  1.00  0.00    -0.155 OA 
HETATM   19  C   UNL     1      -5.137  15.576  68.980  1.00  0.00    -0.096 C  
HETATM   20  C   UNL     1      -5.916  14.367  70.804  1.00  0.00    -0.195 C  
ENDBRANCH  15  16
ENDBRANCH  14  15
ENDBRANCH  10  11
BRANCH  10  21
HETATM   21  C   UNL     1     -10.581  12.319  69.181  1.00  0.00    -0.025 C  
BRANCH  21  22
HETATM   22  C   UNL     1     -11.268  13.303  70.106  1.00  0.00     0.277 A  
HETATM   23  C   UNL     1     -11.308  15.482  71.191  1.00  0.00    -0.442 A  
HETATM   24  C   UNL     1     -10.620  14.485  70.492  1.00  0.00     0.486 A  
HETATM   25  C   UNL     1     -12.649  15.309  71.528  1.00  0.00    -0.442 A  
HETATM   26  C   UNL     1     -12.615  13.136  70.468  1.00  0.00    -0.237 A  
HETATM   27  C   UNL     1     -13.300  14.131  71.174  1.00  0.00    -0.330 A  
ENDBRANCH  21  22
ENDBRANCH  10  21
ENDBRANCH   7  10
ENDBRANCH   6   7
ENDBRANCH   5   6
BRANCH   5  28
HETATM   28  S   UNL     1     -10.475  16.373  65.374  1.00  0.00    -0.227 S  
HETATM   29  O   UNL     1      -9.162  15.953  64.945  1.00  0.00     0.508 OA 
HETATM   30  O   UNL     1     -11.379  17.037  64.453  1.00  0.00    -1.140 OA 
BRANCH  28  31
HETATM   31  C   UNL     1     -10.233  17.445  66.764  1.00  0.00    -0.318 A  
HETATM   32  N   UNL     1      -9.615  19.944  70.088  1.00  0.00     0.451 NA 
HETATM   33  H2  UNL     1      -9.453  19.315  70.874  1.00  0.00     0.000 HD 
HETATM   34  H1  UNL     1      -8.874  20.645  70.078  1.00  0.00     0.000 HD 
HETATM   35  C   UNL     1     -11.082  17.354  67.869  1.00  0.00    -0.014 A  
HETATM   36  C   UNL     1     -10.885  18.209  68.962  1.00  0.00     0.637 A  
HETATM   37  C   UNL     1      -9.157  18.342  66.778  1.00  0.00    -0.287 A  
HETATM   38  C   UNL     1      -8.969  19.185  67.878  1.00  0.00    -0.347 A  
HETATM   39  C   UNL     1      -9.868  19.171  68.949  1.00  0.00    -0.424 A  
ENDBRANCH  28  31
ENDBRANCH   5  28
ENDBRANCH   4   5
TORSDOF 11
ENDMDL
MODEL      388
REMARK 921   NORMALIZED FREE ENERGY PREDICTED BY IDOCK:   -0.60 KCAL/MOL
REMARK 922        TOTAL FREE ENERGY PREDICTED BY IDOCK:   -2.75 KCAL/MOL
REMARK 923 INTER-LIGAND FREE ENERGY PREDICTED BY IDOCK:   -6.95 KCAL/MOL
REMARK 924 INTRA-LIGAND FREE ENERGY PREDICTED BY IDOCK:    4.21 KCAL/MOL
REMARK 927      BINDING AFFINITY PREDICTED BY RF-SCORE:    0.00 PKD
ROOT
HETATM    1  C   UNL     1     -11.193   6.139  67.657  1.00  0.00    -0.141 C  
HETATM    2  C   UNL     1      -9.715   5.923  67.988  1.00  0.00    -0.132 C  
HETATM    3  C   UNL     1      -9.381   4.440  67.728  1.00  0.00    -0.190 C  
HETATM    4  C   UNL     1      -8.764   6.811  67.162  1.00  0.00    -0.119 C  
ENDROOT
BRANCH   4   5
HETATM    5  N   UNL     1      -8.945   8.321  67.275  1.00  0.00    -0.136 N  
BRANCH   5   6
HETATM    6  C   UNL     1      -9.891   8.709  68.438  1.00  0.00    -0.172 C  
BRANCH   6   7
HETATM    7  C   UNL     1      -9.513   8.168  69.862  1.00  0.00    -0.160 C  
HETATM    8  H   UNL     1      -7.994   7.226  70.650  1.00  0.00     0.000 HD 
HETATM    9  O   UNL     1      -8.222   7.553  69.788  1.00  0.00    -0.124 OA 
BRANCH   7  10
HETATM   10  C   UNL     1      -9.580   9.267  70.986  1.00  0.00    -0.259 C  
BRANCH  10  11
HETATM   11  N   UNL     1     -10.551  10.340  70.692  1.00  0.00    -0.394 N  
HETATM   12  O   UNL     1     -12.233   9.429  71.954  1.00  0.00    -0.365 OA 
HETATM   13  H   UNL     1     -10.272  11.118  70.093  1.00  0.00     0.000 HD 
HETATM   14  C   UNL     1     -11.821  10.307  71.211  1.00  0.00    -0.335 C  
BRANCH  14  15
HETATM   15  O   UNL     1     -12.573  11.358  70.775  1.00  0.00    -0.343 OA 
BRANCH  15  16
HETATM   16  C   UNL     1     -12.556  12.492  71.663  1.00  0.00    -0.084 C  
HETATM   17  C   UNL     1     -12.365  13.796  70.915  1.00  0.00    -0.456 C  
HETATM   18  O   UNL     1     -14.081  14.152  72.490  1.00  0.00    -0.590 OA 
HETATM   19  C   UNL     1     -12.974  14.806  71.862  1.00  0.00    -0.327 C  
HETATM   20  C   UNL     1     -13.887  12.732  72.374  1.00  0.00    -0.263 C  
ENDBRANCH  15  16
ENDBRANCH  14  15
ENDBRANCH  10  11
BRANCH  10  21
HETATM   21  C   UNL     1      -9.695   8.759  72.448  1.00  0.00    -0.215 C  
BRANCH  21  22
HETATM   22  C   UNL     1      -9.328   7.332  72.803  1.00  0.00    -0.186 A  
HETATM   23  C   UNL     1      -8.032   5.775  74.153  1.00  0.00    -0.105 A  
HETATM   24  C   UNL     1      -8.263   7.069  73.675  1.00  0.00    -0.134 A  
HETATM   25  C   UNL     1      -8.851   4.721  73.756  1.00  0.00    -0.104 A  
HETATM   26  C   UNL     1     -10.136   6.256  72.398  1.00  0.00    -0.195 A  
HETATM   27  C   UNL     1      -9.899   4.960  72.871  1.00  0.00    -0.181 A  
ENDBRANCH  21  22
ENDBRANCH  10  21
ENDBRANCH   7  10
ENDBRANCH   6   7
ENDBRANCH   5   6
BRANCH   5  28
HETATM   28  S   UNL     1      -7.383   9.116  67.447  1.00  0.00    -0.084 S  
HETATM   29  O   UNL     1      -6.799   8.750  68.716  1.00  0.00    -0.060 OA 
HETATM   30  O   UNL     1      -6.676   8.864  66.205  1.00  0.00    -0.068 OA 
BRANCH  28  31
HETATM   31  C   UNL     1      -7.727  10.852  67.532  1.00  0.00    -0.109 A  
HETATM   32  N   UNL     1      -8.539  14.968  67.802  1.00  0.00    -0.156 NA 
HETATM   33  H2  UNL     1      -9.068  15.084  68.666  1.00  0.00     0.000 HD 
HETATM   34  H1  UNL     1      -7.779  15.648  67.797  1.00  0.00     0.000 HD 
HETATM   35  C   UNL     1      -9.049  11.298  67.574  1.00  0.00    -0.151 A  
HETATM   36  C   UNL     1      -9.312  12.673  67.637  1.00  0.00    -0.190 A  
HETATM   37  C   UNL     1      -6.674  11.772  67.616  1.00  0.00    -0.091 A  
HETATM   38  C   UNL     1      -6.950  13.141  67.685  1.00  0.00    -0.156 A  
HETATM   39  C   UNL     1      -8.268  13.606  67.631  1.00  0.00    -0.178 A  
ENDBRANCH  28  31
ENDBRANCH   5  28
ENDBRANCH   4   5
TORSDOF 11
ENDMDL
MODEL      389
REMARK 921   NORMALIZED FREE ENERGY PREDICTED BY IDOCK:   -0.45 KCAL/MOL
REMARK 922        TOTAL FREE ENERGY PREDICTED BY IDOCK:   -2.51 KCAL/MOL
REMARK 923 INTER-LIGAND FREE ENERGY PREDICTED BY IDOCK:   -6.31 KCAL/MOL
REMARK 924 INTRA-LIGAND FREE ENERGY PREDICTED BY IDOCK:    3.80 KCAL/MOL
REMARK 927      BINDING AFFINITY PREDICTED BY RF-SCORE:    0.00 PKD
ROOT
HETATM    1  C   UNL     1     -12.476  13.173  68.275  1.00  0.00     0.410 C  
HETATM    2  C   UNL     1     -11.348  13.033  67.253  1.00  0.00    -0.348 C  
HETATM    3  C   UNL     1     -11.243  11.546  66.859  1.00  0.00    -0.363 C  
HETATM    4  C   UNL     1     -11.560  13.882  65.984  1.00  0.00    -0.349 C  
ENDROOT
BRANCH   4   5
HETATM    5  N   UNL     1     -11.699  15.389  66.168  1.00  0.00     0.099 N  
BRANCH   5   6
HETATM    6  C   UNL     1     -11.316  15.839  67.599  1.00  0.00    -0.194 C  
BRANCH   6   7
HETATM    7  C   UNL     1      -9.856  15.513  68.071  1.00  0.00    -0.212 C  
HETATM    8  H   UNL     1      -8.291  16.548  68.617  1.00  0.00     0.000 HD 
HETATM    9  O   UNL     1      -9.175  16.746  68.331  1.00  0.00    -0.214 OA 
BRANCH   7  10
HETATM   10  C   UNL     1      -9.800  14.537  69.304  1.00  0.00    -0.009 C  
BRANCH  10  11
HETATM   11  N   UNL     1      -8.668  13.590  69.244  1.00  0.00    -0.013 N  
HETATM   12  O   UNL     1      -8.062  14.151  67.105  1.00  0.00    -0.182 OA 
HETATM   13  H   UNL     1      -8.456  13.010  70.055  1.00  0.00     0.000 HD 
HETATM   14  C   UNL     1      -7.897  13.481  68.114  1.00  0.00    -0.144 C  
BRANCH  14  15
HETATM   15  O   UNL     1      -6.943  12.515  68.245  1.00  0.00    -0.075 OA 
BRANCH  15  16
HETATM   16  C   UNL     1      -5.910  12.843  69.194  1.00  0.00    -0.081 C  
HETATM   17  C   UNL     1      -6.117  14.214  69.806  1.00  0.00    -0.132 C  
HETATM   18  O   UNL     1      -5.552  12.753  71.566  1.00  0.00    -0.392 OA 
HETATM   19  C   UNL     1      -5.372  14.100  71.117  1.00  0.00    -0.169 C  
HETATM   20  C   UNL     1      -5.907  11.947  70.430  1.00  0.00    -0.155 C  
ENDBRANCH  15  16
ENDBRANCH  14  15
ENDBRANCH  10  11
BRANCH  10  21
HETATM   21  C   UNL     1      -9.949  15.182  70.708  1.00  0.00     0.742 C  
BRANCH  21  22
HETATM   22  C   UNL     1     -11.311  15.307  71.362  1.00  0.00    -0.419 A  
HETATM   23  C   UNL     1     -13.658  14.668  71.452  1.00  0.00    -0.474 A  
HETATM   24  C   UNL     1     -12.438  14.718  70.771  1.00  0.00    -0.402 A  
HETATM   25  C   UNL     1     -13.777  15.218  72.727  1.00  0.00    -0.584 A  
HETATM   26  C   UNL     1     -11.450  15.871  72.641  1.00  0.00    -0.217 A  
HETATM   27  C   UNL     1     -12.674  15.827  73.318  1.00  0.00    -0.640 A  
ENDBRANCH  21  22
ENDBRANCH  10  21
ENDBRANCH   7  10
ENDBRANCH   6   7
ENDBRANCH   5   6
BRANCH   5  28
HETATM   28  S   UNL     1     -10.742  16.247  64.964  1.00  0.00    -0.167 S  
HETATM   29  O   UNL     1      -9.524  15.513  64.713  1.00  0.00     0.225 OA 
HETATM   30  O   UNL     1     -11.659  16.556  63.881  1.00  0.00    -1.175 OA 
BRANCH  28  31
HETATM   31  C   UNL     1     -10.263  17.776  65.721  1.00  0.00    -0.136 A  
HETATM   32  N   UNL     1      -9.121  21.371  67.577  1.00  0.00    -0.254 NA 
HETATM   33  H2  UNL     1      -9.490  21.316  68.526  1.00  0.00     0.000 HD 
HETATM   34  H1  UNL     1      -8.138  21.637  67.630  1.00  0.00     0.000 HD 
HETATM   35  C   UNL     1     -11.239  18.640  66.222  1.00  0.00     0.648 A  
HETATM   36  C   UNL     1     -10.851  19.849  66.815  1.00  0.00    -0.350 A  
HETATM   37  C   UNL     1      -8.906  18.089  65.870  1.00  0.00     0.170 A  
HETATM   38  C   UNL     1      -8.533  19.296  66.470  1.00  0.00    -0.336 A  
HETATM   39  C   UNL     1      -9.501  20.214  66.888  1.00  0.00    -0.412 A  
ENDBRANCH  28  31
ENDBRANCH   5  28
ENDBRANCH   4   5
TORSDOF 11
ENDMDL
MODEL      390
REMARK 921   NORMALIZED FREE ENERGY PREDICTED BY IDOCK:   -0.02 KCAL/MOL
REMARK 922        TOTAL FREE ENERGY PREDICTED BY IDOCK:   -1.80 KCAL/MOL
REMARK 923 INTER-LIGAND FREE ENERGY PREDICTED BY IDOCK:   -4.00 KCAL/MOL
REMARK 924 INTRA-LIGAND FREE ENERGY PREDICTED BY IDOCK:    2.20 KCAL/MOL
REMARK 927      BINDING AFFINITY PREDICTED BY RF-SCORE:    0.00 PKD
ROOT
HETATM    1  C   UNL     1     -12.783  13.894  68.661  1.00  0.00     0.850 C  
HETATM    2  C   UNL     1     -11.813  13.446  67.566  1.00  0.00    -0.408 C  
HETATM    3  C   UNL     1     -12.079  11.956  67.275  1.00  0.00     0.175 C  
HETATM    4  C   UNL     1     -11.948  14.252  66.259  1.00  0.00    -0.412 C  
ENDROOT
BRANCH   4   5
HETATM    5  N   UNL     1     -11.731  15.759  66.342  1.00  0.00     0.410 N  
BRANCH   5   6
HETATM    6  C   UNL     1     -11.358  16.215  67.774  1.00  0.00    -0.126 C  
BRANCH   6   7
HETATM    7  C   UNL     1      -9.887  15.936  68.241  1.00  0.00    -0.217 C  
HETATM    8  H   UNL     1      -8.491  16.941  69.168  1.00  0.00     0.000 HD 
HETATM    9  O   UNL     1      -9.382  17.111  68.885  1.00  0.00    -0.259 OA 
BRANCH   7  10
HETATM   10  C   UNL     1      -9.750  14.660  69.151  1.00  0.00    -0.103 C  
BRANCH  10  11
HETATM   11  N   UNL     1      -8.680  13.743  68.709  1.00  0.00    -0.365 N  
HETATM   12  O   UNL     1      -9.681  11.859  69.548  1.00  0.00     0.555 OA 
HETATM   13  H   UNL     1      -7.877  14.117  68.203  1.00  0.00     0.000 HD 
HETATM   14  C   UNL     1      -8.748  12.397  68.969  1.00  0.00     0.469 C  
BRANCH  14  15
HETATM   15  O   UNL     1      -7.638  11.740  68.527  1.00  0.00    -0.118 OA 
BRANCH  15  16
HETATM   16  C   UNL     1      -7.927  10.646  67.635  1.00  0.00    -0.106 C  
HETATM   17  C   UNL     1      -8.182  11.121  66.220  1.00  0.00    -0.153 C  
HETATM   18  O   UNL     1      -6.763   9.245  66.071  1.00  0.00    -0.074 OA 
HETATM   19  C   UNL     1      -7.849   9.893  65.401  1.00  0.00    -0.132 C  
HETATM   20  C   UNL     1      -6.751   9.691  67.438  1.00  0.00    -0.071 C  
ENDBRANCH  15  16
ENDBRANCH  14  15
ENDBRANCH  10  11
BRANCH  10  21
HETATM   21  C   UNL     1      -9.718  14.899  70.684  1.00  0.00     1.108 C  
BRANCH  21  22
HETATM   22  C   UNL     1     -11.002  14.924  71.490  1.00  0.00     0.198 A  
HETATM   23  C   UNL     1     -12.590  16.156  72.865  1.00  0.00    -0.538 A  
HETATM   24  C   UNL     1     -11.330  16.044  72.268  1.00  0.00    -0.095 A  
HETATM   25  C   UNL     1     -13.536  15.145  72.709  1.00  0.00    -0.603 A  
HETATM   26  C   UNL     1     -11.960  13.906  71.355  1.00  0.00    -0.028 A  
HETATM   27  C   UNL     1     -13.217  14.016  71.960  1.00  0.00    -0.499 A  
ENDBRANCH  21  22
ENDBRANCH  10  21
ENDBRANCH   7  10
ENDBRANCH   6   7
ENDBRANCH   5   6
BRANCH   5  28
HETATM   28  S   UNL     1     -10.506  16.269  65.184  1.00  0.00    -0.107 S  
HETATM   29  O   UNL     1      -9.436  15.299  65.165  1.00  0.00    -0.039 OA 
HETATM   30  O   UNL     1     -11.229  16.601  63.970  1.00  0.00    -1.052 OA 
BRANCH  28  31
HETATM   31  C   UNL     1      -9.818  17.768  65.831  1.00  0.00    -0.063 A  
HETATM   32  N   UNL     1      -8.184  21.350  67.305  1.00  0.00    -0.488 NA 
HETATM   33  H2  UNL     1      -7.578  21.698  66.562  1.00  0.00     0.000 HD 
HETATM   34  H1  UNL     1      -8.792  22.111  67.607  1.00  0.00     0.000 HD 
HETATM   35  C   UNL     1      -8.434  17.899  65.961  1.00  0.00    -0.054 A  
HETATM   36  C   UNL     1      -7.899  19.086  66.478  1.00  0.00    -0.279 A  
HETATM   37  C   UNL     1     -10.657  18.841  66.159  1.00  0.00    -0.435 A  
HETATM   38  C   UNL     1     -10.109  20.022  66.667  1.00  0.00    -0.607 A  
HETATM   39  C   UNL     1      -8.733  20.131  66.892  1.00  0.00    -0.329 A  
ENDBRANCH  28  31
ENDBRANCH   5  28
ENDBRANCH   4   5
TORSDOF 11
ENDMDL
MODEL      391
REMARK 921   NORMALIZED FREE ENERGY PREDICTED BY IDOCK:    0.06 KCAL/MOL
REMARK 922        TOTAL FREE ENERGY PREDICTED BY IDOCK:   -1.67 KCAL/MOL
REMARK 923 INTER-LIGAND FREE ENERGY PREDICTED BY IDOCK:   -4.15 KCAL/MOL
REMARK 924 INTRA-LIGAND FREE ENERGY PREDICTED BY IDOCK:    2.48 KCAL/MOL
REMARK 927      BINDING AFFINITY PREDICTED BY RF-SCORE:    0.00 PKD
ROOT
HETATM    1  C   UNL     1      -7.750  17.626  68.450  1.00  0.00    -0.269 C  
HETATM    2  C   UNL     1      -7.735  16.644  67.278  1.00  0.00    -0.198 C  
HETATM    3  C   UNL     1      -6.993  17.314  66.105  1.00  0.00    -0.251 C  
HETATM    4  C   UNL     1      -7.053  15.302  67.611  1.00  0.00    -0.182 C  
ENDROOT
BRANCH   4   5
HETATM    5  N   UNL     1      -7.639  14.488  68.759  1.00  0.00    -0.126 N  
BRANCH   5   6
HETATM    6  C   UNL     1      -8.562  13.351  68.257  1.00  0.00    -0.169 C  
BRANCH   6   7
HETATM    7  C   UNL     1      -9.368  13.630  66.940  1.00  0.00    -0.257 C  
HETATM    8  H   UNL     1     -10.194  12.544  65.542  1.00  0.00     0.000 HD 
HETATM    9  O   UNL     1      -9.706  12.375  66.339  1.00  0.00    -0.230 OA 
BRANCH   7  10
HETATM   10  C   UNL     1     -10.634  14.538  67.162  1.00  0.00    -0.274 C  
BRANCH  10  11
HETATM   11  N   UNL     1     -10.362  15.715  68.011  1.00  0.00    -0.241 N  
HETATM   12  O   UNL     1     -12.219  15.437  69.326  1.00  0.00    -0.283 OA 
HETATM   13  H   UNL     1      -9.529  16.278  67.836  1.00  0.00     0.000 HD 
HETATM   14  C   UNL     1     -11.213  16.064  69.030  1.00  0.00    -0.347 C  
BRANCH  14  15
HETATM   15  O   UNL     1     -10.811  17.209  69.654  1.00  0.00    -0.170 OA 
BRANCH  15  16
HETATM   16  C   UNL     1     -10.209  18.172  68.768  1.00  0.00    -0.337 C  
HETATM   17  C   UNL     1     -11.022  18.367  67.505  1.00  0.00    -0.169 C  
HETATM   18  O   UNL     1     -10.398  20.510  68.258  1.00  0.00    -0.216 OA 
HETATM   19  C   UNL     1     -10.607  19.753  67.062  1.00  0.00    -0.461 C  
HETATM   20  C   UNL     1     -10.174  19.589  69.338  1.00  0.00     0.010 C  
ENDBRANCH  15  16
ENDBRANCH  14  15
ENDBRANCH  10  11
BRANCH  10  21
HETATM   21  C   UNL     1     -11.455  14.906  65.897  1.00  0.00    -0.276 C  
BRANCH  21  22
HETATM   22  C   UNL     1     -11.871  13.837  64.907  1.00  0.00    -0.394 A  
HETATM   23  C   UNL     1     -11.335  12.429  62.994  1.00  0.00     0.026 A  
HETATM   24  C   UNL     1     -11.057  13.533  63.807  1.00  0.00     0.053 A  
HETATM   25  C   UNL     1     -12.440  11.622  63.257  1.00  0.00    -0.262 A  
HETATM   26  C   UNL     1     -12.990  13.022  65.150  1.00  0.00    -0.159 A  
HETATM   27  C   UNL     1     -13.272  11.923  64.330  1.00  0.00     0.630 A  
ENDBRANCH  21  22
ENDBRANCH  10  21
ENDBRANCH   7  10
ENDBRANCH   6   7
ENDBRANCH   5   6
BRANCH   5  28
HETATM   28  S   UNL     1      -6.352  13.846  69.777  1.00  0.00    -0.102 S  
HETATM   29  O   UNL     1      -5.162  14.644  69.599  1.00  0.00    -0.092 OA 
HETATM   30  O   UNL     1      -6.941  13.675  71.092  1.00  0.00     1.027 OA 
BRANCH  28  31
HETATM   31  C   UNL     1      -5.981  12.237  69.135  1.00  0.00    -0.080 A  
HETATM   32  N   UNL     1      -5.165   8.410  67.598  1.00  0.00    -0.033 NA 
HETATM   33  H2  UNL     1      -5.998   7.856  67.793  1.00  0.00     0.000 HD 
HETATM   34  H1  UNL     1      -4.921   8.288  66.615  1.00  0.00     0.000 HD 
HETATM   35  C   UNL     1      -5.991  11.130  69.986  1.00  0.00    -0.125 A  
HETATM   36  C   UNL     1      -5.691   9.861  69.470  1.00  0.00    -0.037 A  
HETATM   37  C   UNL     1      -5.735  12.067  67.766  1.00  0.00    -0.070 A  
HETATM   38  C   UNL     1      -5.444  10.795  67.264  1.00  0.00    -0.042 A  
HETATM   39  C   UNL     1      -5.356   9.693  68.121  1.00  0.00    -0.040 A  
ENDBRANCH  28  31
ENDBRANCH   5  28
ENDBRANCH   4   5
TORSDOF 11
ENDMDL
MODEL      392
REMARK 921   NORMALIZED FREE ENERGY PREDICTED BY IDOCK:    1.62 KCAL/MOL
REMARK 922        TOTAL FREE ENERGY PREDICTED BY IDOCK:    0.90 KCAL/MOL
REMARK 923 INTER-LIGAND FREE ENERGY PREDICTED BY IDOCK:   -7.28 KCAL/MOL
REMARK 924 INTRA-LIGAND FREE ENERGY PREDICTED BY IDOCK:    8.18 KCAL/MOL
REMARK 927      BINDING AFFINITY PREDICTED BY RF-SCORE:    0.00 PKD
ROOT
HETATM    1  C   UNL     1     -10.040  16.053  66.209  1.00  0.00    -0.329 C  
HETATM    2  C   UNL     1     -10.293  16.239  67.705  1.00  0.00    -0.287 C  
HETATM    3  C   UNL     1     -11.351  17.348  67.875  1.00  0.00     0.351 C  
HETATM    4  C   UNL     1     -10.782  14.957  68.409  1.00  0.00    -0.245 C  
ENDROOT
BRANCH   4   5
HETATM    5  N   UNL     1      -9.873  13.735  68.344  1.00  0.00    -0.228 N  
BRANCH   5   6
HETATM    6  C   UNL     1     -10.626  12.429  68.694  1.00  0.00    -0.218 C  
BRANCH   6   7
HETATM    7  C   UNL     1      -9.844  11.086  68.478  1.00  0.00    -0.192 C  
HETATM    8  H   UNL     1      -7.967  10.553  68.384  1.00  0.00     0.000 HD 
HETATM    9  O   UNL     1      -8.440  11.366  68.515  1.00  0.00    -0.149 OA 
BRANCH   7  10
HETATM   10  C   UNL     1     -10.247   9.956  69.496  1.00  0.00    -0.225 C  
BRANCH  10  11
HETATM   11  N   UNL     1      -9.106   9.117  69.913  1.00  0.00    -0.165 N  
HETATM   12  O   UNL     1      -9.311   7.636  68.175  1.00  0.00    -0.144 OA 
HETATM   13  H   UNL     1      -8.575   9.370  70.746  1.00  0.00     0.000 HD 
HETATM   14  C   UNL     1      -8.748   8.002  69.196  1.00  0.00    -0.137 C  
BRANCH  14  15
HETATM   15  O   UNL     1      -7.707   7.340  69.778  1.00  0.00    -0.102 OA 
BRANCH  15  16
HETATM   16  C   UNL     1      -6.439   7.573  69.137  1.00  0.00    -0.040 C  
HETATM   17  C   UNL     1      -6.545   7.504  67.627  1.00  0.00    -0.062 C  
HETATM   18  O   UNL     1      -5.237   9.395  68.138  1.00  0.00    -0.037 OA 
HETATM   19  C   UNL     1      -5.367   8.340  67.180  1.00  0.00    -0.037 C  
HETATM   20  C   UNL     1      -5.898   8.986  69.347  1.00  0.00    -0.034 C  
ENDBRANCH  15  16
ENDBRANCH  14  15
ENDBRANCH  10  11
BRANCH  10  21
HETATM   21  C   UNL     1     -11.127  10.387  70.700  1.00  0.00    -0.283 C  
BRANCH  21  22
HETATM   22  C   UNL     1     -12.132   9.428  71.306  1.00  0.00    -0.424 A  
HETATM   23  C   UNL     1     -14.390   8.520  71.366  1.00  0.00    -0.387 A  
HETATM   24  C   UNL     1     -13.488   9.509  70.960  1.00  0.00    -0.196 A  
HETATM   25  C   UNL     1     -13.956   7.443  72.136  1.00  0.00    -0.160 A  
HETATM   26  C   UNL     1     -11.712   8.344  72.097  1.00  0.00    -0.442 A  
HETATM   27  C   UNL     1     -12.618   7.360  72.508  1.00  0.00     0.155 A  
ENDBRANCH  21  22
ENDBRANCH  10  21
ENDBRANCH   7  10
ENDBRANCH   6   7
ENDBRANCH   5   6
BRANCH   5  28
HETATM   28  S   UNL     1      -9.117  13.615  66.757  1.00  0.00    -0.175 S  
HETATM   29  O   UNL     1      -8.770  14.939  66.295  1.00  0.00    -0.177 OA 
HETATM   30  O   UNL     1      -8.103  12.584  66.883  1.00  0.00    -0.138 OA 
BRANCH  28  31
HETATM   31  C   UNL     1     -10.373  13.011  65.664  1.00  0.00    -0.285 A  
HETATM   32  N   UNL     1     -13.340  11.629  63.026  1.00  0.00    -0.449 NA 
HETATM   33  H2  UNL     1     -13.745  12.467  62.610  1.00  0.00     0.000 HD 
HETATM   34  H1  UNL     1     -13.105  10.979  62.276  1.00  0.00     0.000 HD 
HETATM   35  C   UNL     1     -11.701  13.400  65.847  1.00  0.00    -0.389 A  
HETATM   36  C   UNL     1     -12.688  12.913  64.980  1.00  0.00    -0.474 A  
HETATM   37  C   UNL     1     -10.025  12.191  64.582  1.00  0.00    -0.227 A  
HETATM   38  C   UNL     1     -11.019  11.718  63.720  1.00  0.00    -0.500 A  
HETATM   39  C   UNL     1     -12.365  12.022  63.949  1.00  0.00    -0.450 A  
ENDBRANCH  28  31
ENDBRANCH   5  28
ENDBRANCH   4   5
TORSDOF 11
ENDMDL
MODEL      393
REMARK 921   NORMALIZED FREE ENERGY PREDICTED BY IDOCK:    1.98 KCAL/MOL
REMARK 922        TOTAL FREE ENERGY PREDICTED BY IDOCK:    1.49 KCAL/MOL
REMARK 923 INTER-LIGAND FREE ENERGY PREDICTED BY IDOCK:   -5.11 KCAL/MOL
REMARK 924 INTRA-LIGAND FREE ENERGY PREDICTED BY IDOCK:    6.60 KCAL/MOL
REMARK 927      BINDING AFFINITY PREDICTED BY RF-SCORE:    0.00 PKD
ROOT
HETATM    1  C   UNL     1     -11.393   5.869  67.620  1.00  0.00     0.427 C  
HETATM    2  C   UNL     1     -10.101   6.301  66.924  1.00  0.00    -0.236 C  
HETATM    3  C   UNL     1      -9.690   5.181  65.947  1.00  0.00    -0.159 C  
HETATM    4  C   UNL     1     -10.234   7.627  66.150  1.00  0.00     0.459 C  
ENDROOT
BRANCH   4   5
HETATM    5  N   UNL     1     -10.648   8.860  66.946  1.00  0.00    -0.236 N  
BRANCH   5   6
HETATM    6  C   UNL     1     -10.779   8.560  68.459  1.00  0.00    -0.031 C  
BRANCH   6   7
HETATM    7  C   UNL     1      -9.442   8.443  69.271  1.00  0.00    -0.155 C  
HETATM    8  H   UNL     1      -7.534   8.518  68.856  1.00  0.00     0.000 HD 
HETATM    9  O   UNL     1      -8.344   8.589  68.364  1.00  0.00    -0.121 OA 
BRANCH   7  10
HETATM   10  C   UNL     1      -9.351   9.451  70.476  1.00  0.00    -0.262 C  
BRANCH  10  11
HETATM   11  N   UNL     1     -10.356  10.531  70.406  1.00  0.00    -0.340 N  
HETATM   12  O   UNL     1     -12.026   9.301  71.384  1.00  0.00    -0.304 OA 
HETATM   13  H   UNL     1     -10.097  11.433  70.007  1.00  0.00     0.000 HD 
HETATM   14  C   UNL     1     -11.634  10.338  70.871  1.00  0.00    -0.365 C  
BRANCH  14  15
HETATM   15  O   UNL     1     -12.417  11.436  70.664  1.00  0.00    -0.338 OA 
BRANCH  15  16
HETATM   16  C   UNL     1     -11.676  12.621  70.315  1.00  0.00    -0.111 C  
HETATM   17  C   UNL     1     -11.907  13.029  68.874  1.00  0.00    -0.358 C  
HETATM   18  O   UNL     1     -12.036  14.990  70.175  1.00  0.00    -0.280 OA 
HETATM   19  C   UNL     1     -11.592  14.509  68.902  1.00  0.00    -0.309 C  
HETATM   20  C   UNL     1     -12.128  13.869  71.070  1.00  0.00    -0.277 C  
ENDBRANCH  15  16
ENDBRANCH  14  15
ENDBRANCH  10  11
BRANCH  10  21
HETATM   21  C   UNL     1      -9.256   8.832  71.896  1.00  0.00    -0.320 C  
BRANCH  21  22
HETATM   22  C   UNL     1      -8.513   7.530  72.124  1.00  0.00    -0.130 A  
HETATM   23  C   UNL     1      -8.156   5.192  71.547  1.00  0.00    -0.115 A  
HETATM   24  C   UNL     1      -8.936   6.352  71.493  1.00  0.00    -0.144 A  
HETATM   25  C   UNL     1      -6.950   5.186  72.245  1.00  0.00    -0.079 A  
HETATM   26  C   UNL     1      -7.302   7.504  72.836  1.00  0.00    -0.089 A  
HETATM   27  C   UNL     1      -6.527   6.340  72.896  1.00  0.00    -0.064 A  
ENDBRANCH  21  22
ENDBRANCH  10  21
ENDBRANCH   7  10
ENDBRANCH   6   7
ENDBRANCH   5   6
BRANCH   5  28
HETATM   28  S   UNL     1      -9.518  10.182  66.665  1.00  0.00    -0.177 S  
HETATM   29  O   UNL     1     -10.168  11.205  65.881  1.00  0.00    -0.236 OA 
HETATM   30  O   UNL     1      -8.947  10.492  67.963  1.00  0.00    -0.131 OA 
BRANCH  28  31
HETATM   31  C   UNL     1      -8.228   9.512  65.652  1.00  0.00    -0.120 A  
HETATM   32  N   UNL     1      -5.169   7.979  63.209  1.00  0.00    -0.049 NA 
HETATM   33  H2  UNL     1      -5.380   8.312  62.269  1.00  0.00     0.000 HD 
HETATM   34  H1  UNL     1      -4.191   8.185  63.412  1.00  0.00     0.000 HD 
HETATM   35  C   UNL     1      -8.547   8.668  64.587  1.00  0.00    -0.116 A  
HETATM   36  C   UNL     1      -7.519   8.140  63.794  1.00  0.00    -0.120 A  
HETATM   37  C   UNL     1      -6.894   9.875  65.884  1.00  0.00    -0.101 A  
HETATM   38  C   UNL     1      -5.880   9.346  65.081  1.00  0.00    -0.060 A  
HETATM   39  C   UNL     1      -6.177   8.424  64.072  1.00  0.00    -0.067 A  
ENDBRANCH  28  31
ENDBRANCH   5  28
ENDBRANCH   4   5
TORSDOF 11
ENDMDL
MODEL      394
REMARK 921   NORMALIZED FREE ENERGY PREDICTED BY IDOCK:    4.76 KCAL/MOL
REMARK 922        TOTAL FREE ENERGY PREDICTED BY IDOCK:    6.05 KCAL/MOL
REMARK 923 INTER-LIGAND FREE ENERGY PREDICTED BY IDOCK:    5.15 KCAL/MOL
REMARK 924 INTRA-LIGAND FREE ENERGY PREDICTED BY IDOCK:    0.90 KCAL/MOL
REMARK 927      BINDING AFFINITY PREDICTED BY RF-SCORE:    0.00 PKD
ROOT
HETATM    1  C   UNL     1     -10.128  19.931  70.184  1.00  0.00     0.558 C  
HETATM    2  C   UNL     1     -11.151  19.815  69.054  1.00  0.00     1.542 C  
HETATM    3  C   UNL     1     -11.658  21.233  68.722  1.00  0.00     3.454 C  
HETATM    4  C   UNL     1     -10.583  19.166  67.776  1.00  0.00    -0.403 C  
ENDROOT
BRANCH   4   5
HETATM    5  N   UNL     1     -10.018  17.756  67.901  1.00  0.00    -0.306 N  
BRANCH   5   6
HETATM    6  C   UNL     1     -11.066  16.755  68.448  1.00  0.00    -0.266 C  
BRANCH   6   7
HETATM    7  C   UNL     1     -10.622  15.253  68.541  1.00  0.00    -0.237 C  
HETATM    8  H   UNL     1      -9.960  14.068  69.946  1.00  0.00     0.000 HD 
HETATM    9  O   UNL     1     -10.229  14.977  69.890  1.00  0.00    -0.183 OA 
BRANCH   7  10
HETATM   10  C   UNL     1     -11.715  14.245  68.027  1.00  0.00    -0.351 C  
BRANCH  10  11
HETATM   11  N   UNL     1     -11.379  13.640  66.722  1.00  0.00    -0.318 N  
HETATM   12  O   UNL     1     -12.948  14.830  65.549  1.00  0.00    -0.109 OA 
HETATM   13  H   UNL     1     -10.632  12.948  66.668  1.00  0.00     0.000 HD 
HETATM   14  C   UNL     1     -12.057  13.995  65.582  1.00  0.00    -0.417 C  
BRANCH  14  15
HETATM   15  O   UNL     1     -11.632  13.283  64.499  1.00  0.00    -0.339 OA 
BRANCH  15  16
HETATM   16  C   UNL     1     -11.395  11.889  64.777  1.00  0.00    -0.283 C  
HETATM   17  C   UNL     1     -10.011  11.651  65.345  1.00  0.00    -0.287 C  
HETATM   18  O   UNL     1     -11.514  10.381  66.640  1.00  0.00     0.061 OA 
HETATM   19  C   UNL     1     -10.189  10.353  66.100  1.00  0.00    -0.223 C  
HETATM   20  C   UNL     1     -12.287  11.325  65.881  1.00  0.00     2.505 C  
ENDBRANCH  15  16
ENDBRANCH  14  15
ENDBRANCH  10  11
BRANCH  10  21
HETATM   21  C   UNL     1     -12.223  13.191  69.047  1.00  0.00    -0.114 C  
BRANCH  21  22
HETATM   22  C   UNL     1     -11.261  12.209  69.688  1.00  0.00    -0.137 A  
HETATM   23  C   UNL     1     -10.887  10.246  71.078  1.00  0.00     0.147 A  
HETATM   24  C   UNL     1     -11.723  11.270  70.621  1.00  0.00    -0.264 A  
HETATM   25  C   UNL     1      -9.574  10.152  70.622  1.00  0.00     0.491 A  
HETATM   26  C   UNL     1      -9.930  12.112  69.250  1.00  0.00     0.444 A  
HETATM   27  C   UNL     1      -9.093  11.091  69.714  1.00  0.00     0.751 A  
ENDBRANCH  21  22
ENDBRANCH  10  21
ENDBRANCH   7  10
ENDBRANCH   6   7
ENDBRANCH   5   6
BRANCH   5  28
HETATM   28  S   UNL     1      -9.378  17.210  66.354  1.00  0.00    -0.247 S  
HETATM   29  O   UNL     1     -10.417  16.519  65.627  1.00  0.00    -0.399 OA 
HETATM   30  O   UNL     1      -8.709  18.361  65.778  1.00  0.00    -0.443 OA 
BRANCH  28  31
HETATM   31  C   UNL     1      -8.142  16.000  66.739  1.00  0.00    -0.267 A  
HETATM   32  N   UNL     1      -5.180  13.141  67.590  1.00  0.00    -0.261 NA 
HETATM   33  H2  UNL     1      -4.973  12.690  66.698  1.00  0.00     0.000 HD 
HETATM   34  H1  UNL     1      -4.299  13.420  68.021  1.00  0.00     0.000 HD 
HETATM   35  C   UNL     1      -8.385  14.650  66.480  1.00  0.00     0.192 A  
HETATM   36  C   UNL     1      -7.403  13.700  66.792  1.00  0.00     0.955 A  
HETATM   37  C   UNL     1      -6.900  16.404  67.247  1.00  0.00    -0.222 A  
HETATM   38  C   UNL     1      -5.926  15.447  67.547  1.00  0.00    -0.073 A  
HETATM   39  C   UNL     1      -6.193  14.084  67.383  1.00  0.00     0.195 A  
ENDBRANCH  28  31
ENDBRANCH   5  28
ENDBRANCH   4   5
TORSDOF 11
ENDMDL
MODEL      395
REMARK 921   NORMALIZED FREE ENERGY PREDICTED BY IDOCK:    6.28 KCAL/MOL
REMARK 922        TOTAL FREE ENERGY PREDICTED BY IDOCK:    8.54 KCAL/MOL
REMARK 923 INTER-LIGAND FREE ENERGY PREDICTED BY IDOCK:    1.89 KCAL/MOL
REMARK 924 INTRA-LIGAND FREE ENERGY PREDICTED BY IDOCK:    6.65 KCAL/MOL
REMARK 927      BINDING AFFINITY PREDICTED BY RF-SCORE:    0.00 PKD
ROOT
HETATM    1  C   UNL     1      -8.739   4.587  65.022  1.00  0.00    -0.138 C  
HETATM    2  C   UNL     1      -9.753   5.601  64.489  1.00  0.00     1.145 C  
HETATM    3  C   UNL     1     -10.513   4.944  63.319  1.00  0.00     1.013 C  
HETATM    4  C   UNL     1     -10.765   6.074  65.551  1.00  0.00     1.660 C  
ENDROOT
BRANCH   4   5
HETATM    5  N   UNL     1     -10.203   6.744  66.800  1.00  0.00    -0.215 N  
BRANCH   5   6
HETATM    6  C   UNL     1     -10.615   8.233  66.899  1.00  0.00    -0.232 C  
BRANCH   6   7
HETATM    7  C   UNL     1     -10.851   8.804  68.341  1.00  0.00     0.034 C  
HETATM    8  H   UNL     1     -10.575   8.166  70.167  1.00  0.00     0.000 HD 
HETATM    9  O   UNL     1     -10.432   7.821  69.294  1.00  0.00    -0.217 OA 
BRANCH   7  10
HETATM   10  C   UNL     1     -10.156  10.195  68.585  1.00  0.00    -0.172 C  
BRANCH  10  11
HETATM   11  N   UNL     1      -9.960  10.971  67.343  1.00  0.00    -0.180 N  
HETATM   12  O   UNL     1      -9.436  12.926  68.420  1.00  0.00    -0.215 OA 
HETATM   13  H   UNL     1     -10.079  10.511  66.440  1.00  0.00     0.000 HD 
HETATM   14  C   UNL     1      -9.621  12.300  67.386  1.00  0.00    -0.179 C  
BRANCH  14  15
HETATM   15  O   UNL     1      -9.542  12.842  66.137  1.00  0.00    -0.260 OA 
BRANCH  15  16
HETATM   16  C   UNL     1     -10.570  12.382  65.238  1.00  0.00    -0.290 C  
HETATM   17  C   UNL     1     -11.269  13.531  64.541  1.00  0.00    -0.392 C  
HETATM   18  O   UNL     1     -10.830  11.896  62.902  1.00  0.00    -0.143 OA 
HETATM   19  C   UNL     1     -11.802  12.874  63.287  1.00  0.00    -0.398 C  
HETATM   20  C   UNL     1     -10.033  11.579  64.055  1.00  0.00    -0.303 C  
ENDBRANCH  15  16
ENDBRANCH  14  15
ENDBRANCH  10  11
BRANCH  10  21
HETATM   21  C   UNL     1     -10.730  11.066  69.734  1.00  0.00    -0.135 C  
BRANCH  21  22
HETATM   22  C   UNL     1     -11.880  10.565  70.584  1.00  0.00    -0.458 A  
HETATM   23  C   UNL     1     -14.205   9.865  70.762  1.00  0.00     0.892 A  
HETATM   24  C   UNL     1     -13.176  10.494  70.054  1.00  0.00     0.362 A  
HETATM   25  C   UNL     1     -13.960   9.310  72.016  1.00  0.00    -0.392 A  
HETATM   26  C   UNL     1     -11.653  10.016  71.857  1.00  0.00     0.278 A  
HETATM   27  C   UNL     1     -12.685   9.393  72.568  1.00  0.00    -0.263 A  
ENDBRANCH  21  22
ENDBRANCH  10  21
ENDBRANCH   7  10
ENDBRANCH   6   7
ENDBRANCH   5   6
BRANCH   5  28
HETATM   28  S   UNL     1     -10.693   5.862  68.244  1.00  0.00    -0.215 S  
HETATM   29  O   UNL     1     -11.340   6.772  69.161  1.00  0.00    -0.211 OA 
HETATM   30  O   UNL     1     -11.381   4.677  67.766  1.00  0.00     2.106 OA 
BRANCH  28  31
HETATM   31  C   UNL     1      -9.192   5.339  69.028  1.00  0.00    -0.118 A  
HETATM   32  N   UNL     1      -5.649   4.132  70.942  1.00  0.00    -0.011 NA 
HETATM   33  H2  UNL     1      -5.370   4.924  71.520  1.00  0.00     0.000 HD 
HETATM   34  H1  UNL     1      -5.632   3.291  71.518  1.00  0.00     0.000 HD 
HETATM   35  C   UNL     1      -8.015   6.062  68.830  1.00  0.00    -0.100 A  
HETATM   36  C   UNL     1      -6.832   5.638  69.450  1.00  0.00    -0.061 A  
HETATM   37  C   UNL     1      -9.200   4.234  69.890  1.00  0.00    -0.208 A  
HETATM   38  C   UNL     1      -8.014   3.826  70.508  1.00  0.00    -0.055 A  
HETATM   39  C   UNL     1      -6.809   4.484  70.243  1.00  0.00    -0.037 A  
ENDBRANCH  28  31
ENDBRANCH   5  28
ENDBRANCH   4   5
TORSDOF 11
ENDMDL
MODEL      396
REMARK 921   NORMALIZED FREE ENERGY PREDICTED BY IDOCK:    6.31 KCAL/MOL
REMARK 922        TOTAL FREE ENERGY PREDICTED BY IDOCK:    8.60 KCAL/MOL
REMARK 923 INTER-LIGAND FREE ENERGY PREDICTED BY IDOCK:    6.93 KCAL/MOL
REMARK 924 INTRA-LIGAND FREE ENERGY PREDICTED BY IDOCK:    1.68 KCAL/MOL
REMARK 927      BINDING AFFINITY PREDICTED BY RF-SCORE:    0.00 PKD
ROOT
HETATM    1  C   UNL     1     -10.208  19.938  70.195  1.00  0.00     0.609 C  
HETATM    2  C   UNL     1     -11.381  19.722  69.239  1.00  0.00     2.796 C  
HETATM    3  C   UNL     1     -12.111  21.069  69.067  1.00  0.00     4.508 C  
HETATM    4  C   UNL     1     -10.957  19.193  67.855  1.00  0.00    -0.088 C  
ENDROOT
BRANCH   4   5
HETATM    5  N   UNL     1     -10.205  17.867  67.815  1.00  0.00    -0.350 N  
BRANCH   5   6
HETATM    6  C   UNL     1     -10.972  16.740  68.549  1.00  0.00    -0.312 C  
BRANCH   6   7
HETATM    7  C   UNL     1     -10.323  15.312  68.519  1.00  0.00    -0.231 C  
HETATM    8  H   UNL     1      -9.445  14.140  69.812  1.00  0.00     0.000 HD 
HETATM    9  O   UNL     1      -9.838  15.004  69.830  1.00  0.00    -0.110 OA 
BRANCH   7  10
HETATM   10  C   UNL     1     -11.289  14.198  67.971  1.00  0.00    -0.299 C  
BRANCH  10  11
HETATM   11  N   UNL     1     -11.006  13.821  66.571  1.00  0.00    -0.297 N  
HETATM   12  O   UNL     1     -12.718  15.063  65.688  1.00  0.00     0.211 OA 
HETATM   13  H   UNL     1     -10.224  13.198  66.367  1.00  0.00     0.000 HD 
HETATM   14  C   UNL     1     -11.779  14.297  65.541  1.00  0.00    -0.353 C  
BRANCH  14  15
HETATM   15  O   UNL     1     -11.385  13.788  64.338  1.00  0.00    -0.373 OA 
BRANCH  15  16
HETATM   16  C   UNL     1     -11.049  12.387  64.381  1.00  0.00    -0.333 C  
HETATM   17  C   UNL     1      -9.636  12.159  64.877  1.00  0.00     0.000 C  
HETATM   18  O   UNL     1     -11.012  10.596  65.978  1.00  0.00    -0.050 OA 
HETATM   19  C   UNL     1      -9.705  10.747  65.415  1.00  0.00    -0.245 C  
HETATM   20  C   UNL     1     -11.868  11.593  65.397  1.00  0.00     0.200 C  
ENDBRANCH  15  16
ENDBRANCH  14  15
ENDBRANCH  10  11
BRANCH  10  21
HETATM   21  C   UNL     1     -11.504  12.956  68.878  1.00  0.00    -0.350 C  
BRANCH  21  22
HETATM   22  C   UNL     1     -10.322  12.146  69.372  1.00  0.00     0.353 A  
HETATM   23  C   UNL     1      -9.460  10.139  70.448  1.00  0.00     0.232 A  
HETATM   24  C   UNL     1     -10.525  10.993  70.143  1.00  0.00     0.465 A  
HETATM   25  C   UNL     1      -8.173  10.431  70.000  1.00  0.00     0.174 A  
HETATM   26  C   UNL     1      -9.016  12.436  68.941  1.00  0.00     0.292 A  
HETATM   27  C   UNL     1      -7.950  11.584  69.253  1.00  0.00     0.198 A  
ENDBRANCH  21  22
ENDBRANCH  10  21
ENDBRANCH   7  10
ENDBRANCH   6   7
ENDBRANCH   5   6
BRANCH   5  28
HETATM   28  S   UNL     1      -9.859  17.406  66.151  1.00  0.00    -0.202 S  
HETATM   29  O   UNL     1      -9.441  16.024  66.117  1.00  0.00    -0.284 OA 
HETATM   30  O   UNL     1     -10.999  17.856  65.373  1.00  0.00    -0.447 OA 
BRANCH  28  31
HETATM   31  C   UNL     1      -8.455  18.369  65.661  1.00  0.00     0.652 A  
HETATM   32  N   UNL     1      -5.140  20.646  64.434  1.00  0.00    -0.169 NA 
HETATM   33  H2  UNL     1      -4.831  20.225  63.558  1.00  0.00     0.000 HD 
HETATM   34  H1  UNL     1      -5.226  21.653  64.294  1.00  0.00     0.000 HD 
HETATM   35  C   UNL     1      -7.213  17.755  65.495  1.00  0.00     0.252 A  
HETATM   36  C   UNL     1      -6.107  18.525  65.112  1.00  0.00    -0.260 A  
HETATM   37  C   UNL     1      -8.604  19.735  65.384  1.00  0.00     0.688 A  
HETATM   38  C   UNL     1      -7.493  20.491  64.996  1.00  0.00     0.326 A  
HETATM   39  C   UNL     1      -6.225  19.907  64.920  1.00  0.00    -0.274 A  
ENDBRANCH  28  31
ENDBRANCH   5  28
ENDBRANCH   4   5
TORSDOF 11
ENDMDL
MODEL      397
REMARK 921   NORMALIZED FREE ENERGY PREDICTED BY IDOCK:    6.98 KCAL/MOL
REMARK 922        TOTAL FREE ENERGY PREDICTED BY IDOCK:    9.70 KCAL/MOL
REMARK 923 INTER-LIGAND FREE ENERGY PREDICTED BY IDOCK:    4.60 KCAL/MOL
REMARK 924 INTRA-LIGAND FREE ENERGY PREDICTED BY IDOCK:    5.09 KCAL/MOL
REMARK 927      BINDING AFFINITY PREDICTED BY RF-SCORE:    0.00 PKD
ROOT
HETATM    1  C   UNL     1     -10.208  19.938  70.195  1.00  0.00     0.609 C  
HETATM    2  C   UNL     1     -11.388  19.716  69.249  1.00  0.00     2.886 C  
HETATM    3  C   UNL     1     -12.121  21.062  69.076  1.00  0.00     4.508 C  
HETATM    4  C   UNL     1     -10.974  19.181  67.864  1.00  0.00    -0.088 C  
ENDROOT
BRANCH   4   5
HETATM    5  N   UNL     1     -10.222  17.855  67.825  1.00  0.00    -0.350 N  
BRANCH   5   6
HETATM    6  C   UNL     1     -10.982  16.732  68.571  1.00  0.00    -0.312 C  
BRANCH   6   7
HETATM    7  C   UNL     1     -10.278  15.331  68.638  1.00  0.00    -0.223 C  
HETATM    8  H   UNL     1     -10.674  13.527  68.000  1.00  0.00     0.000 HD 
HETATM    9  O   UNL     1     -11.100  14.375  67.959  1.00  0.00    -0.257 OA 
BRANCH   7  10
HETATM   10  C   UNL     1      -8.806  15.343  68.081  1.00  0.00    -0.170 C  
BRANCH  10  11
HETATM   11  N   UNL     1      -7.783  15.363  69.146  1.00  0.00    -0.189 N  
HETATM   12  O   UNL     1      -7.359  17.608  68.964  1.00  0.00    -0.254 OA 
HETATM   13  H   UNL     1      -7.556  14.499  69.639  1.00  0.00     0.000 HD 
HETATM   14  C   UNL     1      -7.135  16.525  69.483  1.00  0.00    -0.091 C  
BRANCH  14  15
HETATM   15  O   UNL     1      -6.193  16.316  70.448  1.00  0.00    -0.038 OA 
BRANCH  15  16
HETATM   16  C   UNL     1      -5.430  15.109  70.264  1.00  0.00    -0.127 C  
HETATM   17  C   UNL     1      -6.159  13.891  70.792  1.00  0.00    -0.117 C  
HETATM   18  O   UNL     1      -5.272  13.304  68.689  1.00  0.00    -0.065 OA 
HETATM   19  C   UNL     1      -5.539  12.768  69.989  1.00  0.00    -0.125 C  
HETATM   20  C   UNL     1      -5.219  14.736  68.798  1.00  0.00    -0.089 C  
ENDBRANCH  15  16
ENDBRANCH  14  15
ENDBRANCH  10  11
BRANCH  10  21
HETATM   21  C   UNL     1      -8.474  14.310  66.971  1.00  0.00    -0.190 C  
BRANCH  21  22
HETATM   22  C   UNL     1      -8.726  12.832  67.190  1.00  0.00    -0.202 A  
HETATM   23  C   UNL     1      -8.658  10.548  66.350  1.00  0.00    -0.147 A  
HETATM   24  C   UNL     1      -8.611  11.927  66.125  1.00  0.00     0.052 A  
HETATM   25  C   UNL     1      -8.835  10.050  67.640  1.00  0.00    -0.121 A  
HETATM   26  C   UNL     1      -8.920  12.315  68.482  1.00  0.00    -0.070 A  
HETATM   27  C   UNL     1      -8.975  10.935  68.705  1.00  0.00    -0.162 A  
ENDBRANCH  21  22
ENDBRANCH  10  21
ENDBRANCH   7  10
ENDBRANCH   6   7
ENDBRANCH   5   6
BRANCH   5  28
HETATM   28  S   UNL     1      -9.887  17.387  66.160  1.00  0.00    -0.202 S  
HETATM   29  O   UNL     1      -9.469  16.005  66.130  1.00  0.00    -0.284 OA 
HETATM   30  O   UNL     1     -11.034  17.832  65.389  1.00  0.00    -0.419 OA 
BRANCH  28  31
HETATM   31  C   UNL     1      -8.488  18.349  65.655  1.00  0.00     0.652 A  
HETATM   32  N   UNL     1      -5.149  20.638  64.521  1.00  0.00    -0.172 NA 
HETATM   33  H2  UNL     1      -5.015  21.314  65.273  1.00  0.00     0.000 HD 
HETATM   34  H1  UNL     1      -4.254  20.189  64.330  1.00  0.00     0.000 HD 
HETATM   35  C   UNL     1      -8.617  19.728  65.486  1.00  0.00     0.420 A  
HETATM   36  C   UNL     1      -7.505  20.480  65.082  1.00  0.00     0.229 A  
HETATM   37  C   UNL     1      -7.240  17.734  65.483  1.00  0.00     0.252 A  
HETATM   38  C   UNL     1      -6.138  18.498  65.086  1.00  0.00    -0.260 A  
HETATM   39  C   UNL     1      -6.276  19.864  64.819  1.00  0.00    -0.278 A  
ENDBRANCH  28  31
ENDBRANCH   5  28
ENDBRANCH   4   5
TORSDOF 11
ENDMDL
MODEL      398
REMARK 921   NORMALIZED FREE ENERGY PREDICTED BY IDOCK:   13.49 KCAL/MOL
REMARK 922        TOTAL FREE ENERGY PREDICTED BY IDOCK:   20.40 KCAL/MOL
REMARK 923 INTER-LIGAND FREE ENERGY PREDICTED BY IDOCK:    2.82 KCAL/MOL
REMARK 924 INTRA-LIGAND FREE ENERGY PREDICTED BY IDOCK:   17.58 KCAL/MOL
REMARK 927      BINDING AFFINITY PREDICTED BY RF-SCORE:    0.00 PKD
ROOT
HETATM    1  C   UNL     1     -11.120   6.201  67.278  1.00  0.00    -0.334 C  
HETATM    2  C   UNL     1     -10.176   7.059  66.435  1.00  0.00    -0.006 C  
HETATM    3  C   UNL     1      -9.625   6.182  65.293  1.00  0.00     0.667 C  
HETATM    4  C   UNL     1     -10.851   8.309  65.837  1.00  0.00     2.612 C  
ENDROOT
BRANCH   4   5
HETATM    5  N   UNL     1     -11.471   9.302  66.813  1.00  0.00     1.465 N  
BRANCH   5   6
HETATM    6  C   UNL     1     -11.271   8.873  68.287  1.00  0.00     0.458 C  
BRANCH   6   7
HETATM    7  C   UNL     1      -9.801   8.906  68.835  1.00  0.00    -0.177 C  
HETATM    8  H   UNL     1      -8.056   8.282  68.216  1.00  0.00     0.000 HD 
HETATM    9  O   UNL     1      -8.946   8.261  67.884  1.00  0.00    -0.134 OA 
BRANCH   7  10
HETATM   10  C   UNL     1      -9.299  10.354  69.192  1.00  0.00    -0.199 C  
BRANCH  10  11
HETATM   11  N   UNL     1     -10.349  11.383  69.051  1.00  0.00    -0.337 N  
HETATM   12  O   UNL     1     -11.999  10.104  69.997  1.00  0.00    -0.220 OA 
HETATM   13  H   UNL     1     -10.115  12.286  68.637  1.00  0.00     0.000 HD 
HETATM   14  C   UNL     1     -11.635  11.144  69.470  1.00  0.00    -0.321 C  
BRANCH  14  15
HETATM   15  O   UNL     1     -12.458  12.198  69.201  1.00  0.00     0.033 OA 
BRANCH  15  16
HETATM   16  C   UNL     1     -12.404  13.244  70.190  1.00  0.00    -0.236 C  
HETATM   17  C   UNL     1     -11.817  14.524  69.630  1.00  0.00    -0.367 C  
HETATM   18  O   UNL     1     -13.716  15.130  70.885  1.00  0.00    -0.382 OA 
HETATM   19  C   UNL     1     -12.399  15.577  70.547  1.00  0.00    -0.418 C  
HETATM   20  C   UNL     1     -13.780  13.712  70.660  1.00  0.00     0.737 C  
ENDBRANCH  15  16
ENDBRANCH  14  15
ENDBRANCH  10  11
BRANCH  10  21
HETATM   21  C   UNL     1      -8.504  10.508  70.516  1.00  0.00     1.485 C  
BRANCH  21  22
HETATM   22  C   UNL     1      -7.253   9.688  70.767  1.00  0.00    -0.072 A  
HETATM   23  C   UNL     1      -5.841   8.438  72.306  1.00  0.00    -0.055 A  
HETATM   24  C   UNL     1      -6.881   9.343  72.074  1.00  0.00     0.421 A  
HETATM   25  C   UNL     1      -5.145   7.876  71.237  1.00  0.00    -0.026 A  
HETATM   26  C   UNL     1      -6.532   9.125  69.700  1.00  0.00    -0.042 A  
HETATM   27  C   UNL     1      -5.486   8.226  69.934  1.00  0.00    -0.022 A  
ENDBRANCH  21  22
ENDBRANCH  10  21
ENDBRANCH   7  10
ENDBRANCH   6   7
ENDBRANCH   5   6
BRANCH   5  28
HETATM   28  S   UNL     1     -10.829  10.918  66.538  1.00  0.00    -0.113 S  
HETATM   29  O   UNL     1     -11.763  11.671  65.734  1.00  0.00    -0.309 OA 
HETATM   30  O   UNL     1     -10.414  11.403  67.842  1.00  0.00    -0.175 OA 
BRANCH  28  31
HETATM   31  C   UNL     1      -9.373  10.703  65.552  1.00  0.00    -0.205 A  
HETATM   32  N   UNL     1      -5.911  10.257  63.209  1.00  0.00    -0.138 NA 
HETATM   33  H2  UNL     1      -5.904  11.059  62.579  1.00  0.00     0.000 HD 
HETATM   34  H1  UNL     1      -4.993  10.187  63.648  1.00  0.00     0.000 HD 
HETATM   35  C   UNL     1      -9.482  10.596  64.164  1.00  0.00    -0.327 A  
HETATM   36  C   UNL     1      -8.325  10.420  63.393  1.00  0.00    -0.158 A  
HETATM   37  C   UNL     1      -8.110  10.697  66.158  1.00  0.00    -0.154 A  
HETATM   38  C   UNL     1      -6.963  10.529  65.375  1.00  0.00    -0.074 A  
HETATM   39  C   UNL     1      -7.066  10.324  63.996  1.00  0.00    -0.053 A  
ENDBRANCH  28  31
ENDBRANCH   5  28
ENDBRANCH   4   5
TORSDOF 11
ENDMDL
MODEL      399
REMARK 921   NORMALIZED FREE ENERGY PREDICTED BY IDOCK:   19.60 KCAL/MOL
REMARK 922        TOTAL FREE ENERGY PREDICTED BY IDOCK:   30.44 KCAL/MOL
REMARK 923 INTER-LIGAND FREE ENERGY PREDICTED BY IDOCK:   11.28 KCAL/MOL
REMARK 924 INTRA-LIGAND FREE ENERGY PREDICTED BY IDOCK:   19.16 KCAL/MOL
REMARK 927      BINDING AFFINITY PREDICTED BY RF-SCORE:    0.00 PKD
ROOT
HETATM    1  C   UNL     1      -9.780  20.441  70.546  1.00  0.00     1.322 C  
HETATM    2  C   UNL     1     -11.135  20.051  69.953  1.00  0.00     2.222 C  
HETATM    3  C   UNL     1     -11.871  21.347  69.557  1.00  0.00     3.965 C  
HETATM    4  C   UNL     1     -11.025  19.131  68.721  1.00  0.00     1.047 C  
ENDROOT
BRANCH   4   5
HETATM    5  N   UNL     1     -10.313  17.796  68.909  1.00  0.00    -0.354 N  
BRANCH   5   6
HETATM    6  C   UNL     1     -10.800  17.049  70.175  1.00  0.00     0.321 C  
BRANCH   6   7
HETATM    7  C   UNL     1     -10.186  15.629  70.433  1.00  0.00     0.012 C  
HETATM    8  H   UNL     1     -10.824  13.784  70.342  1.00  0.00     0.000 HD 
HETATM    9  O   UNL     1     -11.196  14.644  70.186  1.00  0.00    -0.246 OA 
BRANCH   7  10
HETATM   10  C   UNL     1      -8.878  15.352  69.603  1.00  0.00    -0.138 C  
BRANCH  10  11
HETATM   11  N   UNL     1      -7.646  15.442  70.413  1.00  0.00     0.298 N  
HETATM   12  O   UNL     1      -7.034  17.498  69.604  1.00  0.00    -0.093 OA 
HETATM   13  H   UNL     1      -7.408  14.682  71.051  1.00  0.00     0.000 HD 
HETATM   14  C   UNL     1      -6.818  16.533  70.322  1.00  0.00     0.847 C  
BRANCH  14  15
HETATM   15  O   UNL     1      -5.712  16.395  71.109  1.00  0.00     0.153 OA 
BRANCH  15  16
HETATM   16  C   UNL     1      -5.268  15.032  71.253  1.00  0.00    -0.123 C  
HETATM   17  C   UNL     1      -5.827  14.383  72.503  1.00  0.00     0.159 C  
HETATM   18  O   UNL     1      -6.058  12.821  70.754  1.00  0.00    -0.205 OA 
HETATM   19  C   UNL     1      -5.778  12.912  72.155  1.00  0.00     0.806 C  
HETATM   20  C   UNL     1      -5.786  14.101  70.159  1.00  0.00    -0.141 C  
ENDBRANCH  15  16
ENDBRANCH  14  15
ENDBRANCH  10  11
BRANCH  10  21
HETATM   21  C   UNL     1      -8.886  14.096  68.690  1.00  0.00    -0.132 C  
BRANCH  21  22
HETATM   22  C   UNL     1      -9.989  13.063  68.807  1.00  0.00    -0.022 A  
HETATM   23  C   UNL     1     -12.083  12.131  67.986  1.00  0.00    -0.043 A  
HETATM   24  C   UNL     1     -11.147  13.170  68.024  1.00  0.00    -0.290 A  
HETATM   25  C   UNL     1     -11.885  10.977  68.741  1.00  0.00    -0.352 A  
HETATM   26  C   UNL     1      -9.810  11.899  69.574  1.00  0.00     0.861 A  
HETATM   27  C   UNL     1     -10.752  10.865  69.541  1.00  0.00    -0.251 A  
ENDBRANCH  21  22
ENDBRANCH  10  21
ENDBRANCH   7  10
ENDBRANCH   6   7
ENDBRANCH   5   6
BRANCH   5  28
HETATM   28  S   UNL     1     -10.503  16.790  67.476  1.00  0.00    -0.305 S  
HETATM   29  O   UNL     1     -11.423  15.716  67.768  1.00  0.00    -0.307 OA 
HETATM   30  O   UNL     1     -10.760  17.710  66.383  1.00  0.00    -0.239 OA 
BRANCH  28  31
HETATM   31  C   UNL     1      -8.924  16.039  67.194  1.00  0.00    -0.202 A  
HETATM   32  N   UNL     1      -5.165  14.255  66.592  1.00  0.00     1.403 NA 
HETATM   33  H2  UNL     1      -4.578  14.595  67.353  1.00  0.00     0.000 HD 
HETATM   34  H1  UNL     1      -5.075  13.240  66.546  1.00  0.00     0.000 HD 
HETATM   35  C   UNL     1      -7.797  16.841  67.002  1.00  0.00    -0.229 A  
HETATM   36  C   UNL     1      -6.552  16.238  66.775  1.00  0.00    -0.010 A  
HETATM   37  C   UNL     1      -8.796  14.644  67.222  1.00  0.00    -0.220 A  
HETATM   38  C   UNL     1      -7.546  14.056  67.001  1.00  0.00     0.212 A  
HETATM   39  C   UNL     1      -6.428  14.845  66.712  1.00  0.00     1.551 A  
ENDBRANCH  28  31
ENDBRANCH   5  28
ENDBRANCH   4   5
TORSDOF 11
ENDMDL
MODEL      400
REMARK 921   NORMALIZED FREE ENERGY PREDICTED BY IDOCK:   22.07 KCAL/MOL
REMARK 922        TOTAL FREE ENERGY PREDICTED BY IDOCK:   34.50 KCAL/MOL
REMARK 923 INTER-LIGAND FREE ENERGY PREDICTED BY IDOCK:    1.41 KCAL/MOL
REMARK 924 INTRA-LIGAND FREE ENERGY PREDICTED BY IDOCK:   33.09 KCAL/MOL
REMARK 927      BINDING AFFINITY PREDICTED BY RF-SCORE:    0.00 PKD
ROOT
HETATM    1  C   UNL     1     -11.150   6.170  67.236  1.00  0.00    -0.334 C  
HETATM    2  C   UNL     1     -10.193   6.985  66.364  1.00  0.00    -0.006 C  
HETATM    3  C   UNL     1      -9.832   6.134  65.130  1.00  0.00     1.213 C  
HETATM    4  C   UNL     1     -10.782   8.332  65.900  1.00  0.00     2.187 C  
ENDROOT
BRANCH   4   5
HETATM    5  N   UNL     1     -11.214   9.314  66.982  1.00  0.00     0.417 N  
BRANCH   5   6
HETATM    6  C   UNL     1     -11.308   8.644  68.374  1.00  0.00     0.795 C  
BRANCH   6   7
HETATM    7  C   UNL     1     -10.042   7.854  68.861  1.00  0.00    -0.197 C  
HETATM    8  H   UNL     1      -8.962   6.374  68.181  1.00  0.00     0.000 HD 
HETATM    9  O   UNL     1      -9.728   6.852  67.887  1.00  0.00    -0.122 OA 
BRANCH   7  10
HETATM   10  C   UNL     1      -8.809   8.779  69.174  1.00  0.00    -0.137 C  
BRANCH  10  11
HETATM   11  N   UNL     1      -9.150  10.216  69.189  1.00  0.00    -0.172 N  
HETATM   12  O   UNL     1      -6.973  10.931  69.257  1.00  0.00    -0.088 OA 
HETATM   13  H   UNL     1     -10.130  10.499  69.160  1.00  0.00     0.000 HD 
HETATM   14  C   UNL     1      -8.170  11.176  69.242  1.00  0.00     0.086 C  
BRANCH  14  15
HETATM   15  O   UNL     1      -8.697  12.433  69.303  1.00  0.00     0.547 OA 
BRANCH  15  16
HETATM   16  C   UNL     1      -9.013  12.993  68.015  1.00  0.00    -0.199 C  
HETATM   17  C   UNL     1     -10.505  13.181  67.830  1.00  0.00    -0.232 C  
HETATM   18  O   UNL     1      -9.462  15.146  67.051  1.00  0.00    -0.213 OA 
HETATM   19  C   UNL     1     -10.567  14.276  66.787  1.00  0.00    -0.278 C  
HETATM   20  C   UNL     1      -8.493  14.416  67.822  1.00  0.00    -0.173 C  
ENDBRANCH  15  16
ENDBRANCH  14  15
ENDBRANCH  10  11
BRANCH  10  21
HETATM   21  C   UNL     1      -7.926   8.375  70.385  1.00  0.00    -0.099 C  
BRANCH  21  22
HETATM   22  C   UNL     1      -7.356   6.975  70.494  1.00  0.00    -0.076 A  
HETATM   23  C   UNL     1      -7.666   4.623  71.042  1.00  0.00    -0.080 A  
HETATM   24  C   UNL     1      -8.099   5.952  71.100  1.00  0.00    -0.121 A  
HETATM   25  C   UNL     1      -6.477   4.298  70.393  1.00  0.00    -0.031 A  
HETATM   26  C   UNL     1      -6.151   6.633  69.857  1.00  0.00    -0.027 A  
HETATM   27  C   UNL     1      -5.715   5.304  69.807  1.00  0.00    -0.016 A  
ENDBRANCH  21  22
ENDBRANCH  10  21
ENDBRANCH   7  10
ENDBRANCH   6   7
ENDBRANCH   5   6
BRANCH   5  28
HETATM   28  S   UNL     1     -10.127  10.699  67.026  1.00  0.00    -0.220 S  
HETATM   29  O   UNL     1     -10.677  11.762  66.216  1.00  0.00    -0.250 OA 
HETATM   30  O   UNL     1      -9.824  10.917  68.429  1.00  0.00    -0.164 OA 
BRANCH  28  31
HETATM   31  C   UNL     1      -8.637  10.174  66.225  1.00  0.00    -0.131 A  
HETATM   32  N   UNL     1      -5.135   8.878  64.293  1.00  0.00    -0.050 NA 
HETATM   33  H2  UNL     1      -5.228   7.866  64.212  1.00  0.00     0.000 HD 
HETATM   34  H1  UNL     1      -4.879   9.252  63.379  1.00  0.00     0.000 HD 
HETATM   35  C   UNL     1      -7.788   9.267  66.860  1.00  0.00    -0.098 A  
HETATM   36  C   UNL     1      -6.609   8.860  66.221  1.00  0.00    -0.066 A  
HETATM   37  C   UNL     1      -8.340  10.624  64.931  1.00  0.00    -0.085 A  
HETATM   38  C   UNL     1      -7.164  10.205  64.302  1.00  0.00    -0.108 A  
HETATM   39  C   UNL     1      -6.257   9.373  64.966  1.00  0.00    -0.068 A  
ENDBRANCH  28  31
ENDBRANCH   5  28
ENDBRANCH   4   5
TORSDOF 11
ENDMDL
MODEL      401
REMARK 921   NORMALIZED FREE ENERGY PREDICTED BY IDOCK:   68.78 KCAL/MOL
REMARK 922        TOTAL FREE ENERGY PREDICTED BY IDOCK:  111.24 KCAL/MOL
REMARK 923 INTER-LIGAND FREE ENERGY PREDICTED BY IDOCK:   98.18 KCAL/MOL
REMARK 924 INTRA-LIGAND FREE ENERGY PREDICTED BY IDOCK:   13.06 KCAL/MOL
REMARK 927      BINDING AFFINITY PREDICTED BY RF-SCORE:    0.00 PKD
ROOT
HETATM    1  C   UNL     1      -9.945  20.477  70.645  1.00  0.00     1.533 C  
HETATM    2  C   UNL     1     -11.351  19.880  70.581  1.00  0.00     5.320 C  
HETATM    3  C   UNL     1     -12.364  21.023  70.796  1.00  0.00    11.754 C  
HETATM    4  C   UNL     1     -11.658  19.172  69.247  1.00  0.00     4.533 C  
ENDROOT
BRANCH   4   5
HETATM    5  N   UNL     1     -10.753  18.012  68.848  1.00  0.00     0.067 N  
BRANCH   5   6
HETATM    6  C   UNL     1     -10.373  17.126  70.059  1.00  0.00     0.371 C  
BRANCH   6   7
HETATM    7  C   UNL     1      -9.835  15.688  69.737  1.00  0.00    -0.257 C  
HETATM    8  H   UNL     1     -10.377  13.858  70.157  1.00  0.00     0.000 HD 
HETATM    9  O   UNL     1     -10.703  14.728  70.352  1.00  0.00    -0.083 OA 
BRANCH   7  10
HETATM   10  C   UNL     1      -9.655  15.417  68.197  1.00  0.00    -0.203 C  
BRANCH  10  11
HETATM   11  N   UNL     1      -8.263  15.092  67.824  1.00  0.00    -0.144 N  
HETATM   12  O   UNL     1      -7.904  17.052  66.692  1.00  0.00    -0.208 OA 
HETATM   13  H   UNL     1      -7.857  14.207  68.127  1.00  0.00     0.000 HD 
HETATM   14  C   UNL     1      -7.509  15.962  67.077  1.00  0.00    -0.219 C  
BRANCH  14  15
HETATM   15  O   UNL     1      -6.276  15.450  66.797  1.00  0.00    -0.011 OA 
BRANCH  15  16
HETATM   16  C   UNL     1      -6.214  14.013  66.869  1.00  0.00     1.595 C  
HETATM   17  C   UNL     1      -5.776  13.533  68.238  1.00  0.00    -0.101 C  
HETATM   18  O   UNL     1      -7.597  12.187  67.586  1.00  0.00    -0.119 OA 
HETATM   19  C   UNL     1      -6.353  12.135  68.291  1.00  0.00    -0.053 C  
HETATM   20  C   UNL     1      -7.573  13.333  66.720  1.00  0.00     0.598 C  
ENDBRANCH  15  16
ENDBRANCH  14  15
ENDBRANCH  10  11
BRANCH  10  21
HETATM   21  C   UNL     1     -10.677  14.455  67.536  1.00  0.00    -0.271 C  
BRANCH  21  22
HETATM   22  C   UNL     1     -11.335  13.352  68.342  1.00  0.00    -0.329 A  
HETATM   23  C   UNL     1     -11.132  11.335  69.689  1.00  0.00    -0.273 A  
HETATM   24  C   UNL     1     -10.583  12.259  68.794  1.00  0.00    -0.223 A  
HETATM   25  C   UNL     1     -12.445  11.479  70.134  1.00  0.00    -0.239 A  
HETATM   26  C   UNL     1     -12.662  13.475  68.786  1.00  0.00     0.888 A  
HETATM   27  C   UNL     1     -13.213  12.546  69.676  1.00  0.00     1.890 A  
ENDBRANCH  21  22
ENDBRANCH  10  21
ENDBRANCH   7  10
ENDBRANCH   6   7
ENDBRANCH   5   6
BRANCH   5  28
HETATM   28  S   UNL     1     -11.507  17.050  67.580  1.00  0.00     0.740 S  
HETATM   29  O   UNL     1     -10.485  16.325  66.861  1.00  0.00    -0.306 OA 
HETATM   30  O   UNL     1     -12.604  16.347  68.220  1.00  0.00     1.140 OA 
BRANCH  28  31
HETATM   31  C   UNL     1     -12.202  18.211  66.436  1.00  0.00     5.057 A  
HETATM   32  N   UNL     1     -13.910  20.936  63.728  1.00  0.00    14.843 NA 
HETATM   33  H2  UNL     1     -14.626  20.409  63.228  1.00  0.00     0.000 HD 
HETATM   34  H1  UNL     1     -14.325  21.806  64.061  1.00  0.00     0.000 HD 
HETATM   35  C   UNL     1     -12.154  17.951  65.065  1.00  0.00     5.220 A  
HETATM   36  C   UNL     1     -12.702  18.877  64.168  1.00  0.00    15.008 A  
HETATM   37  C   UNL     1     -12.849  19.360  66.909  1.00  0.00     5.979 A  
HETATM   38  C   UNL     1     -13.398  20.272  66.003  1.00  0.00     9.107 A  
HETATM   39  C   UNL     1     -13.272  20.071  64.624  1.00  0.00    15.574 A  
ENDBRANCH  28  31
ENDBRANCH   5  28
ENDBRANCH   4   5
TORSDOF 11
ENDMDL
