MODEL        1
REMARK 921   NORMALIZED FREE ENERGY PREDICTED BY IDOCK:   -6.26 KCAL/MOL
REMARK 922        TOTAL FREE ENERGY PREDICTED BY IDOCK:   -6.77 KCAL/MOL
REMARK 923 INTER-LIGAND FREE ENERGY PREDICTED BY IDOCK:   -6.62 KCAL/MOL
REMARK 924 INTRA-LIGAND FREE ENERGY PREDICTED BY IDOCK:   -0.15 KCAL/MOL
REMARK 927      BINDING AFFINITY PREDICTED BY RF-SCORE:    0.00 PKD
ROOT
HETATM    1  N   UNL     1     -12.474  14.157  63.392  1.00  0.00    -1.116 NA 
HETATM    2  H1  UNL     1     -12.373  14.723  62.549  1.00  0.00     0.000 HD 
HETATM    3  C   UNL     1     -12.033  14.522  64.653  1.00  0.00    -0.468 C  
HETATM    4  H2  UNL     1     -13.467  13.939  63.481  1.00  0.00     0.000 HD 
HETATM    5  C   UNL     1     -12.167  13.776  65.763  1.00  0.00    -0.495 C  
HETATM    6  C   UNL     1     -11.682  14.218  67.063  1.00  0.00    -0.427 C  
HETATM    7  C   UNL     1     -11.057  15.405  67.152  1.00  0.00    -0.291 C  
HETATM    8  O   UNL     1     -11.287  16.655  63.845  1.00  0.00    -1.104 OA 
HETATM    9  N   UNL     1     -10.902  16.203  66.046  1.00  0.00    -0.216 N  
HETATM   10  C   UNL     1     -11.371  15.883  64.796  1.00  0.00    -0.309 C  
HETATM   11  H   UNL     1     -10.408  17.088  66.160  1.00  0.00     0.000 HD 
ENDROOT
BRANCH   6  12
HETATM   12  C   UNL     1     -11.875  13.444  68.298  1.00  0.00    -0.393 A  
HETATM   13  C   UNL     1     -11.767  12.052  68.269  1.00  0.00    -0.396 A  
HETATM   14  N   UNL     1     -12.271  11.941  70.624  1.00  0.00    -0.374 NA 
HETATM   15  C   UNL     1     -11.975  11.353  69.446  1.00  0.00    -0.339 A  
HETATM   16  C   UNL     1     -12.360  13.289  70.627  1.00  0.00    -0.339 A  
HETATM   17  C   UNL     1     -12.171  14.078  69.505  1.00  0.00    -0.355 A  
ENDBRANCH   6  12
TORSDOF 1
ENDMDL
MODEL        2
REMARK 921   NORMALIZED FREE ENERGY PREDICTED BY IDOCK:   -6.05 KCAL/MOL
REMARK 922        TOTAL FREE ENERGY PREDICTED BY IDOCK:   -6.55 KCAL/MOL
REMARK 923 INTER-LIGAND FREE ENERGY PREDICTED BY IDOCK:   -6.39 KCAL/MOL
REMARK 924 INTRA-LIGAND FREE ENERGY PREDICTED BY IDOCK:   -0.16 KCAL/MOL
REMARK 927      BINDING AFFINITY PREDICTED BY RF-SCORE:    0.00 PKD
ROOT
HETATM    1  N   UNL     1     -14.116   8.844  73.094  1.00  0.00    -1.225 NA 
HETATM    2  H1  UNL     1     -14.170   7.837  73.247  1.00  0.00     0.000 HD 
HETATM    3  C   UNL     1     -13.328   9.461  72.136  1.00  0.00    -0.468 C  
HETATM    4  H2  UNL     1     -15.070   9.170  72.943  1.00  0.00     0.000 HD 
HETATM    5  C   UNL     1     -13.256  10.788  71.933  1.00  0.00    -0.524 C  
HETATM    6  C   UNL     1     -12.408  11.375  70.906  1.00  0.00    -0.483 C  
HETATM    7  C   UNL     1     -11.652  10.562  70.148  1.00  0.00    -0.326 C  
HETATM    8  O   UNL     1     -12.579   7.342  71.295  1.00  0.00    -0.355 OA 
HETATM    9  N   UNL     1     -11.697   9.201  70.315  1.00  0.00    -0.466 N  
HETATM   10  C   UNL     1     -12.503   8.565  71.226  1.00  0.00    -0.249 C  
HETATM   11  H   UNL     1     -11.094   8.627  69.726  1.00  0.00     0.000 HD 
ENDROOT
BRANCH   6  12
HETATM   12  C   UNL     1     -12.364  12.818  70.629  1.00  0.00    -0.381 A  
HETATM   13  C   UNL     1     -13.020  13.709  71.482  1.00  0.00    -0.443 A  
HETATM   14  N   UNL     1     -12.328  15.567  70.111  1.00  0.00    -0.381 NA 
HETATM   15  C   UNL     1     -12.976  15.059  71.180  1.00  0.00    -0.390 A  
HETATM   16  C   UNL     1     -11.693  14.686  69.307  1.00  0.00    -0.312 A  
HETATM   17  C   UNL     1     -11.679  13.317  69.522  1.00  0.00    -0.384 A  
ENDBRANCH   6  12
TORSDOF 1
ENDMDL
MODEL        3
REMARK 921   NORMALIZED FREE ENERGY PREDICTED BY IDOCK:   -6.02 KCAL/MOL
REMARK 922        TOTAL FREE ENERGY PREDICTED BY IDOCK:   -6.52 KCAL/MOL
REMARK 923 INTER-LIGAND FREE ENERGY PREDICTED BY IDOCK:   -6.35 KCAL/MOL
REMARK 924 INTRA-LIGAND FREE ENERGY PREDICTED BY IDOCK:   -0.16 KCAL/MOL
REMARK 927      BINDING AFFINITY PREDICTED BY RF-SCORE:    0.00 PKD
ROOT
HETATM    1  N   UNL     1     -14.108   8.881  73.154  1.00  0.00    -1.225 NA 
HETATM    2  H1  UNL     1     -14.145   7.879  73.341  1.00  0.00     0.000 HD 
HETATM    3  C   UNL     1     -13.309   9.483  72.196  1.00  0.00    -0.461 C  
HETATM    4  H2  UNL     1     -15.065   9.180  72.968  1.00  0.00     0.000 HD 
HETATM    5  C   UNL     1     -13.260  10.804  71.950  1.00  0.00    -0.524 C  
HETATM    6  C   UNL     1     -12.399  11.375  70.925  1.00  0.00    -0.483 C  
HETATM    7  C   UNL     1     -11.606  10.555  70.214  1.00  0.00    -0.332 C  
HETATM    8  O   UNL     1     -12.493   7.355  71.447  1.00  0.00    -0.337 OA 
HETATM    9  N   UNL     1     -11.626   9.200  70.426  1.00  0.00    -0.425 N  
HETATM   10  C   UNL     1     -12.442   8.577  71.338  1.00  0.00    -0.297 C  
HETATM   11  H   UNL     1     -10.996   8.620  69.873  1.00  0.00     0.000 HD 
ENDROOT
BRANCH   6  12
HETATM   12  C   UNL     1     -12.380  12.809  70.601  1.00  0.00    -0.381 A  
HETATM   13  C   UNL     1     -11.697  13.255  69.467  1.00  0.00    -0.384 A  
HETATM   14  N   UNL     1     -12.294  15.534  69.975  1.00  0.00    -0.360 NA 
HETATM   15  C   UNL     1     -11.681  14.614  69.202  1.00  0.00    -0.309 A  
HETATM   16  C   UNL     1     -12.956  15.077  71.060  1.00  0.00    -0.404 A  
HETATM   17  C   UNL     1     -13.030  13.739  71.412  1.00  0.00    -0.433 A  
ENDBRANCH   6  12
TORSDOF 1
ENDMDL
MODEL        4
REMARK 921   NORMALIZED FREE ENERGY PREDICTED BY IDOCK:   -5.76 KCAL/MOL
REMARK 922        TOTAL FREE ENERGY PREDICTED BY IDOCK:   -6.24 KCAL/MOL
REMARK 923 INTER-LIGAND FREE ENERGY PREDICTED BY IDOCK:   -6.10 KCAL/MOL
REMARK 924 INTRA-LIGAND FREE ENERGY PREDICTED BY IDOCK:   -0.14 KCAL/MOL
REMARK 927      BINDING AFFINITY PREDICTED BY RF-SCORE:    0.00 PKD
ROOT
HETATM    1  N   UNL     1     -11.928  12.410  66.977  1.00  0.00    -0.565 NA 
HETATM    2  H1  UNL     1     -11.640  12.227  66.016  1.00  0.00     0.000 HD 
HETATM    3  C   UNL     1     -11.772  13.617  67.639  1.00  0.00    -0.363 C  
HETATM    4  H2  UNL     1     -12.917  12.168  67.039  1.00  0.00     0.000 HD 
HETATM    5  C   UNL     1     -12.151  13.858  68.905  1.00  0.00    -0.355 C  
HETATM    6  C   UNL     1     -11.960  15.152  69.543  1.00  0.00    -0.351 C  
HETATM    7  C   UNL     1     -11.362  16.136  68.849  1.00  0.00    -0.350 C  
HETATM    8  O   UNL     1     -10.853  14.647  65.675  1.00  0.00    -0.303 OA 
HETATM    9  N   UNL     1     -10.963  15.938  67.551  1.00  0.00    -0.310 N  
HETATM   10  C   UNL     1     -11.149  14.765  66.861  1.00  0.00    -0.339 C  
HETATM   11  H   UNL     1     -10.501  16.709  67.070  1.00  0.00     0.000 HD 
ENDROOT
BRANCH   6  12
HETATM   12  C   UNL     1     -12.425  15.452  70.906  1.00  0.00    -0.474 A  
HETATM   13  C   UNL     1     -13.751  15.194  71.260  1.00  0.00    -0.555 A  
HETATM   14  N   UNL     1     -13.348  16.044  73.479  1.00  0.00    -0.598 NA 
HETATM   15  C   UNL     1     -14.161  15.508  72.545  1.00  0.00    -0.506 A  
HETATM   16  C   UNL     1     -12.068  16.274  73.116  1.00  0.00    -0.509 A  
HETATM   17  C   UNL     1     -11.561  15.997  71.856  1.00  0.00    -0.524 A  
ENDBRANCH   6  12
TORSDOF 1
ENDMDL
MODEL        5
REMARK 921   NORMALIZED FREE ENERGY PREDICTED BY IDOCK:   -5.75 KCAL/MOL
REMARK 922        TOTAL FREE ENERGY PREDICTED BY IDOCK:   -6.23 KCAL/MOL
REMARK 923 INTER-LIGAND FREE ENERGY PREDICTED BY IDOCK:   -6.10 KCAL/MOL
REMARK 924 INTRA-LIGAND FREE ENERGY PREDICTED BY IDOCK:   -0.13 KCAL/MOL
REMARK 927      BINDING AFFINITY PREDICTED BY RF-SCORE:    0.00 PKD
ROOT
HETATM    1  N   UNL     1     -14.012   8.982  73.142  1.00  0.00    -1.215 NA 
HETATM    2  H1  UNL     1     -14.006   8.198  73.794  1.00  0.00     0.000 HD 
HETATM    3  C   UNL     1     -12.958   9.339  72.318  1.00  0.00    -0.412 C  
HETATM    4  H2  UNL     1     -14.825   8.856  72.539  1.00  0.00     0.000 HD 
HETATM    5  C   UNL     1     -12.965  10.372  71.458  1.00  0.00    -0.562 C  
HETATM    6  C   UNL     1     -11.822  10.694  70.616  1.00  0.00    -0.463 C  
HETATM    7  C   UNL     1     -10.710   9.946  70.718  1.00  0.00    -0.280 C  
HETATM    8  O   UNL     1     -11.654   7.470  73.070  1.00  0.00    -0.259 OA 
HETATM    9  N   UNL     1     -10.658   8.878  71.578  1.00  0.00    -0.301 N  
HETATM   10  C   UNL     1     -11.706   8.478  72.371  1.00  0.00    -0.358 C  
HETATM   11  H   UNL     1      -9.788   8.349  71.632  1.00  0.00     0.000 HD 
ENDROOT
BRANCH   6  12
HETATM   12  C   UNL     1     -11.835  11.781  69.625  1.00  0.00    -0.407 A  
HETATM   13  C   UNL     1     -11.956  13.106  70.050  1.00  0.00    -0.391 A  
HETATM   14  N   UNL     1     -11.898  13.868  67.764  1.00  0.00    -0.364 NA 
HETATM   15  C   UNL     1     -11.986  14.103  69.090  1.00  0.00    -0.349 A  
HETATM   16  C   UNL     1     -11.771  12.579  67.379  1.00  0.00    -0.366 A  
HETATM   17  C   UNL     1     -11.733  11.511  68.260  1.00  0.00    -0.371 A  
ENDBRANCH   6  12
TORSDOF 1
ENDMDL
MODEL        6
REMARK 921   NORMALIZED FREE ENERGY PREDICTED BY IDOCK:   -5.72 KCAL/MOL
REMARK 922        TOTAL FREE ENERGY PREDICTED BY IDOCK:   -6.20 KCAL/MOL
REMARK 923 INTER-LIGAND FREE ENERGY PREDICTED BY IDOCK:   -6.06 KCAL/MOL
REMARK 924 INTRA-LIGAND FREE ENERGY PREDICTED BY IDOCK:   -0.14 KCAL/MOL
REMARK 927      BINDING AFFINITY PREDICTED BY RF-SCORE:    0.00 PKD
ROOT
HETATM    1  N   UNL     1     -11.669  11.758  67.231  1.00  0.00    -0.597 NA 
HETATM    2  H1  UNL     1     -11.388  11.490  66.288  1.00  0.00     0.000 HD 
HETATM    3  C   UNL     1     -11.665  13.052  67.725  1.00  0.00    -0.359 C  
HETATM    4  H2  UNL     1     -12.611  11.394  67.371  1.00  0.00     0.000 HD 
HETATM    5  C   UNL     1     -12.036  13.406  68.968  1.00  0.00    -0.357 C  
HETATM    6  C   UNL     1     -12.010  14.787  69.425  1.00  0.00    -0.339 C  
HETATM    7  C   UNL     1     -11.579  15.742  68.583  1.00  0.00    -0.386 C  
HETATM    8  O   UNL     1     -10.961  13.927  65.604  1.00  0.00    -0.285 OA 
HETATM    9  N   UNL     1     -11.196  15.429  67.303  1.00  0.00    -0.308 N  
HETATM   10  C   UNL     1     -11.235  14.161  66.778  1.00  0.00    -0.323 C  
HETATM   11  H   UNL     1     -10.862  16.185  66.705  1.00  0.00     0.000 HD 
ENDROOT
BRANCH   6  12
HETATM   12  C   UNL     1     -12.471  15.200  70.760  1.00  0.00    -0.429 A  
HETATM   13  C   UNL     1     -11.580  15.813  71.643  1.00  0.00    -0.537 A  
HETATM   14  N   UNL     1     -13.308  15.965  73.317  1.00  0.00    -0.586 NA 
HETATM   15  C   UNL     1     -12.041  16.170  72.899  1.00  0.00    -0.541 A  
HETATM   16  C   UNL     1     -14.153  15.380  72.440  1.00  0.00    -0.549 A  
HETATM   17  C   UNL     1     -13.789  14.985  71.163  1.00  0.00    -0.468 A  
ENDBRANCH   6  12
TORSDOF 1
ENDMDL
MODEL        7
REMARK 921   NORMALIZED FREE ENERGY PREDICTED BY IDOCK:   -5.71 KCAL/MOL
REMARK 922        TOTAL FREE ENERGY PREDICTED BY IDOCK:   -6.20 KCAL/MOL
REMARK 923 INTER-LIGAND FREE ENERGY PREDICTED BY IDOCK:   -6.04 KCAL/MOL
REMARK 924 INTRA-LIGAND FREE ENERGY PREDICTED BY IDOCK:   -0.15 KCAL/MOL
REMARK 927      BINDING AFFINITY PREDICTED BY RF-SCORE:    0.00 PKD
ROOT
HETATM    1  N   UNL     1     -11.770  10.629  68.274  1.00  0.00    -0.731 NA 
HETATM    2  H1  UNL     1     -11.707  10.180  67.360  1.00  0.00     0.000 HD 
HETATM    3  C   UNL     1     -11.881  11.993  68.485  1.00  0.00    -0.311 C  
HETATM    4  H2  UNL     1     -12.552  10.192  68.763  1.00  0.00     0.000 HD 
HETATM    5  C   UNL     1     -11.964  12.584  69.689  1.00  0.00    -0.339 C  
HETATM    6  C   UNL     1     -12.082  14.027  69.843  1.00  0.00    -0.406 C  
HETATM    7  C   UNL     1     -12.085  14.798  68.743  1.00  0.00    -0.190 C  
HETATM    8  O   UNL     1     -11.957  12.416  66.124  1.00  0.00    -0.549 OA 
HETATM    9  N   UNL     1     -12.008  14.239  67.492  1.00  0.00    -0.500 N  
HETATM   10  C   UNL     1     -11.943  12.887  67.258  1.00  0.00    -0.309 C  
HETATM   11  H   UNL     1     -11.999  14.865  66.687  1.00  0.00     0.000 HD 
ENDROOT
BRANCH   6  12
HETATM   12  C   UNL     1     -12.236  14.685  71.149  1.00  0.00    -0.405 A  
HETATM   13  C   UNL     1     -11.695  15.956  71.355  1.00  0.00    -0.530 A  
HETATM   14  N   UNL     1     -12.482  15.949  73.632  1.00  0.00    -0.535 NA 
HETATM   15  C   UNL     1     -11.840  16.538  72.602  1.00  0.00    -0.354 A  
HETATM   16  C   UNL     1     -13.007  14.725  73.406  1.00  0.00    -0.429 A  
HETATM   17  C   UNL     1     -12.914  14.058  72.195  1.00  0.00    -0.458 A  
ENDBRANCH   6  12
TORSDOF 1
ENDMDL
MODEL        8
REMARK 921   NORMALIZED FREE ENERGY PREDICTED BY IDOCK:   -5.70 KCAL/MOL
REMARK 922        TOTAL FREE ENERGY PREDICTED BY IDOCK:   -6.18 KCAL/MOL
REMARK 923 INTER-LIGAND FREE ENERGY PREDICTED BY IDOCK:   -6.05 KCAL/MOL
REMARK 924 INTRA-LIGAND FREE ENERGY PREDICTED BY IDOCK:   -0.13 KCAL/MOL
REMARK 927      BINDING AFFINITY PREDICTED BY RF-SCORE:    0.00 PKD
ROOT
HETATM    1  N   UNL     1     -12.304  13.970  63.222  1.00  0.00    -1.145 NA 
HETATM    2  H1  UNL     1     -12.826  13.103  63.095  1.00  0.00     0.000 HD 
HETATM    3  C   UNL     1     -11.826  14.440  64.434  1.00  0.00    -0.415 C  
HETATM    4  H2  UNL     1     -11.505  13.926  62.589  1.00  0.00     0.000 HD 
HETATM    5  C   UNL     1     -11.138  15.582  64.602  1.00  0.00    -0.373 C  
HETATM    6  C   UNL     1     -10.661  16.021  65.905  1.00  0.00    -0.338 C  
HETATM    7  C   UNL     1     -10.938  15.269  66.984  1.00  0.00    -0.324 C  
HETATM    8  O   UNL     1     -12.625  12.489  65.580  1.00  0.00    -0.642 OA 
HETATM    9  N   UNL     1     -11.633  14.093  66.861  1.00  0.00    -0.371 N  
HETATM   10  C   UNL     1     -12.077  13.584  65.665  1.00  0.00    -0.430 C  
HETATM   11  H   UNL     1     -11.833  13.563  67.709  1.00  0.00     0.000 HD 
ENDROOT
BRANCH   6  12
HETATM   12  C   UNL     1      -9.853  17.235  66.098  1.00  0.00    -0.269 A  
HETATM   13  C   UNL     1     -10.475  18.484  66.135  1.00  0.00    -0.447 A  
HETATM   14  N   UNL     1      -8.341  19.565  66.428  1.00  0.00    -0.333 NA 
HETATM   15  C   UNL     1      -9.684  19.608  66.297  1.00  0.00    -0.423 A  
HETATM   16  C   UNL     1      -7.764  18.344  66.399  1.00  0.00    -0.262 A  
HETATM   17  C   UNL     1      -8.467  17.161  66.240  1.00  0.00    -0.279 A  
ENDBRANCH   6  12
TORSDOF 1
ENDMDL
MODEL        9
REMARK 921   NORMALIZED FREE ENERGY PREDICTED BY IDOCK:   -5.65 KCAL/MOL
REMARK 922        TOTAL FREE ENERGY PREDICTED BY IDOCK:   -6.13 KCAL/MOL
REMARK 923 INTER-LIGAND FREE ENERGY PREDICTED BY IDOCK:   -5.98 KCAL/MOL
REMARK 924 INTRA-LIGAND FREE ENERGY PREDICTED BY IDOCK:   -0.15 KCAL/MOL
REMARK 927      BINDING AFFINITY PREDICTED BY RF-SCORE:    0.00 PKD
ROOT
HETATM    1  N   UNL     1     -13.193  14.245  73.295  1.00  0.00    -0.539 NA 
HETATM    2  H1  UNL     1     -13.231  14.827  74.131  1.00  0.00     0.000 HD 
HETATM    3  C   UNL     1     -12.640  14.627  72.084  1.00  0.00    -0.327 C  
HETATM    4  H2  UNL     1     -12.736  13.374  73.564  1.00  0.00     0.000 HD 
HETATM    5  C   UNL     1     -12.590  13.860  70.981  1.00  0.00    -0.444 C  
HETATM    6  C   UNL     1     -11.992  14.321  69.737  1.00  0.00    -0.394 C  
HETATM    7  C   UNL     1     -11.493  15.567  69.681  1.00  0.00    -0.329 C  
HETATM    8  O   UNL     1     -11.950  16.738  72.992  1.00  0.00    -0.441 OA 
HETATM    9  N   UNL     1     -11.516  16.384  70.782  1.00  0.00    -0.548 N  
HETATM   10  C   UNL     1     -12.017  16.011  72.005  1.00  0.00    -0.537 C  
HETATM   11  H   UNL     1     -11.138  17.327  70.688  1.00  0.00     0.000 HD 
ENDROOT
BRANCH   6  12
HETATM   12  C   UNL     1     -11.873  13.474  68.541  1.00  0.00    -0.398 A  
HETATM   13  C   UNL     1     -12.032  14.036  67.273  1.00  0.00    -0.448 A  
HETATM   14  N   UNL     1     -11.687  11.882  66.248  1.00  0.00    -0.520 NA 
HETATM   15  C   UNL     1     -11.934  13.207  66.169  1.00  0.00    -0.422 A  
HETATM   16  C   UNL     1     -11.527  11.364  67.485  1.00  0.00    -0.260 A  
HETATM   17  C   UNL     1     -11.608  12.109  68.650  1.00  0.00    -0.372 A  
ENDBRANCH   6  12
TORSDOF 1
ENDMDL
MODEL       10
REMARK 921   NORMALIZED FREE ENERGY PREDICTED BY IDOCK:   -5.62 KCAL/MOL
REMARK 922        TOTAL FREE ENERGY PREDICTED BY IDOCK:   -6.10 KCAL/MOL
REMARK 923 INTER-LIGAND FREE ENERGY PREDICTED BY IDOCK:   -5.96 KCAL/MOL
REMARK 924 INTRA-LIGAND FREE ENERGY PREDICTED BY IDOCK:   -0.14 KCAL/MOL
REMARK 927      BINDING AFFINITY PREDICTED BY RF-SCORE:    0.00 PKD
ROOT
HETATM    1  N   UNL     1     -11.851  11.951  66.710  1.00  0.00    -0.607 NA 
HETATM    2  H1  UNL     1     -12.435  11.159  66.445  1.00  0.00     0.000 HD 
HETATM    3  C   UNL     1     -11.704  13.114  65.972  1.00  0.00    -0.379 C  
HETATM    4  H2  UNL     1     -12.146  12.233  67.645  1.00  0.00     0.000 HD 
HETATM    5  C   UNL     1     -10.934  14.159  66.321  1.00  0.00    -0.303 C  
HETATM    6  C   UNL     1     -10.825  15.356  65.500  1.00  0.00    -0.384 C  
HETATM    7  C   UNL     1     -11.499  15.409  64.339  1.00  0.00    -0.255 C  
HETATM    8  O   UNL     1     -13.285  12.350  64.336  1.00  0.00    -0.816 OA 
HETATM    9  N   UNL     1     -12.301  14.369  63.943  1.00  0.00    -1.023 N  
HETATM   10  C   UNL     1     -12.498  13.227  64.680  1.00  0.00    -0.349 C  
HETATM   11  H   UNL     1     -12.782  14.449  63.047  1.00  0.00     0.000 HD 
ENDROOT
BRANCH   6  12
HETATM   12  C   UNL     1     -10.037  16.532  65.897  1.00  0.00    -0.359 A  
HETATM   13  C   UNL     1     -10.640  17.792  65.933  1.00  0.00    -0.205 A  
HETATM   14  N   UNL     1      -8.557  18.795  66.614  1.00  0.00    -0.293 NA 
HETATM   15  C   UNL     1      -9.865  18.881  66.291  1.00  0.00    -0.365 A  
HETATM   16  C   UNL     1      -8.000  17.565  66.582  1.00  0.00    -0.253 A  
HETATM   17  C   UNL     1      -8.689  16.414  66.236  1.00  0.00    -0.369 A  
ENDBRANCH   6  12
TORSDOF 1
ENDMDL
MODEL       11
REMARK 921   NORMALIZED FREE ENERGY PREDICTED BY IDOCK:   -5.62 KCAL/MOL
REMARK 922        TOTAL FREE ENERGY PREDICTED BY IDOCK:   -6.09 KCAL/MOL
REMARK 923 INTER-LIGAND FREE ENERGY PREDICTED BY IDOCK:   -5.95 KCAL/MOL
REMARK 924 INTRA-LIGAND FREE ENERGY PREDICTED BY IDOCK:   -0.15 KCAL/MOL
REMARK 927      BINDING AFFINITY PREDICTED BY RF-SCORE:    0.00 PKD
ROOT
HETATM    1  N   UNL     1     -12.413  14.269  63.419  1.00  0.00    -1.101 NA 
HETATM    2  H1  UNL     1     -12.449  13.380  62.921  1.00  0.00     0.000 HD 
HETATM    3  C   UNL     1     -11.450  14.622  64.349  1.00  0.00    -0.263 C  
HETATM    4  H2  UNL     1     -12.417  15.003  62.709  1.00  0.00     0.000 HD 
HETATM    5  C   UNL     1     -11.402  15.794  65.005  1.00  0.00    -0.222 C  
HETATM    6  C   UNL     1     -10.359  16.105  65.972  1.00  0.00    -0.372 C  
HETATM    7  C   UNL     1      -9.423  15.177  66.237  1.00  0.00    -0.309 C  
HETATM    8  O   UNL     1     -10.275  12.557  64.010  1.00  0.00    -0.385 OA 
HETATM    9  N   UNL     1      -9.428  13.968  65.588  1.00  0.00    -0.524 N  
HETATM   10  C   UNL     1     -10.346  13.615  64.630  1.00  0.00    -0.384 C  
HETATM   11  H   UNL     1      -8.707  13.290  65.833  1.00  0.00     0.000 HD 
ENDROOT
BRANCH   6  12
HETATM   12  C   UNL     1     -10.256  17.405  66.652  1.00  0.00    -0.324 A  
HETATM   13  C   UNL     1      -9.938  17.455  68.011  1.00  0.00    -0.302 A  
HETATM   14  N   UNL     1     -10.085  19.860  67.981  1.00  0.00    -0.426 NA 
HETATM   15  C   UNL     1      -9.869  18.694  68.624  1.00  0.00    -0.385 A  
HETATM   16  C   UNL     1     -10.380  19.786  66.665  1.00  0.00    -0.496 A  
HETATM   17  C   UNL     1     -10.475  18.597  65.961  1.00  0.00    -0.456 A  
ENDBRANCH   6  12
TORSDOF 1
ENDMDL
MODEL       12
REMARK 921   NORMALIZED FREE ENERGY PREDICTED BY IDOCK:   -5.61 KCAL/MOL
REMARK 922        TOTAL FREE ENERGY PREDICTED BY IDOCK:   -6.09 KCAL/MOL
REMARK 923 INTER-LIGAND FREE ENERGY PREDICTED BY IDOCK:   -5.96 KCAL/MOL
REMARK 924 INTRA-LIGAND FREE ENERGY PREDICTED BY IDOCK:   -0.13 KCAL/MOL
REMARK 927      BINDING AFFINITY PREDICTED BY RF-SCORE:    0.00 PKD
ROOT
HETATM    1  N   UNL     1      -9.862  16.512  65.664  1.00  0.00    -0.550 NA 
HETATM    2  H1  UNL     1     -10.037  17.437  65.271  1.00  0.00     0.000 HD 
HETATM    3  C   UNL     1     -10.560  15.363  65.334  1.00  0.00    -0.410 C  
HETATM    4  H2  UNL     1      -8.874  16.310  65.509  1.00  0.00     0.000 HD 
HETATM    5  C   UNL     1     -10.330  14.144  65.850  1.00  0.00    -0.326 C  
HETATM    6  C   UNL     1     -11.099  12.972  65.459  1.00  0.00    -0.300 C  
HETATM    7  C   UNL     1     -12.093  13.118  64.565  1.00  0.00    -0.404 C  
HETATM    8  O   UNL     1     -11.867  16.547  63.707  1.00  0.00    -1.011 OA 
HETATM    9  N   UNL     1     -12.361  14.342  64.006  1.00  0.00    -0.931 N  
HETATM   10  C   UNL     1     -11.653  15.485  64.284  1.00  0.00    -0.194 C  
HETATM   11  H   UNL     1     -13.134  14.407  63.344  1.00  0.00     0.000 HD 
ENDROOT
BRANCH   6  12
HETATM   12  C   UNL     1     -10.820  11.621  65.967  1.00  0.00    -0.339 A  
HETATM   13  C   UNL     1     -11.273  11.248  67.234  1.00  0.00    -0.364 A  
HETATM   14  N   UNL     1     -10.275   9.069  66.976  1.00  0.00    -0.249 NA 
HETATM   15  C   UNL     1     -10.975   9.975  67.691  1.00  0.00    -0.234 A  
HETATM   16  C   UNL     1      -9.857   9.450  65.749  1.00  0.00    -0.275 A  
HETATM   17  C   UNL     1     -10.102  10.700  65.204  1.00  0.00    -0.374 A  
ENDBRANCH   6  12
TORSDOF 1
ENDMDL
MODEL       13
REMARK 921   NORMALIZED FREE ENERGY PREDICTED BY IDOCK:   -5.60 KCAL/MOL
REMARK 922        TOTAL FREE ENERGY PREDICTED BY IDOCK:   -6.07 KCAL/MOL
REMARK 923 INTER-LIGAND FREE ENERGY PREDICTED BY IDOCK:   -5.94 KCAL/MOL
REMARK 924 INTRA-LIGAND FREE ENERGY PREDICTED BY IDOCK:   -0.14 KCAL/MOL
REMARK 927      BINDING AFFINITY PREDICTED BY RF-SCORE:    0.00 PKD
ROOT
HETATM    1  N   UNL     1     -11.905  12.049  66.903  1.00  0.00    -0.616 NA 
HETATM    2  H1  UNL     1     -12.496  11.254  66.662  1.00  0.00     0.000 HD 
HETATM    3  C   UNL     1     -11.742  13.183  66.125  1.00  0.00    -0.381 C  
HETATM    4  H2  UNL     1     -12.200  12.366  67.826  1.00  0.00     0.000 HD 
HETATM    5  C   UNL     1     -10.963  14.232  66.441  1.00  0.00    -0.311 C  
HETATM    6  C   UNL     1     -10.837  15.398  65.580  1.00  0.00    -0.384 C  
HETATM    7  C   UNL     1     -11.506  15.418  64.414  1.00  0.00    -0.255 C  
HETATM    8  O   UNL     1     -13.325  12.380  64.510  1.00  0.00    -0.800 OA 
HETATM    9  N   UNL     1     -12.318  14.374  64.052  1.00  0.00    -0.931 N  
HETATM   10  C   UNL     1     -12.529  13.260  64.827  1.00  0.00    -0.383 C  
HETATM   11  H   UNL     1     -12.794  14.427  63.151  1.00  0.00     0.000 HD 
ENDROOT
BRANCH   6  12
HETATM   12  C   UNL     1     -10.038  16.579  65.939  1.00  0.00    -0.359 A  
HETATM   13  C   UNL     1      -8.674  16.442  66.202  1.00  0.00    -0.347 A  
HETATM   14  N   UNL     1      -8.499  18.802  66.659  1.00  0.00    -0.285 NA 
HETATM   15  C   UNL     1      -7.956  17.571  66.557  1.00  0.00    -0.274 A  
HETATM   16  C   UNL     1      -9.819  18.911  66.390  1.00  0.00    -0.375 A  
HETATM   17  C   UNL     1     -10.623  17.843  66.028  1.00  0.00    -0.235 A  
ENDBRANCH   6  12
TORSDOF 1
ENDMDL
MODEL       14
REMARK 921   NORMALIZED FREE ENERGY PREDICTED BY IDOCK:   -5.59 KCAL/MOL
REMARK 922        TOTAL FREE ENERGY PREDICTED BY IDOCK:   -6.07 KCAL/MOL
REMARK 923 INTER-LIGAND FREE ENERGY PREDICTED BY IDOCK:   -5.94 KCAL/MOL
REMARK 924 INTRA-LIGAND FREE ENERGY PREDICTED BY IDOCK:   -0.13 KCAL/MOL
REMARK 927      BINDING AFFINITY PREDICTED BY RF-SCORE:    0.00 PKD
ROOT
HETATM    1  N   UNL     1      -9.585  16.720  65.732  1.00  0.00    -0.537 NA 
HETATM    2  H1  UNL     1      -9.589  17.488  65.061  1.00  0.00     0.000 HD 
HETATM    3  C   UNL     1     -10.478  15.662  65.735  1.00  0.00    -0.366 C  
HETATM    4  H2  UNL     1      -8.649  16.314  65.707  1.00  0.00     0.000 HD 
HETATM    5  C   UNL     1     -10.473  14.649  66.619  1.00  0.00    -0.278 C  
HETATM    6  C   UNL     1     -11.441  13.563  66.566  1.00  0.00    -0.365 C  
HETATM    7  C   UNL     1     -12.389  13.585  65.614  1.00  0.00    -0.476 C  
HETATM    8  O   UNL     1     -11.545  16.474  63.745  1.00  0.00    -1.109 OA 
HETATM    9  N   UNL     1     -12.430  14.596  64.687  1.00  0.00    -0.559 N  
HETATM   10  C   UNL     1     -11.528  15.630  64.636  1.00  0.00    -0.303 C  
HETATM   11  H   UNL     1     -13.177  14.578  63.992  1.00  0.00     0.000 HD 
ENDROOT
BRANCH   6  12
HETATM   12  C   UNL     1     -11.412  12.416  67.486  1.00  0.00    -0.410 A  
HETATM   13  C   UNL     1     -11.820  12.578  68.812  1.00  0.00    -0.347 A  
HETATM   14  N   UNL     1     -11.335  10.262  69.269  1.00  0.00    -0.219 NA 
HETATM   15  C   UNL     1     -11.761  11.483  69.656  1.00  0.00    -0.351 A  
HETATM   16  C   UNL     1     -10.955  10.128  67.979  1.00  0.00    -0.270 A  
HETATM   17  C   UNL     1     -10.976  11.162  67.058  1.00  0.00    -0.348 A  
ENDBRANCH   6  12
TORSDOF 1
ENDMDL
MODEL       15
REMARK 921   NORMALIZED FREE ENERGY PREDICTED BY IDOCK:   -5.54 KCAL/MOL
REMARK 922        TOTAL FREE ENERGY PREDICTED BY IDOCK:   -6.01 KCAL/MOL
REMARK 923 INTER-LIGAND FREE ENERGY PREDICTED BY IDOCK:   -5.86 KCAL/MOL
REMARK 924 INTRA-LIGAND FREE ENERGY PREDICTED BY IDOCK:   -0.15 KCAL/MOL
REMARK 927      BINDING AFFINITY PREDICTED BY RF-SCORE:    0.00 PKD
ROOT
HETATM    1  N   UNL     1     -12.267  13.647  63.315  1.00  0.00    -1.063 NA 
HETATM    2  H1  UNL     1     -12.017  13.531  62.333  1.00  0.00     0.000 HD 
HETATM    3  C   UNL     1     -11.739  12.910  64.362  1.00  0.00    -0.372 C  
HETATM    4  H2  UNL     1     -12.116  14.630  63.542  1.00  0.00     0.000 HD 
HETATM    5  C   UNL     1     -12.069  13.062  65.656  1.00  0.00    -0.507 C  
HETATM    6  C   UNL     1     -11.474  12.256  66.712  1.00  0.00    -0.421 C  
HETATM    7  C   UNL     1     -10.581  11.309  66.380  1.00  0.00    -0.266 C  
HETATM    8  O   UNL     1     -10.272  11.728  62.876  1.00  0.00    -0.291 OA 
HETATM    9  N   UNL     1     -10.209  11.121  65.072  1.00  0.00    -0.278 N  
HETATM   10  C   UNL     1     -10.685  11.869  64.023  1.00  0.00    -0.375 C  
HETATM   11  H   UNL     1      -9.539  10.380  64.867  1.00  0.00     0.000 HD 
ENDROOT
BRANCH   6  12
HETATM   12  C   UNL     1     -11.777  12.451  68.138  1.00  0.00    -0.408 A  
HETATM   13  C   UNL     1     -11.951  13.742  68.641  1.00  0.00    -0.401 A  
HETATM   14  N   UNL     1     -12.318  12.857  70.852  1.00  0.00    -0.350 NA 
HETATM   15  C   UNL     1     -12.213  13.892  69.992  1.00  0.00    -0.344 A  
HETATM   16  C   UNL     1     -12.156  11.618  70.340  1.00  0.00    -0.373 A  
HETATM   17  C   UNL     1     -11.889  11.364  69.004  1.00  0.00    -0.415 A  
ENDBRANCH   6  12
TORSDOF 1
ENDMDL
MODEL       16
REMARK 921   NORMALIZED FREE ENERGY PREDICTED BY IDOCK:   -5.52 KCAL/MOL
REMARK 922        TOTAL FREE ENERGY PREDICTED BY IDOCK:   -5.99 KCAL/MOL
REMARK 923 INTER-LIGAND FREE ENERGY PREDICTED BY IDOCK:   -5.85 KCAL/MOL
REMARK 924 INTRA-LIGAND FREE ENERGY PREDICTED BY IDOCK:   -0.14 KCAL/MOL
REMARK 927      BINDING AFFINITY PREDICTED BY RF-SCORE:    0.00 PKD
ROOT
HETATM    1  N   UNL     1     -12.536  13.671  63.020  1.00  0.00    -0.973 NA 
HETATM    2  H1  UNL     1     -12.573  14.410  62.318  1.00  0.00     0.000 HD 
HETATM    3  C   UNL     1     -11.978  13.798  64.281  1.00  0.00    -0.443 C  
HETATM    4  H2  UNL     1     -13.493  13.345  63.154  1.00  0.00     0.000 HD 
HETATM    5  C   UNL     1     -11.929  12.824  65.206  1.00  0.00    -0.473 C  
HETATM    6  C   UNL     1     -11.330  13.022  66.517  1.00  0.00    -0.359 C  
HETATM    7  C   UNL     1     -10.784  14.216  66.806  1.00  0.00    -0.286 C  
HETATM    8  O   UNL     1     -11.484  16.115  63.899  1.00  0.00    -0.774 OA 
HETATM    9  N   UNL     1     -10.815  15.242  65.896  1.00  0.00    -0.335 N  
HETATM   10  C   UNL     1     -11.402  15.153  64.658  1.00  0.00    -0.356 C  
HETATM   11  H   UNL     1     -10.375  16.125  66.155  1.00  0.00     0.000 HD 
ENDROOT
BRANCH   6  12
HETATM   12  C   UNL     1     -11.323  11.988  67.562  1.00  0.00    -0.387 A  
HETATM   13  C   UNL     1     -10.745  10.743  67.304  1.00  0.00    -0.325 A  
HETATM   14  N   UNL     1     -11.326   9.988  69.518  1.00  0.00    -0.206 NA 
HETATM   15  C   UNL     1     -10.774   9.785  68.303  1.00  0.00    -0.233 A  
HETATM   16  C   UNL     1     -11.869  11.203  69.747  1.00  0.00    -0.349 A  
HETATM   17  C   UNL     1     -11.892  12.226  68.814  1.00  0.00    -0.356 A  
ENDBRANCH   6  12
TORSDOF 1
ENDMDL
MODEL       17
REMARK 921   NORMALIZED FREE ENERGY PREDICTED BY IDOCK:   -5.52 KCAL/MOL
REMARK 922        TOTAL FREE ENERGY PREDICTED BY IDOCK:   -5.99 KCAL/MOL
REMARK 923 INTER-LIGAND FREE ENERGY PREDICTED BY IDOCK:   -5.86 KCAL/MOL
REMARK 924 INTRA-LIGAND FREE ENERGY PREDICTED BY IDOCK:   -0.14 KCAL/MOL
REMARK 927      BINDING AFFINITY PREDICTED BY RF-SCORE:    0.00 PKD
ROOT
HETATM    1  N   UNL     1      -9.770  12.343  63.384  1.00  0.00    -0.627 NA 
HETATM    2  H1  UNL     1     -10.013  11.651  62.676  1.00  0.00     0.000 HD 
HETATM    3  C   UNL     1     -10.676  12.984  64.213  1.00  0.00    -0.407 C  
HETATM    4  H2  UNL     1      -9.073  11.910  63.990  1.00  0.00     0.000 HD 
HETATM    5  C   UNL     1     -10.356  13.897  65.147  1.00  0.00    -0.403 C  
HETATM    6  C   UNL     1     -11.357  14.534  65.989  1.00  0.00    -0.341 C  
HETATM    7  C   UNL     1     -12.651  14.217  65.812  1.00  0.00    -0.447 C  
HETATM    8  O   UNL     1     -12.502  11.721  63.303  1.00  0.00    -0.543 OA 
HETATM    9  N   UNL     1     -13.024  13.287  64.875  1.00  0.00    -0.740 N  
HETATM   10  C   UNL     1     -12.141  12.605  64.075  1.00  0.00    -0.462 C  
HETATM   11  H   UNL     1     -14.019  13.090  64.767  1.00  0.00     0.000 HD 
ENDROOT
BRANCH   6  12
HETATM   12  C   UNL     1     -11.019  15.487  67.057  1.00  0.00    -0.283 A  
HETATM   13  C   UNL     1     -11.317  15.177  68.386  1.00  0.00    -0.326 A  
HETATM   14  N   UNL     1     -10.420  17.294  69.107  1.00  0.00    -0.318 NA 
HETATM   15  C   UNL     1     -11.004  16.105  69.364  1.00  0.00    -0.333 A  
HETATM   16  C   UNL     1     -10.132  17.567  67.816  1.00  0.00    -0.330 A  
HETATM   17  C   UNL     1     -10.406  16.706  66.765  1.00  0.00    -0.295 A  
ENDBRANCH   6  12
TORSDOF 1
ENDMDL
MODEL       18
REMARK 921   NORMALIZED FREE ENERGY PREDICTED BY IDOCK:   -5.51 KCAL/MOL
REMARK 922        TOTAL FREE ENERGY PREDICTED BY IDOCK:   -5.98 KCAL/MOL
REMARK 923 INTER-LIGAND FREE ENERGY PREDICTED BY IDOCK:   -5.84 KCAL/MOL
REMARK 924 INTRA-LIGAND FREE ENERGY PREDICTED BY IDOCK:   -0.15 KCAL/MOL
REMARK 927      BINDING AFFINITY PREDICTED BY RF-SCORE:    0.00 PKD
ROOT
HETATM    1  N   UNL     1     -12.491  14.579  63.530  1.00  0.00    -1.063 NA 
HETATM    2  H1  UNL     1     -12.528  14.117  62.621  1.00  0.00     0.000 HD 
HETATM    3  C   UNL     1     -12.188  13.954  64.728  1.00  0.00    -0.415 C  
HETATM    4  H2  UNL     1     -11.842  15.361  63.435  1.00  0.00     0.000 HD 
HETATM    5  C   UNL     1     -12.139  14.563  65.925  1.00  0.00    -0.288 C  
HETATM    6  C   UNL     1     -11.812  13.848  67.150  1.00  0.00    -0.445 C  
HETATM    7  C   UNL     1     -11.573  12.527  67.086  1.00  0.00    -0.368 C  
HETATM    8  O   UNL     1     -11.802  11.864  63.614  1.00  0.00    -0.457 OA 
HETATM    9  N   UNL     1     -11.607  11.864  65.885  1.00  0.00    -0.299 N  
HETATM   10  C   UNL     1     -11.859  12.471  64.680  1.00  0.00    -0.378 C  
HETATM   11  H   UNL     1     -11.433  10.859  65.888  1.00  0.00     0.000 HD 
ENDROOT
BRANCH   6  12
HETATM   12  C   UNL     1     -11.692  14.509  68.458  1.00  0.00    -0.353 A  
HETATM   13  C   UNL     1     -12.214  13.894  69.598  1.00  0.00    -0.374 A  
HETATM   14  N   UNL     1     -11.511  15.758  70.955  1.00  0.00    -0.376 NA 
HETATM   15  C   UNL     1     -12.103  14.553  70.810  1.00  0.00    -0.329 A  
HETATM   16  C   UNL     1     -11.004  16.327  69.840  1.00  0.00    -0.365 A  
HETATM   17  C   UNL     1     -11.067  15.750  68.582  1.00  0.00    -0.327 A  
ENDBRANCH   6  12
TORSDOF 1
ENDMDL
MODEL       19
REMARK 921   NORMALIZED FREE ENERGY PREDICTED BY IDOCK:   -5.50 KCAL/MOL
REMARK 922        TOTAL FREE ENERGY PREDICTED BY IDOCK:   -5.97 KCAL/MOL
REMARK 923 INTER-LIGAND FREE ENERGY PREDICTED BY IDOCK:   -5.83 KCAL/MOL
REMARK 924 INTRA-LIGAND FREE ENERGY PREDICTED BY IDOCK:   -0.14 KCAL/MOL
REMARK 927      BINDING AFFINITY PREDICTED BY RF-SCORE:    0.00 PKD
ROOT
HETATM    1  N   UNL     1     -13.864  14.312  72.713  1.00  0.00    -0.626 NA 
HETATM    2  H1  UNL     1     -13.829  15.324  72.591  1.00  0.00     0.000 HD 
HETATM    3  C   UNL     1     -13.214  13.391  71.909  1.00  0.00    -0.431 C  
HETATM    4  H2  UNL     1     -13.574  14.121  73.672  1.00  0.00     0.000 HD 
HETATM    5  C   UNL     1     -13.261  12.057  72.069  1.00  0.00    -0.481 C  
HETATM    6  C   UNL     1     -12.550  11.140  71.190  1.00  0.00    -0.513 C  
HETATM    7  C   UNL     1     -11.840  11.644  70.166  1.00  0.00    -0.344 C  
HETATM    8  O   UNL     1     -12.198  15.139  70.617  1.00  0.00    -0.300 OA 
HETATM    9  N   UNL     1     -11.759  12.999  69.966  1.00  0.00    -0.509 N  
HETATM   10  C   UNL     1     -12.357  13.932  70.776  1.00  0.00    -0.378 C  
HETATM   11  H   UNL     1     -11.220  13.334  69.167  1.00  0.00     0.000 HD 
ENDROOT
BRANCH   6  12
HETATM   12  C   UNL     1     -12.540   9.683  71.387  1.00  0.00    -0.463 A  
HETATM   13  C   UNL     1     -11.324   9.001  71.462  1.00  0.00    -0.416 A  
HETATM   14  N   UNL     1     -12.487   6.907  71.728  1.00  0.00    -0.358 NA 
HETATM   15  C   UNL     1     -11.350   7.627  71.628  1.00  0.00    -0.251 A  
HETATM   16  C   UNL     1     -13.651   7.591  71.663  1.00  0.00    -0.368 A  
HETATM   17  C   UNL     1     -13.730   8.964  71.498  1.00  0.00    -0.394 A  
ENDBRANCH   6  12
TORSDOF 1
ENDMDL
MODEL       20
REMARK 921   NORMALIZED FREE ENERGY PREDICTED BY IDOCK:   -5.48 KCAL/MOL
REMARK 922        TOTAL FREE ENERGY PREDICTED BY IDOCK:   -5.95 KCAL/MOL
REMARK 923 INTER-LIGAND FREE ENERGY PREDICTED BY IDOCK:   -5.79 KCAL/MOL
REMARK 924 INTRA-LIGAND FREE ENERGY PREDICTED BY IDOCK:   -0.16 KCAL/MOL
REMARK 927      BINDING AFFINITY PREDICTED BY RF-SCORE:    0.00 PKD
ROOT
HETATM    1  N   UNL     1     -14.007  13.303  72.582  1.00  0.00    -0.734 NA 
HETATM    2  H1  UNL     1     -14.241  13.336  73.574  1.00  0.00     0.000 HD 
HETATM    3  C   UNL     1     -13.205  14.219  71.922  1.00  0.00    -0.375 C  
HETATM    4  H2  UNL     1     -13.605  12.382  72.406  1.00  0.00     0.000 HD 
HETATM    5  C   UNL     1     -12.897  14.175  70.614  1.00  0.00    -0.356 C  
HETATM    6  C   UNL     1     -12.045  15.170  69.980  1.00  0.00    -0.384 C  
HETATM    7  C   UNL     1     -11.568  16.183  70.723  1.00  0.00    -0.351 C  
HETATM    8  O   UNL     1     -12.773  15.407  73.962  1.00  0.00    -0.555 OA 
HETATM    9  N   UNL     1     -11.851  16.267  72.063  1.00  0.00    -0.593 N  
HETATM   10  C   UNL     1     -12.605  15.346  72.747  1.00  0.00    -0.400 C  
HETATM   11  H   UNL     1     -11.479  17.062  72.582  1.00  0.00     0.000 HD 
ENDROOT
BRANCH   6  12
HETATM   12  C   UNL     1     -11.646  15.102  68.566  1.00  0.00    -0.354 A  
HETATM   13  C   UNL     1     -10.820  16.092  68.029  1.00  0.00    -0.335 A  
HETATM   14  N   UNL     1     -10.900  15.021  65.871  1.00  0.00    -0.328 NA 
HETATM   15  C   UNL     1     -10.481  16.009  66.689  1.00  0.00    -0.304 A  
HETATM   16  C   UNL     1     -11.689  14.070  66.417  1.00  0.00    -0.391 A  
HETATM   17  C   UNL     1     -12.085  14.064  67.744  1.00  0.00    -0.325 A  
ENDBRANCH   6  12
TORSDOF 1
ENDMDL
MODEL       21
REMARK 921   NORMALIZED FREE ENERGY PREDICTED BY IDOCK:   -5.47 KCAL/MOL
REMARK 922        TOTAL FREE ENERGY PREDICTED BY IDOCK:   -5.94 KCAL/MOL
REMARK 923 INTER-LIGAND FREE ENERGY PREDICTED BY IDOCK:   -5.81 KCAL/MOL
REMARK 924 INTRA-LIGAND FREE ENERGY PREDICTED BY IDOCK:   -0.13 KCAL/MOL
REMARK 927      BINDING AFFINITY PREDICTED BY RF-SCORE:    0.00 PKD
ROOT
HETATM    1  N   UNL     1      -9.758  16.683  65.516  1.00  0.00    -0.520 NA 
HETATM    2  H1  UNL     1      -9.800  17.450  64.846  1.00  0.00     0.000 HD 
HETATM    3  C   UNL     1     -10.631  15.608  65.551  1.00  0.00    -0.404 C  
HETATM    4  H2  UNL     1      -8.817  16.294  65.459  1.00  0.00     0.000 HD 
HETATM    5  C   UNL     1     -10.576  14.597  66.435  1.00  0.00    -0.301 C  
HETATM    6  C   UNL     1     -11.524  13.492  66.416  1.00  0.00    -0.356 C  
HETATM    7  C   UNL     1     -12.505  13.495  65.497  1.00  0.00    -0.491 C  
HETATM    8  O   UNL     1     -11.782  16.397  63.598  1.00  0.00    -0.933 OA 
HETATM    9  N   UNL     1     -12.598  14.504  64.571  1.00  0.00    -0.650 N  
HETATM   10  C   UNL     1     -11.718  15.555  64.489  1.00  0.00    -0.253 C  
HETATM   11  H   UNL     1     -13.367  14.471  63.903  1.00  0.00     0.000 HD 
ENDROOT
BRANCH   6  12
HETATM   12  C   UNL     1     -11.442  12.347  67.335  1.00  0.00    -0.418 A  
HETATM   13  C   UNL     1     -10.936  11.127  66.880  1.00  0.00    -0.333 A  
HETATM   14  N   UNL     1     -11.304  10.141  69.048  1.00  0.00    -0.179 NA 
HETATM   15  C   UNL     1     -10.891  10.064  67.766  1.00  0.00    -0.282 A  
HETATM   16  C   UNL     1     -11.779  11.334  69.467  1.00  0.00    -0.345 A  
HETATM   17  C   UNL     1     -11.866  12.456  68.659  1.00  0.00    -0.348 A  
ENDBRANCH   6  12
TORSDOF 1
ENDMDL
MODEL       22
REMARK 921   NORMALIZED FREE ENERGY PREDICTED BY IDOCK:   -5.45 KCAL/MOL
REMARK 922        TOTAL FREE ENERGY PREDICTED BY IDOCK:   -5.92 KCAL/MOL
REMARK 923 INTER-LIGAND FREE ENERGY PREDICTED BY IDOCK:   -5.76 KCAL/MOL
REMARK 924 INTRA-LIGAND FREE ENERGY PREDICTED BY IDOCK:   -0.15 KCAL/MOL
REMARK 927      BINDING AFFINITY PREDICTED BY RF-SCORE:    0.00 PKD
ROOT
HETATM    1  N   UNL     1     -11.188  12.589  65.870  1.00  0.00    -0.305 NA 
HETATM    2  H1  UNL     1     -10.763  12.730  64.954  1.00  0.00     0.000 HD 
HETATM    3  C   UNL     1     -11.317  13.563  66.846  1.00  0.00    -0.326 C  
HETATM    4  H2  UNL     1     -12.122  12.213  65.705  1.00  0.00     0.000 HD 
HETATM    5  C   UNL     1     -11.877  13.377  68.054  1.00  0.00    -0.392 C  
HETATM    6  C   UNL     1     -11.984  14.445  69.036  1.00  0.00    -0.342 C  
HETATM    7  C   UNL     1     -11.485  15.656  68.735  1.00  0.00    -0.376 C  
HETATM    8  O   UNL     1     -10.363  15.226  65.402  1.00  0.00    -0.340 OA 
HETATM    9  N   UNL     1     -10.909  15.895  67.513  1.00  0.00    -0.318 N  
HETATM   10  C   UNL     1     -10.811  14.958  66.514  1.00  0.00    -0.322 C  
HETATM   11  H   UNL     1     -10.531  16.825  67.335  1.00  0.00     0.000 HD 
ENDROOT
BRANCH   6  12
HETATM   12  C   UNL     1     -12.649  14.276  70.337  1.00  0.00    -0.405 A  
HETATM   13  C   UNL     1     -12.649  13.026  70.959  1.00  0.00    -0.386 A  
HETATM   14  N   UNL     1     -13.935  13.913  72.795  1.00  0.00    -0.658 NA 
HETATM   15  C   UNL     1     -13.302  12.896  72.173  1.00  0.00    -0.515 A  
HETATM   16  C   UNL     1     -13.911  15.115  72.178  1.00  0.00    -0.533 A  
HETATM   17  C   UNL     1     -13.288  15.346  70.963  1.00  0.00    -0.545 A  
ENDBRANCH   6  12
TORSDOF 1
ENDMDL
MODEL       23
REMARK 921   NORMALIZED FREE ENERGY PREDICTED BY IDOCK:   -5.42 KCAL/MOL
REMARK 922        TOTAL FREE ENERGY PREDICTED BY IDOCK:   -5.88 KCAL/MOL
REMARK 923 INTER-LIGAND FREE ENERGY PREDICTED BY IDOCK:   -5.73 KCAL/MOL
REMARK 924 INTRA-LIGAND FREE ENERGY PREDICTED BY IDOCK:   -0.15 KCAL/MOL
REMARK 927      BINDING AFFINITY PREDICTED BY RF-SCORE:    0.00 PKD
ROOT
HETATM    1  N   UNL     1     -12.323  14.174  63.361  1.00  0.00    -1.144 NA 
HETATM    2  H1  UNL     1     -12.785  13.319  63.054  1.00  0.00     0.000 HD 
HETATM    3  C   UNL     1     -11.882  14.421  64.650  1.00  0.00    -0.451 C  
HETATM    4  H2  UNL     1     -11.521  14.312  62.745  1.00  0.00     0.000 HD 
HETATM    5  C   UNL     1     -11.272  15.548  65.056  1.00  0.00    -0.364 C  
HETATM    6  C   UNL     1     -10.829  15.745  66.428  1.00  0.00    -0.226 C  
HETATM    7  C   UNL     1     -11.059  14.774  67.329  1.00  0.00    -0.332 C  
HETATM    8  O   UNL     1     -12.550  12.230  65.366  1.00  0.00    -0.572 OA 
HETATM    9  N   UNL     1     -11.672  13.604  66.960  1.00  0.00    -0.362 N  
HETATM   10  C   UNL     1     -12.077  13.319  65.679  1.00  0.00    -0.441 C  
HETATM   11  H   UNL     1     -11.838  12.902  67.682  1.00  0.00     0.000 HD 
ENDROOT
BRANCH   6  12
HETATM   12  C   UNL     1     -10.106  16.945  66.874  1.00  0.00    -0.289 A  
HETATM   13  C   UNL     1      -9.133  16.840  67.870  1.00  0.00    -0.224 A  
HETATM   14  N   UNL     1      -8.738  19.215  67.769  1.00  0.00    -0.295 NA 
HETATM   15  C   UNL     1      -8.486  17.992  68.281  1.00  0.00    -0.287 A  
HETATM   16  C   UNL     1      -9.676  19.290  66.800  1.00  0.00    -0.341 A  
HETATM   17  C   UNL     1     -10.380  18.197  66.322  1.00  0.00    -0.407 A  
ENDBRANCH   6  12
TORSDOF 1
ENDMDL
MODEL       24
REMARK 921   NORMALIZED FREE ENERGY PREDICTED BY IDOCK:   -5.41 KCAL/MOL
REMARK 922        TOTAL FREE ENERGY PREDICTED BY IDOCK:   -5.87 KCAL/MOL
REMARK 923 INTER-LIGAND FREE ENERGY PREDICTED BY IDOCK:   -5.73 KCAL/MOL
REMARK 924 INTRA-LIGAND FREE ENERGY PREDICTED BY IDOCK:   -0.14 KCAL/MOL
REMARK 927      BINDING AFFINITY PREDICTED BY RF-SCORE:    0.00 PKD
ROOT
HETATM    1  N   UNL     1     -10.330  16.656  66.374  1.00  0.00    -0.311 NA 
HETATM    2  H1  UNL     1      -9.959  16.421  65.453  1.00  0.00     0.000 HD 
HETATM    3  C   UNL     1     -10.892  15.751  67.259  1.00  0.00    -0.298 C  
HETATM    4  H2  UNL     1      -9.583  17.134  66.878  1.00  0.00     0.000 HD 
HETATM    5  C   UNL     1     -11.381  16.061  68.472  1.00  0.00    -0.382 C  
HETATM    6  C   UNL     1     -11.959  15.061  69.358  1.00  0.00    -0.336 C  
HETATM    7  C   UNL     1     -12.027  13.785  68.939  1.00  0.00    -0.359 C  
HETATM    8  O   UNL     1     -10.432  13.919  65.779  1.00  0.00    -0.289 OA 
HETATM    9  N   UNL     1     -11.536  13.422  67.711  1.00  0.00    -0.319 N  
HETATM   10  C   UNL     1     -10.934  14.292  66.836  1.00  0.00    -0.304 C  
HETATM   11  H   UNL     1     -11.624  12.445  67.430  1.00  0.00     0.000 HD 
ENDROOT
BRANCH   6  12
HETATM   12  C   UNL     1     -12.441  15.370  70.712  1.00  0.00    -0.476 A  
HETATM   13  C   UNL     1     -11.594  16.006  71.623  1.00  0.00    -0.538 A  
HETATM   14  N   UNL     1     -13.317  15.941  73.307  1.00  0.00    -0.586 NA 
HETATM   15  C   UNL     1     -12.073  16.264  72.896  1.00  0.00    -0.527 A  
HETATM   16  C   UNL     1     -14.120  15.336  72.405  1.00  0.00    -0.525 A  
HETATM   17  C   UNL     1     -13.735  15.034  71.109  1.00  0.00    -0.484 A  
ENDBRANCH   6  12
TORSDOF 1
ENDMDL
MODEL       25
REMARK 921   NORMALIZED FREE ENERGY PREDICTED BY IDOCK:   -5.40 KCAL/MOL
REMARK 922        TOTAL FREE ENERGY PREDICTED BY IDOCK:   -5.87 KCAL/MOL
REMARK 923 INTER-LIGAND FREE ENERGY PREDICTED BY IDOCK:   -5.73 KCAL/MOL
REMARK 924 INTRA-LIGAND FREE ENERGY PREDICTED BY IDOCK:   -0.13 KCAL/MOL
REMARK 927      BINDING AFFINITY PREDICTED BY RF-SCORE:    0.00 PKD
ROOT
HETATM    1  N   UNL     1     -11.622  16.448  63.954  1.00  0.00    -1.602 NA 
HETATM    2  H1  UNL     1     -11.636  17.465  63.881  1.00  0.00     0.000 HD 
HETATM    3  C   UNL     1     -10.886  15.727  64.879  1.00  0.00    -0.413 C  
HETATM    4  H2  UNL     1     -12.592  16.148  64.053  1.00  0.00     0.000 HD 
HETATM    5  C   UNL     1     -10.867  14.386  64.976  1.00  0.00    -0.420 C  
HETATM    6  C   UNL     1     -10.072  13.687  65.974  1.00  0.00    -0.320 C  
HETATM    7  C   UNL     1      -9.310  14.406  66.815  1.00  0.00    -0.268 C  
HETATM    8  O   UNL     1     -10.086  17.741  65.909  1.00  0.00    -0.526 OA 
HETATM    9  N   UNL     1      -9.300  15.777  66.758  1.00  0.00    -0.228 N  
HETATM   10  C   UNL     1     -10.056  16.514  65.881  1.00  0.00    -0.337 C  
HETATM   11  H   UNL     1      -8.695  16.279  67.408  1.00  0.00     0.000 HD 
ENDROOT
BRANCH   6  12
HETATM   12  C   UNL     1     -10.088  12.225  66.134  1.00  0.00    -0.265 A  
HETATM   13  C   UNL     1      -9.562  11.411  65.129  1.00  0.00    -0.258 A  
HETATM   14  N   UNL     1     -10.136   9.440  66.393  1.00  0.00    -0.272 NA 
HETATM   15  C   UNL     1      -9.612  10.038  65.302  1.00  0.00    -0.291 A  
HETATM   16  C   UNL     1     -10.629  10.250  67.355  1.00  0.00    -0.270 A  
HETATM   17  C   UNL     1     -10.627  11.633  67.276  1.00  0.00    -0.265 A  
ENDBRANCH   6  12
TORSDOF 1
ENDMDL
MODEL       26
REMARK 921   NORMALIZED FREE ENERGY PREDICTED BY IDOCK:   -5.39 KCAL/MOL
REMARK 922        TOTAL FREE ENERGY PREDICTED BY IDOCK:   -5.86 KCAL/MOL
REMARK 923 INTER-LIGAND FREE ENERGY PREDICTED BY IDOCK:   -5.71 KCAL/MOL
REMARK 924 INTRA-LIGAND FREE ENERGY PREDICTED BY IDOCK:   -0.14 KCAL/MOL
REMARK 927      BINDING AFFINITY PREDICTED BY RF-SCORE:    0.00 PKD
ROOT
HETATM    1  N   UNL     1     -11.831  11.458  70.828  1.00  0.00    -0.410 NA 
HETATM    2  H1  UNL     1     -11.937  11.766  71.795  1.00  0.00     0.000 HD 
HETATM    3  C   UNL     1     -11.881  12.287  69.720  1.00  0.00    -0.318 C  
HETATM    4  H2  UNL     1     -10.946  10.953  70.777  1.00  0.00     0.000 HD 
HETATM    5  C   UNL     1     -11.741  11.882  68.446  1.00  0.00    -0.387 C  
HETATM    6  C   UNL     1     -11.801  12.805  67.322  1.00  0.00    -0.414 C  
HETATM    7  C   UNL     1     -12.029  14.107  67.565  1.00  0.00    -0.384 C  
HETATM    8  O   UNL     1     -12.135  14.230  71.104  1.00  0.00    -0.336 OA 
HETATM    9  N   UNL     1     -12.172  14.568  68.850  1.00  0.00    -0.564 N  
HETATM   10  C   UNL     1     -12.081  13.773  69.966  1.00  0.00    -0.349 C  
HETATM   11  H   UNL     1     -12.358  15.562  68.984  1.00  0.00     0.000 HD 
ENDROOT
BRANCH   6  12
HETATM   12  C   UNL     1     -11.588  12.389  65.928  1.00  0.00    -0.449 A  
HETATM   13  C   UNL     1     -10.508  11.563  65.607  1.00  0.00    -0.317 A  
HETATM   14  N   UNL     1     -11.135  11.609  63.280  1.00  0.00    -0.317 NA 
HETATM   15  C   UNL     1     -10.325  11.208  64.282  1.00  0.00    -0.351 A  
HETATM   16  C   UNL     1     -12.179  12.398  63.618  1.00  0.00    -0.557 A  
HETATM   17  C   UNL     1     -12.447  12.810  64.913  1.00  0.00    -0.563 A  
ENDBRANCH   6  12
TORSDOF 1
ENDMDL
MODEL       27
REMARK 921   NORMALIZED FREE ENERGY PREDICTED BY IDOCK:   -5.38 KCAL/MOL
REMARK 922        TOTAL FREE ENERGY PREDICTED BY IDOCK:   -5.84 KCAL/MOL
REMARK 923 INTER-LIGAND FREE ENERGY PREDICTED BY IDOCK:   -5.68 KCAL/MOL
REMARK 924 INTRA-LIGAND FREE ENERGY PREDICTED BY IDOCK:   -0.16 KCAL/MOL
REMARK 927      BINDING AFFINITY PREDICTED BY RF-SCORE:    0.00 PKD
ROOT
HETATM    1  N   UNL     1     -12.491  14.108  66.617  1.00  0.00    -0.548 NA 
HETATM    2  H1  UNL     1     -13.029  14.961  66.464  1.00  0.00     0.000 HD 
HETATM    3  C   UNL     1     -11.957  13.313  65.617  1.00  0.00    -0.412 C  
HETATM    4  H2  UNL     1     -11.720  14.355  67.238  1.00  0.00     0.000 HD 
HETATM    5  C   UNL     1     -11.248  12.189  65.819  1.00  0.00    -0.384 C  
HETATM    6  C   UNL     1     -10.710  11.398  64.722  1.00  0.00    -0.362 C  
HETATM    7  C   UNL     1     -10.951  11.792  63.460  1.00  0.00    -0.424 C  
HETATM    8  O   UNL     1     -12.730  14.821  63.918  1.00  0.00    -0.794 OA 
HETATM    9  N   UNL     1     -11.665  12.935  63.205  1.00  0.00    -0.844 N  
HETATM   10  C   UNL     1     -12.165  13.763  64.180  1.00  0.00    -0.396 C  
HETATM   11  H   UNL     1     -11.836  13.186  62.231  1.00  0.00     0.000 HD 
ENDROOT
BRANCH   6  12
HETATM   12  C   UNL     1      -9.880  10.201  64.927  1.00  0.00    -0.390 A  
HETATM   13  C   UNL     1      -8.964   9.816  63.946  1.00  0.00    -0.277 A  
HETATM   14  N   UNL     1      -8.312   7.911  65.270  1.00  0.00    -0.145 NA 
HETATM   15  C   UNL     1      -8.213   8.673  64.160  1.00  0.00    -0.155 A  
HETATM   16  C   UNL     1      -9.197   8.310  66.208  1.00  0.00    -0.203 A  
HETATM   17  C   UNL     1      -9.995   9.436  66.087  1.00  0.00    -0.351 A  
ENDBRANCH   6  12
TORSDOF 1
ENDMDL
MODEL       28
REMARK 921   NORMALIZED FREE ENERGY PREDICTED BY IDOCK:   -5.36 KCAL/MOL
REMARK 922        TOTAL FREE ENERGY PREDICTED BY IDOCK:   -5.82 KCAL/MOL
REMARK 923 INTER-LIGAND FREE ENERGY PREDICTED BY IDOCK:   -5.69 KCAL/MOL
REMARK 924 INTRA-LIGAND FREE ENERGY PREDICTED BY IDOCK:   -0.13 KCAL/MOL
REMARK 927      BINDING AFFINITY PREDICTED BY RF-SCORE:    0.00 PKD
ROOT
HETATM    1  N   UNL     1      -9.545  12.286  63.760  1.00  0.00    -0.623 NA 
HETATM    2  H1  UNL     1      -9.667  11.729  62.914  1.00  0.00     0.000 HD 
HETATM    3  C   UNL     1     -10.574  12.825  64.514  1.00  0.00    -0.360 C  
HETATM    4  H2  UNL     1      -8.974  11.730  64.397  1.00  0.00     0.000 HD 
HETATM    5  C   UNL     1     -10.413  13.558  65.629  1.00  0.00    -0.296 C  
HETATM    6  C   UNL     1     -11.538  14.095  66.378  1.00  0.00    -0.380 C  
HETATM    7  C   UNL     1     -12.784  13.870  65.928  1.00  0.00    -0.421 C  
HETATM    8  O   UNL     1     -12.226  11.809  63.101  1.00  0.00    -0.429 OA 
HETATM    9  N   UNL     1     -12.998  13.121  64.798  1.00  0.00    -0.736 N  
HETATM   10  C   UNL     1     -11.997  12.540  64.060  1.00  0.00    -0.454 C  
HETATM   11  H   UNL     1     -13.960  12.989  64.486  1.00  0.00     0.000 HD 
ENDROOT
BRANCH   6  12
HETATM   12  C   UNL     1     -11.383  14.847  67.633  1.00  0.00    -0.348 A  
HETATM   13  C   UNL     1     -10.833  16.130  67.610  1.00  0.00    -0.297 A  
HETATM   14  N   UNL     1     -11.042  16.287  70.006  1.00  0.00    -0.357 NA 
HETATM   15  C   UNL     1     -10.681  16.801  68.811  1.00  0.00    -0.341 A  
HETATM   16  C   UNL     1     -11.581  15.049  70.001  1.00  0.00    -0.287 A  
HETATM   17  C   UNL     1     -11.773  14.296  68.854  1.00  0.00    -0.363 A  
ENDBRANCH   6  12
TORSDOF 1
ENDMDL
MODEL       29
REMARK 921   NORMALIZED FREE ENERGY PREDICTED BY IDOCK:   -5.36 KCAL/MOL
REMARK 922        TOTAL FREE ENERGY PREDICTED BY IDOCK:   -5.82 KCAL/MOL
REMARK 923 INTER-LIGAND FREE ENERGY PREDICTED BY IDOCK:   -5.66 KCAL/MOL
REMARK 924 INTRA-LIGAND FREE ENERGY PREDICTED BY IDOCK:   -0.16 KCAL/MOL
REMARK 927      BINDING AFFINITY PREDICTED BY RF-SCORE:    0.00 PKD
ROOT
HETATM    1  N   UNL     1     -12.148  15.019  69.205  1.00  0.00    -0.525 NA 
HETATM    2  H1  UNL     1     -12.447  15.994  69.204  1.00  0.00     0.000 HD 
HETATM    3  C   UNL     1     -12.535  14.069  70.135  1.00  0.00    -0.319 C  
HETATM    4  H2  UNL     1     -12.379  14.641  68.286  1.00  0.00     0.000 HD 
HETATM    5  C   UNL     1     -12.142  12.784  70.137  1.00  0.00    -0.370 C  
HETATM    6  C   UNL     1     -12.587  11.833  71.144  1.00  0.00    -0.412 C  
HETATM    7  C   UNL     1     -13.404  12.260  72.123  1.00  0.00    -0.368 C  
HETATM    8  O   UNL     1     -13.971  15.643  71.240  1.00  0.00    -0.570 OA 
HETATM    9  N   UNL     1     -13.836  13.561  72.159  1.00  0.00    -0.531 N  
HETATM   10  C   UNL     1     -13.503  14.508  71.223  1.00  0.00    -0.362 C  
HETATM   11  H   UNL     1     -14.443  13.843  72.929  1.00  0.00     0.000 HD 
ENDROOT
BRANCH   6  12
HETATM   12  C   UNL     1     -12.217  10.410  71.125  1.00  0.00    -0.498 A  
HETATM   13  C   UNL     1     -11.264   9.953  70.212  1.00  0.00    -0.364 A  
HETATM   14  N   UNL     1     -11.516   7.703  71.040  1.00  0.00    -0.273 NA 
HETATM   15  C   UNL     1     -10.954   8.604  70.206  1.00  0.00    -0.236 A  
HETATM   16  C   UNL     1     -12.426   8.172  71.921  1.00  0.00    -0.332 A  
HETATM   17  C   UNL     1     -12.806   9.502  72.004  1.00  0.00    -0.499 A  
ENDBRANCH   6  12
TORSDOF 1
ENDMDL
MODEL       30
REMARK 921   NORMALIZED FREE ENERGY PREDICTED BY IDOCK:   -5.35 KCAL/MOL
REMARK 922        TOTAL FREE ENERGY PREDICTED BY IDOCK:   -5.81 KCAL/MOL
REMARK 923 INTER-LIGAND FREE ENERGY PREDICTED BY IDOCK:   -5.68 KCAL/MOL
REMARK 924 INTRA-LIGAND FREE ENERGY PREDICTED BY IDOCK:   -0.14 KCAL/MOL
REMARK 927      BINDING AFFINITY PREDICTED BY RF-SCORE:    0.00 PKD
ROOT
HETATM    1  N   UNL     1     -12.509  15.263  69.936  1.00  0.00    -0.565 NA 
HETATM    2  H1  UNL     1     -12.510  16.060  69.299  1.00  0.00     0.000 HD 
HETATM    3  C   UNL     1     -12.259  13.951  69.570  1.00  0.00    -0.306 C  
HETATM    4  H2  UNL     1     -11.854  15.488  70.686  1.00  0.00     0.000 HD 
HETATM    5  C   UNL     1     -12.258  12.902  70.409  1.00  0.00    -0.381 C  
HETATM    6  C   UNL     1     -11.986  11.544  69.961  1.00  0.00    -0.435 C  
HETATM    7  C   UNL     1     -11.749  11.328  68.655  1.00  0.00    -0.324 C  
HETATM    8  O   UNL     1     -11.834  14.599  67.298  1.00  0.00    -0.392 OA 
HETATM    9  N   UNL     1     -11.734  12.369  67.762  1.00  0.00    -0.353 N  
HETATM   10  C   UNL     1     -11.934  13.683  68.109  1.00  0.00    -0.355 C  
HETATM   11  H   UNL     1     -11.565  12.155  66.779  1.00  0.00     0.000 HD 
ENDROOT
BRANCH   6  12
HETATM   12  C   UNL     1     -11.919  10.394  70.875  1.00  0.00    -0.478 A  
HETATM   13  C   UNL     1     -10.715   9.706  71.039  1.00  0.00    -0.393 A  
HETATM   14  N   UNL     1     -11.769   8.182  72.580  1.00  0.00    -0.400 NA 
HETATM   15  C   UNL     1     -10.692   8.616  71.891  1.00  0.00    -0.344 A  
HETATM   16  C   UNL     1     -12.919   8.870  72.412  1.00  0.00    -0.404 A  
HETATM   17  C   UNL     1     -13.045   9.972  71.582  1.00  0.00    -0.547 A  
ENDBRANCH   6  12
TORSDOF 1
ENDMDL
MODEL       31
REMARK 921   NORMALIZED FREE ENERGY PREDICTED BY IDOCK:   -5.33 KCAL/MOL
REMARK 922        TOTAL FREE ENERGY PREDICTED BY IDOCK:   -5.79 KCAL/MOL
REMARK 923 INTER-LIGAND FREE ENERGY PREDICTED BY IDOCK:   -5.64 KCAL/MOL
REMARK 924 INTRA-LIGAND FREE ENERGY PREDICTED BY IDOCK:   -0.16 KCAL/MOL
REMARK 927      BINDING AFFINITY PREDICTED BY RF-SCORE:    0.00 PKD
ROOT
HETATM    1  N   UNL     1     -10.105  16.998  66.974  1.00  0.00    -0.287 NA 
HETATM    2  H1  UNL     1      -9.601  17.089  66.092  1.00  0.00     0.000 HD 
HETATM    3  C   UNL     1     -10.665  15.825  67.452  1.00  0.00    -0.317 C  
HETATM    4  H2  UNL     1      -9.484  17.346  67.705  1.00  0.00     0.000 HD 
HETATM    5  C   UNL     1     -11.331  15.704  68.614  1.00  0.00    -0.359 C  
HETATM    6  C   UNL     1     -11.895  14.440  69.062  1.00  0.00    -0.358 C  
HETATM    7  C   UNL     1     -11.767  13.358  68.275  1.00  0.00    -0.356 C  
HETATM    8  O   UNL     1      -9.824  14.584  65.579  1.00  0.00    -0.338 OA 
HETATM    9  N   UNL     1     -11.091  13.432  67.083  1.00  0.00    -0.280 N  
HETATM   10  C   UNL     1     -10.489  14.572  66.611  1.00  0.00    -0.274 C  
HETATM   11  H   UNL     1     -11.033  12.588  66.513  1.00  0.00     0.000 HD 
ENDROOT
BRANCH   6  12
HETATM   12  C   UNL     1     -12.571  14.276  70.358  1.00  0.00    -0.405 A  
HETATM   13  C   UNL     1     -12.626  13.016  70.958  1.00  0.00    -0.386 A  
HETATM   14  N   UNL     1     -13.879  13.925  72.805  1.00  0.00    -0.688 NA 
HETATM   15  C   UNL     1     -13.288  12.893  72.167  1.00  0.00    -0.515 A  
HETATM   16  C   UNL     1     -13.802  15.135  72.210  1.00  0.00    -0.515 A  
HETATM   17  C   UNL     1     -13.165  15.362  71.001  1.00  0.00    -0.560 A  
ENDBRANCH   6  12
TORSDOF 1
ENDMDL
MODEL       32
REMARK 921   NORMALIZED FREE ENERGY PREDICTED BY IDOCK:   -5.27 KCAL/MOL
REMARK 922        TOTAL FREE ENERGY PREDICTED BY IDOCK:   -5.73 KCAL/MOL
REMARK 923 INTER-LIGAND FREE ENERGY PREDICTED BY IDOCK:   -5.59 KCAL/MOL
REMARK 924 INTRA-LIGAND FREE ENERGY PREDICTED BY IDOCK:   -0.14 KCAL/MOL
REMARK 927      BINDING AFFINITY PREDICTED BY RF-SCORE:    0.00 PKD
ROOT
HETATM    1  N   UNL     1     -12.066  12.156  70.897  1.00  0.00    -0.418 NA 
HETATM    2  H1  UNL     1     -12.197  12.568  71.821  1.00  0.00     0.000 HD 
HETATM    3  C   UNL     1     -12.021  12.866  69.708  1.00  0.00    -0.296 C  
HETATM    4  H2  UNL     1     -11.210  11.603  70.940  1.00  0.00     0.000 HD 
HETATM    5  C   UNL     1     -11.849  12.324  68.491  1.00  0.00    -0.359 C  
HETATM    6  C   UNL     1     -11.808  13.128  67.278  1.00  0.00    -0.420 C  
HETATM    7  C   UNL     1     -11.972  14.458  67.376  1.00  0.00    -0.373 C  
HETATM    8  O   UNL     1     -12.225  14.954  70.874  1.00  0.00    -0.283 OA 
HETATM    9  N   UNL     1     -12.146  15.057  68.598  1.00  0.00    -0.583 N  
HETATM   10  C   UNL     1     -12.148  14.379  69.792  1.00  0.00    -0.334 C  
HETATM   11  H   UNL     1     -12.281  16.067  68.621  1.00  0.00     0.000 HD 
ENDROOT
BRANCH   6  12
HETATM   12  C   UNL     1     -11.559  12.558  65.945  1.00  0.00    -0.454 A  
HETATM   13  C   UNL     1     -12.483  12.763  64.918  1.00  0.00    -0.563 A  
HETATM   14  N   UNL     1     -11.130  11.459  63.409  1.00  0.00    -0.317 NA 
HETATM   15  C   UNL     1     -12.227  12.196  63.682  1.00  0.00    -0.562 A  
HETATM   16  C   UNL     1     -10.246  11.284  64.416  1.00  0.00    -0.320 A  
HETATM   17  C   UNL     1     -10.411  11.808  65.687  1.00  0.00    -0.308 A  
ENDBRANCH   6  12
TORSDOF 1
ENDMDL
MODEL       33
REMARK 921   NORMALIZED FREE ENERGY PREDICTED BY IDOCK:   -5.26 KCAL/MOL
REMARK 922        TOTAL FREE ENERGY PREDICTED BY IDOCK:   -5.72 KCAL/MOL
REMARK 923 INTER-LIGAND FREE ENERGY PREDICTED BY IDOCK:   -5.56 KCAL/MOL
REMARK 924 INTRA-LIGAND FREE ENERGY PREDICTED BY IDOCK:   -0.16 KCAL/MOL
REMARK 927      BINDING AFFINITY PREDICTED BY RF-SCORE:    0.00 PKD
ROOT
HETATM    1  N   UNL     1     -10.131   9.074  69.610  1.00  0.00    -0.190 NA 
HETATM    2  H1  UNL     1      -9.907   8.079  69.593  1.00  0.00     0.000 HD 
HETATM    3  C   UNL     1     -11.142   9.649  70.362  1.00  0.00    -0.290 C  
HETATM    4  H2  UNL     1      -9.270   9.565  69.852  1.00  0.00     0.000 HD 
HETATM    5  C   UNL     1     -11.437  10.960  70.385  1.00  0.00    -0.367 C  
HETATM    6  C   UNL     1     -12.513  11.504  71.201  1.00  0.00    -0.442 C  
HETATM    7  C   UNL     1     -13.254  10.661  71.941  1.00  0.00    -0.423 C  
HETATM    8  O   UNL     1     -11.699   7.534  71.349  1.00  0.00    -0.267 OA 
HETATM    9  N   UNL     1     -12.986   9.316  71.954  1.00  0.00    -0.378 N  
HETATM   10  C   UNL     1     -11.961   8.729  71.253  1.00  0.00    -0.301 C  
HETATM   11  H   UNL     1     -13.584   8.714  72.520  1.00  0.00     0.000 HD 
ENDROOT
BRANCH   6  12
HETATM   12  C   UNL     1     -12.809  12.941  71.286  1.00  0.00    -0.361 A  
HETATM   13  C   UNL     1     -13.711  13.409  72.244  1.00  0.00    -0.705 A  
HETATM   14  N   UNL     1     -13.420  15.666  71.449  1.00  0.00    -0.521 NA 
HETATM   15  C   UNL     1     -13.983  14.766  72.283  1.00  0.00    -0.496 A  
HETATM   16  C   UNL     1     -12.544  15.190  70.538  1.00  0.00    -0.380 A  
HETATM   17  C   UNL     1     -12.206  13.852  70.418  1.00  0.00    -0.438 A  
ENDBRANCH   6  12
TORSDOF 1
ENDMDL
MODEL       34
REMARK 921   NORMALIZED FREE ENERGY PREDICTED BY IDOCK:   -5.23 KCAL/MOL
REMARK 922        TOTAL FREE ENERGY PREDICTED BY IDOCK:   -5.68 KCAL/MOL
REMARK 923 INTER-LIGAND FREE ENERGY PREDICTED BY IDOCK:   -5.53 KCAL/MOL
REMARK 924 INTRA-LIGAND FREE ENERGY PREDICTED BY IDOCK:   -0.15 KCAL/MOL
REMARK 927      BINDING AFFINITY PREDICTED BY RF-SCORE:    0.00 PKD
ROOT
HETATM    1  N   UNL     1     -14.063  15.697  72.651  1.00  0.00    -0.542 NA 
HETATM    2  H1  UNL     1     -14.501  15.264  73.464  1.00  0.00     0.000 HD 
HETATM    3  C   UNL     1     -13.361  15.018  71.669  1.00  0.00    -0.401 C  
HETATM    4  H2  UNL     1     -14.789  16.232  72.175  1.00  0.00     0.000 HD 
HETATM    5  C   UNL     1     -12.783  15.589  70.599  1.00  0.00    -0.487 C  
HETATM    6  C   UNL     1     -12.059  14.817  69.599  1.00  0.00    -0.346 C  
HETATM    7  C   UNL     1     -11.945  13.488  69.764  1.00  0.00    -0.340 C  
HETATM    8  O   UNL     1     -13.833  12.905  72.704  1.00  0.00    -0.596 OA 
HETATM    9  N   UNL     1     -12.524  12.860  70.839  1.00  0.00    -0.351 N  
HETATM   10  C   UNL     1     -13.262  13.507  71.799  1.00  0.00    -0.404 C  
HETATM   11  H   UNL     1     -12.398  11.852  70.929  1.00  0.00     0.000 HD 
ENDROOT
BRANCH   6  12
HETATM   12  C   UNL     1     -11.474  15.416  68.390  1.00  0.00    -0.365 A  
HETATM   13  C   UNL     1     -10.968  16.717  68.435  1.00  0.00    -0.345 A  
HETATM   14  N   UNL     1     -10.387  16.596  66.099  1.00  0.00    -0.333 NA 
HETATM   15  C   UNL     1     -10.444  17.258  67.274  1.00  0.00    -0.319 A  
HETATM   16  C   UNL     1     -10.873  15.336  66.084  1.00  0.00    -0.320 A  
HETATM   17  C   UNL     1     -11.419  14.706  67.191  1.00  0.00    -0.380 A  
ENDBRANCH   6  12
TORSDOF 1
ENDMDL
MODEL       35
REMARK 921   NORMALIZED FREE ENERGY PREDICTED BY IDOCK:   -5.21 KCAL/MOL
REMARK 922        TOTAL FREE ENERGY PREDICTED BY IDOCK:   -5.67 KCAL/MOL
REMARK 923 INTER-LIGAND FREE ENERGY PREDICTED BY IDOCK:   -5.51 KCAL/MOL
REMARK 924 INTRA-LIGAND FREE ENERGY PREDICTED BY IDOCK:   -0.16 KCAL/MOL
REMARK 927      BINDING AFFINITY PREDICTED BY RF-SCORE:    0.00 PKD
ROOT
HETATM    1  N   UNL     1     -11.927  10.668  68.106  1.00  0.00    -0.783 NA 
HETATM    2  H1  UNL     1     -12.130   9.883  68.725  1.00  0.00     0.000 HD 
HETATM    3  C   UNL     1     -11.770  11.982  68.513  1.00  0.00    -0.332 C  
HETATM    4  H2  UNL     1     -11.085  10.420  67.586  1.00  0.00     0.000 HD 
HETATM    5  C   UNL     1     -11.502  13.016  67.698  1.00  0.00    -0.369 C  
HETATM    6  C   UNL     1     -11.347  14.377  68.190  1.00  0.00    -0.317 C  
HETATM    7  C   UNL     1     -11.500  14.613  69.504  1.00  0.00    -0.297 C  
HETATM    8  O   UNL     1     -12.045  11.369  70.817  1.00  0.00    -0.363 OA 
HETATM    9  N   UNL     1     -11.770  13.588  70.375  1.00  0.00    -0.531 N  
HETATM   10  C   UNL     1     -11.884  12.272  70.001  1.00  0.00    -0.296 C  
HETATM   11  H   UNL     1     -11.892  13.818  71.361  1.00  0.00     0.000 HD 
ENDROOT
BRANCH   6  12
HETATM   12  C   UNL     1     -10.991  15.510  67.321  1.00  0.00    -0.303 A  
HETATM   13  C   UNL     1     -10.908  15.326  65.939  1.00  0.00    -0.345 A  
HETATM   14  N   UNL     1     -10.284  17.635  65.646  1.00  0.00    -0.614 NA 
HETATM   15  C   UNL     1     -10.551  16.407  65.153  1.00  0.00    -0.264 A  
HETATM   16  C   UNL     1     -10.382  17.790  66.984  1.00  0.00    -0.344 A  
HETATM   17  C   UNL     1     -10.730  16.771  67.856  1.00  0.00    -0.347 A  
ENDBRANCH   6  12
TORSDOF 1
ENDMDL
MODEL       36
REMARK 921   NORMALIZED FREE ENERGY PREDICTED BY IDOCK:   -5.20 KCAL/MOL
REMARK 922        TOTAL FREE ENERGY PREDICTED BY IDOCK:   -5.66 KCAL/MOL
REMARK 923 INTER-LIGAND FREE ENERGY PREDICTED BY IDOCK:   -5.50 KCAL/MOL
REMARK 924 INTRA-LIGAND FREE ENERGY PREDICTED BY IDOCK:   -0.16 KCAL/MOL
REMARK 927      BINDING AFFINITY PREDICTED BY RF-SCORE:    0.00 PKD
ROOT
HETATM    1  N   UNL     1     -11.977  13.611  70.910  1.00  0.00    -0.499 NA 
HETATM    2  H1  UNL     1     -11.908  13.214  71.847  1.00  0.00     0.000 HD 
HETATM    3  C   UNL     1     -11.895  12.888  69.732  1.00  0.00    -0.310 C  
HETATM    4  H2  UNL     1     -12.854  14.131  70.874  1.00  0.00     0.000 HD 
HETATM    5  C   UNL     1     -11.985  13.410  68.497  1.00  0.00    -0.363 C  
HETATM    6  C   UNL     1     -11.893  12.593  67.296  1.00  0.00    -0.395 C  
HETATM    7  C   UNL     1     -11.687  11.271  67.425  1.00  0.00    -0.027 C  
HETATM    8  O   UNL     1     -11.710  10.821  70.938  1.00  0.00    -0.320 OA 
HETATM    9  N   UNL     1     -11.594  10.692  68.665  1.00  0.00    -0.456 N  
HETATM   10  C   UNL     1     -11.718  11.382  69.846  1.00  0.00    -0.346 C  
HETATM   11  H   UNL     1     -11.423   9.688  68.713  1.00  0.00     0.000 HD 
ENDROOT
BRANCH   6  12
HETATM   12  C   UNL     1     -12.051  13.139  65.939  1.00  0.00    -0.501 A  
HETATM   13  C   UNL     1     -12.102  12.273  64.844  1.00  0.00    -0.422 A  
HETATM   14  N   UNL     1     -12.317  14.147  63.343  1.00  0.00    -0.665 NA 
HETATM   15  C   UNL     1     -12.231  12.821  63.579  1.00  0.00    -0.525 A  
HETATM   16  C   UNL     1     -12.276  14.963  64.420  1.00  0.00    -0.381 A  
HETATM   17  C   UNL     1     -12.147  14.514  65.724  1.00  0.00    -0.285 A  
ENDBRANCH   6  12
TORSDOF 1
ENDMDL
MODEL       37
REMARK 921   NORMALIZED FREE ENERGY PREDICTED BY IDOCK:   -5.16 KCAL/MOL
REMARK 922        TOTAL FREE ENERGY PREDICTED BY IDOCK:   -5.61 KCAL/MOL
REMARK 923 INTER-LIGAND FREE ENERGY PREDICTED BY IDOCK:   -5.47 KCAL/MOL
REMARK 924 INTRA-LIGAND FREE ENERGY PREDICTED BY IDOCK:   -0.14 KCAL/MOL
REMARK 927      BINDING AFFINITY PREDICTED BY RF-SCORE:    0.00 PKD
ROOT
HETATM    1  N   UNL     1     -12.384  15.432  69.785  1.00  0.00    -0.551 NA 
HETATM    2  H1  UNL     1     -12.572  15.640  70.765  1.00  0.00     0.000 HD 
HETATM    3  C   UNL     1     -12.181  14.164  69.266  1.00  0.00    -0.269 C  
HETATM    4  H2  UNL     1     -13.141  15.851  69.245  1.00  0.00     0.000 HD 
HETATM    5  C   UNL     1     -11.933  13.888  67.974  1.00  0.00    -0.390 C  
HETATM    6  C   UNL     1     -11.730  12.530  67.491  1.00  0.00    -0.439 C  
HETATM    7  C   UNL     1     -11.768  11.516  68.372  1.00  0.00    -0.303 C  
HETATM    8  O   UNL     1     -12.577  13.155  71.407  1.00  0.00    -0.339 OA 
HETATM    9  N   UNL     1     -12.023  11.748  69.700  1.00  0.00    -0.317 N  
HETATM   10  C   UNL     1     -12.273  12.991  70.229  1.00  0.00    -0.296 C  
HETATM   11  H   UNL     1     -12.028  10.949  70.334  1.00  0.00     0.000 HD 
ENDROOT
BRANCH   6  12
HETATM   12  C   UNL     1     -11.521  12.205  66.072  1.00  0.00    -0.427 A  
HETATM   13  C   UNL     1     -10.473  11.360  65.701  1.00  0.00    -0.316 A  
HETATM   14  N   UNL     1     -11.074  11.596  63.379  1.00  0.00    -0.383 NA 
HETATM   15  C   UNL     1     -10.291  11.092  64.355  1.00  0.00    -0.358 A  
HETATM   16  C   UNL     1     -12.088  12.402  63.764  1.00  0.00    -0.529 A  
HETATM   17  C   UNL     1     -12.351  12.733  65.084  1.00  0.00    -0.555 A  
ENDBRANCH   6  12
TORSDOF 1
ENDMDL
MODEL       38
REMARK 921   NORMALIZED FREE ENERGY PREDICTED BY IDOCK:   -5.15 KCAL/MOL
REMARK 922        TOTAL FREE ENERGY PREDICTED BY IDOCK:   -5.60 KCAL/MOL
REMARK 923 INTER-LIGAND FREE ENERGY PREDICTED BY IDOCK:   -5.44 KCAL/MOL
REMARK 924 INTRA-LIGAND FREE ENERGY PREDICTED BY IDOCK:   -0.16 KCAL/MOL
REMARK 927      BINDING AFFINITY PREDICTED BY RF-SCORE:    0.00 PKD
ROOT
HETATM    1  N   UNL     1     -12.047  10.588  68.373  1.00  0.00    -0.774 NA 
HETATM    2  H1  UNL     1     -12.303   9.846  69.024  1.00  0.00     0.000 HD 
HETATM    3  C   UNL     1     -11.883  11.921  68.712  1.00  0.00    -0.313 C  
HETATM    4  H2  UNL     1     -11.183  10.294  67.917  1.00  0.00     0.000 HD 
HETATM    5  C   UNL     1     -11.546  12.900  67.855  1.00  0.00    -0.391 C  
HETATM    6  C   UNL     1     -11.387  14.284  68.276  1.00  0.00    -0.314 C  
HETATM    7  C   UNL     1     -11.608  14.600  69.563  1.00  0.00    -0.310 C  
HETATM    8  O   UNL     1     -12.300  11.450  71.028  1.00  0.00    -0.369 OA 
HETATM    9  N   UNL     1     -11.949  13.634  70.475  1.00  0.00    -0.475 N  
HETATM   10  C   UNL     1     -12.072  12.300  70.172  1.00  0.00    -0.287 C  
HETATM   11  H   UNL     1     -12.121  13.923  71.438  1.00  0.00     0.000 HD 
ENDROOT
BRANCH   6  12
HETATM   12  C   UNL     1     -10.958  15.356  67.365  1.00  0.00    -0.312 A  
HETATM   13  C   UNL     1     -10.675  16.626  67.872  1.00  0.00    -0.344 A  
HETATM   14  N   UNL     1     -10.173  17.425  65.654  1.00  0.00    -0.616 NA 
HETATM   15  C   UNL     1     -10.294  17.618  66.984  1.00  0.00    -0.330 A  
HETATM   16  C   UNL     1     -10.442  16.186  65.190  1.00  0.00    -0.268 A  
HETATM   17  C   UNL     1     -10.832  15.128  65.995  1.00  0.00    -0.335 A  
ENDBRANCH   6  12
TORSDOF 1
ENDMDL
MODEL       39
REMARK 921   NORMALIZED FREE ENERGY PREDICTED BY IDOCK:   -5.14 KCAL/MOL
REMARK 922        TOTAL FREE ENERGY PREDICTED BY IDOCK:   -5.59 KCAL/MOL
REMARK 923 INTER-LIGAND FREE ENERGY PREDICTED BY IDOCK:   -5.43 KCAL/MOL
REMARK 924 INTRA-LIGAND FREE ENERGY PREDICTED BY IDOCK:   -0.16 KCAL/MOL
REMARK 927      BINDING AFFINITY PREDICTED BY RF-SCORE:    0.00 PKD
ROOT
HETATM    1  N   UNL     1     -12.465  13.648  62.859  1.00  0.00    -0.856 NA 
HETATM    2  H1  UNL     1     -13.119  14.428  62.917  1.00  0.00     0.000 HD 
HETATM    3  C   UNL     1     -11.974  12.939  63.943  1.00  0.00    -0.480 C  
HETATM    4  H2  UNL     1     -12.877  12.965  62.224  1.00  0.00     0.000 HD 
HETATM    5  C   UNL     1     -11.111  11.911  63.867  1.00  0.00    -0.483 C  
HETATM    6  C   UNL     1     -10.635  11.205  65.047  1.00  0.00    -0.340 C  
HETATM    7  C   UNL     1     -11.055  11.609  66.258  1.00  0.00    -0.290 C  
HETATM    8  O   UNL     1     -13.325  14.210  65.466  1.00  0.00    -0.656 OA 
HETATM    9  N   UNL     1     -11.940  12.649  66.385  1.00  0.00    -0.404 N  
HETATM   10  C   UNL     1     -12.474  13.337  65.323  1.00  0.00    -0.489 C  
HETATM   11  H   UNL     1     -12.218  12.930  67.325  1.00  0.00     0.000 HD 
ENDROOT
BRANCH   6  12
HETATM   12  C   UNL     1      -9.740  10.040  64.979  1.00  0.00    -0.386 A  
HETATM   13  C   UNL     1      -8.897   9.875  63.878  1.00  0.00    -0.250 A  
HETATM   14  N   UNL     1      -8.052   7.816  64.803  1.00  0.00    -0.144 NA 
HETATM   15  C   UNL     1      -8.083   8.756  63.835  1.00  0.00    -0.165 A  
HETATM   16  C   UNL     1      -8.869   8.003  65.863  1.00  0.00    -0.153 A  
HETATM   17  C   UNL     1      -9.721   9.087  65.998  1.00  0.00    -0.339 A  
ENDBRANCH   6  12
TORSDOF 1
ENDMDL
MODEL       40
REMARK 921   NORMALIZED FREE ENERGY PREDICTED BY IDOCK:   -5.12 KCAL/MOL
REMARK 922        TOTAL FREE ENERGY PREDICTED BY IDOCK:   -5.57 KCAL/MOL
REMARK 923 INTER-LIGAND FREE ENERGY PREDICTED BY IDOCK:   -5.44 KCAL/MOL
REMARK 924 INTRA-LIGAND FREE ENERGY PREDICTED BY IDOCK:   -0.13 KCAL/MOL
REMARK 927      BINDING AFFINITY PREDICTED BY RF-SCORE:    0.00 PKD
ROOT
HETATM    1  N   UNL     1     -11.269  12.658  66.520  1.00  0.00    -0.281 NA 
HETATM    2  H1  UNL     1     -11.005  11.925  65.862  1.00  0.00     0.000 HD 
HETATM    3  C   UNL     1     -11.594  12.452  67.851  1.00  0.00    -0.356 C  
HETATM    4  H2  UNL     1     -10.519  13.350  66.506  1.00  0.00     0.000 HD 
HETATM    5  C   UNL     1     -11.942  13.417  68.719  1.00  0.00    -0.359 C  
HETATM    6  C   UNL     1     -12.272  13.134  70.108  1.00  0.00    -0.360 C  
HETATM    7  C   UNL     1     -12.250  11.859  70.533  1.00  0.00    -0.336 C  
HETATM    8  O   UNL     1     -11.136  10.103  67.665  1.00  0.00    -0.301 OA 
HETATM    9  N   UNL     1     -11.896  10.841  69.684  1.00  0.00    -0.316 N  
HETATM   10  C   UNL     1     -11.525  11.027  68.375  1.00  0.00    -0.308 C  
HETATM   11  H   UNL     1     -11.908   9.888  70.048  1.00  0.00     0.000 HD 
ENDROOT
BRANCH   6  12
HETATM   12  C   UNL     1     -12.594  14.183  71.087  1.00  0.00    -0.439 A  
HETATM   13  C   UNL     1     -11.574  14.979  71.613  1.00  0.00    -0.416 A  
HETATM   14  N   UNL     1     -13.169  16.165  72.976  1.00  0.00    -0.454 NA 
HETATM   15  C   UNL     1     -11.909  15.944  72.548  1.00  0.00    -0.508 A  
HETATM   16  C   UNL     1     -14.140  15.389  72.444  1.00  0.00    -0.549 A  
HETATM   17  C   UNL     1     -13.907  14.397  71.506  1.00  0.00    -0.455 A  
ENDBRANCH   6  12
TORSDOF 1
ENDMDL
MODEL       41
REMARK 921   NORMALIZED FREE ENERGY PREDICTED BY IDOCK:   -5.11 KCAL/MOL
REMARK 922        TOTAL FREE ENERGY PREDICTED BY IDOCK:   -5.56 KCAL/MOL
REMARK 923 INTER-LIGAND FREE ENERGY PREDICTED BY IDOCK:   -5.40 KCAL/MOL
REMARK 924 INTRA-LIGAND FREE ENERGY PREDICTED BY IDOCK:   -0.16 KCAL/MOL
REMARK 927      BINDING AFFINITY PREDICTED BY RF-SCORE:    0.00 PKD
ROOT
HETATM    1  N   UNL     1     -13.182  15.685  70.788  1.00  0.00    -0.728 NA 
HETATM    2  H1  UNL     1     -13.663  16.150  71.558  1.00  0.00     0.000 HD 
HETATM    3  C   UNL     1     -12.902  14.330  70.728  1.00  0.00    -0.337 C  
HETATM    4  H2  UNL     1     -13.695  15.917  69.938  1.00  0.00     0.000 HD 
HETATM    5  C   UNL     1     -12.267  13.717  69.714  1.00  0.00    -0.368 C  
HETATM    6  C   UNL     1     -12.005  12.286  69.710  1.00  0.00    -0.365 C  
HETATM    7  C   UNL     1     -12.390  11.553  70.769  1.00  0.00    -0.375 C  
HETATM    8  O   UNL     1     -14.033  13.939  72.808  1.00  0.00    -0.697 OA 
HETATM    9  N   UNL     1     -13.046  12.134  71.824  1.00  0.00    -0.420 N  
HETATM   10  C   UNL     1     -13.375  13.466  71.886  1.00  0.00    -0.451 C  
HETATM   11  H   UNL     1     -13.306  11.540  72.612  1.00  0.00     0.000 HD 
ENDROOT
BRANCH   6  12
HETATM   12  C   UNL     1     -11.368  11.589  68.582  1.00  0.00    -0.330 A  
HETATM   13  C   UNL     1     -10.851  10.304  68.762  1.00  0.00    -0.265 A  
HETATM   14  N   UNL     1     -10.119  10.251  66.467  1.00  0.00    -0.222 NA 
HETATM   15  C   UNL     1     -10.239   9.685  67.686  1.00  0.00    -0.216 A  
HETATM   16  C   UNL     1     -10.636  11.490  66.315  1.00  0.00    -0.263 A  
HETATM   17  C   UNL     1     -11.265  12.193  67.329  1.00  0.00    -0.366 A  
ENDBRANCH   6  12
TORSDOF 1
ENDMDL
MODEL       42
REMARK 921   NORMALIZED FREE ENERGY PREDICTED BY IDOCK:   -5.11 KCAL/MOL
REMARK 922        TOTAL FREE ENERGY PREDICTED BY IDOCK:   -5.56 KCAL/MOL
REMARK 923 INTER-LIGAND FREE ENERGY PREDICTED BY IDOCK:   -5.43 KCAL/MOL
REMARK 924 INTRA-LIGAND FREE ENERGY PREDICTED BY IDOCK:   -0.13 KCAL/MOL
REMARK 927      BINDING AFFINITY PREDICTED BY RF-SCORE:    0.00 PKD
ROOT
HETATM    1  N   UNL     1     -12.514  14.008  63.355  1.00  0.00    -1.123 NA 
HETATM    2  H1  UNL     1     -12.625  14.945  62.969  1.00  0.00     0.000 HD 
HETATM    3  C   UNL     1     -11.589  13.651  64.323  1.00  0.00    -0.382 C  
HETATM    4  H2  UNL     1     -13.429  13.724  63.705  1.00  0.00     0.000 HD 
HETATM    5  C   UNL     1     -11.442  12.416  64.832  1.00  0.00    -0.378 C  
HETATM    6  C   UNL     1     -10.451  12.106  65.852  1.00  0.00    -0.288 C  
HETATM    7  C   UNL     1      -9.637  13.085  66.284  1.00  0.00    -0.238 C  
HETATM    8  O   UNL     1     -10.822  15.917  64.517  1.00  0.00    -0.532 OA 
HETATM    9  N   UNL     1      -9.754  14.362  65.797  1.00  0.00    -0.477 N  
HETATM   10  C   UNL     1     -10.692  14.749  64.872  1.00  0.00    -0.417 C  
HETATM   11  H   UNL     1      -9.105  15.068  66.144  1.00  0.00     0.000 HD 
ENDROOT
BRANCH   6  12
HETATM   12  C   UNL     1     -10.318  10.776  66.464  1.00  0.00    -0.300 A  
HETATM   13  C   UNL     1     -10.751  10.569  67.776  1.00  0.00    -0.319 A  
HETATM   14  N   UNL     1     -10.046   8.266  67.670  1.00  0.00    -0.193 NA 
HETATM   15  C   UNL     1     -10.592   9.310  68.329  1.00  0.00    -0.189 A  
HETATM   16  C   UNL     1      -9.645   8.489  66.399  1.00  0.00    -0.245 A  
HETATM   17  C   UNL     1      -9.759   9.711  65.757  1.00  0.00    -0.350 A  
ENDBRANCH   6  12
TORSDOF 1
ENDMDL
MODEL       43
REMARK 921   NORMALIZED FREE ENERGY PREDICTED BY IDOCK:   -5.10 KCAL/MOL
REMARK 922        TOTAL FREE ENERGY PREDICTED BY IDOCK:   -5.55 KCAL/MOL
REMARK 923 INTER-LIGAND FREE ENERGY PREDICTED BY IDOCK:   -5.42 KCAL/MOL
REMARK 924 INTRA-LIGAND FREE ENERGY PREDICTED BY IDOCK:   -0.13 KCAL/MOL
REMARK 927      BINDING AFFINITY PREDICTED BY RF-SCORE:    0.00 PKD
ROOT
HETATM    1  N   UNL     1     -11.371  12.196  65.975  1.00  0.00    -0.344 NA 
HETATM    2  H1  UNL     1     -11.385  12.957  65.296  1.00  0.00     0.000 HD 
HETATM    3  C   UNL     1     -11.592  12.339  67.335  1.00  0.00    -0.355 C  
HETATM    4  H2  UNL     1     -12.032  11.494  65.643  1.00  0.00     0.000 HD 
HETATM    5  C   UNL     1     -11.574  11.337  68.230  1.00  0.00    -0.370 C  
HETATM    6  C   UNL     1     -11.818  11.553  69.649  1.00  0.00    -0.421 C  
HETATM    7  C   UNL     1     -12.046  12.804  70.084  1.00  0.00    -0.298 C  
HETATM    8  O   UNL     1     -12.024  14.686  67.082  1.00  0.00    -0.391 OA 
HETATM    9  N   UNL     1     -12.079  13.859  69.206  1.00  0.00    -0.349 N  
HETATM   10  C   UNL     1     -11.908  13.734  67.849  1.00  0.00    -0.378 C  
HETATM   11  H   UNL     1     -12.241  14.792  69.584  1.00  0.00     0.000 HD 
ENDROOT
BRANCH   6  12
HETATM   12  C   UNL     1     -11.863  10.461  70.632  1.00  0.00    -0.445 A  
HETATM   13  C   UNL     1     -10.721   9.694  70.871  1.00  0.00    -0.402 A  
HETATM   14  N   UNL     1     -11.928   8.353  72.470  1.00  0.00    -0.389 NA 
HETATM   15  C   UNL     1     -10.804   8.660  71.788  1.00  0.00    -0.325 A  
HETATM   16  C   UNL     1     -13.016   9.117  72.229  1.00  0.00    -0.420 A  
HETATM   17  C   UNL     1     -13.035  10.171  71.331  1.00  0.00    -0.528 A  
ENDBRANCH   6  12
TORSDOF 1
ENDMDL
MODEL       44
REMARK 921   NORMALIZED FREE ENERGY PREDICTED BY IDOCK:   -5.09 KCAL/MOL
REMARK 922        TOTAL FREE ENERGY PREDICTED BY IDOCK:   -5.54 KCAL/MOL
REMARK 923 INTER-LIGAND FREE ENERGY PREDICTED BY IDOCK:   -5.40 KCAL/MOL
REMARK 924 INTRA-LIGAND FREE ENERGY PREDICTED BY IDOCK:   -0.14 KCAL/MOL
REMARK 927      BINDING AFFINITY PREDICTED BY RF-SCORE:    0.00 PKD
ROOT
HETATM    1  N   UNL     1     -11.502  17.081  72.070  1.00  0.00    -0.097 NA 
HETATM    2  H1  UNL     1     -11.764  17.729  72.813  1.00  0.00     0.000 HD 
HETATM    3  C   UNL     1     -12.051  15.823  71.881  1.00  0.00    -0.465 C  
HETATM    4  H2  UNL     1     -11.612  17.584  71.189  1.00  0.00     0.000 HD 
HETATM    5  C   UNL     1     -11.706  14.969  70.903  1.00  0.00    -0.376 C  
HETATM    6  C   UNL     1     -12.323  13.659  70.757  1.00  0.00    -0.446 C  
HETATM    7  C   UNL     1     -13.256  13.280  71.647  1.00  0.00    -0.359 C  
HETATM    8  O   UNL     1     -13.575  16.144  73.707  1.00  0.00    -0.509 OA 
HETATM    9  N   UNL     1     -13.645  14.120  72.660  1.00  0.00    -0.529 N  
HETATM   10  C   UNL     1     -13.148  15.388  72.839  1.00  0.00    -0.492 C  
HETATM   11  H   UNL     1     -14.345  13.783  73.320  1.00  0.00     0.000 HD 
ENDROOT
BRANCH   6  12
HETATM   12  C   UNL     1     -12.003  12.738  69.657  1.00  0.00    -0.354 A  
HETATM   13  C   UNL     1     -11.671  11.411  69.936  1.00  0.00    -0.424 A  
HETATM   14  N   UNL     1     -11.355  10.970  67.588  1.00  0.00    -0.434 NA 
HETATM   15  C   UNL     1     -11.355  10.575  68.879  1.00  0.00    -0.251 A  
HETATM   16  C   UNL     1     -11.690  12.255  67.342  1.00  0.00    -0.335 A  
HETATM   17  C   UNL     1     -12.020  13.169  68.330  1.00  0.00    -0.324 A  
ENDBRANCH   6  12
TORSDOF 1
ENDMDL
MODEL       45
REMARK 921   NORMALIZED FREE ENERGY PREDICTED BY IDOCK:   -5.06 KCAL/MOL
REMARK 922        TOTAL FREE ENERGY PREDICTED BY IDOCK:   -5.50 KCAL/MOL
REMARK 923 INTER-LIGAND FREE ENERGY PREDICTED BY IDOCK:   -5.36 KCAL/MOL
REMARK 924 INTRA-LIGAND FREE ENERGY PREDICTED BY IDOCK:   -0.14 KCAL/MOL
REMARK 927      BINDING AFFINITY PREDICTED BY RF-SCORE:    0.00 PKD
ROOT
HETATM    1  N   UNL     1     -11.640  12.137  65.629  1.00  0.00    -0.368 NA 
HETATM    2  H1  UNL     1     -11.675  12.862  64.913  1.00  0.00     0.000 HD 
HETATM    3  C   UNL     1     -11.773  12.355  66.990  1.00  0.00    -0.353 C  
HETATM    4  H2  UNL     1     -12.339  11.439  65.374  1.00  0.00     0.000 HD 
HETATM    5  C   UNL     1     -11.727  11.400  67.934  1.00  0.00    -0.300 C  
HETATM    6  C   UNL     1     -11.877  11.695  69.351  1.00  0.00    -0.408 C  
HETATM    7  C   UNL     1     -12.043  12.973  69.732  1.00  0.00    -0.258 C  
HETATM    8  O   UNL     1     -12.155  14.699  66.641  1.00  0.00    -0.347 OA 
HETATM    9  N   UNL     1     -12.102  13.982  68.804  1.00  0.00    -0.471 N  
HETATM   10  C   UNL     1     -12.018  13.784  67.448  1.00  0.00    -0.388 C  
HETATM   11  H   UNL     1     -12.215  14.938  69.142  1.00  0.00     0.000 HD 
ENDROOT
BRANCH   6  12
HETATM   12  C   UNL     1     -11.891  10.656  70.391  1.00  0.00    -0.441 A  
HETATM   13  C   UNL     1     -13.029  10.482  71.183  1.00  0.00    -0.506 A  
HETATM   14  N   UNL     1     -11.938   8.711  72.401  1.00  0.00    -0.368 NA 
HETATM   15  C   UNL     1     -13.002   9.508  72.166  1.00  0.00    -0.412 A  
HETATM   16  C   UNL     1     -10.854   8.892  71.615  1.00  0.00    -0.349 A  
HETATM   17  C   UNL     1     -10.782   9.839  70.607  1.00  0.00    -0.394 A  
ENDBRANCH   6  12
TORSDOF 1
ENDMDL
MODEL       46
REMARK 921   NORMALIZED FREE ENERGY PREDICTED BY IDOCK:   -5.04 KCAL/MOL
REMARK 922        TOTAL FREE ENERGY PREDICTED BY IDOCK:   -5.48 KCAL/MOL
REMARK 923 INTER-LIGAND FREE ENERGY PREDICTED BY IDOCK:   -5.34 KCAL/MOL
REMARK 924 INTRA-LIGAND FREE ENERGY PREDICTED BY IDOCK:   -0.14 KCAL/MOL
REMARK 927      BINDING AFFINITY PREDICTED BY RF-SCORE:    0.00 PKD
ROOT
HETATM    1  N   UNL     1     -14.259   8.966  73.099  1.00  0.00    -1.200 NA 
HETATM    2  H1  UNL     1     -14.676   9.836  73.430  1.00  0.00     0.000 HD 
HETATM    3  C   UNL     1     -13.238   8.877  72.167  1.00  0.00    -0.429 C  
HETATM    4  H2  UNL     1     -13.946   8.457  73.926  1.00  0.00     0.000 HD 
HETATM    5  C   UNL     1     -12.688   7.731  71.730  1.00  0.00    -0.354 C  
HETATM    6  C   UNL     1     -11.614   7.706  70.749  1.00  0.00    -0.284 C  
HETATM    7  C   UNL     1     -11.172   8.869  70.242  1.00  0.00    -0.197 C  
HETATM    8  O   UNL     1     -13.072  11.267  72.027  1.00  0.00    -0.495 OA 
HETATM    9  N   UNL     1     -11.699  10.065  70.661  1.00  0.00    -0.312 N  
HETATM   10  C   UNL     1     -12.679  10.179  71.616  1.00  0.00    -0.447 C  
HETATM   11  H   UNL     1     -11.341  10.921  70.238  1.00  0.00     0.000 HD 
ENDROOT
BRANCH   6  12
HETATM   12  C   UNL     1     -10.959   6.466  70.307  1.00  0.00    -0.378 A  
HETATM   13  C   UNL     1     -10.483   5.556  71.254  1.00  0.00    -0.306 A  
HETATM   14  N   UNL     1      -9.677   4.115  69.498  1.00  0.00    -0.207 NA 
HETATM   15  C   UNL     1      -9.853   4.409  70.804  1.00  0.00    -0.203 A  
HETATM   16  C   UNL     1     -10.156   5.005  68.602  1.00  0.00    -0.121 A  
HETATM   17  C   UNL     1     -10.799   6.181  68.951  1.00  0.00    -0.406 A  
ENDBRANCH   6  12
TORSDOF 1
ENDMDL
MODEL       47
REMARK 921   NORMALIZED FREE ENERGY PREDICTED BY IDOCK:   -5.03 KCAL/MOL
REMARK 922        TOTAL FREE ENERGY PREDICTED BY IDOCK:   -5.47 KCAL/MOL
REMARK 923 INTER-LIGAND FREE ENERGY PREDICTED BY IDOCK:   -5.32 KCAL/MOL
REMARK 924 INTRA-LIGAND FREE ENERGY PREDICTED BY IDOCK:   -0.15 KCAL/MOL
REMARK 927      BINDING AFFINITY PREDICTED BY RF-SCORE:    0.00 PKD
ROOT
HETATM    1  N   UNL     1     -10.033  20.099  66.125  1.00  0.00    -0.575 NA 
HETATM    2  H1  UNL     1      -9.856  20.994  66.581  1.00  0.00     0.000 HD 
HETATM    3  C   UNL     1     -10.167  18.886  66.780  1.00  0.00    -0.394 C  
HETATM    4  H2  UNL     1     -10.871  20.220  65.556  1.00  0.00     0.000 HD 
HETATM    5  C   UNL     1     -10.400  17.706  66.179  1.00  0.00    -0.334 C  
HETATM    6  C   UNL     1     -10.533  16.464  66.926  1.00  0.00    -0.289 C  
HETATM    7  C   UNL     1     -10.396  16.493  68.262  1.00  0.00    -0.293 C  
HETATM    8  O   UNL     1      -9.943  19.944  68.922  1.00  0.00    -0.409 OA 
HETATM    9  N   UNL     1     -10.163  17.675  68.920  1.00  0.00    -0.371 N  
HETATM   10  C   UNL     1     -10.072  18.895  68.297  1.00  0.00    -0.388 C  
HETATM   11  H   UNL     1     -10.051  17.645  69.933  1.00  0.00     0.000 HD 
ENDROOT
BRANCH   6  12
HETATM   12  C   UNL     1     -10.850  15.176  66.291  1.00  0.00    -0.333 A  
HETATM   13  C   UNL     1     -11.635  14.241  66.970  1.00  0.00    -0.406 A  
HETATM   14  N   UNL     1     -11.440  12.702  65.125  1.00  0.00    -0.314 NA 
HETATM   15  C   UNL     1     -11.896  13.030  66.353  1.00  0.00    -0.405 A  
HETATM   16  C   UNL     1     -10.691  13.627  64.485  1.00  0.00    -0.407 A  
HETATM   17  C   UNL     1     -10.373  14.865  65.017  1.00  0.00    -0.401 A  
ENDBRANCH   6  12
TORSDOF 1
ENDMDL
MODEL       48
REMARK 921   NORMALIZED FREE ENERGY PREDICTED BY IDOCK:   -4.97 KCAL/MOL
REMARK 922        TOTAL FREE ENERGY PREDICTED BY IDOCK:   -5.41 KCAL/MOL
REMARK 923 INTER-LIGAND FREE ENERGY PREDICTED BY IDOCK:   -5.26 KCAL/MOL
REMARK 924 INTRA-LIGAND FREE ENERGY PREDICTED BY IDOCK:   -0.15 KCAL/MOL
REMARK 927      BINDING AFFINITY PREDICTED BY RF-SCORE:    0.00 PKD
ROOT
HETATM    1  N   UNL     1     -10.686   8.236  68.312  1.00  0.00    -0.428 NA 
HETATM    2  H1  UNL     1     -10.310   7.730  69.114  1.00  0.00     0.000 HD 
HETATM    3  C   UNL     1     -10.658   9.612  68.154  1.00  0.00    -0.226 C  
HETATM    4  H2  UNL     1     -10.248   7.837  67.482  1.00  0.00     0.000 HD 
HETATM    5  C   UNL     1     -11.153  10.278  67.098  1.00  0.00    -0.165 C  
HETATM    6  C   UNL     1     -11.090  11.728  66.991  1.00  0.00    -0.358 C  
HETATM    7  C   UNL     1     -10.537  12.429  67.996  1.00  0.00    -0.221 C  
HETATM    8  O   UNL     1      -9.441   9.886  70.205  1.00  0.00    -0.237 OA 
HETATM    9  N   UNL     1     -10.013  11.791  69.092  1.00  0.00    -0.410 N  
HETATM   10  C   UNL     1      -9.989  10.428  69.249  1.00  0.00    -0.228 C  
HETATM   11  H   UNL     1      -9.618  12.366  69.836  1.00  0.00     0.000 HD 
ENDROOT
BRANCH   6  12
HETATM   12  C   UNL     1     -11.570  12.469  65.815  1.00  0.00    -0.439 A  
HETATM   13  C   UNL     1     -11.513  11.878  64.551  1.00  0.00    -0.363 A  
HETATM   14  N   UNL     1     -12.444  13.865  63.553  1.00  0.00    -0.812 NA 
HETATM   15  C   UNL     1     -11.954  12.610  63.462  1.00  0.00    -0.548 A  
HETATM   16  C   UNL     1     -12.498  14.411  64.788  1.00  0.00    -0.357 A  
HETATM   17  C   UNL     1     -12.081  13.761  65.938  1.00  0.00    -0.464 A  
ENDBRANCH   6  12
TORSDOF 1
ENDMDL
MODEL       49
REMARK 921   NORMALIZED FREE ENERGY PREDICTED BY IDOCK:   -4.94 KCAL/MOL
REMARK 922        TOTAL FREE ENERGY PREDICTED BY IDOCK:   -5.38 KCAL/MOL
REMARK 923 INTER-LIGAND FREE ENERGY PREDICTED BY IDOCK:   -5.23 KCAL/MOL
REMARK 924 INTRA-LIGAND FREE ENERGY PREDICTED BY IDOCK:   -0.15 KCAL/MOL
REMARK 927      BINDING AFFINITY PREDICTED BY RF-SCORE:    0.00 PKD
ROOT
HETATM    1  N   UNL     1     -12.075   9.480  70.056  1.00  0.00    -0.433 NA 
HETATM    2  H1  UNL     1     -12.410   8.636  70.521  1.00  0.00     0.000 HD 
HETATM    3  C   UNL     1     -12.331  10.775  70.476  1.00  0.00    -0.369 C  
HETATM    4  H2  UNL     1     -11.062   9.391  69.981  1.00  0.00     0.000 HD 
HETATM    5  C   UNL     1     -11.890  11.887  69.864  1.00  0.00    -0.418 C  
HETATM    6  C   UNL     1     -12.192  13.222  70.359  1.00  0.00    -0.404 C  
HETATM    7  C   UNL     1     -12.960  13.348  71.455  1.00  0.00    -0.328 C  
HETATM    8  O   UNL     1     -13.519   9.982  72.405  1.00  0.00    -0.364 OA 
HETATM    9  N   UNL     1     -13.429  12.241  72.117  1.00  0.00    -0.504 N  
HETATM   10  C   UNL     1     -13.151  10.949  71.745  1.00  0.00    -0.459 C  
HETATM   11  H   UNL     1     -14.020  12.387  72.935  1.00  0.00     0.000 HD 
ENDROOT
BRANCH   6  12
HETATM   12  C   UNL     1     -11.667  14.447  69.738  1.00  0.00    -0.361 A  
HETATM   13  C   UNL     1     -11.233  15.502  70.543  1.00  0.00    -0.365 A  
HETATM   14  N   UNL     1     -10.694  16.804  68.588  1.00  0.00    -0.342 NA 
HETATM   15  C   UNL     1     -10.763  16.649  69.927  1.00  0.00    -0.202 A  
HETATM   16  C   UNL     1     -11.110  15.765  67.831  1.00  0.00    -0.326 A  
HETATM   17  C   UNL     1     -11.597  14.577  68.351  1.00  0.00    -0.356 A  
ENDBRANCH   6  12
TORSDOF 1
ENDMDL
MODEL       50
REMARK 921   NORMALIZED FREE ENERGY PREDICTED BY IDOCK:   -4.93 KCAL/MOL
REMARK 922        TOTAL FREE ENERGY PREDICTED BY IDOCK:   -5.37 KCAL/MOL
REMARK 923 INTER-LIGAND FREE ENERGY PREDICTED BY IDOCK:   -5.21 KCAL/MOL
REMARK 924 INTRA-LIGAND FREE ENERGY PREDICTED BY IDOCK:   -0.16 KCAL/MOL
REMARK 927      BINDING AFFINITY PREDICTED BY RF-SCORE:    0.00 PKD
ROOT
HETATM    1  N   UNL     1      -8.999  14.298  66.440  1.00  0.00    -0.479 NA 
HETATM    2  H1  UNL     1      -8.598  14.944  65.760  1.00  0.00     0.000 HD 
HETATM    3  C   UNL     1      -9.924  14.639  67.412  1.00  0.00    -0.231 C  
HETATM    4  H2  UNL     1      -9.402  13.527  65.908  1.00  0.00     0.000 HD 
HETATM    5  C   UNL     1     -10.452  13.787  68.308  1.00  0.00    -0.251 C  
HETATM    6  C   UNL     1     -11.425  14.209  69.305  1.00  0.00    -0.337 C  
HETATM    7  C   UNL     1     -11.790  15.502  69.348  1.00  0.00    -0.374 C  
HETATM    8  O   UNL     1     -10.025  16.900  66.614  1.00  0.00    -0.271 OA 
HETATM    9  N   UNL     1     -11.282  16.406  68.451  1.00  0.00    -0.361 N  
HETATM   10  C   UNL     1     -10.399  16.082  67.450  1.00  0.00    -0.294 C  
HETATM   11  H   UNL     1     -11.577  17.379  68.532  1.00  0.00     0.000 HD 
ENDROOT
BRANCH   6  12
HETATM   12  C   UNL     1     -12.059  13.280  70.252  1.00  0.00    -0.405 A  
HETATM   13  C   UNL     1     -11.915  11.902  70.074  1.00  0.00    -0.409 A  
HETATM   14  N   UNL     1     -13.283  11.485  72.014  1.00  0.00    -0.462 NA 
HETATM   15  C   UNL     1     -12.543  11.055  70.971  1.00  0.00    -0.411 A  
HETATM   16  C   UNL     1     -13.399  12.822  72.171  1.00  0.00    -0.492 A  
HETATM   17  C   UNL     1     -12.811  13.751  71.328  1.00  0.00    -0.434 A  
ENDBRANCH   6  12
TORSDOF 1
ENDMDL
MODEL       51
REMARK 921   NORMALIZED FREE ENERGY PREDICTED BY IDOCK:   -4.91 KCAL/MOL
REMARK 922        TOTAL FREE ENERGY PREDICTED BY IDOCK:   -5.35 KCAL/MOL
REMARK 923 INTER-LIGAND FREE ENERGY PREDICTED BY IDOCK:   -5.20 KCAL/MOL
REMARK 924 INTRA-LIGAND FREE ENERGY PREDICTED BY IDOCK:   -0.15 KCAL/MOL
REMARK 927      BINDING AFFINITY PREDICTED BY RF-SCORE:    0.00 PKD
ROOT
HETATM    1  N   UNL     1     -13.576  12.583  72.703  1.00  0.00    -0.617 NA 
HETATM    2  H1  UNL     1     -14.012  12.033  73.443  1.00  0.00     0.000 HD 
HETATM    3  C   UNL     1     -12.971  12.058  71.573  1.00  0.00    -0.304 C  
HETATM    4  H2  UNL     1     -14.278  13.247  72.378  1.00  0.00     0.000 HD 
HETATM    5  C   UNL     1     -12.396  12.782  70.598  1.00  0.00    -0.381 C  
HETATM    6  C   UNL     1     -11.777  12.169  69.432  1.00  0.00    -0.391 C  
HETATM    7  C   UNL     1     -11.759  10.828  69.338  1.00  0.00    -0.306 C  
HETATM    8  O   UNL     1     -13.561   9.823  72.217  1.00  0.00    -0.425 OA 
HETATM    9  N   UNL     1     -12.339  10.047  70.306  1.00  0.00    -0.493 N  
HETATM   10  C   UNL     1     -12.983  10.546  71.411  1.00  0.00    -0.440 C  
HETATM   11  H   UNL     1     -12.287   9.035  70.198  1.00  0.00     0.000 HD 
ENDROOT
BRANCH   6  12
HETATM   12  C   UNL     1     -11.199  12.947  68.326  1.00  0.00    -0.304 A  
HETATM   13  C   UNL     1     -11.891  14.047  67.815  1.00  0.00    -0.419 A  
HETATM   14  N   UNL     1     -10.143  14.427  66.201  1.00  0.00    -0.296 NA 
HETATM   15  C   UNL     1     -11.329  14.745  66.760  1.00  0.00    -0.346 A  
HETATM   16  C   UNL     1      -9.487  13.366  66.720  1.00  0.00    -0.261 A  
HETATM   17  C   UNL     1      -9.966  12.602  67.772  1.00  0.00    -0.218 A  
ENDBRANCH   6  12
TORSDOF 1
ENDMDL
MODEL       52
REMARK 921   NORMALIZED FREE ENERGY PREDICTED BY IDOCK:   -4.91 KCAL/MOL
REMARK 922        TOTAL FREE ENERGY PREDICTED BY IDOCK:   -5.34 KCAL/MOL
REMARK 923 INTER-LIGAND FREE ENERGY PREDICTED BY IDOCK:   -5.20 KCAL/MOL
REMARK 924 INTRA-LIGAND FREE ENERGY PREDICTED BY IDOCK:   -0.14 KCAL/MOL
REMARK 927      BINDING AFFINITY PREDICTED BY RF-SCORE:    0.00 PKD
ROOT
HETATM    1  N   UNL     1     -13.060  14.047  65.722  1.00  0.00    -0.587 NA 
HETATM    2  H1  UNL     1     -13.614  14.679  65.144  1.00  0.00     0.000 HD 
HETATM    3  C   UNL     1     -12.192  13.082  65.240  1.00  0.00    -0.466 C  
HETATM    4  H2  UNL     1     -12.522  14.631  66.363  1.00  0.00     0.000 HD 
HETATM    5  C   UNL     1     -11.462  12.249  66.002  1.00  0.00    -0.434 C  
HETATM    6  C   UNL     1     -10.564  11.256  65.432  1.00  0.00    -0.312 C  
HETATM    7  C   UNL     1     -10.479  11.151  64.095  1.00  0.00    -0.377 C  
HETATM    8  O   UNL     1     -12.600  13.756  62.973  1.00  0.00    -0.721 OA 
HETATM    9  N   UNL     1     -11.200  11.983  63.276  1.00  0.00    -0.691 N  
HETATM   10  C   UNL     1     -12.031  12.976  63.732  1.00  0.00    -0.518 C  
HETATM   11  H   UNL     1     -11.114  11.856  62.268  1.00  0.00     0.000 HD 
ENDROOT
BRANCH   6  12
HETATM   12  C   UNL     1      -9.712  10.379  66.250  1.00  0.00    -0.256 A  
HETATM   13  C   UNL     1      -9.678   9.007  65.993  1.00  0.00    -0.339 A  
HETATM   14  N   UNL     1      -8.129   8.682  67.811  1.00  0.00    -0.107 NA 
HETATM   15  C   UNL     1      -8.881   8.208  66.795  1.00  0.00    -0.138 A  
HETATM   16  C   UNL     1      -8.172  10.014  68.033  1.00  0.00    -0.116 A  
HETATM   17  C   UNL     1      -8.937  10.896  67.288  1.00  0.00    -0.139 A  
ENDBRANCH   6  12
TORSDOF 1
ENDMDL
MODEL       53
REMARK 921   NORMALIZED FREE ENERGY PREDICTED BY IDOCK:   -4.87 KCAL/MOL
REMARK 922        TOTAL FREE ENERGY PREDICTED BY IDOCK:   -5.30 KCAL/MOL
REMARK 923 INTER-LIGAND FREE ENERGY PREDICTED BY IDOCK:   -5.16 KCAL/MOL
REMARK 924 INTRA-LIGAND FREE ENERGY PREDICTED BY IDOCK:   -0.14 KCAL/MOL
REMARK 927      BINDING AFFINITY PREDICTED BY RF-SCORE:    0.00 PKD
ROOT
HETATM    1  N   UNL     1     -11.214  16.798  64.286  1.00  0.00    -1.365 NA 
HETATM    2  H1  UNL     1     -11.030  17.757  63.989  1.00  0.00     0.000 HD 
HETATM    3  C   UNL     1     -10.929  16.285  65.540  1.00  0.00    -0.149 C  
HETATM    4  H2  UNL     1     -12.205  16.624  64.116  1.00  0.00     0.000 HD 
HETATM    5  C   UNL     1     -11.171  15.023  65.932  1.00  0.00    -0.313 C  
HETATM    6  C   UNL     1     -10.849  14.545  67.268  1.00  0.00    -0.297 C  
HETATM    7  C   UNL     1     -10.266  15.390  68.136  1.00  0.00    -0.230 C  
HETATM    8  O   UNL     1     -10.146  18.421  66.306  1.00  0.00    -0.371 OA 
HETATM    9  N   UNL     1     -10.005  16.690  67.783  1.00  0.00    -0.256 N  
HETATM   10  C   UNL     1     -10.320  17.233  66.562  1.00  0.00    -0.308 C  
HETATM   11  H   UNL     1      -9.548  17.290  68.470  1.00  0.00     0.000 HD 
ENDROOT
BRANCH   6  12
HETATM   12  C   UNL     1     -11.163  13.186  67.733  1.00  0.00    -0.308 A  
HETATM   13  C   UNL     1     -11.857  13.005  68.932  1.00  0.00    -0.358 A  
HETATM   14  N   UNL     1     -11.747  10.612  68.662  1.00  0.00    -0.358 NA 
HETATM   15  C   UNL     1     -12.118  11.712  69.351  1.00  0.00    -0.263 A  
HETATM   16  C   UNL     1     -11.087  10.814  67.500  1.00  0.00    -0.308 A  
HETATM   17  C   UNL     1     -10.776  12.066  66.997  1.00  0.00    -0.280 A  
ENDBRANCH   6  12
TORSDOF 1
ENDMDL
MODEL       54
REMARK 921   NORMALIZED FREE ENERGY PREDICTED BY IDOCK:   -4.86 KCAL/MOL
REMARK 922        TOTAL FREE ENERGY PREDICTED BY IDOCK:   -5.29 KCAL/MOL
REMARK 923 INTER-LIGAND FREE ENERGY PREDICTED BY IDOCK:   -5.16 KCAL/MOL
REMARK 924 INTRA-LIGAND FREE ENERGY PREDICTED BY IDOCK:   -0.13 KCAL/MOL
REMARK 927      BINDING AFFINITY PREDICTED BY RF-SCORE:    0.00 PKD
ROOT
HETATM    1  N   UNL     1     -10.630  17.407  69.068  1.00  0.00    -0.353 NA 
HETATM    2  H1  UNL     1     -10.763  17.883  69.960  1.00  0.00     0.000 HD 
HETATM    3  C   UNL     1     -11.107  16.143  68.762  1.00  0.00    -0.354 C  
HETATM    4  H2  UNL     1     -10.979  18.035  68.345  1.00  0.00     0.000 HD 
HETATM    5  C   UNL     1     -10.932  15.515  67.587  1.00  0.00    -0.315 C  
HETATM    6  C   UNL     1     -11.463  14.185  67.327  1.00  0.00    -0.371 C  
HETATM    7  C   UNL     1     -12.132  13.551  68.305  1.00  0.00    -0.260 C  
HETATM    8  O   UNL     1     -12.188  15.965  70.897  1.00  0.00    -0.405 OA 
HETATM    9  N   UNL     1     -12.340  14.155  69.519  1.00  0.00    -0.463 N  
HETATM   10  C   UNL     1     -11.916  15.423  69.829  1.00  0.00    -0.358 C  
HETATM   11  H   UNL     1     -12.841  13.629  70.236  1.00  0.00     0.000 HD 
ENDROOT
BRANCH   6  12
HETATM   12  C   UNL     1     -11.335  13.509  66.027  1.00  0.00    -0.327 A  
HETATM   13  C   UNL     1     -12.415  13.494  65.143  1.00  0.00    -0.495 A  
HETATM   14  N   UNL     1     -11.134  12.202  63.562  1.00  0.00    -0.441 NA 
HETATM   15  C   UNL     1     -12.268  12.831  63.936  1.00  0.00    -0.463 A  
HETATM   16  C   UNL     1     -10.099  12.240  64.430  1.00  0.00    -0.270 A  
HETATM   17  C   UNL     1     -10.148  12.875  65.661  1.00  0.00    -0.282 A  
ENDBRANCH   6  12
TORSDOF 1
ENDMDL
MODEL       55
REMARK 921   NORMALIZED FREE ENERGY PREDICTED BY IDOCK:   -4.84 KCAL/MOL
REMARK 922        TOTAL FREE ENERGY PREDICTED BY IDOCK:   -5.27 KCAL/MOL
REMARK 923 INTER-LIGAND FREE ENERGY PREDICTED BY IDOCK:   -5.11 KCAL/MOL
REMARK 924 INTRA-LIGAND FREE ENERGY PREDICTED BY IDOCK:   -0.16 KCAL/MOL
REMARK 927      BINDING AFFINITY PREDICTED BY RF-SCORE:    0.00 PKD
ROOT
HETATM    1  N   UNL     1     -12.172  16.550  72.013  1.00  0.00    -0.528 NA 
HETATM    2  H1  UNL     1     -12.498  16.667  72.972  1.00  0.00     0.000 HD 
HETATM    3  C   UNL     1     -12.208  15.364  71.300  1.00  0.00    -0.371 C  
HETATM    4  H2  UNL     1     -12.661  17.246  71.449  1.00  0.00     0.000 HD 
HETATM    5  C   UNL     1     -11.779  15.209  70.036  1.00  0.00    -0.341 C  
HETATM    6  C   UNL     1     -11.847  13.932  69.340  1.00  0.00    -0.384 C  
HETATM    7  C   UNL     1     -12.335  12.863  69.992  1.00  0.00    -0.129 C  
HETATM    8  O   UNL     1     -13.296  14.232  73.115  1.00  0.00    -0.643 OA 
HETATM    9  N   UNL     1     -12.791  12.975  71.281  1.00  0.00    -0.333 N  
HETATM   10  C   UNL     1     -12.807  14.149  71.992  1.00  0.00    -0.338 C  
HETATM   11  H   UNL     1     -13.139  12.133  71.740  1.00  0.00     0.000 HD 
ENDROOT
BRANCH   6  12
HETATM   12  C   UNL     1     -11.439  13.759  67.937  1.00  0.00    -0.347 A  
HETATM   13  C   UNL     1     -11.672  12.543  67.291  1.00  0.00    -0.431 A  
HETATM   14  N   UNL     1     -10.645  13.387  65.281  1.00  0.00    -0.312 NA 
HETATM   15  C   UNL     1     -11.257  12.407  65.978  1.00  0.00    -0.335 A  
HETATM   16  C   UNL     1     -10.440  14.558  65.924  1.00  0.00    -0.312 A  
HETATM   17  C   UNL     1     -10.816  14.792  67.237  1.00  0.00    -0.309 A  
ENDBRANCH   6  12
TORSDOF 1
ENDMDL
MODEL       56
REMARK 921   NORMALIZED FREE ENERGY PREDICTED BY IDOCK:   -4.79 KCAL/MOL
REMARK 922        TOTAL FREE ENERGY PREDICTED BY IDOCK:   -5.22 KCAL/MOL
REMARK 923 INTER-LIGAND FREE ENERGY PREDICTED BY IDOCK:   -5.08 KCAL/MOL
REMARK 924 INTRA-LIGAND FREE ENERGY PREDICTED BY IDOCK:   -0.14 KCAL/MOL
REMARK 927      BINDING AFFINITY PREDICTED BY RF-SCORE:    0.00 PKD
ROOT
HETATM    1  N   UNL     1      -9.448  12.930  65.636  1.00  0.00    -0.467 NA 
HETATM    2  H1  UNL     1      -9.720  11.950  65.564  1.00  0.00     0.000 HD 
HETATM    3  C   UNL     1     -10.135  13.895  66.355  1.00  0.00    -0.295 C  
HETATM    4  H2  UNL     1      -8.486  12.944  65.973  1.00  0.00     0.000 HD 
HETATM    5  C   UNL     1      -9.777  15.187  66.450  1.00  0.00    -0.300 C  
HETATM    6  C   UNL     1     -10.542  16.153  67.224  1.00  0.00    -0.305 C  
HETATM    7  C   UNL     1     -11.660  15.744  67.848  1.00  0.00    -0.151 C  
HETATM    8  O   UNL     1     -11.716  12.273  67.146  1.00  0.00    -0.419 OA 
HETATM    9  N   UNL     1     -12.062  14.434  67.784  1.00  0.00    -0.596 N  
HETATM   10  C   UNL     1     -11.373  13.451  67.117  1.00  0.00    -0.315 C  
HETATM   11  H   UNL     1     -12.925  14.174  68.262  1.00  0.00     0.000 HD 
ENDROOT
BRANCH   6  12
HETATM   12  C   UNL     1     -10.131  17.556  67.391  1.00  0.00    -0.325 A  
HETATM   13  C   UNL     1      -9.852  18.335  66.266  1.00  0.00    -0.323 A  
HETATM   14  N   UNL     1      -9.314  20.216  67.675  1.00  0.00    -0.364 NA 
HETATM   15  C   UNL     1      -9.448  19.645  66.459  1.00  0.00    -0.384 A  
HETATM   16  C   UNL     1      -9.600  19.444  68.746  1.00  0.00    -0.432 A  
HETATM   17  C   UNL     1     -10.010  18.124  68.659  1.00  0.00    -0.409 A  
ENDBRANCH   6  12
TORSDOF 1
ENDMDL
MODEL       57
REMARK 921   NORMALIZED FREE ENERGY PREDICTED BY IDOCK:   -4.77 KCAL/MOL
REMARK 922        TOTAL FREE ENERGY PREDICTED BY IDOCK:   -5.20 KCAL/MOL
REMARK 923 INTER-LIGAND FREE ENERGY PREDICTED BY IDOCK:   -5.07 KCAL/MOL
REMARK 924 INTRA-LIGAND FREE ENERGY PREDICTED BY IDOCK:   -0.13 KCAL/MOL
REMARK 927      BINDING AFFINITY PREDICTED BY RF-SCORE:    0.00 PKD
ROOT
HETATM    1  N   UNL     1     -10.424  18.802  65.682  1.00  0.00    -0.585 NA 
HETATM    2  H1  UNL     1     -10.235  19.621  66.260  1.00  0.00     0.000 HD 
HETATM    3  C   UNL     1     -10.503  17.500  66.147  1.00  0.00    -0.288 C  
HETATM    4  H2  UNL     1     -11.295  18.989  65.184  1.00  0.00     0.000 HD 
HETATM    5  C   UNL     1     -10.751  16.422  65.385  1.00  0.00    -0.310 C  
HETATM    6  C   UNL     1     -10.824  15.077  65.937  1.00  0.00    -0.339 C  
HETATM    7  C   UNL     1     -10.611  14.904  67.253  1.00  0.00    -0.272 C  
HETATM    8  O   UNL     1     -10.174  18.222  68.412  1.00  0.00    -0.366 OA 
HETATM    9  N   UNL     1     -10.359  15.976  68.071  1.00  0.00    -0.259 N  
HETATM   10  C   UNL     1     -10.322  17.279  67.640  1.00  0.00    -0.350 C  
HETATM   11  H   UNL     1     -10.190  15.794  69.060  1.00  0.00     0.000 HD 
ENDROOT
BRANCH   6  12
HETATM   12  C   UNL     1     -11.156  13.894  65.129  1.00  0.00    -0.334 A  
HETATM   13  C   UNL     1     -10.163  13.267  64.373  1.00  0.00    -0.300 A  
HETATM   14  N   UNL     1     -11.765  11.663  63.555  1.00  0.00    -0.380 NA 
HETATM   15  C   UNL     1     -10.514  12.169  63.608  1.00  0.00    -0.460 A  
HETATM   16  C   UNL     1     -12.705  12.280  64.303  1.00  0.00    -0.315 A  
HETATM   17  C   UNL     1     -12.455  13.385  65.100  1.00  0.00    -0.509 A  
ENDBRANCH   6  12
TORSDOF 1
ENDMDL
MODEL       58
REMARK 921   NORMALIZED FREE ENERGY PREDICTED BY IDOCK:   -4.77 KCAL/MOL
REMARK 922        TOTAL FREE ENERGY PREDICTED BY IDOCK:   -5.20 KCAL/MOL
REMARK 923 INTER-LIGAND FREE ENERGY PREDICTED BY IDOCK:   -5.05 KCAL/MOL
REMARK 924 INTRA-LIGAND FREE ENERGY PREDICTED BY IDOCK:   -0.14 KCAL/MOL
REMARK 927      BINDING AFFINITY PREDICTED BY RF-SCORE:    0.00 PKD
ROOT
HETATM    1  N   UNL     1      -8.490  18.673  65.872  1.00  0.00    -0.461 NA 
HETATM    2  H1  UNL     1      -8.171  19.629  66.028  1.00  0.00     0.000 HD 
HETATM    3  C   UNL     1      -9.291  17.950  66.740  1.00  0.00    -0.275 C  
HETATM    4  H2  UNL     1      -8.958  18.664  64.965  1.00  0.00     0.000 HD 
HETATM    5  C   UNL     1      -9.713  16.690  66.534  1.00  0.00    -0.291 C  
HETATM    6  C   UNL     1     -10.557  15.985  67.487  1.00  0.00    -0.313 C  
HETATM    7  C   UNL     1     -10.910  16.607  68.625  1.00  0.00    -0.344 C  
HETATM    8  O   UNL     1      -9.478  19.823  68.229  1.00  0.00    -0.348 OA 
HETATM    9  N   UNL     1     -10.508  17.895  68.876  1.00  0.00    -0.398 N  
HETATM   10  C   UNL     1      -9.752  18.646  68.010  1.00  0.00    -0.321 C  
HETATM   11  H   UNL     1     -10.788  18.320  69.759  1.00  0.00     0.000 HD 
ENDROOT
BRANCH   6  12
HETATM   12  C   UNL     1     -11.078  14.630  67.250  1.00  0.00    -0.331 A  
HETATM   13  C   UNL     1     -11.652  14.313  66.017  1.00  0.00    -0.362 A  
HETATM   14  N   UNL     1     -12.109  12.073  66.779  1.00  0.00    -0.542 NA 
HETATM   15  C   UNL     1     -12.151  13.035  65.834  1.00  0.00    -0.444 A  
HETATM   16  C   UNL     1     -11.539  12.401  67.959  1.00  0.00    -0.347 A  
HETATM   17  C   UNL     1     -11.013  13.651  68.241  1.00  0.00    -0.275 A  
ENDBRANCH   6  12
TORSDOF 1
ENDMDL
MODEL       59
REMARK 921   NORMALIZED FREE ENERGY PREDICTED BY IDOCK:   -4.76 KCAL/MOL
REMARK 922        TOTAL FREE ENERGY PREDICTED BY IDOCK:   -5.19 KCAL/MOL
REMARK 923 INTER-LIGAND FREE ENERGY PREDICTED BY IDOCK:   -5.06 KCAL/MOL
REMARK 924 INTRA-LIGAND FREE ENERGY PREDICTED BY IDOCK:   -0.13 KCAL/MOL
REMARK 927      BINDING AFFINITY PREDICTED BY RF-SCORE:    0.00 PKD
ROOT
HETATM    1  N   UNL     1     -13.407  10.631  72.226  1.00  0.00    -0.581 NA 
HETATM    2  H1  UNL     1     -13.907  10.816  73.095  1.00  0.00     0.000 HD 
HETATM    3  C   UNL     1     -12.928  11.601  71.361  1.00  0.00    -0.324 C  
HETATM    4  H2  UNL     1     -12.614  10.035  72.465  1.00  0.00     0.000 HD 
HETATM    5  C   UNL     1     -12.268  11.358  70.216  1.00  0.00    -0.433 C  
HETATM    6  C   UNL     1     -11.788  12.425  69.350  1.00  0.00    -0.365 C  
HETATM    7  C   UNL     1     -12.034  13.700  69.696  1.00  0.00    -0.343 C  
HETATM    8  O   UNL     1     -13.662  13.357  72.823  1.00  0.00    -0.697 OA 
HETATM    9  N   UNL     1     -12.699  13.997  70.859  1.00  0.00    -0.345 N  
HETATM   10  C   UNL     1     -13.142  13.054  71.753  1.00  0.00    -0.373 C  
HETATM   11  H   UNL     1     -12.875  14.979  71.072  1.00  0.00     0.000 HD 
ENDROOT
BRANCH   6  12
HETATM   12  C   UNL     1     -11.011  12.178  68.126  1.00  0.00    -0.271 A  
HETATM   13  C   UNL     1      -9.628  12.002  68.206  1.00  0.00    -0.204 A  
HETATM   14  N   UNL     1      -9.500  11.742  65.813  1.00  0.00    -0.233 NA 
HETATM   15  C   UNL     1      -8.924  11.793  67.032  1.00  0.00    -0.186 A  
HETATM   16  C   UNL     1     -10.840  11.904  65.764  1.00  0.00    -0.295 A  
HETATM   17  C   UNL     1     -11.633  12.121  66.879  1.00  0.00    -0.408 A  
ENDBRANCH   6  12
TORSDOF 1
ENDMDL
MODEL       60
REMARK 921   NORMALIZED FREE ENERGY PREDICTED BY IDOCK:   -4.75 KCAL/MOL
REMARK 922        TOTAL FREE ENERGY PREDICTED BY IDOCK:   -5.18 KCAL/MOL
REMARK 923 INTER-LIGAND FREE ENERGY PREDICTED BY IDOCK:   -5.04 KCAL/MOL
REMARK 924 INTRA-LIGAND FREE ENERGY PREDICTED BY IDOCK:   -0.14 KCAL/MOL
REMARK 927      BINDING AFFINITY PREDICTED BY RF-SCORE:    0.00 PKD
ROOT
HETATM    1  N   UNL     1     -10.250  19.557  68.866  1.00  0.00    -0.589 NA 
HETATM    2  H1  UNL     1      -9.669  20.343  69.158  1.00  0.00     0.000 HD 
HETATM    3  C   UNL     1      -9.851  18.551  68.002  1.00  0.00    -0.341 C  
HETATM    4  H2  UNL     1     -10.575  19.100  69.718  1.00  0.00     0.000 HD 
HETATM    5  C   UNL     1     -10.616  17.515  67.616  1.00  0.00    -0.355 C  
HETATM    6  C   UNL     1     -10.135  16.487  66.705  1.00  0.00    -0.299 C  
HETATM    7  C   UNL     1      -8.889  16.589  66.212  1.00  0.00    -0.329 C  
HETATM    8  O   UNL     1      -7.642  19.476  67.842  1.00  0.00    -0.273 OA 
HETATM    9  N   UNL     1      -8.069  17.625  66.582  1.00  0.00    -0.239 N  
HETATM   10  C   UNL     1      -8.427  18.608  67.471  1.00  0.00    -0.265 C  
HETATM   11  H   UNL     1      -7.137  17.669  66.170  1.00  0.00     0.000 HD 
ENDROOT
BRANCH   6  12
HETATM   12  C   UNL     1     -10.937  15.315  66.322  1.00  0.00    -0.300 A  
HETATM   13  C   UNL     1     -11.550  14.541  67.309  1.00  0.00    -0.405 A  
HETATM   14  N   UNL     1     -12.439  13.060  65.627  1.00  0.00    -0.525 NA 
HETATM   15  C   UNL     1     -12.280  13.432  66.915  1.00  0.00    -0.289 A  
HETATM   16  C   UNL     1     -11.844  13.831  64.691  1.00  0.00    -0.402 A  
HETATM   17  C   UNL     1     -11.093  14.958  64.983  1.00  0.00    -0.422 A  
ENDBRANCH   6  12
TORSDOF 1
ENDMDL
MODEL       61
REMARK 921   NORMALIZED FREE ENERGY PREDICTED BY IDOCK:   -4.74 KCAL/MOL
REMARK 922        TOTAL FREE ENERGY PREDICTED BY IDOCK:   -5.16 KCAL/MOL
REMARK 923 INTER-LIGAND FREE ENERGY PREDICTED BY IDOCK:   -5.00 KCAL/MOL
REMARK 924 INTRA-LIGAND FREE ENERGY PREDICTED BY IDOCK:   -0.16 KCAL/MOL
REMARK 927      BINDING AFFINITY PREDICTED BY RF-SCORE:    0.00 PKD
ROOT
HETATM    1  N   UNL     1     -10.379  18.528  68.835  1.00  0.00    -0.456 NA 
HETATM    2  H1  UNL     1     -10.172  19.503  68.619  1.00  0.00     0.000 HD 
HETATM    3  C   UNL     1     -10.532  17.521  67.896  1.00  0.00    -0.384 C  
HETATM    4  H2  UNL     1      -9.663  18.213  69.489  1.00  0.00     0.000 HD 
HETATM    5  C   UNL     1     -10.806  16.236  68.180  1.00  0.00    -0.342 C  
HETATM    6  C   UNL     1     -10.952  15.223  67.145  1.00  0.00    -0.331 C  
HETATM    7  C   UNL     1     -10.832  15.589  65.858  1.00  0.00    -0.313 C  
HETATM    8  O   UNL     1     -10.015  19.027  66.101  1.00  0.00    -0.370 OA 
HETATM    9  N   UNL     1     -10.548  16.888  65.520  1.00  0.00    -0.286 N  
HETATM   10  C   UNL     1     -10.347  17.893  66.434  1.00  0.00    -0.365 C  
HETATM   11  H   UNL     1     -10.481  17.122  64.530  1.00  0.00     0.000 HD 
ENDROOT
BRANCH   6  12
HETATM   12  C   UNL     1     -11.189  13.802  67.440  1.00  0.00    -0.330 A  
HETATM   13  C   UNL     1     -10.964  12.840  66.453  1.00  0.00    -0.305 A  
HETATM   14  N   UNL     1     -11.665  11.094  67.959  1.00  0.00    -0.576 NA 
HETATM   15  C   UNL     1     -11.217  11.514  66.757  1.00  0.00    -0.285 A  
HETATM   16  C   UNL     1     -11.865  12.042  68.901  1.00  0.00    -0.299 A  
HETATM   17  C   UNL     1     -11.643  13.394  68.695  1.00  0.00    -0.362 A  
ENDBRANCH   6  12
TORSDOF 1
ENDMDL
MODEL       62
REMARK 921   NORMALIZED FREE ENERGY PREDICTED BY IDOCK:   -4.70 KCAL/MOL
REMARK 922        TOTAL FREE ENERGY PREDICTED BY IDOCK:   -5.12 KCAL/MOL
REMARK 923 INTER-LIGAND FREE ENERGY PREDICTED BY IDOCK:   -4.96 KCAL/MOL
REMARK 924 INTRA-LIGAND FREE ENERGY PREDICTED BY IDOCK:   -0.16 KCAL/MOL
REMARK 927      BINDING AFFINITY PREDICTED BY RF-SCORE:    0.00 PKD
ROOT
HETATM    1  N   UNL     1     -11.680  12.353  70.364  1.00  0.00    -0.540 NA 
HETATM    2  H1  UNL     1     -11.961  11.378  70.466  1.00  0.00     0.000 HD 
HETATM    3  C   UNL     1     -11.425  12.985  69.159  1.00  0.00    -0.299 C  
HETATM    4  H2  UNL     1     -12.382  12.913  70.847  1.00  0.00     0.000 HD 
HETATM    5  C   UNL     1     -11.054  14.270  69.024  1.00  0.00    -0.284 C  
HETATM    6  C   UNL     1     -10.803  14.877  67.726  1.00  0.00    -0.286 C  
HETATM    7  C   UNL     1     -10.923  14.120  66.622  1.00  0.00    -0.303 C  
HETATM    8  O   UNL     1     -12.022  11.015  67.926  1.00  0.00    -0.620 OA 
HETATM    9  N   UNL     1     -11.305  12.805  66.710  1.00  0.00    -0.296 N  
HETATM   10  C   UNL     1     -11.606  12.170  67.889  1.00  0.00    -0.347 C  
HETATM   11  H   UNL     1     -11.368  12.267  65.846  1.00  0.00     0.000 HD 
ENDROOT
BRANCH   6  12
HETATM   12  C   UNL     1     -10.457  16.297  67.556  1.00  0.00    -0.302 A  
HETATM   13  C   UNL     1     -10.501  17.158  68.654  1.00  0.00    -0.366 A  
HETATM   14  N   UNL     1      -9.839  19.009  67.259  1.00  0.00    -0.315 NA 
HETATM   15  C   UNL     1     -10.190  18.492  68.456  1.00  0.00    -0.351 A  
HETATM   16  C   UNL     1      -9.794  18.153  66.214  1.00  0.00    -0.310 A  
HETATM   17  C   UNL     1     -10.089  16.803  66.310  1.00  0.00    -0.338 A  
ENDBRANCH   6  12
TORSDOF 1
ENDMDL
MODEL       63
REMARK 921   NORMALIZED FREE ENERGY PREDICTED BY IDOCK:   -4.66 KCAL/MOL
REMARK 922        TOTAL FREE ENERGY PREDICTED BY IDOCK:   -5.08 KCAL/MOL
REMARK 923 INTER-LIGAND FREE ENERGY PREDICTED BY IDOCK:   -4.95 KCAL/MOL
REMARK 924 INTRA-LIGAND FREE ENERGY PREDICTED BY IDOCK:   -0.13 KCAL/MOL
REMARK 927      BINDING AFFINITY PREDICTED BY RF-SCORE:    0.00 PKD
ROOT
HETATM    1  N   UNL     1     -12.881  11.204  71.765  1.00  0.00    -0.416 NA 
HETATM    2  H1  UNL     1     -13.361  11.098  72.659  1.00  0.00     0.000 HD 
HETATM    3  C   UNL     1     -12.766  12.390  71.060  1.00  0.00    -0.223 C  
HETATM    4  H2  UNL     1     -11.934  10.849  71.897  1.00  0.00     0.000 HD 
HETATM    5  C   UNL     1     -12.133  12.530  69.882  1.00  0.00    -0.322 C  
HETATM    6  C   UNL     1     -12.046  13.808  69.191  1.00  0.00    -0.374 C  
HETATM    7  C   UNL     1     -12.640  14.883  69.738  1.00  0.00    -0.111 C  
HETATM    8  O   UNL     1     -13.902  13.604  72.791  1.00  0.00    -0.727 OA 
HETATM    9  N   UNL     1     -13.292  14.789  70.941  1.00  0.00    -0.522 N  
HETATM   10  C   UNL     1     -13.380  13.635  71.680  1.00  0.00    -0.346 C  
HETATM   11  H   UNL     1     -13.740  15.628  71.310  1.00  0.00     0.000 HD 
ENDROOT
BRANCH   6  12
HETATM   12  C   UNL     1     -11.305  13.993  67.934  1.00  0.00    -0.317 A  
HETATM   13  C   UNL     1     -11.931  13.729  66.714  1.00  0.00    -0.465 A  
HETATM   14  N   UNL     1      -9.912  14.301  65.528  1.00  0.00    -0.331 NA 
HETATM   15  C   UNL     1     -11.198  13.893  65.551  1.00  0.00    -0.307 A  
HETATM   16  C   UNL     1      -9.332  14.559  66.721  1.00  0.00    -0.261 A  
HETATM   17  C   UNL     1      -9.979  14.424  67.938  1.00  0.00    -0.228 A  
ENDBRANCH   6  12
TORSDOF 1
ENDMDL
MODEL       64
REMARK 921   NORMALIZED FREE ENERGY PREDICTED BY IDOCK:   -4.65 KCAL/MOL
REMARK 922        TOTAL FREE ENERGY PREDICTED BY IDOCK:   -5.07 KCAL/MOL
REMARK 923 INTER-LIGAND FREE ENERGY PREDICTED BY IDOCK:   -4.94 KCAL/MOL
REMARK 924 INTRA-LIGAND FREE ENERGY PREDICTED BY IDOCK:   -0.13 KCAL/MOL
REMARK 927      BINDING AFFINITY PREDICTED BY RF-SCORE:    0.00 PKD
ROOT
HETATM    1  N   UNL     1      -9.192   8.077  65.523  1.00  0.00    -0.406 NA 
HETATM    2  H1  UNL     1      -9.030   7.156  65.929  1.00  0.00     0.000 HD 
HETATM    3  C   UNL     1      -9.906   9.098  66.129  1.00  0.00    -0.293 C  
HETATM    4  H2  UNL     1      -8.277   8.460  65.287  1.00  0.00     0.000 HD 
HETATM    5  C   UNL     1     -10.120  10.313  65.595  1.00  0.00    -0.341 C  
HETATM    6  C   UNL     1     -10.879  11.345  66.285  1.00  0.00    -0.318 C  
HETATM    7  C   UNL     1     -11.403  11.068  67.491  1.00  0.00    -0.257 C  
HETATM    8  O   UNL     1     -10.240   7.779  68.105  1.00  0.00    -0.190 OA 
HETATM    9  N   UNL     1     -11.206   9.844  68.079  1.00  0.00    -0.521 N  
HETATM   10  C   UNL     1     -10.465   8.833  67.518  1.00  0.00    -0.271 C  
HETATM   11  H   UNL     1     -11.636   9.674  68.988  1.00  0.00     0.000 HD 
ENDROOT
BRANCH   6  12
HETATM   12  C   UNL     1     -11.070  12.699  65.743  1.00  0.00    -0.332 A  
HETATM   13  C   UNL     1     -12.221  12.997  65.010  1.00  0.00    -0.501 A  
HETATM   14  N   UNL     1     -11.447  15.255  64.670  1.00  0.00    -0.395 NA 
HETATM   15  C   UNL     1     -12.360  14.275  64.496  1.00  0.00    -0.410 A  
HETATM   16  C   UNL     1     -10.348  14.945  65.392  1.00  0.00    -0.388 A  
HETATM   17  C   UNL     1     -10.116  13.696  65.946  1.00  0.00    -0.320 A  
ENDBRANCH   6  12
TORSDOF 1
ENDMDL
MODEL       65
REMARK 921   NORMALIZED FREE ENERGY PREDICTED BY IDOCK:   -4.65 KCAL/MOL
REMARK 922        TOTAL FREE ENERGY PREDICTED BY IDOCK:   -5.07 KCAL/MOL
REMARK 923 INTER-LIGAND FREE ENERGY PREDICTED BY IDOCK:   -4.92 KCAL/MOL
REMARK 924 INTRA-LIGAND FREE ENERGY PREDICTED BY IDOCK:   -0.15 KCAL/MOL
REMARK 927      BINDING AFFINITY PREDICTED BY RF-SCORE:    0.00 PKD
ROOT
HETATM    1  N   UNL     1     -10.192   7.927  70.292  1.00  0.00    -0.197 NA 
HETATM    2  H1  UNL     1     -10.215   7.115  70.908  1.00  0.00     0.000 HD 
HETATM    3  C   UNL     1     -10.937   9.081  70.470  1.00  0.00    -0.252 C  
HETATM    4  H2  UNL     1      -9.216   8.216  70.222  1.00  0.00     0.000 HD 
HETATM    5  C   UNL     1     -10.907  10.152  69.658  1.00  0.00    -0.299 C  
HETATM    6  C   UNL     1     -11.715  11.338  69.903  1.00  0.00    -0.430 C  
HETATM    7  C   UNL     1     -12.537  11.355  70.966  1.00  0.00    -0.386 C  
HETATM    8  O   UNL     1     -11.854   8.249  72.525  1.00  0.00    -0.387 OA 
HETATM    9  N   UNL     1     -12.597  10.287  71.825  1.00  0.00    -0.413 N  
HETATM   10  C   UNL     1     -11.835   9.152  71.694  1.00  0.00    -0.372 C  
HETATM   11  H   UNL     1     -13.247  10.340  72.609  1.00  0.00     0.000 HD 
ENDROOT
BRANCH   6  12
HETATM   12  C   UNL     1     -11.649  12.542  69.061  1.00  0.00    -0.365 A  
HETATM   13  C   UNL     1     -11.790  13.805  69.642  1.00  0.00    -0.393 A  
HETATM   14  N   UNL     1     -11.562  14.850  67.482  1.00  0.00    -0.353 NA 
HETATM   15  C   UNL     1     -11.744  14.916  68.818  1.00  0.00    -0.325 A  
HETATM   16  C   UNL     1     -11.417  13.619  66.946  1.00  0.00    -0.345 A  
HETATM   17  C   UNL     1     -11.450  12.447  67.684  1.00  0.00    -0.399 A  
ENDBRANCH   6  12
TORSDOF 1
ENDMDL
MODEL       66
REMARK 921   NORMALIZED FREE ENERGY PREDICTED BY IDOCK:   -4.61 KCAL/MOL
REMARK 922        TOTAL FREE ENERGY PREDICTED BY IDOCK:   -5.03 KCAL/MOL
REMARK 923 INTER-LIGAND FREE ENERGY PREDICTED BY IDOCK:   -4.90 KCAL/MOL
REMARK 924 INTRA-LIGAND FREE ENERGY PREDICTED BY IDOCK:   -0.13 KCAL/MOL
REMARK 927      BINDING AFFINITY PREDICTED BY RF-SCORE:    0.00 PKD
ROOT
HETATM    1  N   UNL     1      -9.371  12.445  66.022  1.00  0.00    -0.401 NA 
HETATM    2  H1  UNL     1      -9.711  11.661  65.464  1.00  0.00     0.000 HD 
HETATM    3  C   UNL     1      -9.740  13.767  65.843  1.00  0.00    -0.196 C  
HETATM    4  H2  UNL     1      -9.565  12.216  66.997  1.00  0.00     0.000 HD 
HETATM    5  C   UNL     1      -9.292  14.800  66.578  1.00  0.00    -0.316 C  
HETATM    6  C   UNL     1      -9.721  16.170  66.339  1.00  0.00    -0.308 C  
HETATM    7  C   UNL     1     -10.577  16.416  65.333  1.00  0.00    -0.320 C  
HETATM    8  O   UNL     1     -11.266  13.172  64.089  1.00  0.00    -0.372 OA 
HETATM    9  N   UNL     1     -11.065  15.393  64.559  1.00  0.00    -0.687 N  
HETATM   10  C   UNL     1     -10.750  14.070  64.747  1.00  0.00    -0.427 C  
HETATM   11  H   UNL     1     -11.701  15.630  63.798  1.00  0.00     0.000 HD 
ENDROOT
BRANCH   6  12
HETATM   12  C   UNL     1      -9.290  17.303  67.173  1.00  0.00    -0.245 A  
HETATM   13  C   UNL     1     -10.196  17.904  68.050  1.00  0.00    -0.381 A  
HETATM   14  N   UNL     1      -8.512  19.481  68.746  1.00  0.00    -0.343 NA 
HETATM   15  C   UNL     1      -9.764  18.981  68.804  1.00  0.00    -0.416 A  
HETATM   16  C   UNL     1      -7.652  18.876  67.898  1.00  0.00    -0.259 A  
HETATM   17  C   UNL     1      -7.987  17.795  67.099  1.00  0.00    -0.229 A  
ENDBRANCH   6  12
TORSDOF 1
ENDMDL
MODEL       67
REMARK 921   NORMALIZED FREE ENERGY PREDICTED BY IDOCK:   -4.61 KCAL/MOL
REMARK 922        TOTAL FREE ENERGY PREDICTED BY IDOCK:   -5.02 KCAL/MOL
REMARK 923 INTER-LIGAND FREE ENERGY PREDICTED BY IDOCK:   -4.89 KCAL/MOL
REMARK 924 INTRA-LIGAND FREE ENERGY PREDICTED BY IDOCK:   -0.13 KCAL/MOL
REMARK 927      BINDING AFFINITY PREDICTED BY RF-SCORE:    0.00 PKD
ROOT
HETATM    1  N   UNL     1      -9.436  20.526  66.648  1.00  0.00    -0.644 NA 
HETATM    2  H1  UNL     1      -8.733  21.231  66.866  1.00  0.00     0.000 HD 
HETATM    3  C   UNL     1      -9.176  19.183  66.428  1.00  0.00    -0.343 C  
HETATM    4  H2  UNL     1     -10.137  20.571  67.388  1.00  0.00     0.000 HD 
HETATM    5  C   UNL     1     -10.103  18.254  66.140  1.00  0.00    -0.354 C  
HETATM    6  C   UNL     1      -9.763  16.855  65.922  1.00  0.00    -0.205 C  
HETATM    7  C   UNL     1      -8.473  16.484  65.987  1.00  0.00    -0.171 C  
HETATM    8  O   UNL     1      -6.841  19.495  66.889  1.00  0.00    -0.196 OA 
HETATM    9  N   UNL     1      -7.493  17.397  66.282  1.00  0.00    -0.299 N  
HETATM   10  C   UNL     1      -7.732  18.722  66.549  1.00  0.00    -0.255 C  
HETATM   11  H   UNL     1      -6.527  17.071  66.306  1.00  0.00     0.000 HD 
ENDROOT
BRANCH   6  12
HETATM   12  C   UNL     1     -10.771  15.814  65.668  1.00  0.00    -0.360 A  
HETATM   13  C   UNL     1     -11.400  15.745  64.424  1.00  0.00    -0.274 A  
HETATM   14  N   UNL     1     -12.716  13.868  65.167  1.00  0.00    -0.689 NA 
HETATM   15  C   UNL     1     -12.358  14.766  64.225  1.00  0.00    -0.320 A  
HETATM   16  C   UNL     1     -12.085  13.949  66.359  1.00  0.00    -0.455 A  
HETATM   17  C   UNL     1     -11.115  14.892  66.656  1.00  0.00    -0.329 A  
ENDBRANCH   6  12
TORSDOF 1
ENDMDL
MODEL       68
REMARK 921   NORMALIZED FREE ENERGY PREDICTED BY IDOCK:   -4.60 KCAL/MOL
REMARK 922        TOTAL FREE ENERGY PREDICTED BY IDOCK:   -5.02 KCAL/MOL
REMARK 923 INTER-LIGAND FREE ENERGY PREDICTED BY IDOCK:   -4.86 KCAL/MOL
REMARK 924 INTRA-LIGAND FREE ENERGY PREDICTED BY IDOCK:   -0.16 KCAL/MOL
REMARK 927      BINDING AFFINITY PREDICTED BY RF-SCORE:    0.00 PKD
ROOT
HETATM    1  N   UNL     1      -9.661  14.126  65.626  1.00  0.00    -0.533 NA 
HETATM    2  H1  UNL     1      -9.171  13.993  64.741  1.00  0.00     0.000 HD 
HETATM    3  C   UNL     1     -10.190  13.109  66.402  1.00  0.00    -0.286 C  
HETATM    4  H2  UNL     1      -9.037  14.661  66.229  1.00  0.00     0.000 HD 
HETATM    5  C   UNL     1     -10.836  13.283  67.568  1.00  0.00    -0.276 C  
HETATM    6  C   UNL     1     -11.367  12.170  68.339  1.00  0.00    -0.336 C  
HETATM    7  C   UNL     1     -11.229  10.923  67.857  1.00  0.00    -0.321 C  
HETATM    8  O   UNL     1      -9.351  11.438  64.898  1.00  0.00    -0.203 OA 
HETATM    9  N   UNL     1     -10.573  10.695  66.674  1.00  0.00    -0.236 N  
HETATM   10  C   UNL     1     -10.001  11.683  65.911  1.00  0.00    -0.231 C  
HETATM   11  H   UNL     1     -10.505   9.733  66.341  1.00  0.00     0.000 HD 
ENDROOT
BRANCH   6  12
HETATM   12  C   UNL     1     -12.021  12.337  69.646  1.00  0.00    -0.347 A  
HETATM   13  C   UNL     1     -12.378  11.212  70.393  1.00  0.00    -0.430 A  
HETATM   14  N   UNL     1     -13.296  12.621  72.119  1.00  0.00    -0.523 NA 
HETATM   15  C   UNL     1     -13.010  11.405  71.609  1.00  0.00    -0.418 A  
HETATM   16  C   UNL     1     -12.932  13.694  71.383  1.00  0.00    -0.347 A  
HETATM   17  C   UNL     1     -12.297  13.606  70.155  1.00  0.00    -0.372 A  
ENDBRANCH   6  12
TORSDOF 1
ENDMDL
MODEL       69
REMARK 921   NORMALIZED FREE ENERGY PREDICTED BY IDOCK:   -4.58 KCAL/MOL
REMARK 922        TOTAL FREE ENERGY PREDICTED BY IDOCK:   -5.00 KCAL/MOL
REMARK 923 INTER-LIGAND FREE ENERGY PREDICTED BY IDOCK:   -4.84 KCAL/MOL
REMARK 924 INTRA-LIGAND FREE ENERGY PREDICTED BY IDOCK:   -0.16 KCAL/MOL
REMARK 927      BINDING AFFINITY PREDICTED BY RF-SCORE:    0.00 PKD
ROOT
HETATM    1  N   UNL     1     -11.252  14.948  71.609  1.00  0.00    -0.543 NA 
HETATM    2  H1  UNL     1     -11.680  14.107  71.995  1.00  0.00     0.000 HD 
HETATM    3  C   UNL     1     -11.229  15.284  70.266  1.00  0.00    -0.297 C  
HETATM    4  H2  UNL     1     -11.665  15.740  72.102  1.00  0.00     0.000 HD 
HETATM    5  C   UNL     1     -10.666  16.393  69.756  1.00  0.00    -0.324 C  
HETATM    6  C   UNL     1     -10.678  16.690  68.332  1.00  0.00    -0.353 C  
HETATM    7  C   UNL     1     -11.253  15.812  67.491  1.00  0.00    -0.218 C  
HETATM    8  O   UNL     1     -12.528  13.349  69.694  1.00  0.00    -0.184 OA 
HETATM    9  N   UNL     1     -11.845  14.670  67.966  1.00  0.00    -0.470 N  
HETATM   10  C   UNL     1     -11.920  14.339  69.296  1.00  0.00    -0.335 C  
HETATM   11  H   UNL     1     -12.255  14.026  67.289  1.00  0.00     0.000 HD 
ENDROOT
BRANCH   6  12
HETATM   12  C   UNL     1     -10.122  17.928  67.764  1.00  0.00    -0.350 A  
HETATM   13  C   UNL     1     -10.614  18.419  66.553  1.00  0.00    -0.344 A  
HETATM   14  N   UNL     1      -9.061  20.260  66.642  1.00  0.00    -0.309 NA 
HETATM   15  C   UNL     1     -10.054  19.575  66.037  1.00  0.00    -0.436 A  
HETATM   16  C   UNL     1      -8.610  19.771  67.817  1.00  0.00    -0.324 A  
HETATM   17  C   UNL     1      -9.102  18.622  68.415  1.00  0.00    -0.352 A  
ENDBRANCH   6  12
TORSDOF 1
ENDMDL
MODEL       70
REMARK 921   NORMALIZED FREE ENERGY PREDICTED BY IDOCK:   -4.53 KCAL/MOL
REMARK 922        TOTAL FREE ENERGY PREDICTED BY IDOCK:   -4.95 KCAL/MOL
REMARK 923 INTER-LIGAND FREE ENERGY PREDICTED BY IDOCK:   -4.81 KCAL/MOL
REMARK 924 INTRA-LIGAND FREE ENERGY PREDICTED BY IDOCK:   -0.14 KCAL/MOL
REMARK 927      BINDING AFFINITY PREDICTED BY RF-SCORE:    0.00 PKD
ROOT
HETATM    1  N   UNL     1     -12.551  14.896  69.451  1.00  0.00    -0.583 NA 
HETATM    2  H1  UNL     1     -13.137  14.065  69.381  1.00  0.00     0.000 HD 
HETATM    3  C   UNL     1     -11.706  15.361  68.457  1.00  0.00    -0.338 C  
HETATM    4  H2  UNL     1     -13.169  15.670  69.697  1.00  0.00     0.000 HD 
HETATM    5  C   UNL     1     -10.934  16.457  68.550  1.00  0.00    -0.350 C  
HETATM    6  C   UNL     1     -10.067  16.894  67.466  1.00  0.00    -0.282 C  
HETATM    7  C   UNL     1     -10.019  16.162  66.339  1.00  0.00    -0.299 C  
HETATM    8  O   UNL     1     -12.409  13.623  66.959  1.00  0.00    -0.355 OA 
HETATM    9  N   UNL     1     -10.793  15.039  66.197  1.00  0.00    -0.324 N  
HETATM   10  C   UNL     1     -11.672  14.586  67.150  1.00  0.00    -0.399 C  
HETATM   11  H   UNL     1     -10.712  14.508  65.330  1.00  0.00     0.000 HD 
ENDROOT
BRANCH   6  12
HETATM   12  C   UNL     1      -9.263  18.124  67.526  1.00  0.00    -0.257 A  
HETATM   13  C   UNL     1      -8.324  18.290  68.547  1.00  0.00    -0.327 A  
HETATM   14  N   UNL     1      -7.743  20.466  67.689  1.00  0.00    -0.299 NA 
HETATM   15  C   UNL     1      -7.599  19.469  68.587  1.00  0.00    -0.354 A  
HETATM   16  C   UNL     1      -8.649  20.277  66.705  1.00  0.00    -0.254 A  
HETATM   17  C   UNL     1      -9.425  19.136  66.580  1.00  0.00    -0.387 A  
ENDBRANCH   6  12
TORSDOF 1
ENDMDL
MODEL       71
REMARK 921   NORMALIZED FREE ENERGY PREDICTED BY IDOCK:   -4.51 KCAL/MOL
REMARK 922        TOTAL FREE ENERGY PREDICTED BY IDOCK:   -4.92 KCAL/MOL
REMARK 923 INTER-LIGAND FREE ENERGY PREDICTED BY IDOCK:   -4.76 KCAL/MOL
REMARK 924 INTRA-LIGAND FREE ENERGY PREDICTED BY IDOCK:   -0.16 KCAL/MOL
REMARK 927      BINDING AFFINITY PREDICTED BY RF-SCORE:    0.00 PKD
ROOT
HETATM    1  N   UNL     1      -9.196   9.642  64.157  1.00  0.00    -0.398 NA 
HETATM    2  H1  UNL     1      -9.067   9.850  63.167  1.00  0.00     0.000 HD 
HETATM    3  C   UNL     1      -9.952  10.398  65.037  1.00  0.00    -0.330 C  
HETATM    4  H2  UNL     1      -9.549   8.687  64.213  1.00  0.00     0.000 HD 
HETATM    5  C   UNL     1     -10.122  10.125  66.342  1.00  0.00    -0.300 C  
HETATM    6  C   UNL     1     -10.933  10.960  67.215  1.00  0.00    -0.355 C  
HETATM    7  C   UNL     1     -11.515  12.058  66.704  1.00  0.00    -0.346 C  
HETATM    8  O   UNL     1     -10.629  11.885  63.279  1.00  0.00    -0.403 OA 
HETATM    9  N   UNL     1     -11.375  12.375  65.376  1.00  0.00    -0.325 N  
HETATM   10  C   UNL     1     -10.668  11.616  64.476  1.00  0.00    -0.322 C  
HETATM   11  H   UNL     1     -11.823  13.226  65.037  1.00  0.00     0.000 HD 
ENDROOT
BRANCH   6  12
HETATM   12  C   UNL     1     -11.180  10.641  68.629  1.00  0.00    -0.337 A  
HETATM   13  C   UNL     1     -12.031  11.451  69.385  1.00  0.00    -0.407 A  
HETATM   14  N   UNL     1     -11.644  10.082  71.331  1.00  0.00    -0.351 NA 
HETATM   15  C   UNL     1     -12.226  11.134  70.719  1.00  0.00    -0.385 A  
HETATM   16  C   UNL     1     -10.833   9.308  70.576  1.00  0.00    -0.263 A  
HETATM   17  C   UNL     1     -10.573   9.541  69.235  1.00  0.00    -0.236 A  
ENDBRANCH   6  12
TORSDOF 1
ENDMDL
MODEL       72
REMARK 921   NORMALIZED FREE ENERGY PREDICTED BY IDOCK:   -4.50 KCAL/MOL
REMARK 922        TOTAL FREE ENERGY PREDICTED BY IDOCK:   -4.91 KCAL/MOL
REMARK 923 INTER-LIGAND FREE ENERGY PREDICTED BY IDOCK:   -4.75 KCAL/MOL
REMARK 924 INTRA-LIGAND FREE ENERGY PREDICTED BY IDOCK:   -0.16 KCAL/MOL
REMARK 927      BINDING AFFINITY PREDICTED BY RF-SCORE:    0.00 PKD
ROOT
HETATM    1  N   UNL     1      -8.539   7.788  65.080  1.00  0.00    -0.366 NA 
HETATM    2  H1  UNL     1      -7.996   7.029  65.491  1.00  0.00     0.000 HD 
HETATM    3  C   UNL     1      -9.169   8.793  65.795  1.00  0.00    -0.206 C  
HETATM    4  H2  UNL     1      -7.933   8.247  64.400  1.00  0.00     0.000 HD 
HETATM    5  C   UNL     1      -9.885   9.793  65.253  1.00  0.00    -0.335 C  
HETATM    6  C   UNL     1     -10.522  10.823  66.061  1.00  0.00    -0.273 C  
HETATM    7  C   UNL     1     -10.411  10.758  67.399  1.00  0.00    -0.225 C  
HETATM    8  O   UNL     1      -8.309   7.945  67.868  1.00  0.00    -0.124 OA 
HETATM    9  N   UNL     1      -9.686   9.758  67.997  1.00  0.00    -0.143 N  
HETATM   10  C   UNL     1      -9.015   8.778  67.307  1.00  0.00    -0.132 C  
HETATM   11  H   UNL     1      -9.642   9.741  69.015  1.00  0.00     0.000 HD 
ENDROOT
BRANCH   6  12
HETATM   12  C   UNL     1     -11.256  11.958  65.483  1.00  0.00    -0.353 A  
HETATM   13  C   UNL     1     -11.461  12.022  64.103  1.00  0.00    -0.460 A  
HETATM   14  N   UNL     1     -12.617  14.123  64.349  1.00  0.00    -0.678 NA 
HETATM   15  C   UNL     1     -12.138  13.116  63.589  1.00  0.00    -0.513 A  
HETATM   16  C   UNL     1     -12.415  14.033  65.681  1.00  0.00    -0.504 A  
HETATM   17  C   UNL     1     -11.750  12.982  66.292  1.00  0.00    -0.440 A  
ENDBRANCH   6  12
TORSDOF 1
ENDMDL
MODEL       73
REMARK 921   NORMALIZED FREE ENERGY PREDICTED BY IDOCK:   -4.47 KCAL/MOL
REMARK 922        TOTAL FREE ENERGY PREDICTED BY IDOCK:   -4.88 KCAL/MOL
REMARK 923 INTER-LIGAND FREE ENERGY PREDICTED BY IDOCK:   -4.72 KCAL/MOL
REMARK 924 INTRA-LIGAND FREE ENERGY PREDICTED BY IDOCK:   -0.16 KCAL/MOL
REMARK 927      BINDING AFFINITY PREDICTED BY RF-SCORE:    0.00 PKD
ROOT
HETATM    1  N   UNL     1     -11.103   6.755  71.334  1.00  0.00    -0.246 NA 
HETATM    2  H1  UNL     1     -10.776   5.854  70.986  1.00  0.00     0.000 HD 
HETATM    3  C   UNL     1     -11.185   7.915  70.582  1.00  0.00    -0.263 C  
HETATM    4  H2  UNL     1     -12.029   6.597  71.731  1.00  0.00     0.000 HD 
HETATM    5  C   UNL     1     -11.617   9.103  71.040  1.00  0.00    -0.370 C  
HETATM    6  C   UNL     1     -11.680  10.287  70.197  1.00  0.00    -0.364 C  
HETATM    7  C   UNL     1     -11.271  10.197  68.920  1.00  0.00    -0.170 C  
HETATM    8  O   UNL     1     -10.455   6.764  68.607  1.00  0.00    -0.181 OA 
HETATM    9  N   UNL     1     -10.827   9.004  68.407  1.00  0.00    -0.443 N  
HETATM   10  C   UNL     1     -10.781   7.831  69.119  1.00  0.00    -0.126 C  
HETATM   11  H   UNL     1     -10.513   8.987  67.437  1.00  0.00     0.000 HD 
ENDROOT
BRANCH   6  12
HETATM   12  C   UNL     1     -12.208  11.578  70.663  1.00  0.00    -0.473 A  
HETATM   13  C   UNL     1     -13.010  11.628  71.806  1.00  0.00    -0.483 A  
HETATM   14  N   UNL     1     -13.256  14.013  71.556  1.00  0.00    -0.350 NA 
HETATM   15  C   UNL     1     -13.508  12.857  72.205  1.00  0.00    -0.531 A  
HETATM   16  C   UNL     1     -12.469  13.940  70.461  1.00  0.00    -0.352 A  
HETATM   17  C   UNL     1     -11.925  12.760  69.979  1.00  0.00    -0.371 A  
ENDBRANCH   6  12
TORSDOF 1
ENDMDL
MODEL       74
REMARK 921   NORMALIZED FREE ENERGY PREDICTED BY IDOCK:   -4.44 KCAL/MOL
REMARK 922        TOTAL FREE ENERGY PREDICTED BY IDOCK:   -4.85 KCAL/MOL
REMARK 923 INTER-LIGAND FREE ENERGY PREDICTED BY IDOCK:   -4.70 KCAL/MOL
REMARK 924 INTRA-LIGAND FREE ENERGY PREDICTED BY IDOCK:   -0.14 KCAL/MOL
REMARK 927      BINDING AFFINITY PREDICTED BY RF-SCORE:    0.00 PKD
ROOT
HETATM    1  N   UNL     1     -12.516  11.659  63.024  1.00  0.00    -0.937 NA 
HETATM    2  H1  UNL     1     -13.180  12.151  62.426  1.00  0.00     0.000 HD 
HETATM    3  C   UNL     1     -11.694  12.260  63.963  1.00  0.00    -0.425 C  
HETATM    4  H2  UNL     1     -13.042  10.936  63.514  1.00  0.00     0.000 HD 
HETATM    5  C   UNL     1     -10.818  11.612  64.750  1.00  0.00    -0.367 C  
HETATM    6  C   UNL     1      -9.983  12.303  65.722  1.00  0.00    -0.273 C  
HETATM    7  C   UNL     1     -10.073  13.641  65.819  1.00  0.00    -0.298 C  
HETATM    8  O   UNL     1     -12.647  14.416  63.512  1.00  0.00    -0.784 OA 
HETATM    9  N   UNL     1     -10.957  14.344  65.040  1.00  0.00    -0.366 N  
HETATM   10  C   UNL     1     -11.813  13.766  64.135  1.00  0.00    -0.401 C  
HETATM   11  H   UNL     1     -10.979  15.359  65.138  1.00  0.00     0.000 HD 
ENDROOT
BRANCH   6  12
HETATM   12  C   UNL     1      -9.066  11.604  66.634  1.00  0.00    -0.196 A  
HETATM   13  C   UNL     1      -8.228  10.601  66.142  1.00  0.00    -0.156 A  
HETATM   14  N   UNL     1      -7.335  10.232  68.350  1.00  0.00    -0.083 NA 
HETATM   15  C   UNL     1      -7.392   9.948  67.032  1.00  0.00    -0.091 A  
HETATM   16  C   UNL     1      -8.147  11.213  68.800  1.00  0.00    -0.140 A  
HETATM   17  C   UNL     1      -9.020  11.923  67.991  1.00  0.00    -0.185 A  
ENDBRANCH   6  12
TORSDOF 1
ENDMDL
MODEL       75
REMARK 921   NORMALIZED FREE ENERGY PREDICTED BY IDOCK:   -4.42 KCAL/MOL
REMARK 922        TOTAL FREE ENERGY PREDICTED BY IDOCK:   -4.83 KCAL/MOL
REMARK 923 INTER-LIGAND FREE ENERGY PREDICTED BY IDOCK:   -4.67 KCAL/MOL
REMARK 924 INTRA-LIGAND FREE ENERGY PREDICTED BY IDOCK:   -0.16 KCAL/MOL
REMARK 927      BINDING AFFINITY PREDICTED BY RF-SCORE:    0.00 PKD
ROOT
HETATM    1  N   UNL     1      -9.050   8.879  64.545  1.00  0.00    -0.419 NA 
HETATM    2  H1  UNL     1      -8.757   8.486  63.650  1.00  0.00     0.000 HD 
HETATM    3  C   UNL     1      -9.687  10.097  64.708  1.00  0.00    -0.322 C  
HETATM    4  H2  UNL     1      -9.638   8.177  64.994  1.00  0.00     0.000 HD 
HETATM    5  C   UNL     1     -10.073  10.615  65.886  1.00  0.00    -0.321 C  
HETATM    6  C   UNL     1     -10.742  11.904  65.990  1.00  0.00    -0.326 C  
HETATM    7  C   UNL     1     -10.961  12.613  64.869  1.00  0.00    -0.293 C  
HETATM    8  O   UNL     1      -9.751  10.453  62.335  1.00  0.00    -0.224 OA 
HETATM    9  N   UNL     1     -10.589  12.122  63.643  1.00  0.00    -0.425 N  
HETATM   10  C   UNL     1      -9.998  10.897  63.453  1.00  0.00    -0.361 C  
HETATM   11  H   UNL     1     -10.762  12.702  62.823  1.00  0.00     0.000 HD 
ENDROOT
BRANCH   6  12
HETATM   12  C   UNL     1     -11.227  12.457  67.264  1.00  0.00    -0.357 A  
HETATM   13  C   UNL     1     -11.674  13.779  67.321  1.00  0.00    -0.416 A  
HETATM   14  N   UNL     1     -12.122  13.549  69.678  1.00  0.00    -0.321 NA 
HETATM   15  C   UNL     1     -12.104  14.274  68.540  1.00  0.00    -0.260 A  
HETATM   16  C   UNL     1     -11.695  12.270  69.594  1.00  0.00    -0.316 A  
HETATM   17  C   UNL     1     -11.244  11.682  68.424  1.00  0.00    -0.307 A  
ENDBRANCH   6  12
TORSDOF 1
ENDMDL
MODEL       76
REMARK 921   NORMALIZED FREE ENERGY PREDICTED BY IDOCK:   -4.41 KCAL/MOL
REMARK 922        TOTAL FREE ENERGY PREDICTED BY IDOCK:   -4.82 KCAL/MOL
REMARK 923 INTER-LIGAND FREE ENERGY PREDICTED BY IDOCK:   -4.66 KCAL/MOL
REMARK 924 INTRA-LIGAND FREE ENERGY PREDICTED BY IDOCK:   -0.16 KCAL/MOL
REMARK 927      BINDING AFFINITY PREDICTED BY RF-SCORE:    0.00 PKD
ROOT
HETATM    1  N   UNL     1     -11.437  12.319  63.089  1.00  0.00    -0.707 NA 
HETATM    2  H1  UNL     1     -11.482  11.387  62.678  1.00  0.00     0.000 HD 
HETATM    3  C   UNL     1     -10.812  12.631  64.285  1.00  0.00    -0.379 C  
HETATM    4  H2  UNL     1     -11.038  12.934  62.381  1.00  0.00     0.000 HD 
HETATM    5  C   UNL     1     -10.753  13.859  64.828  1.00  0.00    -0.437 C  
HETATM    6  C   UNL     1     -10.078  14.123  66.090  1.00  0.00    -0.324 C  
HETATM    7  C   UNL     1      -9.512  13.097  66.749  1.00  0.00    -0.252 C  
HETATM    8  O   UNL     1     -10.054  10.370  64.553  1.00  0.00    -0.346 OA 
HETATM    9  N   UNL     1      -9.542  11.827  66.231  1.00  0.00    -0.220 N  
HETATM   10  C   UNL     1     -10.115  11.502  65.026  1.00  0.00    -0.270 C  
HETATM   11  H   UNL     1      -9.112  11.078  66.774  1.00  0.00     0.000 HD 
ENDROOT
BRANCH   6  12
HETATM   12  C   UNL     1      -9.950  15.469  66.667  1.00  0.00    -0.272 A  
HETATM   13  C   UNL     1     -10.401  16.578  65.949  1.00  0.00    -0.365 A  
HETATM   14  N   UNL     1      -9.689  18.047  67.722  1.00  0.00    -0.283 NA 
HETATM   15  C   UNL     1     -10.247  17.833  66.512  1.00  0.00    -0.358 A  
HETATM   16  C   UNL     1      -9.270  16.957  68.402  1.00  0.00    -0.253 A  
HETATM   17  C   UNL     1      -9.378  15.661  67.925  1.00  0.00    -0.195 A  
ENDBRANCH   6  12
TORSDOF 1
ENDMDL
MODEL       77
REMARK 921   NORMALIZED FREE ENERGY PREDICTED BY IDOCK:   -4.40 KCAL/MOL
REMARK 922        TOTAL FREE ENERGY PREDICTED BY IDOCK:   -4.81 KCAL/MOL
REMARK 923 INTER-LIGAND FREE ENERGY PREDICTED BY IDOCK:   -4.66 KCAL/MOL
REMARK 924 INTRA-LIGAND FREE ENERGY PREDICTED BY IDOCK:   -0.14 KCAL/MOL
REMARK 927      BINDING AFFINITY PREDICTED BY RF-SCORE:    0.00 PKD
ROOT
HETATM    1  N   UNL     1     -12.491  14.490  63.491  1.00  0.00    -1.063 NA 
HETATM    2  H1  UNL     1     -12.993  14.041  62.725  1.00  0.00     0.000 HD 
HETATM    3  C   UNL     1     -11.638  13.843  64.370  1.00  0.00    -0.382 C  
HETATM    4  H2  UNL     1     -11.962  15.261  63.083  1.00  0.00     0.000 HD 
HETATM    5  C   UNL     1     -10.976  14.434  65.379  1.00  0.00    -0.343 C  
HETATM    6  C   UNL     1     -10.090  13.697  66.269  1.00  0.00    -0.301 C  
HETATM    7  C   UNL     1      -9.947  12.373  66.089  1.00  0.00    -0.253 C  
HETATM    8  O   UNL     1     -11.916  11.761  63.209  1.00  0.00    -0.422 OA 
HETATM    9  N   UNL     1     -10.598  11.727  65.069  1.00  0.00    -0.277 N  
HETATM   10  C   UNL     1     -11.412  12.355  64.158  1.00  0.00    -0.381 C  
HETATM   11  H   UNL     1     -10.470  10.719  64.981  1.00  0.00     0.000 HD 
ENDROOT
BRANCH   6  12
HETATM   12  C   UNL     1      -9.310  14.338  67.338  1.00  0.00    -0.203 A  
HETATM   13  C   UNL     1      -7.932  14.129  67.413  1.00  0.00    -0.201 A  
HETATM   14  N   UNL     1      -7.805  15.515  69.381  1.00  0.00    -0.231 NA 
HETATM   15  C   UNL     1      -7.231  14.730  68.445  1.00  0.00    -0.114 A  
HETATM   16  C   UNL     1      -9.138  15.711  69.280  1.00  0.00    -0.270 A  
HETATM   17  C   UNL     1      -9.927  15.153  68.288  1.00  0.00    -0.223 A  
ENDBRANCH   6  12
TORSDOF 1
ENDMDL
MODEL       78
REMARK 921   NORMALIZED FREE ENERGY PREDICTED BY IDOCK:   -4.38 KCAL/MOL
REMARK 922        TOTAL FREE ENERGY PREDICTED BY IDOCK:   -4.78 KCAL/MOL
REMARK 923 INTER-LIGAND FREE ENERGY PREDICTED BY IDOCK:   -4.63 KCAL/MOL
REMARK 924 INTRA-LIGAND FREE ENERGY PREDICTED BY IDOCK:   -0.15 KCAL/MOL
REMARK 927      BINDING AFFINITY PREDICTED BY RF-SCORE:    0.00 PKD
ROOT
HETATM    1  N   UNL     1     -11.661  12.604  69.894  1.00  0.00    -0.511 NA 
HETATM    2  H1  UNL     1     -11.939  12.528  70.872  1.00  0.00     0.000 HD 
HETATM    3  C   UNL     1     -11.261  11.544  69.096  1.00  0.00    -0.274 C  
HETATM    4  H2  UNL     1     -12.428  13.065  69.405  1.00  0.00     0.000 HD 
HETATM    5  C   UNL     1     -10.895  11.643  67.807  1.00  0.00    -0.264 C  
HETATM    6  C   UNL     1     -10.487  10.487  67.021  1.00  0.00    -0.304 C  
HETATM    7  C   UNL     1     -10.453   9.281  67.613  1.00  0.00    -0.264 C  
HETATM    8  O   UNL     1     -11.666   9.976  70.867  1.00  0.00    -0.315 OA 
HETATM    9  N   UNL     1     -10.823   9.130  68.925  1.00  0.00    -0.408 N  
HETATM   10  C   UNL     1     -11.265  10.158  69.721  1.00  0.00    -0.272 C  
HETATM   11  H   UNL     1     -10.767   8.198  69.334  1.00  0.00     0.000 HD 
ENDROOT
BRANCH   6  12
HETATM   12  C   UNL     1     -10.144  10.568  65.594  1.00  0.00    -0.333 A  
HETATM   13  C   UNL     1     -10.704  11.570  64.800  1.00  0.00    -0.366 A  
HETATM   14  N   UNL     1      -9.537  10.726  62.868  1.00  0.00    -0.327 NA 
HETATM   15  C   UNL     1     -10.376  11.604  63.455  1.00  0.00    -0.441 A  
HETATM   16  C   UNL     1      -8.999   9.772  63.659  1.00  0.00    -0.240 A  
HETATM   17  C   UNL     1      -9.266   9.652  65.013  1.00  0.00    -0.310 A  
ENDBRANCH   6  12
TORSDOF 1
ENDMDL
MODEL       79
REMARK 921   NORMALIZED FREE ENERGY PREDICTED BY IDOCK:   -4.29 KCAL/MOL
REMARK 922        TOTAL FREE ENERGY PREDICTED BY IDOCK:   -4.69 KCAL/MOL
REMARK 923 INTER-LIGAND FREE ENERGY PREDICTED BY IDOCK:   -4.56 KCAL/MOL
REMARK 924 INTRA-LIGAND FREE ENERGY PREDICTED BY IDOCK:   -0.13 KCAL/MOL
REMARK 927      BINDING AFFINITY PREDICTED BY RF-SCORE:    0.00 PKD
ROOT
HETATM    1  N   UNL     1      -8.813  14.969  69.552  1.00  0.00    -0.435 NA 
HETATM    2  H1  UNL     1      -8.307  15.625  70.146  1.00  0.00     0.000 HD 
HETATM    3  C   UNL     1      -9.245  15.234  68.263  1.00  0.00    -0.189 C  
HETATM    4  H2  UNL     1      -8.249  14.121  69.503  1.00  0.00     0.000 HD 
HETATM    5  C   UNL     1      -9.913  14.371  67.479  1.00  0.00    -0.224 C  
HETATM    6  C   UNL     1     -10.338  14.711  66.129  1.00  0.00    -0.309 C  
HETATM    7  C   UNL     1     -10.074  15.942  65.657  1.00  0.00    -0.358 C  
HETATM    8  O   UNL     1      -8.235  17.411  68.304  1.00  0.00    -0.229 OA 
HETATM    9  N   UNL     1      -9.390  16.855  66.419  1.00  0.00    -0.266 N  
HETATM   10  C   UNL     1      -8.913  16.599  67.681  1.00  0.00    -0.205 C  
HETATM   11  H   UNL     1      -9.225  17.781  66.024  1.00  0.00     0.000 HD 
ENDROOT
BRANCH   6  12
HETATM   12  C   UNL     1     -11.014  13.759  65.235  1.00  0.00    -0.322 A  
HETATM   13  C   UNL     1     -12.401  13.614  65.296  1.00  0.00    -0.498 A  
HETATM   14  N   UNL     1     -12.325  11.930  63.574  1.00  0.00    -0.541 NA 
HETATM   15  C   UNL     1     -13.004  12.693  64.456  1.00  0.00    -0.146 A  
HETATM   16  C   UNL     1     -10.985  12.096  63.526  1.00  0.00    -0.453 A  
HETATM   17  C   UNL     1     -10.290  12.988  64.326  1.00  0.00    -0.385 A  
ENDBRANCH   6  12
TORSDOF 1
ENDMDL
MODEL       80
REMARK 921   NORMALIZED FREE ENERGY PREDICTED BY IDOCK:   -4.28 KCAL/MOL
REMARK 922        TOTAL FREE ENERGY PREDICTED BY IDOCK:   -4.68 KCAL/MOL
REMARK 923 INTER-LIGAND FREE ENERGY PREDICTED BY IDOCK:   -4.52 KCAL/MOL
REMARK 924 INTRA-LIGAND FREE ENERGY PREDICTED BY IDOCK:   -0.16 KCAL/MOL
REMARK 927      BINDING AFFINITY PREDICTED BY RF-SCORE:    0.00 PKD
ROOT
HETATM    1  N   UNL     1     -10.900  17.334  65.448  1.00  0.00    -0.480 NA 
HETATM    2  H1  UNL     1     -11.638  17.611  64.801  1.00  0.00     0.000 HD 
HETATM    3  C   UNL     1     -10.090  18.209  66.152  1.00  0.00    -0.336 C  
HETATM    4  H2  UNL     1     -11.328  16.714  66.135  1.00  0.00     0.000 HD 
HETATM    5  C   UNL     1      -9.116  17.845  67.004  1.00  0.00    -0.256 C  
HETATM    6  C   UNL     1      -8.300  18.816  67.717  1.00  0.00    -0.293 C  
HETATM    7  C   UNL     1      -8.510  20.125  67.498  1.00  0.00    -0.335 C  
HETATM    8  O   UNL     1     -11.264  20.107  65.271  1.00  0.00    -0.173 OA 
HETATM    9  N   UNL     1      -9.496  20.545  66.641  1.00  0.00    -0.644 N  
HETATM   10  C   UNL     1     -10.340  19.697  65.967  1.00  0.00    -0.523 C  
HETATM   11  H   UNL     1      -9.609  21.548  66.495  1.00  0.00     0.000 HD 
ENDROOT
BRANCH   6  12
HETATM   12  C   UNL     1      -7.273  18.436  68.699  1.00  0.00    -0.301 A  
HETATM   13  C   UNL     1      -6.408  19.406  69.211  1.00  0.00    -0.337 A  
HETATM   14  N   UNL     1      -5.288  17.738  70.543  1.00  0.00    -0.262 NA 
HETATM   15  C   UNL     1      -5.440  19.010  70.118  1.00  0.00    -0.227 A  
HETATM   16  C   UNL     1      -6.144  16.821  70.042  1.00  0.00    -0.139 A  
HETATM   17  C   UNL     1      -7.144  17.115  69.130  1.00  0.00    -0.213 A  
ENDBRANCH   6  12
TORSDOF 1
ENDMDL
MODEL       81
REMARK 921   NORMALIZED FREE ENERGY PREDICTED BY IDOCK:   -4.24 KCAL/MOL
REMARK 922        TOTAL FREE ENERGY PREDICTED BY IDOCK:   -4.64 KCAL/MOL
REMARK 923 INTER-LIGAND FREE ENERGY PREDICTED BY IDOCK:   -4.48 KCAL/MOL
REMARK 924 INTRA-LIGAND FREE ENERGY PREDICTED BY IDOCK:   -0.16 KCAL/MOL
REMARK 927      BINDING AFFINITY PREDICTED BY RF-SCORE:    0.00 PKD
ROOT
HETATM    1  N   UNL     1     -12.566  15.207  69.456  1.00  0.00    -0.601 NA 
HETATM    2  H1  UNL     1     -12.684  16.184  69.724  1.00  0.00     0.000 HD 
HETATM    3  C   UNL     1     -11.722  14.753  68.457  1.00  0.00    -0.317 C  
HETATM    4  H2  UNL     1     -12.317  14.698  70.304  1.00  0.00     0.000 HD 
HETATM    5  C   UNL     1     -11.566  13.465  68.103  1.00  0.00    -0.376 C  
HETATM    6  C   UNL     1     -10.658  13.052  67.043  1.00  0.00    -0.262 C  
HETATM    7  C   UNL     1      -9.968  13.993  66.377  1.00  0.00    -0.294 C  
HETATM    8  O   UNL     1     -10.910  16.973  68.044  1.00  0.00    -0.371 OA 
HETATM    9  N   UNL     1     -10.090  15.319  66.707  1.00  0.00    -0.252 N  
HETATM   10  C   UNL     1     -10.885  15.789  67.723  1.00  0.00    -0.316 C  
HETATM   11  H   UNL     1      -9.557  15.999  66.164  1.00  0.00     0.000 HD 
ENDROOT
BRANCH   6  12
HETATM   12  C   UNL     1     -10.429  11.644  66.686  1.00  0.00    -0.268 A  
HETATM   13  C   UNL     1      -9.921  11.321  65.425  1.00  0.00    -0.297 A  
HETATM   14  N   UNL     1     -10.015   8.974  65.963  1.00  0.00    -0.256 NA 
HETATM   15  C   UNL     1      -9.737   9.985  65.114  1.00  0.00    -0.311 A  
HETATM   16  C   UNL     1     -10.496   9.312  67.179  1.00  0.00    -0.249 A  
HETATM   17  C   UNL     1     -10.716  10.618  67.586  1.00  0.00    -0.315 A  
ENDBRANCH   6  12
TORSDOF 1
ENDMDL
MODEL       82
REMARK 921   NORMALIZED FREE ENERGY PREDICTED BY IDOCK:   -4.24 KCAL/MOL
REMARK 922        TOTAL FREE ENERGY PREDICTED BY IDOCK:   -4.64 KCAL/MOL
REMARK 923 INTER-LIGAND FREE ENERGY PREDICTED BY IDOCK:   -4.51 KCAL/MOL
REMARK 924 INTRA-LIGAND FREE ENERGY PREDICTED BY IDOCK:   -0.13 KCAL/MOL
REMARK 927      BINDING AFFINITY PREDICTED BY RF-SCORE:    0.00 PKD
ROOT
HETATM    1  N   UNL     1     -13.447   9.694  72.476  1.00  0.00    -0.646 NA 
HETATM    2  H1  UNL     1     -14.069  10.097  73.176  1.00  0.00     0.000 HD 
HETATM    3  C   UNL     1     -12.764  10.413  71.509  1.00  0.00    -0.459 C  
HETATM    4  H2  UNL     1     -12.751   9.147  72.981  1.00  0.00     0.000 HD 
HETATM    5  C   UNL     1     -11.946   9.881  70.585  1.00  0.00    -0.361 C  
HETATM    6  C   UNL     1     -11.254  10.694  69.596  1.00  0.00    -0.351 C  
HETATM    7  C   UNL     1     -11.459  12.023  69.590  1.00  0.00    -0.252 C  
HETATM    8  O   UNL     1     -13.598  12.490  72.375  1.00  0.00    -0.521 OA 
HETATM    9  N   UNL     1     -12.282  12.611  70.517  1.00  0.00    -0.411 N  
HETATM   10  C   UNL     1     -12.933  11.924  71.512  1.00  0.00    -0.323 C  
HETATM   11  H   UNL     1     -12.418  13.620  70.464  1.00  0.00     0.000 HD 
ENDROOT
BRANCH   6  12
HETATM   12  C   UNL     1     -10.307  10.137  68.619  1.00  0.00    -0.208 A  
HETATM   13  C   UNL     1      -8.932  10.259  68.836  1.00  0.00    -0.164 A  
HETATM   14  N   UNL     1      -8.480   9.118  66.762  1.00  0.00    -0.122 NA 
HETATM   15  C   UNL     1      -8.069   9.741  67.886  1.00  0.00    -0.112 A  
HETATM   16  C   UNL     1      -9.813   9.003  66.580  1.00  0.00    -0.268 A  
HETATM   17  C   UNL     1     -10.758   9.489  67.469  1.00  0.00    -0.311 A  
ENDBRANCH   6  12
TORSDOF 1
ENDMDL
MODEL       83
REMARK 921   NORMALIZED FREE ENERGY PREDICTED BY IDOCK:   -4.23 KCAL/MOL
REMARK 922        TOTAL FREE ENERGY PREDICTED BY IDOCK:   -4.63 KCAL/MOL
REMARK 923 INTER-LIGAND FREE ENERGY PREDICTED BY IDOCK:   -4.49 KCAL/MOL
REMARK 924 INTRA-LIGAND FREE ENERGY PREDICTED BY IDOCK:   -0.13 KCAL/MOL
REMARK 927      BINDING AFFINITY PREDICTED BY RF-SCORE:    0.00 PKD
ROOT
HETATM    1  N   UNL     1     -10.432  18.038  66.880  1.00  0.00    -0.360 NA 
HETATM    2  H1  UNL     1     -10.836  18.811  66.350  1.00  0.00     0.000 HD 
HETATM    3  C   UNL     1     -10.356  16.727  66.440  1.00  0.00    -0.306 C  
HETATM    4  H2  UNL     1      -9.485  18.319  67.132  1.00  0.00     0.000 HD 
HETATM    5  C   UNL     1      -9.824  15.709  67.137  1.00  0.00    -0.229 C  
HETATM    6  C   UNL     1      -9.771  14.351  66.616  1.00  0.00    -0.289 C  
HETATM    7  C   UNL     1     -10.295  14.100  65.404  1.00  0.00    -0.365 C  
HETATM    8  O   UNL     1     -11.314  17.315  64.320  1.00  0.00    -1.027 OA 
HETATM    9  N   UNL     1     -10.843  15.110  64.653  1.00  0.00    -0.632 N  
HETATM   10  C   UNL     1     -10.889  16.423  65.049  1.00  0.00    -0.273 C  
HETATM   11  H   UNL     1     -11.241  14.869  63.746  1.00  0.00     0.000 HD 
ENDROOT
BRANCH   6  12
HETATM   12  C   UNL     1      -9.137  13.237  67.338  1.00  0.00    -0.216 A  
HETATM   13  C   UNL     1      -9.915  12.167  67.786  1.00  0.00    -0.198 A  
HETATM   14  N   UNL     1      -7.967  11.122  68.745  1.00  0.00    -0.143 NA 
HETATM   15  C   UNL     1      -9.290  11.146  68.481  1.00  0.00    -0.190 A  
HETATM   16  C   UNL     1      -7.234  12.163  68.293  1.00  0.00    -0.095 A  
HETATM   17  C   UNL     1      -7.765  13.232  67.590  1.00  0.00    -0.171 A  
ENDBRANCH   6  12
TORSDOF 1
ENDMDL
MODEL       84
REMARK 921   NORMALIZED FREE ENERGY PREDICTED BY IDOCK:   -4.12 KCAL/MOL
REMARK 922        TOTAL FREE ENERGY PREDICTED BY IDOCK:   -4.51 KCAL/MOL
REMARK 923 INTER-LIGAND FREE ENERGY PREDICTED BY IDOCK:   -4.37 KCAL/MOL
REMARK 924 INTRA-LIGAND FREE ENERGY PREDICTED BY IDOCK:   -0.14 KCAL/MOL
REMARK 927      BINDING AFFINITY PREDICTED BY RF-SCORE:    0.00 PKD
ROOT
HETATM    1  N   UNL     1     -10.664   9.412  67.653  1.00  0.00    -0.402 NA 
HETATM    2  H1  UNL     1     -10.854  10.156  66.982  1.00  0.00     0.000 HD 
HETATM    3  C   UNL     1     -11.058   9.418  68.981  1.00  0.00     0.016 C  
HETATM    4  H2  UNL     1     -11.025   8.549  67.244  1.00  0.00     0.000 HD 
HETATM    5  C   UNL     1     -10.809   8.437  69.865  1.00  0.00    -0.207 C  
HETATM    6  C   UNL     1     -11.253   8.503  71.249  1.00  0.00    -0.321 C  
HETATM    7  C   UNL     1     -11.918   9.595  71.665  1.00  0.00    -0.394 C  
HETATM    8  O   UNL     1     -12.199  11.510  68.699  1.00  0.00    -0.492 OA 
HETATM    9  N   UNL     1     -12.201  10.619  70.797  1.00  0.00    -0.341 N  
HETATM   10  C   UNL     1     -11.860  10.614  69.467  1.00  0.00    -0.273 C  
HETATM   11  H   UNL     1     -12.694  11.433  71.162  1.00  0.00     0.000 HD 
ENDROOT
BRANCH   6  12
HETATM   12  C   UNL     1     -11.043   7.412  72.213  1.00  0.00    -0.308 A  
HETATM   13  C   UNL     1     -11.599   6.154  71.971  1.00  0.00    -0.364 A  
HETATM   14  N   UNL     1     -10.691   5.327  74.045  1.00  0.00    -0.278 NA 
HETATM   15  C   UNL     1     -11.399   5.156  72.909  1.00  0.00    -0.282 A  
HETATM   16  C   UNL     1     -10.155   6.550  74.251  1.00  0.00    -0.356 A  
HETATM   17  C   UNL     1     -10.299   7.614  73.376  1.00  0.00    -0.374 A  
ENDBRANCH   6  12
TORSDOF 1
ENDMDL
MODEL       85
REMARK 921   NORMALIZED FREE ENERGY PREDICTED BY IDOCK:   -4.11 KCAL/MOL
REMARK 922        TOTAL FREE ENERGY PREDICTED BY IDOCK:   -4.50 KCAL/MOL
REMARK 923 INTER-LIGAND FREE ENERGY PREDICTED BY IDOCK:   -4.34 KCAL/MOL
REMARK 924 INTRA-LIGAND FREE ENERGY PREDICTED BY IDOCK:   -0.16 KCAL/MOL
REMARK 927      BINDING AFFINITY PREDICTED BY RF-SCORE:    0.00 PKD
ROOT
HETATM    1  N   UNL     1      -8.288  10.471  69.683  1.00  0.00    -0.371 NA 
HETATM    2  H1  UNL     1      -8.295   9.656  70.296  1.00  0.00     0.000 HD 
HETATM    3  C   UNL     1      -9.358  10.898  68.915  1.00  0.00    -0.160 C  
HETATM    4  H2  UNL     1      -8.001  11.266  70.254  1.00  0.00     0.000 HD 
HETATM    5  C   UNL     1      -9.349  11.972  68.107  1.00  0.00    -0.199 C  
HETATM    6  C   UNL     1     -10.511  12.370  67.326  1.00  0.00    -0.237 C  
HETATM    7  C   UNL     1     -11.627  11.624  67.398  1.00  0.00    -0.254 C  
HETATM    8  O   UNL     1     -10.765   9.164  69.796  1.00  0.00    -0.224 OA 
HETATM    9  N   UNL     1     -11.685  10.523  68.214  1.00  0.00    -0.466 N  
HETATM   10  C   UNL     1     -10.653  10.107  69.018  1.00  0.00    -0.223 C  
HETATM   11  H   UNL     1     -12.548   9.980  68.224  1.00  0.00     0.000 HD 
ENDROOT
BRANCH   6  12
HETATM   12  C   UNL     1     -10.539  13.576  66.485  1.00  0.00    -0.281 A  
HETATM   13  C   UNL     1      -9.623  14.605  66.716  1.00  0.00    -0.266 A  
HETATM   14  N   UNL     1     -10.588  15.898  64.925  1.00  0.00    -0.580 NA 
HETATM   15  C   UNL     1      -9.690  15.735  65.920  1.00  0.00    -0.354 A  
HETATM   16  C   UNL     1     -11.456  14.884  64.715  1.00  0.00    -0.410 A  
HETATM   17  C   UNL     1     -11.472  13.715  65.457  1.00  0.00    -0.317 A  
ENDBRANCH   6  12
TORSDOF 1
ENDMDL
MODEL       86
REMARK 921   NORMALIZED FREE ENERGY PREDICTED BY IDOCK:   -4.10 KCAL/MOL
REMARK 922        TOTAL FREE ENERGY PREDICTED BY IDOCK:   -4.49 KCAL/MOL
REMARK 923 INTER-LIGAND FREE ENERGY PREDICTED BY IDOCK:   -4.35 KCAL/MOL
REMARK 924 INTRA-LIGAND FREE ENERGY PREDICTED BY IDOCK:   -0.14 KCAL/MOL
REMARK 927      BINDING AFFINITY PREDICTED BY RF-SCORE:    0.00 PKD
ROOT
HETATM    1  N   UNL     1     -12.760  12.207  70.422  1.00  0.00     0.007 NA 
HETATM    2  H1  UNL     1     -13.422  11.686  70.997  1.00  0.00     0.000 HD 
HETATM    3  C   UNL     1     -12.369  13.516  70.646  1.00  0.00    -0.358 C  
HETATM    4  H2  UNL     1     -11.906  11.649  70.380  1.00  0.00     0.000 HD 
HETATM    5  C   UNL     1     -11.497  14.203  69.888  1.00  0.00    -0.288 C  
HETATM    6  C   UNL     1     -11.125  15.579  70.179  1.00  0.00    -0.337 C  
HETATM    7  C   UNL     1     -11.693  16.196  71.230  1.00  0.00    -0.425 C  
HETATM    8  O   UNL     1     -13.691  13.636  72.646  1.00  0.00    -0.668 OA 
HETATM    9  N   UNL     1     -12.585  15.533  72.036  1.00  0.00    -0.371 N  
HETATM   10  C   UNL     1     -12.952  14.222  71.860  1.00  0.00    -0.350 C  
HETATM   11  H   UNL     1     -13.001  16.047  72.813  1.00  0.00     0.000 HD 
ENDROOT
BRANCH   6  12
HETATM   12  C   UNL     1     -10.126  16.324  69.398  1.00  0.00    -0.253 A  
HETATM   13  C   UNL     1     -10.473  17.540  68.806  1.00  0.00    -0.318 A  
HETATM   14  N   UNL     1      -8.259  17.747  67.878  1.00  0.00    -0.231 NA 
HETATM   15  C   UNL     1      -9.515  18.205  68.061  1.00  0.00    -0.285 A  
HETATM   16  C   UNL     1      -7.944  16.574  68.470  1.00  0.00    -0.216 A  
HETATM   17  C   UNL     1      -8.831  15.833  69.233  1.00  0.00    -0.262 A  
ENDBRANCH   6  12
TORSDOF 1
ENDMDL
MODEL       87
REMARK 921   NORMALIZED FREE ENERGY PREDICTED BY IDOCK:   -4.10 KCAL/MOL
REMARK 922        TOTAL FREE ENERGY PREDICTED BY IDOCK:   -4.49 KCAL/MOL
REMARK 923 INTER-LIGAND FREE ENERGY PREDICTED BY IDOCK:   -4.34 KCAL/MOL
REMARK 924 INTRA-LIGAND FREE ENERGY PREDICTED BY IDOCK:   -0.15 KCAL/MOL
REMARK 927      BINDING AFFINITY PREDICTED BY RF-SCORE:    0.00 PKD
ROOT
HETATM    1  N   UNL     1     -11.172   4.870  65.691  1.00  0.00    -0.929 NA 
HETATM    2  H1  UNL     1     -10.782   4.534  64.811  1.00  0.00     0.000 HD 
HETATM    3  C   UNL     1     -10.505   5.674  66.601  1.00  0.00    -0.279 C  
HETATM    4  H2  UNL     1     -12.044   5.347  65.463  1.00  0.00     0.000 HD 
HETATM    5  C   UNL     1     -11.018   6.118  67.761  1.00  0.00    -0.400 C  
HETATM    6  C   UNL     1     -10.264   6.964  68.674  1.00  0.00    -0.181 C  
HETATM    7  C   UNL     1      -9.000   7.295  68.357  1.00  0.00    -0.126 C  
HETATM    8  O   UNL     1      -8.587   5.816  65.165  1.00  0.00    -0.149 OA 
HETATM    9  N   UNL     1      -8.436   6.871  67.181  1.00  0.00    -0.120 N  
HETATM   10  C   UNL     1      -9.093   6.111  66.244  1.00  0.00    -0.154 C  
HETATM   11  H   UNL     1      -7.470   7.135  66.990  1.00  0.00     0.000 HD 
ENDROOT
BRANCH   6  12
HETATM   12  C   UNL     1     -10.830   7.509  69.917  1.00  0.00    -0.250 A  
HETATM   13  C   UNL     1     -10.453   8.781  70.353  1.00  0.00    -0.240 A  
HETATM   14  N   UNL     1     -11.863   8.560  72.295  1.00  0.00    -0.379 NA 
HETATM   15  C   UNL     1     -10.989   9.256  71.537  1.00  0.00    -0.375 A  
HETATM   16  C   UNL     1     -12.221   7.337  71.846  1.00  0.00    -0.313 A  
HETATM   17  C   UNL     1     -11.740   6.773  70.676  1.00  0.00    -0.440 A  
ENDBRANCH   6  12
TORSDOF 1
ENDMDL
MODEL       88
REMARK 921   NORMALIZED FREE ENERGY PREDICTED BY IDOCK:   -4.10 KCAL/MOL
REMARK 922        TOTAL FREE ENERGY PREDICTED BY IDOCK:   -4.49 KCAL/MOL
REMARK 923 INTER-LIGAND FREE ENERGY PREDICTED BY IDOCK:   -4.33 KCAL/MOL
REMARK 924 INTRA-LIGAND FREE ENERGY PREDICTED BY IDOCK:   -0.16 KCAL/MOL
REMARK 927      BINDING AFFINITY PREDICTED BY RF-SCORE:    0.00 PKD
ROOT
HETATM    1  N   UNL     1     -12.316  13.063  66.068  1.00  0.00    -0.490 NA 
HETATM    2  H1  UNL     1     -13.223  13.452  65.810  1.00  0.00     0.000 HD 
HETATM    3  C   UNL     1     -11.495  12.334  65.224  1.00  0.00    -0.351 C  
HETATM    4  H2  UNL     1     -11.755  13.837  66.425  1.00  0.00     0.000 HD 
HETATM    5  C   UNL     1     -10.300  11.820  65.563  1.00  0.00    -0.304 C  
HETATM    6  C   UNL     1      -9.483  11.063  64.626  1.00  0.00    -0.270 C  
HETATM    7  C   UNL     1      -9.950  10.848  63.384  1.00  0.00    -0.361 C  
HETATM    8  O   UNL     1     -13.012  12.629  63.388  1.00  0.00    -0.649 OA 
HETATM    9  N   UNL     1     -11.162  11.357  62.992  1.00  0.00    -0.844 N  
HETATM   10  C   UNL     1     -11.971  12.121  63.796  1.00  0.00    -0.513 C  
HETATM   11  H   UNL     1     -11.482  11.156  62.044  1.00  0.00     0.000 HD 
ENDROOT
BRANCH   6  12
HETATM   12  C   UNL     1      -8.146  10.548  64.960  1.00  0.00    -0.096 A  
HETATM   13  C   UNL     1      -7.769  10.412  66.298  1.00  0.00    -0.129 A  
HETATM   14  N   UNL     1      -5.599   9.605  65.628  1.00  0.00    -0.048 NA 
HETATM   15  C   UNL     1      -6.497   9.944  66.578  1.00  0.00    -0.071 A  
HETATM   16  C   UNL     1      -5.992   9.735  64.342  1.00  0.00    -0.095 A  
HETATM   17  C   UNL     1      -7.241  10.195  63.960  1.00  0.00    -0.106 A  
ENDBRANCH   6  12
TORSDOF 1
ENDMDL
MODEL       89
REMARK 921   NORMALIZED FREE ENERGY PREDICTED BY IDOCK:   -4.06 KCAL/MOL
REMARK 922        TOTAL FREE ENERGY PREDICTED BY IDOCK:   -4.45 KCAL/MOL
REMARK 923 INTER-LIGAND FREE ENERGY PREDICTED BY IDOCK:   -4.28 KCAL/MOL
REMARK 924 INTRA-LIGAND FREE ENERGY PREDICTED BY IDOCK:   -0.16 KCAL/MOL
REMARK 927      BINDING AFFINITY PREDICTED BY RF-SCORE:    0.00 PKD
ROOT
HETATM    1  N   UNL     1      -7.133  17.398  67.628  1.00  0.00    -0.161 NA 
HETATM    2  H1  UNL     1      -6.431  17.701  68.303  1.00  0.00     0.000 HD 
HETATM    3  C   UNL     1      -7.902  16.251  67.740  1.00  0.00    -0.142 C  
HETATM    4  H2  UNL     1      -7.783  18.176  67.510  1.00  0.00     0.000 HD 
HETATM    5  C   UNL     1      -8.828  15.852  66.851  1.00  0.00    -0.264 C  
HETATM    6  C   UNL     1      -9.606  14.635  67.029  1.00  0.00    -0.246 C  
HETATM    7  C   UNL     1      -9.375  13.870  68.110  1.00  0.00    -0.203 C  
HETATM    8  O   UNL     1      -6.937  15.737  69.876  1.00  0.00    -0.140 OA 
HETATM    9  N   UNL     1      -8.444  14.240  69.048  1.00  0.00    -0.349 N  
HETATM   10  C   UNL     1      -7.703  15.394  68.980  1.00  0.00    -0.186 C  
HETATM   11  H   UNL     1      -8.293  13.621  69.843  1.00  0.00     0.000 HD 
ENDROOT
BRANCH   6  12
HETATM   12  C   UNL     1     -10.665  14.215  66.099  1.00  0.00    -0.297 A  
HETATM   13  C   UNL     1     -11.083  15.081  65.086  1.00  0.00    -0.408 A  
HETATM   14  N   UNL     1     -12.701  13.460  64.336  1.00  0.00    -0.662 NA 
HETATM   15  C   UNL     1     -12.096  14.663  64.241  1.00  0.00    -0.415 A  
HETATM   16  C   UNL     1     -12.271  12.636  65.317  1.00  0.00    -0.475 A  
HETATM   17  C   UNL     1     -11.267  12.962  66.213  1.00  0.00    -0.337 A  
ENDBRANCH   6  12
TORSDOF 1
ENDMDL
MODEL       90
REMARK 921   NORMALIZED FREE ENERGY PREDICTED BY IDOCK:   -4.05 KCAL/MOL
REMARK 922        TOTAL FREE ENERGY PREDICTED BY IDOCK:   -4.43 KCAL/MOL
REMARK 923 INTER-LIGAND FREE ENERGY PREDICTED BY IDOCK:   -4.27 KCAL/MOL
REMARK 924 INTRA-LIGAND FREE ENERGY PREDICTED BY IDOCK:   -0.16 KCAL/MOL
REMARK 927      BINDING AFFINITY PREDICTED BY RF-SCORE:    0.00 PKD
ROOT
HETATM    1  N   UNL     1      -8.622   8.085  65.279  1.00  0.00    -0.311 NA 
HETATM    2  H1  UNL     1      -8.073   7.330  64.869  1.00  0.00     0.000 HD 
HETATM    3  C   UNL     1      -9.045   9.218  64.604  1.00  0.00    -0.121 C  
HETATM    4  H2  UNL     1      -9.456   7.657  65.683  1.00  0.00     0.000 HD 
HETATM    5  C   UNL     1      -9.768  10.214  65.144  1.00  0.00    -0.370 C  
HETATM    6  C   UNL     1     -10.183  11.380  64.379  1.00  0.00    -0.361 C  
HETATM    7  C   UNL     1      -9.810  11.477  63.091  1.00  0.00    -0.390 C  
HETATM    8  O   UNL     1      -8.098   8.424  62.547  1.00  0.00    -0.152 OA 
HETATM    9  N   UNL     1      -9.076  10.483  62.496  1.00  0.00    -0.262 N  
HETATM   10  C   UNL     1      -8.685   9.330  63.132  1.00  0.00    -0.183 C  
HETATM   11  H   UNL     1      -8.803  10.607  61.521  1.00  0.00     0.000 HD 
ENDROOT
BRANCH   6  12
HETATM   12  C   UNL     1     -11.027  12.448  64.936  1.00  0.00    -0.341 A  
HETATM   13  C   UNL     1     -11.389  13.535  64.137  1.00  0.00    -0.370 A  
HETATM   14  N   UNL     1     -12.603  14.512  65.976  1.00  0.00    -0.215 NA 
HETATM   15  C   UNL     1     -12.167  14.533  64.699  1.00  0.00    -0.460 A  
HETATM   16  C   UNL     1     -12.249  13.445  66.725  1.00  0.00    -0.312 A  
HETATM   17  C   UNL     1     -11.473  12.397  66.257  1.00  0.00    -0.423 A  
ENDBRANCH   6  12
TORSDOF 1
ENDMDL
MODEL       91
REMARK 921   NORMALIZED FREE ENERGY PREDICTED BY IDOCK:   -4.04 KCAL/MOL
REMARK 922        TOTAL FREE ENERGY PREDICTED BY IDOCK:   -4.43 KCAL/MOL
REMARK 923 INTER-LIGAND FREE ENERGY PREDICTED BY IDOCK:   -4.28 KCAL/MOL
REMARK 924 INTRA-LIGAND FREE ENERGY PREDICTED BY IDOCK:   -0.15 KCAL/MOL
REMARK 927      BINDING AFFINITY PREDICTED BY RF-SCORE:    0.00 PKD
ROOT
HETATM    1  N   UNL     1     -12.408  14.313  67.107  1.00  0.00    -0.586 NA 
HETATM    2  H1  UNL     1     -12.836  15.090  67.609  1.00  0.00     0.000 HD 
HETATM    3  C   UNL     1     -11.842  13.197  67.701  1.00  0.00    -0.359 C  
HETATM    4  H2  UNL     1     -13.105  13.971  66.446  1.00  0.00     0.000 HD 
HETATM    5  C   UNL     1     -11.277  12.173  67.040  1.00  0.00    -0.370 C  
HETATM    6  C   UNL     1     -10.701  11.025  67.724  1.00  0.00    -0.270 C  
HETATM    7  C   UNL     1     -10.712  10.999  69.068  1.00  0.00    -0.219 C  
HETATM    8  O   UNL     1     -12.461  13.969  69.888  1.00  0.00    -0.333 OA 
HETATM    9  N   UNL     1     -11.283  12.020  69.786  1.00  0.00    -0.490 N  
HETATM   10  C   UNL     1     -11.889  13.113  69.218  1.00  0.00    -0.323 C  
HETATM   11  H   UNL     1     -11.254  11.963  70.804  1.00  0.00     0.000 HD 
ENDROOT
BRANCH   6  12
HETATM   12  C   UNL     1     -10.135   9.867  67.015  1.00  0.00    -0.275 A  
HETATM   13  C   UNL     1     -10.427   8.574  67.454  1.00  0.00    -0.351 A  
HETATM   14  N   UNL     1      -9.047   7.646  65.710  1.00  0.00    -0.060 NA 
HETATM   15  C   UNL     1      -9.862   7.507  66.777  1.00  0.00    -0.225 A  
HETATM   16  C   UNL     1      -8.789   8.906  65.298  1.00  0.00    -0.184 A  
HETATM   17  C   UNL     1      -9.304  10.038  65.909  1.00  0.00    -0.236 A  
ENDBRANCH   6  12
TORSDOF 1
ENDMDL
MODEL       92
REMARK 921   NORMALIZED FREE ENERGY PREDICTED BY IDOCK:   -4.04 KCAL/MOL
REMARK 922        TOTAL FREE ENERGY PREDICTED BY IDOCK:   -4.42 KCAL/MOL
REMARK 923 INTER-LIGAND FREE ENERGY PREDICTED BY IDOCK:   -4.28 KCAL/MOL
REMARK 924 INTRA-LIGAND FREE ENERGY PREDICTED BY IDOCK:   -0.14 KCAL/MOL
REMARK 927      BINDING AFFINITY PREDICTED BY RF-SCORE:    0.00 PKD
ROOT
HETATM    1  N   UNL     1     -12.530  10.708  69.197  1.00  0.00    -0.737 NA 
HETATM    2  H1  UNL     1     -12.961  11.120  70.024  1.00  0.00     0.000 HD 
HETATM    3  C   UNL     1     -11.823  11.411  68.235  1.00  0.00    -0.249 C  
HETATM    4  H2  UNL     1     -11.916   9.963  69.526  1.00  0.00     0.000 HD 
HETATM    5  C   UNL     1     -11.255  10.868  67.145  1.00  0.00    -0.258 C  
HETATM    6  C   UNL     1     -10.521  11.663  66.170  1.00  0.00    -0.289 C  
HETATM    7  C   UNL     1     -10.429  12.991  66.355  1.00  0.00    -0.276 C  
HETATM    8  O   UNL     1     -12.073  13.461  69.458  1.00  0.00    -0.311 OA 
HETATM    9  N   UNL     1     -10.988  13.588  67.456  1.00  0.00    -0.264 N  
HETATM   10  C   UNL     1     -11.654  12.907  68.445  1.00  0.00    -0.333 C  
HETATM   11  H   UNL     1     -10.905  14.601  67.546  1.00  0.00     0.000 HD 
ENDROOT
BRANCH   6  12
HETATM   12  C   UNL     1      -9.841  11.078  65.006  1.00  0.00    -0.321 A  
HETATM   13  C   UNL     1     -10.150  11.530  63.721  1.00  0.00    -0.407 A  
HETATM   14  N   UNL     1      -8.589   9.961  62.767  1.00  0.00    -0.168 NA 
HETATM   15  C   UNL     1      -9.506  10.943  62.645  1.00  0.00    -0.293 A  
HETATM   16  C   UNL     1      -8.299   9.548  64.021  1.00  0.00    -0.170 A  
HETATM   17  C   UNL     1      -8.889  10.070  65.160  1.00  0.00    -0.207 A  
ENDBRANCH   6  12
TORSDOF 1
ENDMDL
MODEL       93
REMARK 921   NORMALIZED FREE ENERGY PREDICTED BY IDOCK:   -4.03 KCAL/MOL
REMARK 922        TOTAL FREE ENERGY PREDICTED BY IDOCK:   -4.41 KCAL/MOL
REMARK 923 INTER-LIGAND FREE ENERGY PREDICTED BY IDOCK:   -4.28 KCAL/MOL
REMARK 924 INTRA-LIGAND FREE ENERGY PREDICTED BY IDOCK:   -0.13 KCAL/MOL
REMARK 927      BINDING AFFINITY PREDICTED BY RF-SCORE:    0.00 PKD
ROOT
HETATM    1  N   UNL     1      -6.543  18.599  68.315  1.00  0.00    -0.218 NA 
HETATM    2  H1  UNL     1      -6.035  19.449  68.070  1.00  0.00     0.000 HD 
HETATM    3  C   UNL     1      -7.911  18.426  68.190  1.00  0.00    -0.288 C  
HETATM    4  H2  UNL     1      -6.102  17.836  67.800  1.00  0.00     0.000 HD 
HETATM    5  C   UNL     1      -8.581  17.306  68.511  1.00  0.00    -0.270 C  
HETATM    6  C   UNL     1     -10.022  17.186  68.354  1.00  0.00    -0.310 C  
HETATM    7  C   UNL     1     -10.714  18.242  67.891  1.00  0.00    -0.311 C  
HETATM    8  O   UNL     1      -8.163  20.608  67.223  1.00  0.00    -0.336 OA 
HETATM    9  N   UNL     1     -10.073  19.405  67.545  1.00  0.00    -0.372 N  
HETATM   10  C   UNL     1      -8.713  19.583  67.617  1.00  0.00    -0.315 C  
HETATM   11  H   UNL     1     -10.641  20.184  67.212  1.00  0.00     0.000 HD 
ENDROOT
BRANCH   6  12
HETATM   12  C   UNL     1     -10.762  15.948  68.642  1.00  0.00    -0.274 A  
HETATM   13  C   UNL     1     -11.460  15.820  69.844  1.00  0.00    -0.347 A  
HETATM   14  N   UNL     1     -12.150  13.593  69.234  1.00  0.00    -0.335 NA 
HETATM   15  C   UNL     1     -12.129  14.634  70.093  1.00  0.00    -0.327 A  
HETATM   16  C   UNL     1     -11.476  13.745  68.073  1.00  0.00    -0.310 A  
HETATM   17  C   UNL     1     -10.776  14.891  67.732  1.00  0.00    -0.271 A  
ENDBRANCH   6  12
TORSDOF 1
ENDMDL
MODEL       94
REMARK 921   NORMALIZED FREE ENERGY PREDICTED BY IDOCK:   -4.02 KCAL/MOL
REMARK 922        TOTAL FREE ENERGY PREDICTED BY IDOCK:   -4.40 KCAL/MOL
REMARK 923 INTER-LIGAND FREE ENERGY PREDICTED BY IDOCK:   -4.24 KCAL/MOL
REMARK 924 INTRA-LIGAND FREE ENERGY PREDICTED BY IDOCK:   -0.16 KCAL/MOL
REMARK 927      BINDING AFFINITY PREDICTED BY RF-SCORE:    0.00 PKD
ROOT
HETATM    1  N   UNL     1     -11.095   7.863  72.849  1.00  0.00    -0.402 NA 
HETATM    2  H1  UNL     1     -11.743   7.467  73.529  1.00  0.00     0.000 HD 
HETATM    3  C   UNL     1     -11.431   8.788  71.874  1.00  0.00    -0.358 C  
HETATM    4  H2  UNL     1     -10.322   8.265  73.380  1.00  0.00     0.000 HD 
HETATM    5  C   UNL     1     -10.578   9.311  70.978  1.00  0.00    -0.386 C  
HETATM    6  C   UNL     1     -10.995  10.283  69.978  1.00  0.00    -0.371 C  
HETATM    7  C   UNL     1     -12.286  10.655  69.934  1.00  0.00    -0.275 C  
HETATM    8  O   UNL     1     -13.692   8.901  72.672  1.00  0.00    -0.444 OA 
HETATM    9  N   UNL     1     -13.193  10.152  70.833  1.00  0.00    -0.513 N  
HETATM   10  C   UNL     1     -12.873   9.270  71.835  1.00  0.00    -0.404 C  
HETATM   11  H   UNL     1     -14.164  10.452  70.751  1.00  0.00     0.000 HD 
ENDROOT
BRANCH   6  12
HETATM   12  C   UNL     1     -10.062  10.912  69.031  1.00  0.00    -0.212 A  
HETATM   13  C   UNL     1     -10.525  11.886  68.144  1.00  0.00    -0.225 A  
HETATM   14  N   UNL     1      -8.320  12.101  67.193  1.00  0.00    -0.178 NA 
HETATM   15  C   UNL     1      -9.625  12.443  67.251  1.00  0.00    -0.199 A  
HETATM   16  C   UNL     1      -7.895  11.164  68.068  1.00  0.00    -0.114 A  
HETATM   17  C   UNL     1      -8.716  10.547  68.998  1.00  0.00    -0.160 A  
ENDBRANCH   6  12
TORSDOF 1
ENDMDL
MODEL       95
REMARK 921   NORMALIZED FREE ENERGY PREDICTED BY IDOCK:   -4.01 KCAL/MOL
REMARK 922        TOTAL FREE ENERGY PREDICTED BY IDOCK:   -4.40 KCAL/MOL
REMARK 923 INTER-LIGAND FREE ENERGY PREDICTED BY IDOCK:   -4.24 KCAL/MOL
REMARK 924 INTRA-LIGAND FREE ENERGY PREDICTED BY IDOCK:   -0.16 KCAL/MOL
REMARK 927      BINDING AFFINITY PREDICTED BY RF-SCORE:    0.00 PKD
ROOT
HETATM    1  N   UNL     1      -9.616   9.437  67.117  1.00  0.00    -0.148 NA 
HETATM    2  H1  UNL     1      -9.152   8.599  66.767  1.00  0.00     0.000 HD 
HETATM    3  C   UNL     1     -10.259   9.540  68.339  1.00  0.00    -0.194 C  
HETATM    4  H2  UNL     1      -8.927  10.189  67.084  1.00  0.00     0.000 HD 
HETATM    5  C   UNL     1     -10.870  10.645  68.800  1.00  0.00    -0.269 C  
HETATM    6  C   UNL     1     -11.528  10.689  70.097  1.00  0.00    -0.411 C  
HETATM    7  C   UNL     1     -11.546   9.578  70.853  1.00  0.00    -0.326 C  
HETATM    8  O   UNL     1      -9.641   7.297  68.925  1.00  0.00    -0.144 OA 
HETATM    9  N   UNL     1     -10.931   8.428  70.426  1.00  0.00    -0.240 N  
HETATM   10  C   UNL     1     -10.249   8.316  69.240  1.00  0.00    -0.204 C  
HETATM   11  H   UNL     1     -10.984   7.606  71.028  1.00  0.00     0.000 HD 
ENDROOT
BRANCH   6  12
HETATM   12  C   UNL     1     -12.146  11.907  70.643  1.00  0.00    -0.389 A  
HETATM   13  C   UNL     1     -11.756  13.159  70.164  1.00  0.00    -0.250 A  
HETATM   14  N   UNL     1     -13.279  14.242  71.686  1.00  0.00    -0.337 NA 
HETATM   15  C   UNL     1     -12.343  14.285  70.715  1.00  0.00    -0.357 A  
HETATM   16  C   UNL     1     -13.647  13.019  72.125  1.00  0.00    -0.526 A  
HETATM   17  C   UNL     1     -13.119  11.834  71.641  1.00  0.00    -0.443 A  
ENDBRANCH   6  12
TORSDOF 1
ENDMDL
MODEL       96
REMARK 921   NORMALIZED FREE ENERGY PREDICTED BY IDOCK:   -3.96 KCAL/MOL
REMARK 922        TOTAL FREE ENERGY PREDICTED BY IDOCK:   -4.34 KCAL/MOL
REMARK 923 INTER-LIGAND FREE ENERGY PREDICTED BY IDOCK:   -4.22 KCAL/MOL
REMARK 924 INTRA-LIGAND FREE ENERGY PREDICTED BY IDOCK:   -0.13 KCAL/MOL
REMARK 927      BINDING AFFINITY PREDICTED BY RF-SCORE:    0.00 PKD
ROOT
HETATM    1  N   UNL     1      -9.079   3.601  71.555  1.00  0.00    -0.107 NA 
HETATM    2  H1  UNL     1      -8.526   2.850  71.142  1.00  0.00     0.000 HD 
HETATM    3  C   UNL     1      -9.815   4.531  70.841  1.00  0.00    -0.199 C  
HETATM    4  H2  UNL     1      -9.721   3.164  72.216  1.00  0.00     0.000 HD 
HETATM    5  C   UNL     1     -10.544   5.521  71.384  1.00  0.00    -0.310 C  
HETATM    6  C   UNL     1     -11.299   6.467  70.576  1.00  0.00    -0.426 C  
HETATM    7  C   UNL     1     -11.248   6.362  69.237  1.00  0.00    -0.375 C  
HETATM    8  O   UNL     1      -9.248   3.478  68.760  1.00  0.00    -0.137 OA 
HETATM    9  N   UNL     1     -10.522   5.364  68.637  1.00  0.00    -0.162 N  
HETATM   10  C   UNL     1      -9.821   4.404  69.326  1.00  0.00    -0.148 C  
HETATM   11  H   UNL     1     -10.501   5.333  67.618  1.00  0.00     0.000 HD 
ENDROOT
BRANCH   6  12
HETATM   12  C   UNL     1     -12.151   7.517  71.155  1.00  0.00    -0.335 A  
HETATM   13  C   UNL     1     -11.629   8.794  71.372  1.00  0.00    -0.366 A  
HETATM   14  N   UNL     1     -13.736   9.526  72.286  1.00  0.00    -0.422 NA 
HETATM   15  C   UNL     1     -12.452   9.753  71.937  1.00  0.00    -0.366 A  
HETATM   16  C   UNL     1     -14.221   8.286  72.056  1.00  0.00    -0.424 A  
HETATM   17  C   UNL     1     -13.478   7.258  71.497  1.00  0.00    -0.439 A  
ENDBRANCH   6  12
TORSDOF 1
ENDMDL
MODEL       97
REMARK 921   NORMALIZED FREE ENERGY PREDICTED BY IDOCK:   -3.96 KCAL/MOL
REMARK 922        TOTAL FREE ENERGY PREDICTED BY IDOCK:   -4.34 KCAL/MOL
REMARK 923 INTER-LIGAND FREE ENERGY PREDICTED BY IDOCK:   -4.19 KCAL/MOL
REMARK 924 INTRA-LIGAND FREE ENERGY PREDICTED BY IDOCK:   -0.14 KCAL/MOL
REMARK 927      BINDING AFFINITY PREDICTED BY RF-SCORE:    0.00 PKD
ROOT
HETATM    1  N   UNL     1      -8.995   3.083  67.385  1.00  0.00    -0.145 NA 
HETATM    2  H1  UNL     1      -8.866   2.562  66.518  1.00  0.00     0.000 HD 
HETATM    3  C   UNL     1      -9.717   4.258  67.506  1.00  0.00    -0.148 C  
HETATM    4  H2  UNL     1      -9.383   2.429  68.065  1.00  0.00     0.000 HD 
HETATM    5  C   UNL     1      -9.888   4.946  68.648  1.00  0.00    -0.221 C  
HETATM    6  C   UNL     1     -10.662   6.176  68.709  1.00  0.00    -0.370 C  
HETATM    7  C   UNL     1     -11.207   6.657  67.578  1.00  0.00    -0.191 C  
HETATM    8  O   UNL     1     -10.351   4.183  65.192  1.00  0.00    -0.229 OA 
HETATM    9  N   UNL     1     -11.064   5.987  66.389  1.00  0.00    -0.736 N  
HETATM   10  C   UNL     1     -10.392   4.797  66.254  1.00  0.00    -0.291 C  
HETATM   11  H   UNL     1     -11.483   6.397  65.555  1.00  0.00     0.000 HD 
ENDROOT
BRANCH   6  12
HETATM   12  C   UNL     1     -10.912   6.907  69.961  1.00  0.00    -0.320 A  
HETATM   13  C   UNL     1     -11.282   6.208  71.112  1.00  0.00    -0.355 A  
HETATM   14  N   UNL     1     -11.427   8.271  72.348  1.00  0.00    -0.382 NA 
HETATM   15  C   UNL     1     -11.529   6.928  72.268  1.00  0.00    -0.275 A  
HETATM   16  C   UNL     1     -11.057   8.924  71.225  1.00  0.00    -0.297 A  
HETATM   17  C   UNL     1     -10.789   8.295  70.020  1.00  0.00    -0.232 A  
ENDBRANCH   6  12
TORSDOF 1
ENDMDL
MODEL       98
REMARK 921   NORMALIZED FREE ENERGY PREDICTED BY IDOCK:   -3.91 KCAL/MOL
REMARK 922        TOTAL FREE ENERGY PREDICTED BY IDOCK:   -4.28 KCAL/MOL
REMARK 923 INTER-LIGAND FREE ENERGY PREDICTED BY IDOCK:   -4.16 KCAL/MOL
REMARK 924 INTRA-LIGAND FREE ENERGY PREDICTED BY IDOCK:   -0.13 KCAL/MOL
REMARK 927      BINDING AFFINITY PREDICTED BY RF-SCORE:    0.00 PKD
ROOT
HETATM    1  N   UNL     1      -6.486  13.664  68.540  1.00  0.00    -0.082 NA 
HETATM    2  H1  UNL     1      -5.663  14.048  69.005  1.00  0.00     0.000 HD 
HETATM    3  C   UNL     1      -7.377  14.393  67.770  1.00  0.00    -0.173 C  
HETATM    4  H2  UNL     1      -6.162  12.891  67.960  1.00  0.00     0.000 HD 
HETATM    5  C   UNL     1      -8.462  13.888  67.158  1.00  0.00    -0.196 C  
HETATM    6  C   UNL     1      -9.359  14.709  66.359  1.00  0.00    -0.313 C  
HETATM    7  C   UNL     1      -9.108  16.025  66.248  1.00  0.00    -0.344 C  
HETATM    8  O   UNL     1      -6.074  16.391  68.038  1.00  0.00    -0.106 OA 
HETATM    9  N   UNL     1      -8.010  16.584  66.850  1.00  0.00    -0.199 N  
HETATM   10  C   UNL     1      -7.089  15.874  67.580  1.00  0.00    -0.179 C  
HETATM   11  H   UNL     1      -7.869  17.589  66.750  1.00  0.00     0.000 HD 
ENDROOT
BRANCH   6  12
HETATM   12  C   UNL     1     -10.515  14.162  65.632  1.00  0.00    -0.333 A  
HETATM   13  C   UNL     1     -10.328  13.551  64.390  1.00  0.00    -0.306 A  
HETATM   14  N   UNL     1     -12.696  13.142  64.208  1.00  0.00    -0.674 NA 
HETATM   15  C   UNL     1     -11.439  13.066  63.723  1.00  0.00    -0.429 A  
HETATM   16  C   UNL     1     -12.849  13.728  65.416  1.00  0.00    -0.410 A  
HETATM   17  C   UNL     1     -11.802  14.246  66.161  1.00  0.00    -0.413 A  
ENDBRANCH   6  12
TORSDOF 1
ENDMDL
MODEL       99
REMARK 921   NORMALIZED FREE ENERGY PREDICTED BY IDOCK:   -3.90 KCAL/MOL
REMARK 922        TOTAL FREE ENERGY PREDICTED BY IDOCK:   -4.27 KCAL/MOL
REMARK 923 INTER-LIGAND FREE ENERGY PREDICTED BY IDOCK:   -4.12 KCAL/MOL
REMARK 924 INTRA-LIGAND FREE ENERGY PREDICTED BY IDOCK:   -0.15 KCAL/MOL
REMARK 927      BINDING AFFINITY PREDICTED BY RF-SCORE:    0.00 PKD
ROOT
HETATM    1  N   UNL     1     -10.027   4.981  70.003  1.00  0.00    -0.233 NA 
HETATM    2  H1  UNL     1      -9.702   4.047  70.252  1.00  0.00     0.000 HD 
HETATM    3  C   UNL     1     -10.579   5.893  70.887  1.00  0.00    -0.256 C  
HETATM    4  H2  UNL     1      -9.246   5.451  69.546  1.00  0.00     0.000 HD 
HETATM    5  C   UNL     1     -11.008   7.124  70.559  1.00  0.00    -0.287 C  
HETATM    6  C   UNL     1     -11.578   8.038  71.538  1.00  0.00    -0.313 C  
HETATM    7  C   UNL     1     -11.702   7.628  72.812  1.00  0.00    -0.223 C  
HETATM    8  O   UNL     1     -10.236   4.404  72.737  1.00  0.00    -0.163 OA 
HETATM    9  N   UNL     1     -11.273   6.382  73.195  1.00  0.00    -0.463 N  
HETATM   10  C   UNL     1     -10.682   5.479  72.346  1.00  0.00    -0.235 C  
HETATM   11  H   UNL     1     -11.401   6.110  74.169  1.00  0.00     0.000 HD 
ENDROOT
BRANCH   6  12
HETATM   12  C   UNL     1     -11.994   9.410  71.209  1.00  0.00    -0.430 A  
HETATM   13  C   UNL     1     -11.353  10.102  70.180  1.00  0.00    -0.372 A  
HETATM   14  N   UNL     1     -12.739  12.032  70.583  1.00  0.00    -0.146 NA 
HETATM   15  C   UNL     1     -11.755  11.399  69.910  1.00  0.00    -0.346 A  
HETATM   16  C   UNL     1     -13.350  11.338  71.567  1.00  0.00    -0.105 A  
HETATM   17  C   UNL     1     -13.020  10.038  71.914  1.00  0.00    -0.547 A  
ENDBRANCH   6  12
TORSDOF 1
ENDMDL
MODEL      100
REMARK 921   NORMALIZED FREE ENERGY PREDICTED BY IDOCK:   -3.88 KCAL/MOL
REMARK 922        TOTAL FREE ENERGY PREDICTED BY IDOCK:   -4.26 KCAL/MOL
REMARK 923 INTER-LIGAND FREE ENERGY PREDICTED BY IDOCK:   -4.10 KCAL/MOL
REMARK 924 INTRA-LIGAND FREE ENERGY PREDICTED BY IDOCK:   -0.16 KCAL/MOL
REMARK 927      BINDING AFFINITY PREDICTED BY RF-SCORE:    0.00 PKD
ROOT
HETATM    1  N   UNL     1     -11.178  15.171  65.516  1.00  0.00    -0.340 NA 
HETATM    2  H1  UNL     1     -11.859  14.419  65.627  1.00  0.00     0.000 HD 
HETATM    3  C   UNL     1     -10.706  15.974  66.541  1.00  0.00    -0.238 C  
HETATM    4  H2  UNL     1     -10.361  14.762  65.063  1.00  0.00     0.000 HD 
HETATM    5  C   UNL     1      -9.810  16.965  66.395  1.00  0.00    -0.319 C  
HETATM    6  C   UNL     1      -9.351  17.773  67.515  1.00  0.00    -0.245 C  
HETATM    7  C   UNL     1      -9.859  17.536  68.737  1.00  0.00    -0.326 C  
HETATM    8  O   UNL     1     -11.977  14.753  68.170  1.00  0.00    -0.310 OA 
HETATM    9  N   UNL     1     -10.773  16.531  68.935  1.00  0.00    -0.316 N  
HETATM   10  C   UNL     1     -11.221  15.694  67.944  1.00  0.00    -0.328 C  
HETATM   11  H   UNL     1     -11.141  16.398  69.877  1.00  0.00     0.000 HD 
ENDROOT
BRANCH   6  12
HETATM   12  C   UNL     1      -8.325  18.818  67.385  1.00  0.00    -0.280 A  
HETATM   13  C   UNL     1      -7.782  19.106  66.131  1.00  0.00    -0.296 A  
HETATM   14  N   UNL     1      -6.348  20.778  67.109  1.00  0.00    -0.250 NA 
HETATM   15  C   UNL     1      -6.804  20.082  66.046  1.00  0.00    -0.257 A  
HETATM   16  C   UNL     1      -6.896  20.489  68.309  1.00  0.00    -0.212 A  
HETATM   17  C   UNL     1      -7.878  19.530  68.498  1.00  0.00    -0.382 A  
ENDBRANCH   6  12
TORSDOF 1
ENDMDL
MODEL      101
REMARK 921   NORMALIZED FREE ENERGY PREDICTED BY IDOCK:   -3.87 KCAL/MOL
REMARK 922        TOTAL FREE ENERGY PREDICTED BY IDOCK:   -4.25 KCAL/MOL
REMARK 923 INTER-LIGAND FREE ENERGY PREDICTED BY IDOCK:   -4.12 KCAL/MOL
REMARK 924 INTRA-LIGAND FREE ENERGY PREDICTED BY IDOCK:   -0.13 KCAL/MOL
REMARK 927      BINDING AFFINITY PREDICTED BY RF-SCORE:    0.00 PKD
ROOT
HETATM    1  N   UNL     1      -8.859  15.673  68.731  1.00  0.00    -0.193 NA 
HETATM    2  H1  UNL     1      -9.050  16.642  68.982  1.00  0.00     0.000 HD 
HETATM    3  C   UNL     1      -9.806  14.766  68.285  1.00  0.00    -0.222 C  
HETATM    4  H2  UNL     1      -8.119  15.691  68.030  1.00  0.00     0.000 HD 
HETATM    5  C   UNL     1      -9.556  13.487  67.953  1.00  0.00    -0.218 C  
HETATM    6  C   UNL     1     -10.597  12.584  67.488  1.00  0.00    -0.238 C  
HETATM    7  C   UNL     1     -11.861  13.036  67.410  1.00  0.00    -0.357 C  
HETATM    8  O   UNL     1     -11.526  16.439  68.337  1.00  0.00    -0.338 OA 
HETATM    9  N   UNL     1     -12.163  14.335  67.733  1.00  0.00    -0.598 N  
HETATM   10  C   UNL     1     -11.234  15.263  68.133  1.00  0.00    -0.324 C  
HETATM   11  H   UNL     1     -13.138  14.628  67.672  1.00  0.00     0.000 HD 
ENDROOT
BRANCH   6  12
HETATM   12  C   UNL     1     -10.330  11.202  67.062  1.00  0.00    -0.263 A  
HETATM   13  C   UNL     1      -9.763  10.959  65.809  1.00  0.00    -0.270 A  
HETATM   14  N   UNL     1      -9.843   8.583  66.208  1.00  0.00    -0.246 NA 
HETATM   15  C   UNL     1      -9.545   9.645  65.431  1.00  0.00    -0.291 A  
HETATM   16  C   UNL     1     -10.380   8.845  67.420  1.00  0.00    -0.269 A  
HETATM   17  C   UNL     1     -10.639  10.122  67.889  1.00  0.00    -0.294 A  
ENDBRANCH   6  12
TORSDOF 1
ENDMDL
MODEL      102
REMARK 921   NORMALIZED FREE ENERGY PREDICTED BY IDOCK:   -3.87 KCAL/MOL
REMARK 922        TOTAL FREE ENERGY PREDICTED BY IDOCK:   -4.25 KCAL/MOL
REMARK 923 INTER-LIGAND FREE ENERGY PREDICTED BY IDOCK:   -4.09 KCAL/MOL
REMARK 924 INTRA-LIGAND FREE ENERGY PREDICTED BY IDOCK:   -0.15 KCAL/MOL
REMARK 927      BINDING AFFINITY PREDICTED BY RF-SCORE:    0.00 PKD
ROOT
HETATM    1  N   UNL     1     -10.565  17.219  65.380  1.00  0.00    -0.631 NA 
HETATM    2  H1  UNL     1     -11.253  17.748  64.845  1.00  0.00     0.000 HD 
HETATM    3  C   UNL     1      -9.826  17.719  66.439  1.00  0.00    -0.324 C  
HETATM    4  H2  UNL     1     -11.039  16.383  65.723  1.00  0.00     0.000 HD 
HETATM    5  C   UNL     1      -8.920  17.022  67.146  1.00  0.00    -0.234 C  
HETATM    6  C   UNL     1      -8.176  17.607  68.252  1.00  0.00    -0.276 C  
HETATM    7  C   UNL     1      -8.386  18.898  68.564  1.00  0.00    -0.349 C  
HETATM    8  O   UNL     1     -10.953  19.834  66.309  1.00  0.00    -0.365 OA 
HETATM    9  N   UNL     1      -9.306  19.647  67.875  1.00  0.00    -0.328 N  
HETATM   10  C   UNL     1     -10.082  19.160  66.852  1.00  0.00    -0.373 C  
HETATM   11  H   UNL     1      -9.420  20.625  68.138  1.00  0.00     0.000 HD 
ENDROOT
BRANCH   6  12
HETATM   12  C   UNL     1      -7.226  16.843  69.074  1.00  0.00    -0.232 A  
HETATM   13  C   UNL     1      -7.424  15.474  69.272  1.00  0.00    -0.212 A  
HETATM   14  N   UNL     1      -5.458  15.368  70.662  1.00  0.00    -0.138 NA 
HETATM   15  C   UNL     1      -6.523  14.789  70.069  1.00  0.00    -0.169 A  
HETATM   16  C   UNL     1      -5.283  16.690  70.447  1.00  0.00    -0.213 A  
HETATM   17  C   UNL     1      -6.128  17.464  69.669  1.00  0.00    -0.249 A  
ENDBRANCH   6  12
TORSDOF 1
ENDMDL
MODEL      103
REMARK 921   NORMALIZED FREE ENERGY PREDICTED BY IDOCK:   -3.86 KCAL/MOL
REMARK 922        TOTAL FREE ENERGY PREDICTED BY IDOCK:   -4.24 KCAL/MOL
REMARK 923 INTER-LIGAND FREE ENERGY PREDICTED BY IDOCK:   -4.11 KCAL/MOL
REMARK 924 INTRA-LIGAND FREE ENERGY PREDICTED BY IDOCK:   -0.13 KCAL/MOL
REMARK 927      BINDING AFFINITY PREDICTED BY RF-SCORE:    0.00 PKD
ROOT
HETATM    1  N   UNL     1     -10.244  19.360  69.111  1.00  0.00    -0.592 NA 
HETATM    2  H1  UNL     1     -10.570  20.311  68.940  1.00  0.00     0.000 HD 
HETATM    3  C   UNL     1     -10.107  18.380  68.142  1.00  0.00    -0.382 C  
HETATM    4  H2  UNL     1      -9.340  19.439  69.578  1.00  0.00     0.000 HD 
HETATM    5  C   UNL     1      -9.677  17.126  68.366  1.00  0.00    -0.284 C  
HETATM    6  C   UNL     1      -9.553  16.142  67.302  1.00  0.00    -0.231 C  
HETATM    7  C   UNL     1      -9.903  16.491  66.052  1.00  0.00    -0.322 C  
HETATM    8  O   UNL     1     -10.763  19.909  66.412  1.00  0.00    -0.454 OA 
HETATM    9  N   UNL     1     -10.342  17.761  65.774  1.00  0.00    -0.267 N  
HETATM   10  C   UNL     1     -10.443  18.761  66.709  1.00  0.00    -0.420 C  
HETATM   11  H   UNL     1     -10.611  17.975  64.814  1.00  0.00     0.000 HD 
ENDROOT
BRANCH   6  12
HETATM   12  C   UNL     1      -9.025  14.787  67.518  1.00  0.00    -0.192 A  
HETATM   13  C   UNL     1      -9.893  13.752  67.873  1.00  0.00    -0.232 A  
HETATM   14  N   UNL     1      -8.047  12.205  67.971  1.00  0.00    -0.145 NA 
HETATM   15  C   UNL     1      -9.361  12.493  68.090  1.00  0.00    -0.210 A  
HETATM   16  C   UNL     1      -7.230  13.220  67.617  1.00  0.00    -0.162 A  
HETATM   17  C   UNL     1      -7.664  14.514  67.380  1.00  0.00    -0.215 A  
ENDBRANCH   6  12
TORSDOF 1
ENDMDL
MODEL      104
REMARK 921   NORMALIZED FREE ENERGY PREDICTED BY IDOCK:   -3.86 KCAL/MOL
REMARK 922        TOTAL FREE ENERGY PREDICTED BY IDOCK:   -4.23 KCAL/MOL
REMARK 923 INTER-LIGAND FREE ENERGY PREDICTED BY IDOCK:   -4.07 KCAL/MOL
REMARK 924 INTRA-LIGAND FREE ENERGY PREDICTED BY IDOCK:   -0.16 KCAL/MOL
REMARK 927      BINDING AFFINITY PREDICTED BY RF-SCORE:    0.00 PKD
ROOT
HETATM    1  N   UNL     1     -11.331  12.965  69.518  1.00  0.00    -0.447 NA 
HETATM    2  H1  UNL     1     -11.342  13.692  68.803  1.00  0.00     0.000 HD 
HETATM    3  C   UNL     1     -11.219  11.607  69.271  1.00  0.00    -0.265 C  
HETATM    4  H2  UNL     1     -10.584  13.207  70.170  1.00  0.00     0.000 HD 
HETATM    5  C   UNL     1     -11.203  10.649  70.213  1.00  0.00    -0.365 C  
HETATM    6  C   UNL     1     -11.081   9.236  69.887  1.00  0.00    -0.200 C  
HETATM    7  C   UNL     1     -11.003   8.873  68.595  1.00  0.00     0.114 C  
HETATM    8  O   UNL     1     -10.996  11.990  66.912  1.00  0.00    -0.253 OA 
HETATM    9  N   UNL     1     -11.009   9.816  67.599  1.00  0.00    -0.437 N  
HETATM   10  C   UNL     1     -11.073  11.170  67.822  1.00  0.00    -0.285 C  
HETATM   11  H   UNL     1     -10.963   9.493  66.633  1.00  0.00     0.000 HD 
ENDROOT
BRANCH   6  12
HETATM   12  C   UNL     1     -11.000   8.180  70.907  1.00  0.00    -0.266 A  
HETATM   13  C   UNL     1     -10.744   8.518  72.238  1.00  0.00    -0.411 A  
HETATM   14  N   UNL     1     -10.805   6.192  72.865  1.00  0.00    -0.248 NA 
HETATM   15  C   UNL     1     -10.653   7.498  73.169  1.00  0.00    -0.388 A  
HETATM   16  C   UNL     1     -11.062   5.891  71.574  1.00  0.00    -0.250 A  
HETATM   17  C   UNL     1     -11.170   6.838  70.568  1.00  0.00    -0.370 A  
ENDBRANCH   6  12
TORSDOF 1
ENDMDL
MODEL      105
REMARK 921   NORMALIZED FREE ENERGY PREDICTED BY IDOCK:   -3.86 KCAL/MOL
REMARK 922        TOTAL FREE ENERGY PREDICTED BY IDOCK:   -4.23 KCAL/MOL
REMARK 923 INTER-LIGAND FREE ENERGY PREDICTED BY IDOCK:   -4.08 KCAL/MOL
REMARK 924 INTRA-LIGAND FREE ENERGY PREDICTED BY IDOCK:   -0.15 KCAL/MOL
REMARK 927      BINDING AFFINITY PREDICTED BY RF-SCORE:    0.00 PKD
ROOT
HETATM    1  N   UNL     1     -11.290   4.549  65.118  1.00  0.00    -1.113 NA 
HETATM    2  H1  UNL     1     -11.122   3.620  64.733  1.00  0.00     0.000 HD 
HETATM    3  C   UNL     1     -10.651   5.077  66.228  1.00  0.00    -0.276 C  
HETATM    4  H2  UNL     1     -11.149   5.212  64.356  1.00  0.00     0.000 HD 
HETATM    5  C   UNL     1     -10.871   6.302  66.736  1.00  0.00    -0.367 C  
HETATM    6  C   UNL     1     -10.164   6.800  67.906  1.00  0.00    -0.207 C  
HETATM    7  C   UNL     1      -9.276   5.997  68.517  1.00  0.00    -0.114 C  
HETATM    8  O   UNL     1      -9.285   3.118  66.454  1.00  0.00    -0.154 OA 
HETATM    9  N   UNL     1      -9.014   4.741  68.031  1.00  0.00    -0.108 N  
HETATM   10  C   UNL     1      -9.600   4.214  66.907  1.00  0.00    -0.209 C  
HETATM   11  H   UNL     1      -8.342   4.163  68.536  1.00  0.00     0.000 HD 
ENDROOT
BRANCH   6  12
HETATM   12  C   UNL     1     -10.347   8.159  68.437  1.00  0.00    -0.236 A  
HETATM   13  C   UNL     1     -10.530   9.229  67.559  1.00  0.00    -0.338 A  
HETATM   14  N   UNL     1     -10.662  10.761  69.415  1.00  0.00    -0.227 NA 
HETATM   15  C   UNL     1     -10.678  10.498  68.091  1.00  0.00    -0.233 A  
HETATM   16  C   UNL     1     -10.495   9.708  70.245  1.00  0.00    -0.283 A  
HETATM   17  C   UNL     1     -10.336   8.402  69.811  1.00  0.00    -0.216 A  
ENDBRANCH   6  12
TORSDOF 1
ENDMDL
MODEL      106
REMARK 921   NORMALIZED FREE ENERGY PREDICTED BY IDOCK:   -3.85 KCAL/MOL
REMARK 922        TOTAL FREE ENERGY PREDICTED BY IDOCK:   -4.22 KCAL/MOL
REMARK 923 INTER-LIGAND FREE ENERGY PREDICTED BY IDOCK:   -4.08 KCAL/MOL
REMARK 924 INTRA-LIGAND FREE ENERGY PREDICTED BY IDOCK:   -0.15 KCAL/MOL
REMARK 927      BINDING AFFINITY PREDICTED BY RF-SCORE:    0.00 PKD
ROOT
HETATM    1  N   UNL     1     -12.054  11.669  68.802  1.00  0.00    -0.433 NA 
HETATM    2  H1  UNL     1     -12.546  12.304  69.431  1.00  0.00     0.000 HD 
HETATM    3  C   UNL     1     -11.596  12.000  67.537  1.00  0.00    -0.330 C  
HETATM    4  H2  UNL     1     -11.252  11.307  69.318  1.00  0.00     0.000 HD 
HETATM    5  C   UNL     1     -10.948  11.164  66.707  1.00  0.00    -0.309 C  
HETATM    6  C   UNL     1     -10.490  11.575  65.388  1.00  0.00    -0.333 C  
HETATM    7  C   UNL     1     -10.744  12.828  64.975  1.00  0.00    -0.296 C  
HETATM    8  O   UNL     1     -12.330  14.270  67.795  1.00  0.00    -0.247 OA 
HETATM    9  N   UNL     1     -11.398  13.718  65.789  1.00  0.00    -0.301 N  
HETATM   10  C   UNL     1     -11.820  13.427  67.063  1.00  0.00    -0.394 C  
HETATM   11  H   UNL     1     -11.581  14.653  65.426  1.00  0.00     0.000 HD 
ENDROOT
BRANCH   6  12
HETATM   12  C   UNL     1      -9.725  10.693  64.493  1.00  0.00    -0.367 A  
HETATM   13  C   UNL     1      -8.689   9.911  65.008  1.00  0.00    -0.196 A  
HETATM   14  N   UNL     1      -8.230   9.033  62.811  1.00  0.00    -0.173 NA 
HETATM   15  C   UNL     1      -7.976   9.108  64.134  1.00  0.00    -0.140 A  
HETATM   16  C   UNL     1      -9.244   9.791  62.339  1.00  0.00    -0.269 A  
HETATM   17  C   UNL     1     -10.015  10.627  63.131  1.00  0.00    -0.286 A  
ENDBRANCH   6  12
TORSDOF 1
ENDMDL
MODEL      107
REMARK 921   NORMALIZED FREE ENERGY PREDICTED BY IDOCK:   -3.85 KCAL/MOL
REMARK 922        TOTAL FREE ENERGY PREDICTED BY IDOCK:   -4.22 KCAL/MOL
REMARK 923 INTER-LIGAND FREE ENERGY PREDICTED BY IDOCK:   -4.06 KCAL/MOL
REMARK 924 INTRA-LIGAND FREE ENERGY PREDICTED BY IDOCK:   -0.16 KCAL/MOL
REMARK 927      BINDING AFFINITY PREDICTED BY RF-SCORE:    0.00 PKD
ROOT
HETATM    1  N   UNL     1     -11.481  11.943  69.799  1.00  0.00    -0.462 NA 
HETATM    2  H1  UNL     1     -12.011  12.791  69.999  1.00  0.00     0.000 HD 
HETATM    3  C   UNL     1     -11.618  10.741  70.473  1.00  0.00    -0.330 C  
HETATM    4  H2  UNL     1     -11.614  11.741  68.808  1.00  0.00     0.000 HD 
HETATM    5  C   UNL     1     -10.920   9.623  70.209  1.00  0.00    -0.337 C  
HETATM    6  C   UNL     1     -11.114   8.388  70.954  1.00  0.00    -0.289 C  
HETATM    7  C   UNL     1     -12.007   8.371  71.959  1.00  0.00    -0.357 C  
HETATM    8  O   UNL     1     -13.394  11.627  71.822  1.00  0.00    -0.399 OA 
HETATM    9  N   UNL     1     -12.747   9.486  72.261  1.00  0.00    -0.345 N  
HETATM   10  C   UNL     1     -12.660  10.674  71.578  1.00  0.00    -0.412 C  
HETATM   11  H   UNL     1     -13.402   9.429  73.041  1.00  0.00     0.000 HD 
ENDROOT
BRANCH   6  12
HETATM   12  C   UNL     1     -10.404   7.140  70.639  1.00  0.00    -0.217 A  
HETATM   13  C   UNL     1      -9.288   7.168  69.800  1.00  0.00    -0.146 A  
HETATM   14  N   UNL     1      -9.053   4.777  69.992  1.00  0.00    -0.098 NA 
HETATM   15  C   UNL     1      -8.655   5.972  69.507  1.00  0.00    -0.119 A  
HETATM   16  C   UNL     1     -10.128   4.777  70.809  1.00  0.00    -0.216 A  
HETATM   17  C   UNL     1     -10.830   5.919  71.161  1.00  0.00    -0.334 A  
ENDBRANCH   6  12
TORSDOF 1
ENDMDL
MODEL      108
REMARK 921   NORMALIZED FREE ENERGY PREDICTED BY IDOCK:   -3.78 KCAL/MOL
REMARK 922        TOTAL FREE ENERGY PREDICTED BY IDOCK:   -4.15 KCAL/MOL
REMARK 923 INTER-LIGAND FREE ENERGY PREDICTED BY IDOCK:   -3.99 KCAL/MOL
REMARK 924 INTRA-LIGAND FREE ENERGY PREDICTED BY IDOCK:   -0.16 KCAL/MOL
REMARK 927      BINDING AFFINITY PREDICTED BY RF-SCORE:    0.00 PKD
ROOT
HETATM    1  N   UNL     1     -10.922   5.336  65.919  1.00  0.00    -0.769 NA 
HETATM    2  H1  UNL     1     -10.635   4.762  65.126  1.00  0.00     0.000 HD 
HETATM    3  C   UNL     1     -10.531   5.133  67.231  1.00  0.00    -0.132 C  
HETATM    4  H2  UNL     1     -10.680   6.299  65.686  1.00  0.00     0.000 HD 
HETATM    5  C   UNL     1     -10.909   5.889  68.276  1.00  0.00    -0.325 C  
HETATM    6  C   UNL     1     -10.459   5.623  69.635  1.00  0.00    -0.374 C  
HETATM    7  C   UNL     1      -9.654   4.570  69.857  1.00  0.00    -0.199 C  
HETATM    8  O   UNL     1      -9.121   3.298  66.594  1.00  0.00    -0.146 OA 
HETATM    9  N   UNL     1      -9.238   3.773  68.821  1.00  0.00    -0.143 N  
HETATM   10  C   UNL     1      -9.576   3.982  67.506  1.00  0.00    -0.168 C  
HETATM   11  H   UNL     1      -8.640   2.976  69.040  1.00  0.00     0.000 HD 
ENDROOT
BRANCH   6  12
HETATM   12  C   UNL     1     -10.812   6.477  70.779  1.00  0.00    -0.311 A  
HETATM   13  C   UNL     1     -10.299   6.187  72.046  1.00  0.00    -0.232 A  
HETATM   14  N   UNL     1     -11.493   8.060  72.982  1.00  0.00    -0.274 NA 
HETATM   15  C   UNL     1     -10.669   6.998  73.105  1.00  0.00    -0.326 A  
HETATM   16  C   UNL     1     -11.967   8.325  71.746  1.00  0.00    -0.316 A  
HETATM   17  C   UNL     1     -11.659   7.574  70.623  1.00  0.00    -0.272 A  
ENDBRANCH   6  12
TORSDOF 1
ENDMDL
MODEL      109
REMARK 921   NORMALIZED FREE ENERGY PREDICTED BY IDOCK:   -3.77 KCAL/MOL
REMARK 922        TOTAL FREE ENERGY PREDICTED BY IDOCK:   -4.14 KCAL/MOL
REMARK 923 INTER-LIGAND FREE ENERGY PREDICTED BY IDOCK:   -4.01 KCAL/MOL
REMARK 924 INTRA-LIGAND FREE ENERGY PREDICTED BY IDOCK:   -0.13 KCAL/MOL
REMARK 927      BINDING AFFINITY PREDICTED BY RF-SCORE:    0.00 PKD
ROOT
HETATM    1  N   UNL     1      -9.433   3.489  71.179  1.00  0.00    -0.148 NA 
HETATM    2  H1  UNL     1      -8.888   2.767  70.709  1.00  0.00     0.000 HD 
HETATM    3  C   UNL     1     -10.060   4.550  70.548  1.00  0.00    -0.162 C  
HETATM    4  H2  UNL     1     -10.148   3.008  71.725  1.00  0.00     0.000 HD 
HETATM    5  C   UNL     1     -10.779   5.502  71.167  1.00  0.00    -0.280 C  
HETATM    6  C   UNL     1     -11.417   6.592  70.444  1.00  0.00    -0.444 C  
HETATM    7  C   UNL     1     -11.263   6.664  69.111  1.00  0.00    -0.242 C  
HETATM    8  O   UNL     1      -9.381   3.750  68.389  1.00  0.00    -0.148 OA 
HETATM    9  N   UNL     1     -10.543   5.712  68.434  1.00  0.00    -0.201 N  
HETATM   10  C   UNL     1      -9.951   4.627  69.033  1.00  0.00    -0.116 C  
HETATM   11  H   UNL     1     -10.441   5.816  67.425  1.00  0.00     0.000 HD 
ENDROOT
BRANCH   6  12
HETATM   12  C   UNL     1     -12.258   7.606  71.098  1.00  0.00    -0.310 A  
HETATM   13  C   UNL     1     -13.592   7.317  71.393  1.00  0.00    -0.399 A  
HETATM   14  N   UNL     1     -13.893   9.526  72.309  1.00  0.00    -0.376 NA 
HETATM   15  C   UNL     1     -14.361   8.301  71.990  1.00  0.00    -0.450 A  
HETATM   16  C   UNL     1     -12.597   9.778  72.023  1.00  0.00    -0.347 A  
HETATM   17  C   UNL     1     -11.746   8.862  71.426  1.00  0.00    -0.385 A  
ENDBRANCH   6  12
TORSDOF 1
ENDMDL
MODEL      110
REMARK 921   NORMALIZED FREE ENERGY PREDICTED BY IDOCK:   -3.74 KCAL/MOL
REMARK 922        TOTAL FREE ENERGY PREDICTED BY IDOCK:   -4.11 KCAL/MOL
REMARK 923 INTER-LIGAND FREE ENERGY PREDICTED BY IDOCK:   -3.95 KCAL/MOL
REMARK 924 INTRA-LIGAND FREE ENERGY PREDICTED BY IDOCK:   -0.15 KCAL/MOL
REMARK 927      BINDING AFFINITY PREDICTED BY RF-SCORE:    0.00 PKD
ROOT
HETATM    1  N   UNL     1     -10.861  12.442  65.721  1.00  0.00    -0.268 NA 
HETATM    2  H1  UNL     1     -10.738  12.770  64.763  1.00  0.00     0.000 HD 
HETATM    3  C   UNL     1     -10.549  11.171  66.173  1.00  0.00    -0.248 C  
HETATM    4  H2  UNL     1     -10.361  13.098  66.322  1.00  0.00     0.000 HD 
HETATM    5  C   UNL     1     -10.711  10.738  67.435  1.00  0.00    -0.317 C  
HETATM    6  C   UNL     1     -10.361   9.387  67.848  1.00  0.00    -0.276 C  
HETATM    7  C   UNL     1      -9.879   8.533  66.928  1.00  0.00    -0.242 C  
HETATM    8  O   UNL     1      -9.696  10.545  64.019  1.00  0.00    -0.280 OA 
HETATM    9  N   UNL     1      -9.692   8.931  65.629  1.00  0.00    -0.470 N  
HETATM   10  C   UNL     1      -9.951  10.199  65.169  1.00  0.00    -0.309 C  
HETATM   11  H   UNL     1      -9.338   8.244  64.964  1.00  0.00     0.000 HD 
ENDROOT
BRANCH   6  12
HETATM   12  C   UNL     1     -10.473   8.917  69.236  1.00  0.00    -0.234 A  
HETATM   13  C   UNL     1     -10.740   7.571  69.494  1.00  0.00    -0.222 A  
HETATM   14  N   UNL     1     -10.726   7.998  71.866  1.00  0.00    -0.237 NA 
HETATM   15  C   UNL     1     -10.860   7.166  70.813  1.00  0.00    -0.244 A  
HETATM   16  C   UNL     1     -10.457   9.293  71.591  1.00  0.00    -0.258 A  
HETATM   17  C   UNL     1     -10.321   9.797  70.308  1.00  0.00    -0.348 A  
ENDBRANCH   6  12
TORSDOF 1
ENDMDL
MODEL      111
REMARK 921   NORMALIZED FREE ENERGY PREDICTED BY IDOCK:   -3.73 KCAL/MOL
REMARK 922        TOTAL FREE ENERGY PREDICTED BY IDOCK:   -4.10 KCAL/MOL
REMARK 923 INTER-LIGAND FREE ENERGY PREDICTED BY IDOCK:   -3.96 KCAL/MOL
REMARK 924 INTRA-LIGAND FREE ENERGY PREDICTED BY IDOCK:   -0.14 KCAL/MOL
REMARK 927      BINDING AFFINITY PREDICTED BY RF-SCORE:    0.00 PKD
ROOT
HETATM    1  N   UNL     1     -12.261   8.987  72.115  1.00  0.00    -0.369 NA 
HETATM    2  H1  UNL     1     -12.325   8.062  72.541  1.00  0.00     0.000 HD 
HETATM    3  C   UNL     1     -11.599   9.272  70.932  1.00  0.00    -0.301 C  
HETATM    4  H2  UNL     1     -13.216   9.327  72.006  1.00  0.00     0.000 HD 
HETATM    5  C   UNL     1     -11.514  10.490  70.369  1.00  0.00    -0.427 C  
HETATM    6  C   UNL     1     -10.804  10.724  69.120  1.00  0.00    -0.281 C  
HETATM    7  C   UNL     1     -10.192   9.689  68.519  1.00  0.00    -0.193 C  
HETATM    8  O   UNL     1     -11.049   6.959  70.606  1.00  0.00    -0.250 OA 
HETATM    9  N   UNL     1     -10.257   8.427  69.053  1.00  0.00    -0.204 N  
HETATM   10  C   UNL     1     -10.944   8.112  70.199  1.00  0.00    -0.223 C  
HETATM   11  H   UNL     1      -9.764   7.677  68.569  1.00  0.00     0.000 HD 
ENDROOT
BRANCH   6  12
HETATM   12  C   UNL     1     -10.754  12.036  68.459  1.00  0.00    -0.261 A  
HETATM   13  C   UNL     1      -9.540  12.518  67.964  1.00  0.00    -0.212 A  
HETATM   14  N   UNL     1     -10.618  14.544  67.228  1.00  0.00    -0.277 NA 
HETATM   15  C   UNL     1      -9.523  13.767  67.366  1.00  0.00    -0.224 A  
HETATM   16  C   UNL     1     -11.782  14.052  67.705  1.00  0.00    -0.377 A  
HETATM   17  C   UNL     1     -11.902  12.816  68.320  1.00  0.00    -0.357 A  
ENDBRANCH   6  12
TORSDOF 1
ENDMDL
MODEL      112
REMARK 921   NORMALIZED FREE ENERGY PREDICTED BY IDOCK:   -3.73 KCAL/MOL
REMARK 922        TOTAL FREE ENERGY PREDICTED BY IDOCK:   -4.09 KCAL/MOL
REMARK 923 INTER-LIGAND FREE ENERGY PREDICTED BY IDOCK:   -3.96 KCAL/MOL
REMARK 924 INTRA-LIGAND FREE ENERGY PREDICTED BY IDOCK:   -0.13 KCAL/MOL
REMARK 927      BINDING AFFINITY PREDICTED BY RF-SCORE:    0.00 PKD
ROOT
HETATM    1  N   UNL     1      -6.833   7.830  72.845  1.00  0.00    -0.071 NA 
HETATM    2  H1  UNL     1      -5.832   7.957  72.694  1.00  0.00     0.000 HD 
HETATM    3  C   UNL     1      -7.832   8.405  72.078  1.00  0.00    -0.127 C  
HETATM    4  H2  UNL     1      -7.004   6.824  72.843  1.00  0.00     0.000 HD 
HETATM    5  C   UNL     1      -9.151   8.238  72.277  1.00  0.00    -0.289 C  
HETATM    6  C   UNL     1     -10.153   8.871  71.432  1.00  0.00    -0.379 C  
HETATM    7  C   UNL     1      -9.746   9.670  70.431  1.00  0.00    -0.245 C  
HETATM    8  O   UNL     1      -6.218   9.404  70.609  1.00  0.00    -0.051 OA 
HETATM    9  N   UNL     1      -8.410   9.866  70.186  1.00  0.00    -0.296 N  
HETATM   10  C   UNL     1      -7.403   9.271  70.904  1.00  0.00    -0.103 C  
HETATM   11  H   UNL     1      -8.150  10.493  69.425  1.00  0.00     0.000 HD 
ENDROOT
BRANCH   6  12
HETATM   12  C   UNL     1     -11.598   8.650  71.596  1.00  0.00    -0.379 A  
HETATM   13  C   UNL     1     -12.412   9.688  72.051  1.00  0.00    -0.412 A  
HETATM   14  N   UNL     1     -14.343   8.250  71.951  1.00  0.00    -0.454 NA 
HETATM   15  C   UNL     1     -13.764   9.440  72.214  1.00  0.00    -0.426 A  
HETATM   16  C   UNL     1     -13.536   7.264  71.502  1.00  0.00    -0.356 A  
HETATM   17  C   UNL     1     -12.172   7.412  71.308  1.00  0.00    -0.374 A  
ENDBRANCH   6  12
TORSDOF 1
ENDMDL
MODEL      113
REMARK 921   NORMALIZED FREE ENERGY PREDICTED BY IDOCK:   -3.70 KCAL/MOL
REMARK 922        TOTAL FREE ENERGY PREDICTED BY IDOCK:   -4.07 KCAL/MOL
REMARK 923 INTER-LIGAND FREE ENERGY PREDICTED BY IDOCK:   -3.91 KCAL/MOL
REMARK 924 INTRA-LIGAND FREE ENERGY PREDICTED BY IDOCK:   -0.16 KCAL/MOL
REMARK 927      BINDING AFFINITY PREDICTED BY RF-SCORE:    0.00 PKD
ROOT
HETATM    1  N   UNL     1     -12.040   8.003  72.824  1.00  0.00    -0.615 NA 
HETATM    2  H1  UNL     1     -12.106   7.193  73.441  1.00  0.00     0.000 HD 
HETATM    3  C   UNL     1     -11.537   7.982  71.534  1.00  0.00    -0.275 C  
HETATM    4  H2  UNL     1     -12.975   8.406  72.768  1.00  0.00     0.000 HD 
HETATM    5  C   UNL     1     -11.449   9.049  70.722  1.00  0.00    -0.331 C  
HETATM    6  C   UNL     1     -10.912   8.960  69.372  1.00  0.00    -0.064 C  
HETATM    7  C   UNL     1     -10.465   7.772  68.929  1.00  0.00    -0.194 C  
HETATM    8  O   UNL     1     -11.200   5.608  71.636  1.00  0.00    -0.231 OA 
HETATM    9  N   UNL     1     -10.540   6.654  69.721  1.00  0.00    -0.213 N  
HETATM   10  C   UNL     1     -11.075   6.642  70.985  1.00  0.00    -0.282 C  
HETATM   11  H   UNL     1     -10.175   5.778  69.347  1.00  0.00     0.000 HD 
ENDROOT
BRANCH   6  12
HETATM   12  C   UNL     1     -10.866  10.104  68.449  1.00  0.00    -0.284 A  
HETATM   13  C   UNL     1     -11.756  11.167  68.616  1.00  0.00    -0.389 A  
HETATM   14  N   UNL     1     -10.827  12.277  66.688  1.00  0.00    -0.249 NA 
HETATM   15  C   UNL     1     -11.700  12.218  67.717  1.00  0.00    -0.337 A  
HETATM   16  C   UNL     1      -9.970  11.241  66.554  1.00  0.00    -0.212 A  
HETATM   17  C   UNL     1      -9.948  10.144  67.400  1.00  0.00    -0.238 A  
ENDBRANCH   6  12
TORSDOF 1
ENDMDL
MODEL      114
REMARK 921   NORMALIZED FREE ENERGY PREDICTED BY IDOCK:   -3.70 KCAL/MOL
REMARK 922        TOTAL FREE ENERGY PREDICTED BY IDOCK:   -4.06 KCAL/MOL
REMARK 923 INTER-LIGAND FREE ENERGY PREDICTED BY IDOCK:   -3.93 KCAL/MOL
REMARK 924 INTRA-LIGAND FREE ENERGY PREDICTED BY IDOCK:   -0.14 KCAL/MOL
REMARK 927      BINDING AFFINITY PREDICTED BY RF-SCORE:    0.00 PKD
ROOT
HETATM    1  N   UNL     1      -7.963  13.229  69.022  1.00  0.00    -0.331 NA 
HETATM    2  H1  UNL     1      -8.182  12.250  69.210  1.00  0.00     0.000 HD 
HETATM    3  C   UNL     1      -8.510  13.983  67.997  1.00  0.00    -0.171 C  
HETATM    4  H2  UNL     1      -8.138  13.739  69.888  1.00  0.00     0.000 HD 
HETATM    5  C   UNL     1      -8.222  15.273  67.750  1.00  0.00    -0.157 C  
HETATM    6  C   UNL     1      -8.833  16.012  66.656  1.00  0.00    -0.307 C  
HETATM    7  C   UNL     1      -9.700  15.377  65.848  1.00  0.00    -0.357 C  
HETATM    8  O   UNL     1      -9.911  12.159  67.314  1.00  0.00    -0.194 OA 
HETATM    9  N   UNL     1     -10.028  14.062  66.065  1.00  0.00    -0.308 N  
HETATM   10  C   UNL     1      -9.535  13.308  67.101  1.00  0.00    -0.240 C  
HETATM   11  H   UNL     1     -10.679  13.618  65.418  1.00  0.00     0.000 HD 
ENDROOT
BRANCH   6  12
HETATM   12  C   UNL     1      -8.578  17.439  66.409  1.00  0.00    -0.282 A  
HETATM   13  C   UNL     1      -7.284  17.872  66.111  1.00  0.00    -0.339 A  
HETATM   14  N   UNL     1      -8.053  20.151  65.968  1.00  0.00    -0.250 NA 
HETATM   15  C   UNL     1      -7.074  19.224  65.905  1.00  0.00    -0.280 A  
HETATM   16  C   UNL     1      -9.298  19.707  66.248  1.00  0.00    -0.383 A  
HETATM   17  C   UNL     1      -9.610  18.376  66.472  1.00  0.00    -0.327 A  
ENDBRANCH   6  12
TORSDOF 1
ENDMDL
MODEL      115
REMARK 921   NORMALIZED FREE ENERGY PREDICTED BY IDOCK:   -3.70 KCAL/MOL
REMARK 922        TOTAL FREE ENERGY PREDICTED BY IDOCK:   -4.06 KCAL/MOL
REMARK 923 INTER-LIGAND FREE ENERGY PREDICTED BY IDOCK:   -3.91 KCAL/MOL
REMARK 924 INTRA-LIGAND FREE ENERGY PREDICTED BY IDOCK:   -0.15 KCAL/MOL
REMARK 927      BINDING AFFINITY PREDICTED BY RF-SCORE:    0.00 PKD
ROOT
HETATM    1  N   UNL     1     -10.863  14.243  69.888  1.00  0.00    -0.461 NA 
HETATM    2  H1  UNL     1     -11.120  15.230  69.891  1.00  0.00     0.000 HD 
HETATM    3  C   UNL     1     -11.058  13.373  68.829  1.00  0.00    -0.262 C  
HETATM    4  H2  UNL     1      -9.872  14.198  70.125  1.00  0.00     0.000 HD 
HETATM    5  C   UNL     1     -10.719  12.072  68.824  1.00  0.00    -0.252 C  
HETATM    6  C   UNL     1     -10.950  11.210  67.675  1.00  0.00    -0.323 C  
HETATM    7  C   UNL     1     -11.546  11.726  66.587  1.00  0.00    -0.197 C  
HETATM    8  O   UNL     1     -11.940  15.136  67.460  1.00  0.00    -0.217 OA 
HETATM    9  N   UNL     1     -11.905  13.050  66.543  1.00  0.00    -0.391 N  
HETATM   10  C   UNL     1     -11.680  13.941  67.563  1.00  0.00    -0.380 C  
HETATM   11  H   UNL     1     -12.368  13.393  65.701  1.00  0.00     0.000 HD 
ENDROOT
BRANCH   6  12
HETATM   12  C   UNL     1     -10.529   9.802  67.630  1.00  0.00    -0.305 A  
HETATM   13  C   UNL     1     -10.495   9.049  68.806  1.00  0.00    -0.230 A  
HETATM   14  N   UNL     1      -9.700   7.131  67.583  1.00  0.00    -0.139 NA 
HETATM   15  C   UNL     1     -10.074   7.732  68.732  1.00  0.00    -0.196 A  
HETATM   16  C   UNL     1      -9.752   7.876  66.458  1.00  0.00    -0.209 A  
HETATM   17  C   UNL     1     -10.157   9.201  66.428  1.00  0.00    -0.345 A  
ENDBRANCH   6  12
TORSDOF 1
ENDMDL
MODEL      116
REMARK 921   NORMALIZED FREE ENERGY PREDICTED BY IDOCK:   -3.69 KCAL/MOL
REMARK 922        TOTAL FREE ENERGY PREDICTED BY IDOCK:   -4.06 KCAL/MOL
REMARK 923 INTER-LIGAND FREE ENERGY PREDICTED BY IDOCK:   -3.92 KCAL/MOL
REMARK 924 INTRA-LIGAND FREE ENERGY PREDICTED BY IDOCK:   -0.13 KCAL/MOL
REMARK 927      BINDING AFFINITY PREDICTED BY RF-SCORE:    0.00 PKD
ROOT
HETATM    1  N   UNL     1      -8.267  10.511  66.704  1.00  0.00    -0.125 NA 
HETATM    2  H1  UNL     1      -8.286   9.494  66.778  1.00  0.00     0.000 HD 
HETATM    3  C   UNL     1      -9.352  11.344  66.922  1.00  0.00    -0.181 C  
HETATM    4  H2  UNL     1      -7.520  10.836  67.317  1.00  0.00     0.000 HD 
HETATM    5  C   UNL     1      -9.328  12.684  66.825  1.00  0.00    -0.232 C  
HETATM    6  C   UNL     1     -10.505  13.505  67.070  1.00  0.00    -0.265 C  
HETATM    7  C   UNL     1     -11.664  12.900  67.382  1.00  0.00    -0.372 C  
HETATM    8  O   UNL     1     -10.743   9.482  67.521  1.00  0.00    -0.282 OA 
HETATM    9  N   UNL     1     -11.735  11.534  67.498  1.00  0.00    -0.242 N  
HETATM   10  C   UNL     1     -10.663  10.692  67.331  1.00  0.00    -0.276 C  
HETATM   11  H   UNL     1     -12.639  11.119  67.722  1.00  0.00     0.000 HD 
ENDROOT
BRANCH   6  12
HETATM   12  C   UNL     1     -10.482  14.975  67.029  1.00  0.00    -0.278 A  
HETATM   13  C   UNL     1     -10.711  15.706  68.196  1.00  0.00    -0.287 A  
HETATM   14  N   UNL     1     -10.479  17.771  66.977  1.00  0.00    -0.343 NA 
HETATM   15  C   UNL     1     -10.703  17.088  68.119  1.00  0.00    -0.374 A  
HETATM   16  C   UNL     1     -10.249  17.042  65.863  1.00  0.00    -0.296 A  
HETATM   17  C   UNL     1     -10.238  15.657  65.837  1.00  0.00    -0.372 A  
ENDBRANCH   6  12
TORSDOF 1
ENDMDL
MODEL      117
REMARK 921   NORMALIZED FREE ENERGY PREDICTED BY IDOCK:   -3.68 KCAL/MOL
REMARK 922        TOTAL FREE ENERGY PREDICTED BY IDOCK:   -4.05 KCAL/MOL
REMARK 923 INTER-LIGAND FREE ENERGY PREDICTED BY IDOCK:   -3.92 KCAL/MOL
REMARK 924 INTRA-LIGAND FREE ENERGY PREDICTED BY IDOCK:   -0.13 KCAL/MOL
REMARK 927      BINDING AFFINITY PREDICTED BY RF-SCORE:    0.00 PKD
ROOT
HETATM    1  N   UNL     1      -9.858   8.624  65.728  1.00  0.00    -0.447 NA 
HETATM    2  H1  UNL     1      -9.156   8.242  65.095  1.00  0.00     0.000 HD 
HETATM    3  C   UNL     1      -9.661   8.875  67.076  1.00  0.00    -0.176 C  
HETATM    4  H2  UNL     1     -10.185   9.496  65.312  1.00  0.00     0.000 HD 
HETATM    5  C   UNL     1     -10.586   9.378  67.911  1.00  0.00    -0.293 C  
HETATM    6  C   UNL     1     -10.315   9.622  69.320  1.00  0.00    -0.223 C  
HETATM    7  C   UNL     1      -9.103   9.310  69.810  1.00  0.00    -0.177 C  
HETATM    8  O   UNL     1      -7.362   8.202  66.931  1.00  0.00    -0.084 OA 
HETATM    9  N   UNL     1      -8.125   8.799  68.994  1.00  0.00    -0.114 N  
HETATM   10  C   UNL     1      -8.283   8.585  67.647  1.00  0.00    -0.118 C  
HETATM   11  H   UNL     1      -7.226   8.564  69.414  1.00  0.00     0.000 HD 
ENDROOT
BRANCH   6  12
HETATM   12  C   UNL     1     -11.295  10.229  70.233  1.00  0.00    -0.398 A  
HETATM   13  C   UNL     1     -11.897   9.450  71.223  1.00  0.00    -0.435 A  
HETATM   14  N   UNL     1     -13.187  11.347  71.963  1.00  0.00    -0.455 NA 
HETATM   15  C   UNL     1     -12.830  10.049  72.053  1.00  0.00    -0.389 A  
HETATM   16  C   UNL     1     -12.583  12.082  71.004  1.00  0.00    -0.273 A  
HETATM   17  C   UNL     1     -11.639  11.577  70.125  1.00  0.00    -0.336 A  
ENDBRANCH   6  12
TORSDOF 1
ENDMDL
MODEL      118
REMARK 921   NORMALIZED FREE ENERGY PREDICTED BY IDOCK:   -3.67 KCAL/MOL
REMARK 922        TOTAL FREE ENERGY PREDICTED BY IDOCK:   -4.03 KCAL/MOL
REMARK 923 INTER-LIGAND FREE ENERGY PREDICTED BY IDOCK:   -3.87 KCAL/MOL
REMARK 924 INTRA-LIGAND FREE ENERGY PREDICTED BY IDOCK:   -0.16 KCAL/MOL
REMARK 927      BINDING AFFINITY PREDICTED BY RF-SCORE:    0.00 PKD
ROOT
HETATM    1  N   UNL     1      -7.451  19.767  68.388  1.00  0.00    -0.321 NA 
HETATM    2  H1  UNL     1      -6.697  20.280  67.932  1.00  0.00     0.000 HD 
HETATM    3  C   UNL     1      -7.940  18.538  67.977  1.00  0.00    -0.276 C  
HETATM    4  H2  UNL     1      -7.185  19.663  69.367  1.00  0.00     0.000 HD 
HETATM    5  C   UNL     1      -8.934  17.862  68.578  1.00  0.00    -0.291 C  
HETATM    6  C   UNL     1      -9.402  16.571  68.097  1.00  0.00    -0.218 C  
HETATM    7  C   UNL     1      -8.835  16.045  66.997  1.00  0.00    -0.211 C  
HETATM    8  O   UNL     1      -6.315  18.409  66.216  1.00  0.00    -0.170 OA 
HETATM    9  N   UNL     1      -7.814  16.696  66.353  1.00  0.00    -0.305 N  
HETATM   10  C   UNL     1      -7.282  17.892  66.768  1.00  0.00    -0.203 C  
HETATM   11  H   UNL     1      -7.425  16.266  65.514  1.00  0.00     0.000 HD 
ENDROOT
BRANCH   6  12
HETATM   12  C   UNL     1     -10.444  15.789  68.778  1.00  0.00    -0.228 A  
HETATM   13  C   UNL     1     -11.031  14.700  68.130  1.00  0.00    -0.269 A  
HETATM   14  N   UNL     1     -12.454  14.303  70.034  1.00  0.00    -0.336 NA 
HETATM   15  C   UNL     1     -12.024  13.998  68.792  1.00  0.00    -0.347 A  
HETATM   16  C   UNL     1     -11.864  15.354  70.644  1.00  0.00    -0.351 A  
HETATM   17  C   UNL     1     -10.864  16.119  70.067  1.00  0.00    -0.349 A  
ENDBRANCH   6  12
TORSDOF 1
ENDMDL
MODEL      119
REMARK 921   NORMALIZED FREE ENERGY PREDICTED BY IDOCK:   -3.67 KCAL/MOL
REMARK 922        TOTAL FREE ENERGY PREDICTED BY IDOCK:   -4.03 KCAL/MOL
REMARK 923 INTER-LIGAND FREE ENERGY PREDICTED BY IDOCK:   -3.88 KCAL/MOL
REMARK 924 INTRA-LIGAND FREE ENERGY PREDICTED BY IDOCK:   -0.16 KCAL/MOL
REMARK 927      BINDING AFFINITY PREDICTED BY RF-SCORE:    0.00 PKD
ROOT
HETATM    1  N   UNL     1      -9.859   8.817  68.857  1.00  0.00    -0.173 NA 
HETATM    2  H1  UNL     1      -9.296   8.216  69.459  1.00  0.00     0.000 HD 
HETATM    3  C   UNL     1      -9.540  10.120  68.512  1.00  0.00    -0.154 C  
HETATM    4  H2  UNL     1     -10.001   8.309  67.985  1.00  0.00     0.000 HD 
HETATM    5  C   UNL     1     -10.282  10.912  67.719  1.00  0.00    -0.209 C  
HETATM    6  C   UNL     1      -9.889  12.275  67.392  1.00  0.00    -0.199 C  
HETATM    7  C   UNL     1      -8.755  12.767  67.920  1.00  0.00    -0.185 C  
HETATM    8  O   UNL     1      -7.465   9.997  69.711  1.00  0.00    -0.115 OA 
HETATM    9  N   UNL     1      -7.963  11.994  68.730  1.00  0.00    -0.313 N  
HETATM   10  C   UNL     1      -8.236  10.686  69.049  1.00  0.00    -0.151 C  
HETATM   11  H   UNL     1      -7.120  12.415  69.119  1.00  0.00     0.000 HD 
ENDROOT
BRANCH   6  12
HETATM   12  C   UNL     1     -10.656  13.134  66.477  1.00  0.00    -0.290 A  
HETATM   13  C   UNL     1     -10.006  14.145  65.765  1.00  0.00    -0.331 A  
HETATM   14  N   UNL     1     -12.092  14.807  64.756  1.00  0.00    -0.407 NA 
HETATM   15  C   UNL     1     -10.761  14.949  64.929  1.00  0.00    -0.405 A  
HETATM   16  C   UNL     1     -12.696  13.816  65.447  1.00  0.00    -0.472 A  
HETATM   17  C   UNL     1     -12.030  12.960  66.309  1.00  0.00    -0.472 A  
ENDBRANCH   6  12
TORSDOF 1
ENDMDL
MODEL      120
REMARK 921   NORMALIZED FREE ENERGY PREDICTED BY IDOCK:   -3.64 KCAL/MOL
REMARK 922        TOTAL FREE ENERGY PREDICTED BY IDOCK:   -4.00 KCAL/MOL
REMARK 923 INTER-LIGAND FREE ENERGY PREDICTED BY IDOCK:   -3.84 KCAL/MOL
REMARK 924 INTRA-LIGAND FREE ENERGY PREDICTED BY IDOCK:   -0.16 KCAL/MOL
REMARK 927      BINDING AFFINITY PREDICTED BY RF-SCORE:    0.00 PKD
ROOT
HETATM    1  N   UNL     1     -10.515   5.482  68.168  1.00  0.00    -0.187 NA 
HETATM    2  H1  UNL     1     -10.595   4.809  68.931  1.00  0.00     0.000 HD 
HETATM    3  C   UNL     1     -10.599   6.857  68.307  1.00  0.00    -0.215 C  
HETATM    4  H2  UNL     1      -9.631   5.288  67.697  1.00  0.00     0.000 HD 
HETATM    5  C   UNL     1     -10.493   7.743  67.302  1.00  0.00    -0.392 C  
HETATM    6  C   UNL     1     -10.588   9.179  67.515  1.00  0.00    -0.317 C  
HETATM    7  C   UNL     1     -10.812   9.637  68.759  1.00  0.00    -0.168 C  
HETATM    8  O   UNL     1     -10.820   6.666  70.689  1.00  0.00    -0.229 OA 
HETATM    9  N   UNL     1     -10.922   8.770  69.817  1.00  0.00    -0.373 N  
HETATM   10  C   UNL     1     -10.797   7.407  69.710  1.00  0.00    -0.234 C  
HETATM   11  H   UNL     1     -11.107   9.163  70.740  1.00  0.00     0.000 HD 
ENDROOT
BRANCH   6  12
HETATM   12  C   UNL     1     -10.413  10.165  66.438  1.00  0.00    -0.210 A  
HETATM   13  C   UNL     1     -10.815  11.488  66.634  1.00  0.00    -0.335 A  
HETATM   14  N   UNL     1     -10.125  12.054  64.395  1.00  0.00    -0.279 NA 
HETATM   15  C   UNL     1     -10.654  12.385  65.592  1.00  0.00    -0.265 A  
HETATM   16  C   UNL     1      -9.734  10.772  64.234  1.00  0.00    -0.302 A  
HETATM   17  C   UNL     1      -9.853   9.799  65.213  1.00  0.00    -0.335 A  
ENDBRANCH   6  12
TORSDOF 1
ENDMDL
MODEL      121
REMARK 921   NORMALIZED FREE ENERGY PREDICTED BY IDOCK:   -3.64 KCAL/MOL
REMARK 922        TOTAL FREE ENERGY PREDICTED BY IDOCK:   -4.00 KCAL/MOL
REMARK 923 INTER-LIGAND FREE ENERGY PREDICTED BY IDOCK:   -3.86 KCAL/MOL
REMARK 924 INTRA-LIGAND FREE ENERGY PREDICTED BY IDOCK:   -0.14 KCAL/MOL
REMARK 927      BINDING AFFINITY PREDICTED BY RF-SCORE:    0.00 PKD
ROOT
HETATM    1  N   UNL     1     -10.305  19.026  65.947  1.00  0.00    -0.545 NA 
HETATM    2  H1  UNL     1      -9.657  19.419  65.264  1.00  0.00     0.000 HD 
HETATM    3  C   UNL     1      -9.952  18.175  66.980  1.00  0.00    -0.338 C  
HETATM    4  H2  UNL     1     -10.798  19.812  66.370  1.00  0.00     0.000 HD 
HETATM    5  C   UNL     1     -10.805  17.657  67.880  1.00  0.00    -0.245 C  
HETATM    6  C   UNL     1     -10.370  16.768  68.947  1.00  0.00    -0.317 C  
HETATM    7  C   UNL     1      -9.070  16.433  69.021  1.00  0.00    -0.252 C  
HETATM    8  O   UNL     1      -7.630  18.320  66.392  1.00  0.00    -0.226 OA 
HETATM    9  N   UNL     1      -8.161  16.941  68.128  1.00  0.00    -0.194 N  
HETATM   10  C   UNL     1      -8.480  17.822  67.124  1.00  0.00    -0.228 C  
HETATM   11  H   UNL     1      -7.188  16.647  68.216  1.00  0.00     0.000 HD 
ENDROOT
BRANCH   6  12
HETATM   12  C   UNL     1     -11.279  16.242  69.976  1.00  0.00    -0.324 A  
HETATM   13  C   UNL     1     -12.375  15.462  69.602  1.00  0.00    -0.250 A  
HETATM   14  N   UNL     1     -13.046  15.257  71.908  1.00  0.00    -0.363 NA 
HETATM   15  C   UNL     1     -13.222  15.001  70.595  1.00  0.00    -0.295 A  
HETATM   16  C   UNL     1     -11.973  16.006  72.245  1.00  0.00    -0.538 A  
HETATM   17  C   UNL     1     -11.068  16.515  71.328  1.00  0.00     0.253 A  
ENDBRANCH   6  12
TORSDOF 1
ENDMDL
MODEL      122
REMARK 921   NORMALIZED FREE ENERGY PREDICTED BY IDOCK:   -3.60 KCAL/MOL
REMARK 922        TOTAL FREE ENERGY PREDICTED BY IDOCK:   -3.96 KCAL/MOL
REMARK 923 INTER-LIGAND FREE ENERGY PREDICTED BY IDOCK:   -3.80 KCAL/MOL
REMARK 924 INTRA-LIGAND FREE ENERGY PREDICTED BY IDOCK:   -0.16 KCAL/MOL
REMARK 927      BINDING AFFINITY PREDICTED BY RF-SCORE:    0.00 PKD
ROOT
HETATM    1  N   UNL     1      -9.713  13.587  68.877  1.00  0.00    -0.418 NA 
HETATM    2  H1  UNL     1      -9.514  14.539  68.572  1.00  0.00     0.000 HD 
HETATM    3  C   UNL     1      -9.885  12.501  68.035  1.00  0.00    -0.214 C  
HETATM    4  H2  UNL     1      -8.981  13.332  69.539  1.00  0.00     0.000 HD 
HETATM    5  C   UNL     1     -10.148  11.246  68.438  1.00  0.00    -0.202 C  
HETATM    6  C   UNL     1     -10.315  10.145  67.500  1.00  0.00    -0.279 C  
HETATM    7  C   UNL     1     -10.227  10.396  66.183  1.00  0.00    -0.223 C  
HETATM    8  O   UNL     1      -9.416  13.844  66.102  1.00  0.00    -0.255 OA 
HETATM    9  N   UNL     1      -9.955  11.661  65.725  1.00  0.00    -0.229 N  
HETATM   10  C   UNL     1      -9.736  12.743  66.542  1.00  0.00    -0.255 C  
HETATM   11  H   UNL     1      -9.912  11.806  64.717  1.00  0.00     0.000 HD 
ENDROOT
BRANCH   6  12
HETATM   12  C   UNL     1     -10.541   8.755  67.925  1.00  0.00    -0.236 A  
HETATM   13  C   UNL     1     -10.769   7.765  66.968  1.00  0.00    -0.316 A  
HETATM   14  N   UNL     1     -11.008   6.109  68.703  1.00  0.00    -0.333 NA 
HETATM   15  C   UNL     1     -10.998   6.471  67.403  1.00  0.00    -0.378 A  
HETATM   16  C   UNL     1     -10.774   7.083  69.609  1.00  0.00    -0.241 A  
HETATM   17  C   UNL     1     -10.536   8.407  69.276  1.00  0.00    -0.223 A  
ENDBRANCH   6  12
TORSDOF 1
ENDMDL
MODEL      123
REMARK 921   NORMALIZED FREE ENERGY PREDICTED BY IDOCK:   -3.60 KCAL/MOL
REMARK 922        TOTAL FREE ENERGY PREDICTED BY IDOCK:   -3.96 KCAL/MOL
REMARK 923 INTER-LIGAND FREE ENERGY PREDICTED BY IDOCK:   -3.81 KCAL/MOL
REMARK 924 INTRA-LIGAND FREE ENERGY PREDICTED BY IDOCK:   -0.15 KCAL/MOL
REMARK 927      BINDING AFFINITY PREDICTED BY RF-SCORE:    0.00 PKD
ROOT
HETATM    1  N   UNL     1      -9.071  11.833  65.720  1.00  0.00    -0.394 NA 
HETATM    2  H1  UNL     1      -9.099  12.627  65.080  1.00  0.00     0.000 HD 
HETATM    3  C   UNL     1      -9.857  11.695  66.852  1.00  0.00    -0.198 C  
HETATM    4  H2  UNL     1      -9.222  10.997  65.155  1.00  0.00     0.000 HD 
HETATM    5  C   UNL     1      -9.822  10.649  67.694  1.00  0.00    -0.191 C  
HETATM    6  C   UNL     1     -10.678  10.563  68.868  1.00  0.00    -0.253 C  
HETATM    7  C   UNL     1     -11.518  11.578  69.133  1.00  0.00    -0.297 C  
HETATM    8  O   UNL     1     -11.007  13.749  66.381  1.00  0.00    -0.295 OA 
HETATM    9  N   UNL     1     -11.593  12.665  68.299  1.00  0.00    -0.311 N  
HETATM   10  C   UNL     1     -10.857  12.802  67.147  1.00  0.00    -0.256 C  
HETATM   11  H   UNL     1     -12.235  13.417  68.549  1.00  0.00     0.000 HD 
ENDROOT
BRANCH   6  12
HETATM   12  C   UNL     1     -10.697   9.398  69.765  1.00  0.00    -0.250 A  
HETATM   13  C   UNL     1     -10.634   8.109  69.231  1.00  0.00    -0.191 A  
HETATM   14  N   UNL     1     -10.765   7.161  71.443  1.00  0.00    -0.224 NA 
HETATM   15  C   UNL     1     -10.675   7.034  70.103  1.00  0.00    -0.240 A  
HETATM   16  C   UNL     1     -10.813   8.418  71.936  1.00  0.00    -0.302 A  
HETATM   17  C   UNL     1     -10.780   9.557  71.149  1.00  0.00    -0.408 A  
ENDBRANCH   6  12
TORSDOF 1
ENDMDL
MODEL      124
REMARK 921   NORMALIZED FREE ENERGY PREDICTED BY IDOCK:   -3.60 KCAL/MOL
REMARK 922        TOTAL FREE ENERGY PREDICTED BY IDOCK:   -3.96 KCAL/MOL
REMARK 923 INTER-LIGAND FREE ENERGY PREDICTED BY IDOCK:   -3.83 KCAL/MOL
REMARK 924 INTRA-LIGAND FREE ENERGY PREDICTED BY IDOCK:   -0.13 KCAL/MOL
REMARK 927      BINDING AFFINITY PREDICTED BY RF-SCORE:    0.00 PKD
ROOT
HETATM    1  N   UNL     1     -11.020  10.872  70.315  1.00  0.00    -0.456 NA 
HETATM    2  H1  UNL     1     -11.800  11.506  70.144  1.00  0.00     0.000 HD 
HETATM    3  C   UNL     1     -11.073   9.744  71.117  1.00  0.00    -0.344 C  
HETATM    4  H2  UNL     1     -10.684  10.566  69.402  1.00  0.00     0.000 HD 
HETATM    5  C   UNL     1     -10.045   8.908  71.343  1.00  0.00    -0.379 C  
HETATM    6  C   UNL     1     -10.167   7.735  72.197  1.00  0.00    -0.269 C  
HETATM    7  C   UNL     1     -11.343   7.492  72.800  1.00  0.00    -0.336 C  
HETATM    8  O   UNL     1     -13.411  10.080  71.545  1.00  0.00    -0.378 OA 
HETATM    9  N   UNL     1     -12.422   8.314  72.595  1.00  0.00    -0.603 N  
HETATM   10  C   UNL     1     -12.405   9.411  71.769  1.00  0.00    -0.394 C  
HETATM   11  H   UNL     1     -13.289   8.098  73.086  1.00  0.00     0.000 HD 
ENDROOT
BRANCH   6  12
HETATM   12  C   UNL     1      -9.071   6.776  72.405  1.00  0.00    -0.142 A  
HETATM   13  C   UNL     1      -9.053   5.577  71.690  1.00  0.00    -0.155 A  
HETATM   14  N   UNL     1      -7.020   4.917  72.804  1.00  0.00    -0.074 NA 
HETATM   15  C   UNL     1      -8.019   4.687  71.926  1.00  0.00    -0.100 A  
HETATM   16  C   UNL     1      -7.054   6.089  73.475  1.00  0.00    -0.085 A  
HETATM   17  C   UNL     1      -8.046   7.043  73.312  1.00  0.00    -0.112 A  
ENDBRANCH   6  12
TORSDOF 1
ENDMDL
MODEL      125
REMARK 921   NORMALIZED FREE ENERGY PREDICTED BY IDOCK:   -3.59 KCAL/MOL
REMARK 922        TOTAL FREE ENERGY PREDICTED BY IDOCK:   -3.95 KCAL/MOL
REMARK 923 INTER-LIGAND FREE ENERGY PREDICTED BY IDOCK:   -3.79 KCAL/MOL
REMARK 924 INTRA-LIGAND FREE ENERGY PREDICTED BY IDOCK:   -0.16 KCAL/MOL
REMARK 927      BINDING AFFINITY PREDICTED BY RF-SCORE:    0.00 PKD
ROOT
HETATM    1  N   UNL     1      -7.765  17.088  68.833  1.00  0.00    -0.247 NA 
HETATM    2  H1  UNL     1      -7.696  18.099  68.943  1.00  0.00     0.000 HD 
HETATM    3  C   UNL     1      -8.949  16.370  68.804  1.00  0.00    -0.245 C  
HETATM    4  H2  UNL     1      -7.257  16.850  67.981  1.00  0.00     0.000 HD 
HETATM    5  C   UNL     1      -9.040  15.036  68.660  1.00  0.00    -0.191 C  
HETATM    6  C   UNL     1     -10.318  14.340  68.636  1.00  0.00    -0.246 C  
HETATM    7  C   UNL     1     -11.447  15.053  68.786  1.00  0.00    -0.319 C  
HETATM    8  O   UNL     1     -10.247  18.381  68.968  1.00  0.00    -0.367 OA 
HETATM    9  N   UNL     1     -11.404  16.417  68.931  1.00  0.00    -0.311 N  
HETATM   10  C   UNL     1     -10.246  17.154  68.917  1.00  0.00    -0.332 C  
HETATM   11  H   UNL     1     -12.286  16.913  69.057  1.00  0.00     0.000 HD 
ENDROOT
BRANCH   6  12
HETATM   12  C   UNL     1     -10.439  12.891  68.416  1.00  0.00    -0.260 A  
HETATM   13  C   UNL     1     -11.580  12.216  68.854  1.00  0.00    -0.377 A  
HETATM   14  N   UNL     1     -10.684  10.129  68.045  1.00  0.00    -0.241 NA 
HETATM   15  C   UNL     1     -11.653  10.848  68.650  1.00  0.00    -0.303 A  
HETATM   16  C   UNL     1      -9.595  10.807  67.621  1.00  0.00    -0.158 A  
HETATM   17  C   UNL     1      -9.426  12.173  67.779  1.00  0.00    -0.192 A  
ENDBRANCH   6  12
TORSDOF 1
ENDMDL
MODEL      126
REMARK 921   NORMALIZED FREE ENERGY PREDICTED BY IDOCK:   -3.54 KCAL/MOL
REMARK 922        TOTAL FREE ENERGY PREDICTED BY IDOCK:   -3.90 KCAL/MOL
REMARK 923 INTER-LIGAND FREE ENERGY PREDICTED BY IDOCK:   -3.74 KCAL/MOL
REMARK 924 INTRA-LIGAND FREE ENERGY PREDICTED BY IDOCK:   -0.15 KCAL/MOL
REMARK 927      BINDING AFFINITY PREDICTED BY RF-SCORE:    0.00 PKD
ROOT
HETATM    1  N   UNL     1      -8.007  13.441  66.869  1.00  0.00    -0.393 NA 
HETATM    2  H1  UNL     1      -7.297  13.512  66.139  1.00  0.00     0.000 HD 
HETATM    3  C   UNL     1      -8.596  12.262  67.294  1.00  0.00    -0.183 C  
HETATM    4  H2  UNL     1      -7.621  13.892  67.698  1.00  0.00     0.000 HD 
HETATM    5  C   UNL     1      -9.531  12.169  68.255  1.00  0.00    -0.204 C  
HETATM    6  C   UNL     1     -10.110  10.896  68.659  1.00  0.00    -0.200 C  
HETATM    7  C   UNL     1      -9.713   9.775  68.032  1.00  0.00    -0.145 C  
HETATM    8  O   UNL     1      -7.218  10.966  65.817  1.00  0.00    -0.096 OA 
HETATM    9  N   UNL     1      -8.757   9.821  67.049  1.00  0.00    -0.134 N  
HETATM   10  C   UNL     1      -8.127  10.971  66.643  1.00  0.00    -0.155 C  
HETATM   11  H   UNL     1      -8.498   8.946  66.592  1.00  0.00     0.000 HD 
ENDROOT
BRANCH   6  12
HETATM   12  C   UNL     1     -11.087  10.769  69.750  1.00  0.00    -0.346 A  
HETATM   13  C   UNL     1     -11.129   9.599  70.512  1.00  0.00    -0.369 A  
HETATM   14  N   UNL     1     -12.958  10.482  71.810  1.00  0.00    -0.462 NA 
HETATM   15  C   UNL     1     -12.075   9.503  71.518  1.00  0.00    -0.389 A  
HETATM   16  C   UNL     1     -12.891  11.607  71.066  1.00  0.00    -0.245 A  
HETATM   17  C   UNL     1     -11.983  11.799  70.037  1.00  0.00    -0.421 A  
ENDBRANCH   6  12
TORSDOF 1
ENDMDL
MODEL      127
REMARK 921   NORMALIZED FREE ENERGY PREDICTED BY IDOCK:   -3.54 KCAL/MOL
REMARK 922        TOTAL FREE ENERGY PREDICTED BY IDOCK:   -3.89 KCAL/MOL
REMARK 923 INTER-LIGAND FREE ENERGY PREDICTED BY IDOCK:   -3.75 KCAL/MOL
REMARK 924 INTRA-LIGAND FREE ENERGY PREDICTED BY IDOCK:   -0.14 KCAL/MOL
REMARK 927      BINDING AFFINITY PREDICTED BY RF-SCORE:    0.00 PKD
ROOT
HETATM    1  N   UNL     1      -9.558   9.965  70.406  1.00  0.00    -0.375 NA 
HETATM    2  H1  UNL     1      -9.800  10.923  70.154  1.00  0.00     0.000 HD 
HETATM    3  C   UNL     1     -10.391   9.082  71.073  1.00  0.00    -0.278 C  
HETATM    4  H2  UNL     1      -9.267   9.500  69.546  1.00  0.00     0.000 HD 
HETATM    5  C   UNL     1     -10.071   7.819  71.405  1.00  0.00    -0.211 C  
HETATM    6  C   UNL     1     -10.995   6.940  72.105  1.00  0.00    -0.268 C  
HETATM    7  C   UNL     1     -12.203   7.414  72.454  1.00  0.00    -0.096 C  
HETATM    8  O   UNL     1     -12.179  10.683  71.090  1.00  0.00    -0.349 OA 
HETATM    9  N   UNL     1     -12.576   8.694  72.132  1.00  0.00    -0.368 N  
HETATM   10  C   UNL     1     -11.785   9.571  71.432  1.00  0.00    -0.393 C  
HETATM   11  H   UNL     1     -13.497   9.015  72.431  1.00  0.00     0.000 HD 
ENDROOT
BRANCH   6  12
HETATM   12  C   UNL     1     -10.686   5.537  72.421  1.00  0.00    -0.286 A  
HETATM   13  C   UNL     1     -10.122   4.713  71.444  1.00  0.00    -0.248 A  
HETATM   14  N   UNL     1     -10.118   2.856  72.979  1.00  0.00    -0.128 NA 
HETATM   15  C   UNL     1      -9.863   3.393  71.768  1.00  0.00    -0.159 A  
HETATM   16  C   UNL     1     -10.653   3.675  73.910  1.00  0.00    -0.210 A  
HETATM   17  C   UNL     1     -10.950   5.009  73.685  1.00  0.00    -0.379 A  
ENDBRANCH   6  12
TORSDOF 1
ENDMDL
MODEL      128
REMARK 921   NORMALIZED FREE ENERGY PREDICTED BY IDOCK:   -3.53 KCAL/MOL
REMARK 922        TOTAL FREE ENERGY PREDICTED BY IDOCK:   -3.89 KCAL/MOL
REMARK 923 INTER-LIGAND FREE ENERGY PREDICTED BY IDOCK:   -3.76 KCAL/MOL
REMARK 924 INTRA-LIGAND FREE ENERGY PREDICTED BY IDOCK:   -0.13 KCAL/MOL
REMARK 927      BINDING AFFINITY PREDICTED BY RF-SCORE:    0.00 PKD
ROOT
HETATM    1  N   UNL     1     -11.095   7.142  69.567  1.00  0.00    -0.419 NA 
HETATM    2  H1  UNL     1     -11.169   6.127  69.490  1.00  0.00     0.000 HD 
HETATM    3  C   UNL     1     -10.766   7.997  68.528  1.00  0.00    -0.018 C  
HETATM    4  H2  UNL     1     -11.980   7.473  69.950  1.00  0.00     0.000 HD 
HETATM    5  C   UNL     1     -10.667   9.333  68.630  1.00  0.00    -0.180 C  
HETATM    6  C   UNL     1     -10.319  10.178  67.497  1.00  0.00    -0.279 C  
HETATM    7  C   UNL     1     -10.063   9.599  66.311  1.00  0.00    -0.252 C  
HETATM    8  O   UNL     1     -10.677   6.173  66.971  1.00  0.00    -0.277 OA 
HETATM    9  N   UNL     1     -10.157   8.239  66.158  1.00  0.00    -0.445 N  
HETATM   10  C   UNL     1     -10.525   7.377  67.161  1.00  0.00    -0.333 C  
HETATM   11  H   UNL     1      -9.939   7.844  65.243  1.00  0.00     0.000 HD 
ENDROOT
BRANCH   6  12
HETATM   12  C   UNL     1     -10.268  11.645  67.575  1.00  0.00    -0.216 A  
HETATM   13  C   UNL     1      -9.054  12.285  67.835  1.00  0.00    -0.190 A  
HETATM   14  N   UNL     1     -10.145  14.434  67.764  1.00  0.00    -0.225 NA 
HETATM   15  C   UNL     1      -9.045  13.667  67.922  1.00  0.00    -0.198 A  
HETATM   16  C   UNL     1     -11.304  13.792  67.503  1.00  0.00    -0.309 A  
HETATM   17  C   UNL     1     -11.418  12.415  67.398  1.00  0.00    -0.418 A  
ENDBRANCH   6  12
TORSDOF 1
ENDMDL
MODEL      129
REMARK 921   NORMALIZED FREE ENERGY PREDICTED BY IDOCK:   -3.50 KCAL/MOL
REMARK 922        TOTAL FREE ENERGY PREDICTED BY IDOCK:   -3.85 KCAL/MOL
REMARK 923 INTER-LIGAND FREE ENERGY PREDICTED BY IDOCK:   -3.72 KCAL/MOL
REMARK 924 INTRA-LIGAND FREE ENERGY PREDICTED BY IDOCK:   -0.13 KCAL/MOL
REMARK 927      BINDING AFFINITY PREDICTED BY RF-SCORE:    0.00 PKD
ROOT
HETATM    1  N   UNL     1      -6.675  14.194  68.030  1.00  0.00    -0.130 NA 
HETATM    2  H1  UNL     1      -5.930  14.131  68.723  1.00  0.00     0.000 HD 
HETATM    3  C   UNL     1      -7.646  13.230  67.816  1.00  0.00    -0.161 C  
HETATM    4  H2  UNL     1      -7.166  15.071  68.205  1.00  0.00     0.000 HD 
HETATM    5  C   UNL     1      -8.628  13.312  66.902  1.00  0.00    -0.116 C  
HETATM    6  C   UNL     1      -9.622  12.263  66.728  1.00  0.00    -0.220 C  
HETATM    7  C   UNL     1      -9.542  11.161  67.493  1.00  0.00    -0.168 C  
HETATM    8  O   UNL     1      -6.800  11.886  69.615  1.00  0.00    -0.067 OA 
HETATM    9  N   UNL     1      -8.560  11.035  68.443  1.00  0.00    -0.143 N  
HETATM   10  C   UNL     1      -7.615  11.996  68.703  1.00  0.00    -0.112 C  
HETATM   11  H   UNL     1      -8.531  10.174  68.989  1.00  0.00     0.000 HD 
ENDROOT
BRANCH   6  12
HETATM   12  C   UNL     1     -10.739  12.365  65.776  1.00  0.00    -0.301 A  
HETATM   13  C   UNL     1     -10.674  11.691  64.555  1.00  0.00    -0.378 A  
HETATM   14  N   UNL     1     -12.831  12.566  63.931  1.00  0.00    -0.754 NA 
HETATM   15  C   UNL     1     -11.733  11.824  63.674  1.00  0.00    -0.415 A  
HETATM   16  C   UNL     1     -12.875  13.199  65.123  1.00  0.00    -0.300 A  
HETATM   17  C   UNL     1     -11.867  13.130  66.071  1.00  0.00    -0.457 A  
ENDBRANCH   6  12
TORSDOF 1
ENDMDL
MODEL      130
REMARK 921   NORMALIZED FREE ENERGY PREDICTED BY IDOCK:   -3.45 KCAL/MOL
REMARK 922        TOTAL FREE ENERGY PREDICTED BY IDOCK:   -3.80 KCAL/MOL
REMARK 923 INTER-LIGAND FREE ENERGY PREDICTED BY IDOCK:   -3.64 KCAL/MOL
REMARK 924 INTRA-LIGAND FREE ENERGY PREDICTED BY IDOCK:   -0.16 KCAL/MOL
REMARK 927      BINDING AFFINITY PREDICTED BY RF-SCORE:    0.00 PKD
ROOT
HETATM    1  N   UNL     1      -5.869  18.076  70.246  1.00  0.00    -0.198 NA 
HETATM    2  H1  UNL     1      -5.204  17.868  70.991  1.00  0.00     0.000 HD 
HETATM    3  C   UNL     1      -6.550  17.129  69.500  1.00  0.00    -0.181 C  
HETATM    4  H2  UNL     1      -6.573  18.696  70.646  1.00  0.00     0.000 HD 
HETATM    5  C   UNL     1      -7.427  17.402  68.518  1.00  0.00    -0.251 C  
HETATM    6  C   UNL     1      -8.113  16.358  67.772  1.00  0.00    -0.167 C  
HETATM    7  C   UNL     1      -7.844  15.073  68.059  1.00  0.00    -0.125 C  
HETATM    8  O   UNL     1      -5.587  15.339  70.776  1.00  0.00    -0.137 OA 
HETATM    9  N   UNL     1      -6.961  14.745  69.056  1.00  0.00    -0.110 N  
HETATM   10  C   UNL     1      -6.309  15.666  69.838  1.00  0.00    -0.150 C  
HETATM   11  H   UNL     1      -6.778  13.757  69.228  1.00  0.00     0.000 HD 
ENDROOT
BRANCH   6  12
HETATM   12  C   UNL     1      -9.120  16.640  66.738  1.00  0.00    -0.261 A  
HETATM   13  C   UNL     1      -9.622  17.935  66.592  1.00  0.00    -0.311 A  
HETATM   14  N   UNL     1     -11.062  17.200  64.804  1.00  0.00    -0.925 NA 
HETATM   15  C   UNL     1     -10.584  18.161  65.623  1.00  0.00    -0.094 A  
HETATM   16  C   UNL     1     -10.553  15.958  64.958  1.00  0.00    -0.346 A  
HETATM   17  C   UNL     1      -9.590  15.630  65.898  1.00  0.00    -0.385 A  
ENDBRANCH   6  12
TORSDOF 1
ENDMDL
MODEL      131
REMARK 921   NORMALIZED FREE ENERGY PREDICTED BY IDOCK:   -3.44 KCAL/MOL
REMARK 922        TOTAL FREE ENERGY PREDICTED BY IDOCK:   -3.79 KCAL/MOL
REMARK 923 INTER-LIGAND FREE ENERGY PREDICTED BY IDOCK:   -3.63 KCAL/MOL
REMARK 924 INTRA-LIGAND FREE ENERGY PREDICTED BY IDOCK:   -0.16 KCAL/MOL
REMARK 927      BINDING AFFINITY PREDICTED BY RF-SCORE:    0.00 PKD
ROOT
HETATM    1  N   UNL     1     -10.942  17.132  64.893  1.00  0.00    -0.819 NA 
HETATM    2  H1  UNL     1     -11.041  18.129  64.702  1.00  0.00     0.000 HD 
HETATM    3  C   UNL     1     -10.026  16.577  65.771  1.00  0.00    -0.274 C  
HETATM    4  H2  UNL     1     -11.862  16.794  65.176  1.00  0.00     0.000 HD 
HETATM    5  C   UNL     1      -9.895  15.263  66.022  1.00  0.00    -0.357 C  
HETATM    6  C   UNL     1      -8.911  14.743  66.960  1.00  0.00    -0.258 C  
HETATM    7  C   UNL     1      -8.088  15.605  67.581  1.00  0.00    -0.150 C  
HETATM    8  O   UNL     1      -9.234  18.748  66.417  1.00  0.00    -0.318 OA 
HETATM    9  N   UNL     1      -8.189  16.955  67.360  1.00  0.00    -0.179 N  
HETATM   10  C   UNL     1      -9.118  17.531  66.530  1.00  0.00    -0.263 C  
HETATM   11  H   UNL     1      -7.533  17.569  67.843  1.00  0.00     0.000 HD 
ENDROOT
BRANCH   6  12
HETATM   12  C   UNL     1      -8.796  13.315  67.293  1.00  0.00    -0.216 A  
HETATM   13  C   UNL     1      -7.874  12.899  68.256  1.00  0.00    -0.142 A  
HETATM   14  N   UNL     1      -8.527  10.603  67.924  1.00  0.00    -0.119 NA 
HETATM   15  C   UNL     1      -7.776  11.546  68.531  1.00  0.00    -0.134 A  
HETATM   16  C   UNL     1      -9.419  11.032  67.004  1.00  0.00    -0.173 A  
HETATM   17  C   UNL     1      -9.591  12.362  66.657  1.00  0.00    -0.230 A  
ENDBRANCH   6  12
TORSDOF 1
ENDMDL
MODEL      132
REMARK 921   NORMALIZED FREE ENERGY PREDICTED BY IDOCK:   -3.43 KCAL/MOL
REMARK 922        TOTAL FREE ENERGY PREDICTED BY IDOCK:   -3.78 KCAL/MOL
REMARK 923 INTER-LIGAND FREE ENERGY PREDICTED BY IDOCK:   -3.64 KCAL/MOL
REMARK 924 INTRA-LIGAND FREE ENERGY PREDICTED BY IDOCK:   -0.14 KCAL/MOL
REMARK 927      BINDING AFFINITY PREDICTED BY RF-SCORE:    0.00 PKD
ROOT
HETATM    1  N   UNL     1      -7.361   6.895  74.307  1.00  0.00    -0.096 NA 
HETATM    2  H1  UNL     1      -6.488   6.370  74.360  1.00  0.00     0.000 HD 
HETATM    3  C   UNL     1      -7.988   7.280  73.134  1.00  0.00    -0.101 C  
HETATM    4  H2  UNL     1      -8.050   6.373  74.850  1.00  0.00     0.000 HD 
HETATM    5  C   UNL     1      -9.139   7.971  73.064  1.00  0.00    -0.331 C  
HETATM    6  C   UNL     1      -9.749   8.344  71.797  1.00  0.00    -0.306 C  
HETATM    7  C   UNL     1      -9.128   8.007  70.654  1.00  0.00    -0.153 C  
HETATM    8  O   UNL     1      -6.331   6.162  71.806  1.00  0.00    -0.043 OA 
HETATM    9  N   UNL     1      -7.954   7.297  70.675  1.00  0.00    -0.098 N  
HETATM   10  C   UNL     1      -7.338   6.865  71.824  1.00  0.00    -0.084 C  
HETATM   11  H   UNL     1      -7.511   7.076  69.783  1.00  0.00     0.000 HD 
ENDROOT
BRANCH   6  12
HETATM   12  C   UNL     1     -11.039   9.045  71.701  1.00  0.00    -0.433 A  
HETATM   13  C   UNL     1     -12.144   8.563  72.405  1.00  0.00    -0.436 A  
HETATM   14  N   UNL     1     -13.513  10.335  71.513  1.00  0.00    -0.295 NA 
HETATM   15  C   UNL     1     -13.348   9.235  72.277  1.00  0.00    -0.477 A  
HETATM   16  C   UNL     1     -12.426  10.788  70.851  1.00  0.00    -0.402 A  
HETATM   17  C   UNL     1     -11.180  10.187  70.912  1.00  0.00    -0.383 A  
ENDBRANCH   6  12
TORSDOF 1
ENDMDL
MODEL      133
REMARK 921   NORMALIZED FREE ENERGY PREDICTED BY IDOCK:   -3.39 KCAL/MOL
REMARK 922        TOTAL FREE ENERGY PREDICTED BY IDOCK:   -3.74 KCAL/MOL
REMARK 923 INTER-LIGAND FREE ENERGY PREDICTED BY IDOCK:   -3.58 KCAL/MOL
REMARK 924 INTRA-LIGAND FREE ENERGY PREDICTED BY IDOCK:   -0.16 KCAL/MOL
REMARK 927      BINDING AFFINITY PREDICTED BY RF-SCORE:    0.00 PKD
ROOT
HETATM    1  N   UNL     1      -9.644   5.081  71.570  1.00  0.00    -0.152 NA 
HETATM    2  H1  UNL     1      -9.149   4.256  71.232  1.00  0.00     0.000 HD 
HETATM    3  C   UNL     1      -9.958   6.191  70.804  1.00  0.00    -0.189 C  
HETATM    4  H2  UNL     1     -10.519   4.751  71.980  1.00  0.00     0.000 HD 
HETATM    5  C   UNL     1     -10.611   7.278  71.249  1.00  0.00    -0.236 C  
HETATM    6  C   UNL     1     -10.913   8.413  70.390  1.00  0.00    -0.249 C  
HETATM    7  C   UNL     1     -10.503   8.384  69.110  1.00  0.00    -0.206 C  
HETATM    8  O   UNL     1      -9.032   5.173  68.837  1.00  0.00    -0.098 OA 
HETATM    9  N   UNL     1      -9.838   7.293  68.609  1.00  0.00    -0.157 N  
HETATM   10  C   UNL     1      -9.557   6.164  69.338  1.00  0.00    -0.137 C  
HETATM   11  H   UNL     1      -9.534   7.323  67.636  1.00  0.00     0.000 HD 
ENDROOT
BRANCH   6  12
HETATM   12  C   UNL     1     -11.680   9.583  70.844  1.00  0.00    -0.391 A  
HETATM   13  C   UNL     1     -11.501  10.817  70.216  1.00  0.00    -0.406 A  
HETATM   14  N   UNL     1     -13.099  11.833  71.707  1.00  0.00    -0.445 NA 
HETATM   15  C   UNL     1     -12.223  11.902  70.682  1.00  0.00    -0.331 A  
HETATM   16  C   UNL     1     -13.263  10.626  72.290  1.00  0.00    -0.106 A  
HETATM   17  C   UNL     1     -12.586   9.482  71.899  1.00  0.00    -0.479 A  
ENDBRANCH   6  12
TORSDOF 1
ENDMDL
MODEL      134
REMARK 921   NORMALIZED FREE ENERGY PREDICTED BY IDOCK:   -3.38 KCAL/MOL
REMARK 922        TOTAL FREE ENERGY PREDICTED BY IDOCK:   -3.72 KCAL/MOL
REMARK 923 INTER-LIGAND FREE ENERGY PREDICTED BY IDOCK:   -3.56 KCAL/MOL
REMARK 924 INTRA-LIGAND FREE ENERGY PREDICTED BY IDOCK:   -0.16 KCAL/MOL
REMARK 927      BINDING AFFINITY PREDICTED BY RF-SCORE:    0.00 PKD
ROOT
HETATM    1  N   UNL     1      -8.864   5.422  68.571  1.00  0.00    -0.101 NA 
HETATM    2  H1  UNL     1      -7.974   5.248  68.105  1.00  0.00     0.000 HD 
HETATM    3  C   UNL     1      -9.164   6.551  69.316  1.00  0.00    -0.139 C  
HETATM    4  H2  UNL     1      -9.589   5.340  67.859  1.00  0.00     0.000 HD 
HETATM    5  C   UNL     1     -10.337   6.780  69.931  1.00  0.00    -0.229 C  
HETATM    6  C   UNL     1     -10.591   7.990  70.699  1.00  0.00    -0.227 C  
HETATM    7  C   UNL     1      -9.609   8.901  70.818  1.00  0.00    -0.229 C  
HETATM    8  O   UNL     1      -7.027   7.525  68.821  1.00  0.00    -0.073 OA 
HETATM    9  N   UNL     1      -8.397   8.712  70.203  1.00  0.00    -0.119 N  
HETATM   10  C   UNL     1      -8.093   7.624  69.422  1.00  0.00    -0.127 C  
HETATM   11  H   UNL     1      -7.678   9.424  70.333  1.00  0.00     0.000 HD 
ENDROOT
BRANCH   6  12
HETATM   12  C   UNL     1     -11.888   8.287  71.326  1.00  0.00    -0.319 A  
HETATM   13  C   UNL     1     -12.842   7.276  71.459  1.00  0.00    -0.430 A  
HETATM   14  N   UNL     1     -14.377   8.826  72.482  1.00  0.00    -0.584 NA 
HETATM   15  C   UNL     1     -14.060   7.593  72.034  1.00  0.00    -0.248 A  
HETATM   16  C   UNL     1     -13.433   9.784  72.352  1.00  0.00    -0.272 A  
HETATM   17  C   UNL     1     -12.186   9.568  71.789  1.00  0.00    -0.465 A  
ENDBRANCH   6  12
TORSDOF 1
ENDMDL
MODEL      135
REMARK 921   NORMALIZED FREE ENERGY PREDICTED BY IDOCK:   -3.34 KCAL/MOL
REMARK 922        TOTAL FREE ENERGY PREDICTED BY IDOCK:   -3.69 KCAL/MOL
REMARK 923 INTER-LIGAND FREE ENERGY PREDICTED BY IDOCK:   -3.56 KCAL/MOL
REMARK 924 INTRA-LIGAND FREE ENERGY PREDICTED BY IDOCK:   -0.13 KCAL/MOL
REMARK 927      BINDING AFFINITY PREDICTED BY RF-SCORE:    0.00 PKD
ROOT
HETATM    1  N   UNL     1     -12.662   7.037  72.370  1.00  0.00    -0.499 NA 
HETATM    2  H1  UNL     1     -13.337   7.334  73.075  1.00  0.00     0.000 HD 
HETATM    3  C   UNL     1     -12.125   7.854  71.389  1.00  0.00    -0.307 C  
HETATM    4  H2  UNL     1     -11.875   6.625  72.872  1.00  0.00     0.000 HD 
HETATM    5  C   UNL     1     -11.235   7.464  70.460  1.00  0.00    -0.296 C  
HETATM    6  C   UNL     1     -10.706   8.374  69.456  1.00  0.00    -0.181 C  
HETATM    7  C   UNL     1     -11.140   9.647  69.441  1.00  0.00    -0.139 C  
HETATM    8  O   UNL     1     -13.299   9.763  72.247  1.00  0.00    -0.443 OA 
HETATM    9  N   UNL     1     -12.043  10.092  70.373  1.00  0.00    -0.418 N  
HETATM   10  C   UNL     1     -12.554   9.313  71.382  1.00  0.00    -0.336 C  
HETATM   11  H   UNL     1     -12.354  11.061  70.313  1.00  0.00     0.000 HD 
ENDROOT
BRANCH   6  12
HETATM   12  C   UNL     1      -9.686   7.981  68.472  1.00  0.00    -0.166 A  
HETATM   13  C   UNL     1      -8.333   8.173  68.759  1.00  0.00    -0.126 A  
HETATM   14  N   UNL     1      -7.725   7.274  66.608  1.00  0.00    -0.099 NA 
HETATM   15  C   UNL     1      -7.401   7.810  67.803  1.00  0.00    -0.095 A  
HETATM   16  C   UNL     1      -9.039   7.088  66.358  1.00  0.00    -0.160 A  
HETATM   17  C   UNL     1     -10.048   7.419  67.248  1.00  0.00    -0.296 A  
ENDBRANCH   6  12
TORSDOF 1
ENDMDL
MODEL      136
REMARK 921   NORMALIZED FREE ENERGY PREDICTED BY IDOCK:   -3.34 KCAL/MOL
REMARK 922        TOTAL FREE ENERGY PREDICTED BY IDOCK:   -3.68 KCAL/MOL
REMARK 923 INTER-LIGAND FREE ENERGY PREDICTED BY IDOCK:   -3.53 KCAL/MOL
REMARK 924 INTRA-LIGAND FREE ENERGY PREDICTED BY IDOCK:   -0.15 KCAL/MOL
REMARK 927      BINDING AFFINITY PREDICTED BY RF-SCORE:    0.00 PKD
ROOT
HETATM    1  N   UNL     1      -5.676  15.168  70.248  1.00  0.00    -0.139 NA 
HETATM    2  H1  UNL     1      -5.111  14.336  70.415  1.00  0.00     0.000 HD 
HETATM    3  C   UNL     1      -6.567  15.326  69.199  1.00  0.00    -0.130 C  
HETATM    4  H2  UNL     1      -6.199  15.345  71.106  1.00  0.00     0.000 HD 
HETATM    5  C   UNL     1      -7.313  16.422  68.978  1.00  0.00    -0.221 C  
HETATM    6  C   UNL     1      -8.234  16.525  67.856  1.00  0.00    -0.172 C  
HETATM    7  C   UNL     1      -8.326  15.496  66.996  1.00  0.00    -0.232 C  
HETATM    8  O   UNL     1      -6.150  13.093  68.424  1.00  0.00    -0.071 OA 
HETATM    9  N   UNL     1      -7.589  14.354  67.185  1.00  0.00    -0.330 N  
HETATM   10  C   UNL     1      -6.734  14.157  68.241  1.00  0.00    -0.108 C  
HETATM   11  H   UNL     1      -7.681  13.606  66.498  1.00  0.00     0.000 HD 
ENDROOT
BRANCH   6  12
HETATM   12  C   UNL     1      -9.103  17.690  67.634  1.00  0.00    -0.241 A  
HETATM   13  C   UNL     1      -9.465  18.050  66.334  1.00  0.00    -0.280 A  
HETATM   14  N   UNL     1     -10.725  19.923  67.177  1.00  0.00    -0.401 NA 
HETATM   15  C   UNL     1     -10.266  19.165  66.159  1.00  0.00    -0.463 A  
HETATM   16  C   UNL     1     -10.370  19.549  68.426  1.00  0.00    -0.377 A  
HETATM   17  C   UNL     1      -9.572  18.452  68.705  1.00  0.00    -0.363 A  
ENDBRANCH   6  12
TORSDOF 1
ENDMDL
MODEL      137
REMARK 921   NORMALIZED FREE ENERGY PREDICTED BY IDOCK:   -3.33 KCAL/MOL
REMARK 922        TOTAL FREE ENERGY PREDICTED BY IDOCK:   -3.68 KCAL/MOL
REMARK 923 INTER-LIGAND FREE ENERGY PREDICTED BY IDOCK:   -3.53 KCAL/MOL
REMARK 924 INTRA-LIGAND FREE ENERGY PREDICTED BY IDOCK:   -0.15 KCAL/MOL
REMARK 927      BINDING AFFINITY PREDICTED BY RF-SCORE:    0.00 PKD
ROOT
HETATM    1  N   UNL     1     -11.883  11.482  68.562  1.00  0.00    -0.473 NA 
HETATM    2  H1  UNL     1     -12.562  12.204  68.800  1.00  0.00     0.000 HD 
HETATM    3  C   UNL     1     -11.337  11.287  67.304  1.00  0.00    -0.255 C  
HETATM    4  H2  UNL     1     -11.100  11.591  69.208  1.00  0.00     0.000 HD 
HETATM    5  C   UNL     1     -10.441  10.335  66.990  1.00  0.00    -0.304 C  
HETATM    6  C   UNL     1      -9.902  10.184  65.647  1.00  0.00    -0.347 C  
HETATM    7  C   UNL     1     -10.334  11.011  64.679  1.00  0.00    -0.345 C  
HETATM    8  O   UNL     1     -12.514  13.186  66.429  1.00  0.00    -0.367 OA 
HETATM    9  N   UNL     1     -11.243  12.000  64.953  1.00  0.00    -0.320 N  
HETATM   10  C   UNL     1     -11.763  12.241  66.201  1.00  0.00    -0.376 C  
HETATM   11  H   UNL     1     -11.552  12.594  64.183  1.00  0.00     0.000 HD 
ENDROOT
BRANCH   6  12
HETATM   12  C   UNL     1      -8.876   9.190  65.300  1.00  0.00    -0.240 A  
HETATM   13  C   UNL     1      -7.812   9.550  64.470  1.00  0.00    -0.126 A  
HETATM   14  N   UNL     1      -6.927   7.312  64.594  1.00  0.00    -0.050 NA 
HETATM   15  C   UNL     1      -6.875   8.584  64.147  1.00  0.00    -0.075 A  
HETATM   16  C   UNL     1      -7.959   6.991  65.403  1.00  0.00    -0.129 A  
HETATM   17  C   UNL     1      -8.948   7.883  65.784  1.00  0.00    -0.125 A  
ENDBRANCH   6  12
TORSDOF 1
ENDMDL
MODEL      138
REMARK 921   NORMALIZED FREE ENERGY PREDICTED BY IDOCK:   -3.33 KCAL/MOL
REMARK 922        TOTAL FREE ENERGY PREDICTED BY IDOCK:   -3.67 KCAL/MOL
REMARK 923 INTER-LIGAND FREE ENERGY PREDICTED BY IDOCK:   -3.53 KCAL/MOL
REMARK 924 INTRA-LIGAND FREE ENERGY PREDICTED BY IDOCK:   -0.14 KCAL/MOL
REMARK 927      BINDING AFFINITY PREDICTED BY RF-SCORE:    0.00 PKD
ROOT
HETATM    1  N   UNL     1      -9.652   8.271  65.659  1.00  0.00    -0.410 NA 
HETATM    2  H1  UNL     1      -9.078   7.615  65.131  1.00  0.00     0.000 HD 
HETATM    3  C   UNL     1      -9.262   9.547  66.032  1.00  0.00    -0.196 C  
HETATM    4  H2  UNL     1     -10.530   8.370  65.150  1.00  0.00     0.000 HD 
HETATM    5  C   UNL     1     -10.018  10.413  66.728  1.00  0.00    -0.256 C  
HETATM    6  C   UNL     1      -9.550  11.744  67.087  1.00  0.00    -0.189 C  
HETATM    7  C   UNL     1      -8.308  12.112  66.729  1.00  0.00    -0.111 C  
HETATM    8  O   UNL     1      -7.167   9.312  64.885  1.00  0.00    -0.098 OA 
HETATM    9  N   UNL     1      -7.502  11.264  66.013  1.00  0.00    -0.365 N  
HETATM   10  C   UNL     1      -7.883  10.013  65.594  1.00  0.00    -0.138 C  
HETATM   11  H   UNL     1      -6.562  11.582  65.777  1.00  0.00     0.000 HD 
ENDROOT
BRANCH   6  12
HETATM   12  C   UNL     1     -10.386  12.726  67.794  1.00  0.00    -0.222 A  
HETATM   13  C   UNL     1     -11.078  12.347  68.947  1.00  0.00    -0.307 A  
HETATM   14  N   UNL     1     -12.011  14.560  69.142  1.00  0.00    -0.319 NA 
HETATM   15  C   UNL     1     -11.872  13.290  69.576  1.00  0.00    -0.327 A  
HETATM   16  C   UNL     1     -11.324  14.905  68.031  1.00  0.00    -0.324 A  
HETATM   17  C   UNL     1     -10.505  14.035  67.329  1.00  0.00    -0.268 A  
ENDBRANCH   6  12
TORSDOF 1
ENDMDL
MODEL      139
REMARK 921   NORMALIZED FREE ENERGY PREDICTED BY IDOCK:   -3.32 KCAL/MOL
REMARK 922        TOTAL FREE ENERGY PREDICTED BY IDOCK:   -3.67 KCAL/MOL
REMARK 923 INTER-LIGAND FREE ENERGY PREDICTED BY IDOCK:   -3.51 KCAL/MOL
REMARK 924 INTRA-LIGAND FREE ENERGY PREDICTED BY IDOCK:   -0.15 KCAL/MOL
REMARK 927      BINDING AFFINITY PREDICTED BY RF-SCORE:    0.00 PKD
ROOT
HETATM    1  N   UNL     1     -12.113  12.590  66.808  1.00  0.00    -0.546 NA 
HETATM    2  H1  UNL     1     -12.463  13.480  66.451  1.00  0.00     0.000 HD 
HETATM    3  C   UNL     1     -11.081  11.859  66.244  1.00  0.00    -0.314 C  
HETATM    4  H2  UNL     1     -11.864  12.743  67.785  1.00  0.00     0.000 HD 
HETATM    5  C   UNL     1     -10.620  10.687  66.713  1.00  0.00    -0.297 C  
HETATM    6  C   UNL     1      -9.528   9.967  66.074  1.00  0.00    -0.258 C  
HETATM    7  C   UNL     1      -8.976  10.480  64.961  1.00  0.00    -0.201 C  
HETATM    8  O   UNL     1     -10.710  13.545  64.577  1.00  0.00    -0.390 OA 
HETATM    9  N   UNL     1      -9.411  11.676  64.449  1.00  0.00    -0.427 N  
HETATM   10  C   UNL     1     -10.400  12.441  65.016  1.00  0.00    -0.293 C  
HETATM   11  H   UNL     1      -8.972  12.019  63.594  1.00  0.00     0.000 HD 
ENDROOT
BRANCH   6  12
HETATM   12  C   UNL     1      -8.969   8.716  66.609  1.00  0.00    -0.174 A  
HETATM   13  C   UNL     1      -9.017   8.465  67.982  1.00  0.00    -0.138 A  
HETATM   14  N   UNL     1      -7.883   6.362  67.661  1.00  0.00    -0.105 NA 
HETATM   15  C   UNL     1      -8.463   7.288  68.455  1.00  0.00    -0.125 A  
HETATM   16  C   UNL     1      -7.859   6.623  66.336  1.00  0.00    -0.104 A  
HETATM   17  C   UNL     1      -8.384   7.772  65.766  1.00  0.00    -0.140 A  
ENDBRANCH   6  12
TORSDOF 1
ENDMDL
MODEL      140
REMARK 921   NORMALIZED FREE ENERGY PREDICTED BY IDOCK:   -3.29 KCAL/MOL
REMARK 922        TOTAL FREE ENERGY PREDICTED BY IDOCK:   -3.64 KCAL/MOL
REMARK 923 INTER-LIGAND FREE ENERGY PREDICTED BY IDOCK:   -3.49 KCAL/MOL
REMARK 924 INTRA-LIGAND FREE ENERGY PREDICTED BY IDOCK:   -0.14 KCAL/MOL
REMARK 927      BINDING AFFINITY PREDICTED BY RF-SCORE:    0.00 PKD
ROOT
HETATM    1  N   UNL     1      -7.954   9.927  63.468  1.00  0.00    -0.148 NA 
HETATM    2  H1  UNL     1      -7.820  10.446  62.600  1.00  0.00     0.000 HD 
HETATM    3  C   UNL     1      -8.878  10.244  64.450  1.00  0.00    -0.209 C  
HETATM    4  H2  UNL     1      -8.127   8.956  63.205  1.00  0.00     0.000 HD 
HETATM    5  C   UNL     1      -9.054   9.559  65.594  1.00  0.00    -0.250 C  
HETATM    6  C   UNL     1     -10.046   9.944  66.587  1.00  0.00    -0.297 C  
HETATM    7  C   UNL     1     -10.797  11.037  66.365  1.00  0.00    -0.191 C  
HETATM    8  O   UNL     1      -9.735  12.067  63.146  1.00  0.00    -0.381 OA 
HETATM    9  N   UNL     1     -10.655  11.763  65.210  1.00  0.00    -0.269 N  
HETATM   10  C   UNL     1      -9.780  11.442  64.202  1.00  0.00    -0.235 C  
HETATM   11  H   UNL     1     -11.237  12.593  65.092  1.00  0.00     0.000 HD 
ENDROOT
BRANCH   6  12
HETATM   12  C   UNL     1     -10.295   9.172  67.814  1.00  0.00    -0.302 A  
HETATM   13  C   UNL     1     -10.394   7.780  67.750  1.00  0.00    -0.284 A  
HETATM   14  N   UNL     1     -10.804   7.678  70.123  1.00  0.00    -0.248 NA 
HETATM   15  C   UNL     1     -10.650   7.086  68.920  1.00  0.00    -0.215 A  
HETATM   16  C   UNL     1     -10.694   9.024  70.160  1.00  0.00    -0.233 A  
HETATM   17  C   UNL     1     -10.441   9.808  69.046  1.00  0.00    -0.229 A  
ENDBRANCH   6  12
TORSDOF 1
ENDMDL
MODEL      141
REMARK 921   NORMALIZED FREE ENERGY PREDICTED BY IDOCK:   -3.28 KCAL/MOL
REMARK 922        TOTAL FREE ENERGY PREDICTED BY IDOCK:   -3.62 KCAL/MOL
REMARK 923 INTER-LIGAND FREE ENERGY PREDICTED BY IDOCK:   -3.49 KCAL/MOL
REMARK 924 INTRA-LIGAND FREE ENERGY PREDICTED BY IDOCK:   -0.13 KCAL/MOL
REMARK 927      BINDING AFFINITY PREDICTED BY RF-SCORE:    0.00 PKD
ROOT
HETATM    1  N   UNL     1     -13.140   8.984  72.958  1.00  0.00    -0.746 NA 
HETATM    2  H1  UNL     1     -13.769   9.786  72.955  1.00  0.00     0.000 HD 
HETATM    3  C   UNL     1     -12.035   8.836  72.136  1.00  0.00    -0.366 C  
HETATM    4  H2  UNL     1     -12.809   8.874  73.916  1.00  0.00     0.000 HD 
HETATM    5  C   UNL     1     -11.205   7.779  72.139  1.00  0.00    -0.348 C  
HETATM    6  C   UNL     1     -10.057   7.685  71.249  1.00  0.00    -0.203 C  
HETATM    7  C   UNL     1      -9.831   8.681  70.376  1.00  0.00    -0.183 C  
HETATM    8  O   UNL     1     -12.383  11.006  71.171  1.00  0.00    -0.361 OA 
HETATM    9  N   UNL     1     -10.648   9.783  70.340  1.00  0.00    -0.285 N  
HETATM   10  C   UNL     1     -11.721   9.972  71.175  1.00  0.00    -0.387 C  
HETATM   11  H   UNL     1     -10.445  10.507  69.650  1.00  0.00     0.000 HD 
ENDROOT
BRANCH   6  12
HETATM   12  C   UNL     1      -9.105   6.565  71.283  1.00  0.00    -0.148 A  
HETATM   13  C   UNL     1      -8.323   6.352  72.420  1.00  0.00    -0.106 A  
HETATM   14  N   UNL     1      -7.259   4.465  71.364  1.00  0.00    -0.043 NA 
HETATM   15  C   UNL     1      -7.422   5.301  72.411  1.00  0.00    -0.096 A  
HETATM   16  C   UNL     1      -8.033   4.686  70.279  1.00  0.00    -0.064 A  
HETATM   17  C   UNL     1      -8.962   5.710  70.190  1.00  0.00    -0.151 A  
ENDBRANCH   6  12
TORSDOF 1
ENDMDL
MODEL      142
REMARK 921   NORMALIZED FREE ENERGY PREDICTED BY IDOCK:   -3.21 KCAL/MOL
REMARK 922        TOTAL FREE ENERGY PREDICTED BY IDOCK:   -3.54 KCAL/MOL
REMARK 923 INTER-LIGAND FREE ENERGY PREDICTED BY IDOCK:   -3.39 KCAL/MOL
REMARK 924 INTRA-LIGAND FREE ENERGY PREDICTED BY IDOCK:   -0.15 KCAL/MOL
REMARK 927      BINDING AFFINITY PREDICTED BY RF-SCORE:    0.00 PKD
ROOT
HETATM    1  N   UNL     1      -9.126  13.149  67.540  1.00  0.00    -0.194 NA 
HETATM    2  H1  UNL     1      -9.759  12.367  67.708  1.00  0.00     0.000 HD 
HETATM    3  C   UNL     1      -9.506  14.387  67.047  1.00  0.00    -0.248 C  
HETATM    4  H2  UNL     1      -8.634  13.321  68.416  1.00  0.00     0.000 HD 
HETATM    5  C   UNL     1      -8.673  15.418  66.826  1.00  0.00    -0.304 C  
HETATM    6  C   UNL     1      -9.136  16.697  66.307  1.00  0.00    -0.333 C  
HETATM    7  C   UNL     1     -10.440  16.845  66.016  1.00  0.00    -0.290 C  
HETATM    8  O   UNL     1     -11.816  13.737  67.015  1.00  0.00    -0.365 OA 
HETATM    9  N   UNL     1     -11.328  15.821  66.230  1.00  0.00     0.033 N  
HETATM   10  C   UNL     1     -10.983  14.603  66.761  1.00  0.00    -0.323 C  
HETATM   11  H   UNL     1     -12.305  15.975  65.981  1.00  0.00     0.000 HD 
ENDROOT
BRANCH   6  12
HETATM   12  C   UNL     1      -8.250  17.855  66.117  1.00  0.00    -0.185 A  
HETATM   13  C   UNL     1      -6.927  17.659  65.715  1.00  0.00    -0.154 A  
HETATM   14  N   UNL     1      -6.529  20.035  65.783  1.00  0.00    -0.213 NA 
HETATM   15  C   UNL     1      -6.114  18.770  65.566  1.00  0.00    -0.240 A  
HETATM   16  C   UNL     1      -7.816  20.199  66.161  1.00  0.00    -0.238 A  
HETATM   17  C   UNL     1      -8.707  19.154  66.339  1.00  0.00    -0.336 A  
ENDBRANCH   6  12
TORSDOF 1
ENDMDL
MODEL      143
REMARK 921   NORMALIZED FREE ENERGY PREDICTED BY IDOCK:   -3.17 KCAL/MOL
REMARK 922        TOTAL FREE ENERGY PREDICTED BY IDOCK:   -3.50 KCAL/MOL
REMARK 923 INTER-LIGAND FREE ENERGY PREDICTED BY IDOCK:   -3.34 KCAL/MOL
REMARK 924 INTRA-LIGAND FREE ENERGY PREDICTED BY IDOCK:   -0.16 KCAL/MOL
REMARK 927      BINDING AFFINITY PREDICTED BY RF-SCORE:    0.00 PKD
ROOT
HETATM    1  N   UNL     1     -10.659   4.513  74.288  1.00  0.00    -0.267 NA 
HETATM    2  H1  UNL     1     -10.534   3.563  74.638  1.00  0.00     0.000 HD 
HETATM    3  C   UNL     1     -10.486   4.905  72.971  1.00  0.00    -0.199 C  
HETATM    4  H2  UNL     1     -11.598   4.804  74.559  1.00  0.00     0.000 HD 
HETATM    5  C   UNL     1     -10.651   6.156  72.509  1.00  0.00    -0.244 C  
HETATM    6  C   UNL     1     -10.455   6.503  71.109  1.00  0.00    -0.257 C  
HETATM    7  C   UNL     1     -10.072   5.542  70.251  1.00  0.00    -0.237 C  
HETATM    8  O   UNL     1     -10.019   2.650  72.295  1.00  0.00    -0.149 OA 
HETATM    9  N   UNL     1      -9.897   4.250  70.675  1.00  0.00    -0.205 N  
HETATM   10  C   UNL     1     -10.107   3.829  71.965  1.00  0.00    -0.139 C  
HETATM   11  H   UNL     1      -9.592   3.558  69.990  1.00  0.00     0.000 HD 
ENDROOT
BRANCH   6  12
HETATM   12  C   UNL     1     -10.691   7.853  70.576  1.00  0.00    -0.233 A  
HETATM   13  C   UNL     1     -10.379   8.138  69.245  1.00  0.00    -0.222 A  
HETATM   14  N   UNL     1     -11.096  10.420  69.541  1.00  0.00    -0.247 NA 
HETATM   15  C   UNL     1     -10.594   9.424  68.780  1.00  0.00    -0.208 A  
HETATM   16  C   UNL     1     -11.400  10.116  70.822  1.00  0.00    -0.354 A  
HETATM   17  C   UNL     1     -11.220   8.862  71.381  1.00  0.00    -0.382 A  
ENDBRANCH   6  12
TORSDOF 1
ENDMDL
MODEL      144
REMARK 921   NORMALIZED FREE ENERGY PREDICTED BY IDOCK:   -3.17 KCAL/MOL
REMARK 922        TOTAL FREE ENERGY PREDICTED BY IDOCK:   -3.50 KCAL/MOL
REMARK 923 INTER-LIGAND FREE ENERGY PREDICTED BY IDOCK:   -3.37 KCAL/MOL
REMARK 924 INTRA-LIGAND FREE ENERGY PREDICTED BY IDOCK:   -0.13 KCAL/MOL
REMARK 927      BINDING AFFINITY PREDICTED BY RF-SCORE:    0.00 PKD
ROOT
HETATM    1  N   UNL     1     -11.626  16.423  69.972  1.00  0.00    -0.358 NA 
HETATM    2  H1  UNL     1     -12.235  15.636  70.197  1.00  0.00     0.000 HD 
HETATM    3  C   UNL     1     -10.520  16.360  69.140  1.00  0.00    -0.303 C  
HETATM    4  H2  UNL     1     -12.225  17.164  69.608  1.00  0.00     0.000 HD 
HETATM    5  C   UNL     1      -9.717  17.396  68.845  1.00  0.00    -0.251 C  
HETATM    6  C   UNL     1      -8.569  17.265  67.959  1.00  0.00    -0.234 C  
HETATM    7  C   UNL     1      -8.288  16.059  67.437  1.00  0.00    -0.167 C  
HETATM    8  O   UNL     1     -10.943  14.050  68.646  1.00  0.00    -0.245 OA 
HETATM    9  N   UNL     1      -9.083  14.974  67.706  1.00  0.00    -0.178 N  
HETATM   10  C   UNL     1     -10.209  15.022  68.490  1.00  0.00    -0.227 C  
HETATM   11  H   UNL     1      -8.821  14.076  67.298  1.00  0.00     0.000 HD 
ENDROOT
BRANCH   6  12
HETATM   12  C   UNL     1      -7.717  18.401  67.576  1.00  0.00    -0.231 A  
HETATM   13  C   UNL     1      -8.074  19.201  66.488  1.00  0.00    -0.309 A  
HETATM   14  N   UNL     1      -6.099  20.546  66.799  1.00  0.00    -0.182 NA 
HETATM   15  C   UNL     1      -7.239  20.249  66.141  1.00  0.00    -0.257 A  
HETATM   16  C   UNL     1      -5.781  19.764  67.854  1.00  0.00    -0.198 A  
HETATM   17  C   UNL     1      -6.548  18.692  68.279  1.00  0.00    -0.233 A  
ENDBRANCH   6  12
TORSDOF 1
ENDMDL
MODEL      145
REMARK 921   NORMALIZED FREE ENERGY PREDICTED BY IDOCK:   -3.15 KCAL/MOL
REMARK 922        TOTAL FREE ENERGY PREDICTED BY IDOCK:   -3.49 KCAL/MOL
REMARK 923 INTER-LIGAND FREE ENERGY PREDICTED BY IDOCK:   -3.35 KCAL/MOL
REMARK 924 INTRA-LIGAND FREE ENERGY PREDICTED BY IDOCK:   -0.13 KCAL/MOL
REMARK 927      BINDING AFFINITY PREDICTED BY RF-SCORE:    0.00 PKD
ROOT
HETATM    1  N   UNL     1      -8.798   2.618  65.690  1.00  0.00    -0.130 NA 
HETATM    2  H1  UNL     1      -8.931   2.208  64.766  1.00  0.00     0.000 HD 
HETATM    3  C   UNL     1      -9.483   3.718  66.178  1.00  0.00    -0.175 C  
HETATM    4  H2  UNL     1      -8.931   1.866  66.366  1.00  0.00     0.000 HD 
HETATM    5  C   UNL     1      -9.307   4.259  67.396  1.00  0.00    -0.190 C  
HETATM    6  C   UNL     1     -10.062   5.417  67.851  1.00  0.00    -0.215 C  
HETATM    7  C   UNL     1     -10.950   5.982  67.015  1.00  0.00    -0.276 C  
HETATM    8  O   UNL     1     -10.809   3.858  64.183  1.00  0.00    -0.287 OA 
HETATM    9  N   UNL     1     -11.167   5.461  65.764  1.00  0.00    -0.674 N  
HETATM   10  C   UNL     1     -10.533   4.345  65.276  1.00  0.00    -0.179 C  
HETATM   11  H   UNL     1     -11.840   5.932  65.159  1.00  0.00     0.000 HD 
ENDROOT
BRANCH   6  12
HETATM   12  C   UNL     1      -9.928   5.983  69.202  1.00  0.00    -0.205 A  
HETATM   13  C   UNL     1      -9.329   7.233  69.375  1.00  0.00    -0.151 A  
HETATM   14  N   UNL     1      -9.627   7.071  71.761  1.00  0.00    -0.156 NA 
HETATM   15  C   UNL     1      -9.200   7.727  70.661  1.00  0.00    -0.161 A  
HETATM   16  C   UNL     1     -10.212   5.869  71.566  1.00  0.00    -0.205 A  
HETATM   17  C   UNL     1     -10.387   5.288  70.321  1.00  0.00    -0.350 A  
ENDBRANCH   6  12
TORSDOF 1
ENDMDL
MODEL      146
REMARK 921   NORMALIZED FREE ENERGY PREDICTED BY IDOCK:   -3.12 KCAL/MOL
REMARK 922        TOTAL FREE ENERGY PREDICTED BY IDOCK:   -3.45 KCAL/MOL
REMARK 923 INTER-LIGAND FREE ENERGY PREDICTED BY IDOCK:   -3.32 KCAL/MOL
REMARK 924 INTRA-LIGAND FREE ENERGY PREDICTED BY IDOCK:   -0.13 KCAL/MOL
REMARK 927      BINDING AFFINITY PREDICTED BY RF-SCORE:    0.00 PKD
ROOT
HETATM    1  N   UNL     1      -9.950   9.415  65.399  1.00  0.00    -0.407 NA 
HETATM    2  H1  UNL     1      -9.429   9.567  64.536  1.00  0.00     0.000 HD 
HETATM    3  C   UNL     1      -9.438   8.830  66.545  1.00  0.00    -0.219 C  
HETATM    4  H2  UNL     1     -10.328  10.321  65.676  1.00  0.00     0.000 HD 
HETATM    5  C   UNL     1     -10.125   8.630  67.683  1.00  0.00    -0.271 C  
HETATM    6  C   UNL     1      -9.527   8.009  68.856  1.00  0.00    -0.151 C  
HETATM    7  C   UNL     1      -8.249   7.599  68.792  1.00  0.00    -0.128 C  
HETATM    8  O   UNL     1      -7.264   8.631  65.549  1.00  0.00    -0.081 OA 
HETATM    9  N   UNL     1      -7.507   7.788  67.653  1.00  0.00    -0.102 N  
HETATM   10  C   UNL     1      -7.979   8.406  66.522  1.00  0.00    -0.096 C  
HETATM   11  H   UNL     1      -6.545   7.447  67.647  1.00  0.00     0.000 HD 
ENDROOT
BRANCH   6  12
HETATM   12  C   UNL     1     -10.245   7.839  70.128  1.00  0.00    -0.205 A  
HETATM   13  C   UNL     1     -11.307   6.937  70.211  1.00  0.00    -0.373 A  
HETATM   14  N   UNL     1     -11.651   7.519  72.525  1.00  0.00    -0.315 NA 
HETATM   15  C   UNL     1     -11.974   6.817  71.418  1.00  0.00    -0.355 A  
HETATM   16  C   UNL     1     -10.613   8.378  72.422  1.00  0.00    -0.335 A  
HETATM   17  C   UNL     1      -9.885   8.571  71.260  1.00  0.00    -0.279 A  
ENDBRANCH   6  12
TORSDOF 1
ENDMDL
MODEL      147
REMARK 921   NORMALIZED FREE ENERGY PREDICTED BY IDOCK:   -3.11 KCAL/MOL
REMARK 922        TOTAL FREE ENERGY PREDICTED BY IDOCK:   -3.44 KCAL/MOL
REMARK 923 INTER-LIGAND FREE ENERGY PREDICTED BY IDOCK:   -3.31 KCAL/MOL
REMARK 924 INTRA-LIGAND FREE ENERGY PREDICTED BY IDOCK:   -0.13 KCAL/MOL
REMARK 927      BINDING AFFINITY PREDICTED BY RF-SCORE:    0.00 PKD
ROOT
HETATM    1  N   UNL     1      -7.068   9.115  68.949  1.00  0.00    -0.067 NA 
HETATM    2  H1  UNL     1      -6.631   8.225  69.187  1.00  0.00     0.000 HD 
HETATM    3  C   UNL     1      -8.125   9.272  68.068  1.00  0.00    -0.104 C  
HETATM    4  H2  UNL     1      -7.353   9.546  69.829  1.00  0.00     0.000 HD 
HETATM    5  C   UNL     1      -8.702  10.445  67.755  1.00  0.00    -0.122 C  
HETATM    6  C   UNL     1      -9.814  10.543  66.821  1.00  0.00    -0.237 C  
HETATM    7  C   UNL     1     -10.266   9.423  66.232  1.00  0.00    -0.214 C  
HETATM    8  O   UNL     1      -8.276   6.902  67.727  1.00  0.00    -0.116 OA 
HETATM    9  N   UNL     1      -9.712   8.202  66.525  1.00  0.00    -0.279 N  
HETATM   10  C   UNL     1      -8.695   8.017  67.428  1.00  0.00    -0.124 C  
HETATM   11  H   UNL     1     -10.079   7.382  66.042  1.00  0.00     0.000 HD 
ENDROOT
BRANCH   6  12
HETATM   12  C   UNL     1     -10.497  11.809  66.515  1.00  0.00    -0.265 A  
HETATM   13  C   UNL     1     -11.465  12.305  67.391  1.00  0.00    -0.422 A  
HETATM   14  N   UNL     1     -11.838  14.196  65.943  1.00  0.00    -0.370 NA 
HETATM   15  C   UNL     1     -12.103  13.489  67.062  1.00  0.00    -0.354 A  
HETATM   16  C   UNL     1     -10.891  13.700  65.118  1.00  0.00    -0.334 A  
HETATM   17  C   UNL     1     -10.197  12.525  65.356  1.00  0.00    -0.303 A  
ENDBRANCH   6  12
TORSDOF 1
ENDMDL
MODEL      148
REMARK 921   NORMALIZED FREE ENERGY PREDICTED BY IDOCK:   -3.10 KCAL/MOL
REMARK 922        TOTAL FREE ENERGY PREDICTED BY IDOCK:   -3.43 KCAL/MOL
REMARK 923 INTER-LIGAND FREE ENERGY PREDICTED BY IDOCK:   -3.29 KCAL/MOL
REMARK 924 INTRA-LIGAND FREE ENERGY PREDICTED BY IDOCK:   -0.13 KCAL/MOL
REMARK 927      BINDING AFFINITY PREDICTED BY RF-SCORE:    0.00 PKD
ROOT
HETATM    1  N   UNL     1      -5.968  18.367  69.826  1.00  0.00    -0.248 NA 
HETATM    2  H1  UNL     1      -6.256  17.849  70.656  1.00  0.00     0.000 HD 
HETATM    3  C   UNL     1      -6.433  18.134  68.543  1.00  0.00    -0.214 C  
HETATM    4  H2  UNL     1      -6.134  19.354  70.024  1.00  0.00     0.000 HD 
HETATM    5  C   UNL     1      -6.053  18.816  67.448  1.00  0.00    -0.171 C  
HETATM    6  C   UNL     1      -6.582  18.523  66.124  1.00  0.00    -0.267 C  
HETATM    7  C   UNL     1      -7.465  17.519  65.987  1.00  0.00    -0.239 C  
HETATM    8  O   UNL     1      -7.931  16.431  69.325  1.00  0.00    -0.233 OA 
HETATM    9  N   UNL     1      -7.886  16.799  67.076  1.00  0.00    -0.176 N  
HETATM   10  C   UNL     1      -7.474  17.041  68.363  1.00  0.00    -0.213 C  
HETATM   11  H   UNL     1      -8.546  16.037  66.920  1.00  0.00     0.000 HD 
ENDROOT
BRANCH   6  12
HETATM   12  C   UNL     1      -6.226  19.299  64.927  1.00  0.00    -0.308 A  
HETATM   13  C   UNL     1      -6.618  20.636  64.823  1.00  0.00    -0.275 A  
HETATM   14  N   UNL     1      -5.593  20.792  62.648  1.00  0.00    -0.216 NA 
HETATM   15  C   UNL     1      -6.284  21.331  63.674  1.00  0.00    -0.281 A  
HETATM   16  C   UNL     1      -5.216  19.501  62.777  1.00  0.00    -0.304 A  
HETATM   17  C   UNL     1      -5.502  18.721  63.885  1.00  0.00    -0.149 A  
ENDBRANCH   6  12
TORSDOF 1
ENDMDL
MODEL      149
REMARK 921   NORMALIZED FREE ENERGY PREDICTED BY IDOCK:   -3.06 KCAL/MOL
REMARK 922        TOTAL FREE ENERGY PREDICTED BY IDOCK:   -3.39 KCAL/MOL
REMARK 923 INTER-LIGAND FREE ENERGY PREDICTED BY IDOCK:   -3.25 KCAL/MOL
REMARK 924 INTRA-LIGAND FREE ENERGY PREDICTED BY IDOCK:   -0.14 KCAL/MOL
REMARK 927      BINDING AFFINITY PREDICTED BY RF-SCORE:    0.00 PKD
ROOT
HETATM    1  N   UNL     1      -9.662   8.692  68.767  1.00  0.00    -0.163 NA 
HETATM    2  H1  UNL     1      -9.369   7.822  68.321  1.00  0.00     0.000 HD 
HETATM    3  C   UNL     1     -10.031   9.845  68.094  1.00  0.00    -0.151 C  
HETATM    4  H2  UNL     1     -10.435   8.456  69.390  1.00  0.00     0.000 HD 
HETATM    5  C   UNL     1     -10.418  10.991  68.681  1.00  0.00    -0.214 C  
HETATM    6  C   UNL     1     -10.796  12.170  67.916  1.00  0.00    -0.254 C  
HETATM    7  C   UNL     1     -10.733  12.119  66.574  1.00  0.00    -0.255 C  
HETATM    8  O   UNL     1      -9.762   8.767  65.967  1.00  0.00    -0.254 OA 
HETATM    9  N   UNL     1     -10.349  10.970  65.931  1.00  0.00    -0.255 N  
HETATM   10  C   UNL     1     -10.024   9.802  66.575  1.00  0.00    -0.239 C  
HETATM   11  H   UNL     1     -10.303  10.984  64.912  1.00  0.00     0.000 HD 
ENDROOT
BRANCH   6  12
HETATM   12  C   UNL     1     -11.281  13.410  68.539  1.00  0.00    -0.316 A  
HETATM   13  C   UNL     1     -10.661  14.626  68.242  1.00  0.00    -0.235 A  
HETATM   14  N   UNL     1     -12.158  15.782  69.735  1.00  0.00    -0.334 NA 
HETATM   15  C   UNL     1     -11.129  15.771  68.862  1.00  0.00    -0.298 A  
HETATM   16  C   UNL     1     -12.747  14.596  69.999  1.00  0.00    -0.152 A  
HETATM   17  C   UNL     1     -12.352  13.395  69.432  1.00  0.00    -0.126 A  
ENDBRANCH   6  12
TORSDOF 1
ENDMDL
MODEL      150
REMARK 921   NORMALIZED FREE ENERGY PREDICTED BY IDOCK:   -3.05 KCAL/MOL
REMARK 922        TOTAL FREE ENERGY PREDICTED BY IDOCK:   -3.38 KCAL/MOL
REMARK 923 INTER-LIGAND FREE ENERGY PREDICTED BY IDOCK:   -3.22 KCAL/MOL
REMARK 924 INTRA-LIGAND FREE ENERGY PREDICTED BY IDOCK:   -0.16 KCAL/MOL
REMARK 927      BINDING AFFINITY PREDICTED BY RF-SCORE:    0.00 PKD
ROOT
HETATM    1  N   UNL     1      -6.454  18.385  68.170  1.00  0.00    -0.198 NA 
HETATM    2  H1  UNL     1      -5.819  18.816  68.842  1.00  0.00     0.000 HD 
HETATM    3  C   UNL     1      -6.877  17.067  68.209  1.00  0.00    -0.170 C  
HETATM    4  H2  UNL     1      -7.295  18.962  68.149  1.00  0.00     0.000 HD 
HETATM    5  C   UNL     1      -7.714  16.498  67.325  1.00  0.00    -0.193 C  
HETATM    6  C   UNL     1      -8.123  15.104  67.423  1.00  0.00    -0.209 C  
HETATM    7  C   UNL     1      -7.627  14.352  68.420  1.00  0.00    -0.122 C  
HETATM    8  O   UNL     1      -5.677  16.675  70.250  1.00  0.00    -0.210 OA 
HETATM    9  N   UNL     1      -6.774  14.891  69.350  1.00  0.00    -0.140 N  
HETATM   10  C   UNL     1      -6.377  16.205  69.358  1.00  0.00    -0.179 C  
HETATM   11  H   UNL     1      -6.412  14.277  70.080  1.00  0.00     0.000 HD 
ENDROOT
BRANCH   6  12
HETATM   12  C   UNL     1      -9.086  14.483  66.501  1.00  0.00    -0.248 A  
HETATM   13  C   UNL     1      -9.211  13.092  66.461  1.00  0.00    -0.185 A  
HETATM   14  N   UNL     1     -10.883  13.269  64.735  1.00  0.00    -0.339 NA 
HETATM   15  C   UNL     1     -10.111  12.539  65.567  1.00  0.00    -0.265 A  
HETATM   16  C   UNL     1     -10.751  14.612  64.800  1.00  0.00    -0.377 A  
HETATM   17  C   UNL     1      -9.878  15.261  65.658  1.00  0.00    -0.383 A  
ENDBRANCH   6  12
TORSDOF 1
ENDMDL
MODEL      151
REMARK 921   NORMALIZED FREE ENERGY PREDICTED BY IDOCK:   -3.05 KCAL/MOL
REMARK 922        TOTAL FREE ENERGY PREDICTED BY IDOCK:   -3.38 KCAL/MOL
REMARK 923 INTER-LIGAND FREE ENERGY PREDICTED BY IDOCK:   -3.22 KCAL/MOL
REMARK 924 INTRA-LIGAND FREE ENERGY PREDICTED BY IDOCK:   -0.16 KCAL/MOL
REMARK 927      BINDING AFFINITY PREDICTED BY RF-SCORE:    0.00 PKD
ROOT
HETATM    1  N   UNL     1      -5.242  18.704  72.115  1.00  0.00    -0.664 NA 
HETATM    2  H1  UNL     1      -5.113  18.159  72.967  1.00  0.00     0.000 HD 
HETATM    3  C   UNL     1      -5.338  18.174  70.839  1.00  0.00    -0.236 C  
HETATM    4  H2  UNL     1      -6.072  19.280  72.257  1.00  0.00     0.000 HD 
HETATM    5  C   UNL     1      -5.507  18.892  69.715  1.00  0.00    -0.222 C  
HETATM    6  C   UNL     1      -5.603  18.274  68.401  1.00  0.00    -0.171 C  
HETATM    7  C   UNL     1      -5.495  16.937  68.305  1.00  0.00    -0.119 C  
HETATM    8  O   UNL     1      -5.205  15.934  71.690  1.00  0.00    -0.082 OA 
HETATM    9  N   UNL     1      -5.328  16.163  69.425  1.00  0.00    -0.113 N  
HETATM   10  C   UNL     1      -5.275  16.662  70.703  1.00  0.00    -0.208 C  
HETATM   11  H   UNL     1      -5.236  15.155  69.300  1.00  0.00     0.000 HD 
ENDROOT
BRANCH   6  12
HETATM   12  C   UNL     1      -5.850  19.038  67.170  1.00  0.00    -0.156 A  
HETATM   13  C   UNL     1      -5.723  18.413  65.927  1.00  0.00    -0.222 A  
HETATM   14  N   UNL     1      -6.280  20.474  64.808  1.00  0.00    -0.272 NA 
HETATM   15  C   UNL     1      -5.943  19.167  64.787  1.00  0.00    -0.282 A  
HETATM   16  C   UNL     1      -6.407  21.053  66.022  1.00  0.00    -0.219 A  
HETATM   17  C   UNL     1      -6.207  20.386  67.219  1.00  0.00    -0.252 A  
ENDBRANCH   6  12
TORSDOF 1
ENDMDL
MODEL      152
REMARK 921   NORMALIZED FREE ENERGY PREDICTED BY IDOCK:   -3.01 KCAL/MOL
REMARK 922        TOTAL FREE ENERGY PREDICTED BY IDOCK:   -3.33 KCAL/MOL
REMARK 923 INTER-LIGAND FREE ENERGY PREDICTED BY IDOCK:   -3.20 KCAL/MOL
REMARK 924 INTRA-LIGAND FREE ENERGY PREDICTED BY IDOCK:   -0.13 KCAL/MOL
REMARK 927      BINDING AFFINITY PREDICTED BY RF-SCORE:    0.00 PKD
ROOT
HETATM    1  N   UNL     1     -12.100   6.695  71.800  1.00  0.00    -0.344 NA 
HETATM    2  H1  UNL     1     -12.211   7.384  72.543  1.00  0.00     0.000 HD 
HETATM    3  C   UNL     1     -11.388   6.896  70.629  1.00  0.00    -0.320 C  
HETATM    4  H2  UNL     1     -11.720   5.853  72.233  1.00  0.00     0.000 HD 
HETATM    5  C   UNL     1     -11.242   5.988  69.649  1.00  0.00    -0.428 C  
HETATM    6  C   UNL     1     -10.477   6.261  68.441  1.00  0.00    -0.273 C  
HETATM    7  C   UNL     1      -9.915   7.473  68.289  1.00  0.00    -0.173 C  
HETATM    8  O   UNL     1     -10.714   9.086  71.340  1.00  0.00    -0.275 OA 
HETATM    9  N   UNL     1     -10.033   8.429  69.266  1.00  0.00    -0.190 N  
HETATM   10  C   UNL     1     -10.695   8.237  70.453  1.00  0.00    -0.232 C  
HETATM   11  H   UNL     1      -9.602   9.339  69.100  1.00  0.00     0.000 HD 
ENDROOT
BRANCH   6  12
HETATM   12  C   UNL     1     -10.254   5.259  67.388  1.00  0.00    -0.240 A  
HETATM   13  C   UNL     1      -9.431   4.159  67.638  1.00  0.00    -0.225 A  
HETATM   14  N   UNL     1      -9.783   3.355  65.393  1.00  0.00    -0.106 NA 
HETATM   15  C   UNL     1      -9.226   3.246  66.618  1.00  0.00    -0.160 A  
HETATM   16  C   UNL     1     -10.584   4.421  65.180  1.00  0.00    -0.137 A  
HETATM   17  C   UNL     1     -10.850   5.390  66.134  1.00  0.00    -0.095 A  
ENDBRANCH   6  12
TORSDOF 1
ENDMDL
MODEL      153
REMARK 921   NORMALIZED FREE ENERGY PREDICTED BY IDOCK:   -2.98 KCAL/MOL
REMARK 922        TOTAL FREE ENERGY PREDICTED BY IDOCK:   -3.31 KCAL/MOL
REMARK 923 INTER-LIGAND FREE ENERGY PREDICTED BY IDOCK:   -3.16 KCAL/MOL
REMARK 924 INTRA-LIGAND FREE ENERGY PREDICTED BY IDOCK:   -0.15 KCAL/MOL
REMARK 927      BINDING AFFINITY PREDICTED BY RF-SCORE:    0.00 PKD
ROOT
HETATM    1  N   UNL     1     -10.190   9.783  68.722  1.00  0.00    -0.186 NA 
HETATM    2  H1  UNL     1     -10.539  10.726  68.891  1.00  0.00     0.000 HD 
HETATM    3  C   UNL     1     -10.525   8.664  69.467  1.00  0.00    -0.220 C  
HETATM    4  H2  UNL     1     -10.403   9.561  67.749  1.00  0.00     0.000 HD 
HETATM    5  C   UNL     1     -10.065   7.421  69.244  1.00  0.00    -0.186 C  
HETATM    6  C   UNL     1     -10.459   6.285  70.064  1.00  0.00    -0.274 C  
HETATM    7  C   UNL     1     -11.294   6.490  71.097  1.00  0.00    -0.314 C  
HETATM    8  O   UNL     1     -12.039   9.942  70.822  1.00  0.00    -0.291 OA 
HETATM    9  N   UNL     1     -11.794   7.740  71.360  1.00  0.00    -0.290 N  
HETATM   10  C   UNL     1     -11.512   8.854  70.608  1.00  0.00    -0.242 C  
HETATM   11  H   UNL     1     -12.413   7.849  72.163  1.00  0.00     0.000 HD 
ENDROOT
BRANCH   6  12
HETATM   12  C   UNL     1     -10.015   4.909  69.796  1.00  0.00    -0.314 A  
HETATM   13  C   UNL     1      -9.774   4.037  70.861  1.00  0.00    -0.257 A  
HETATM   14  N   UNL     1      -9.136   2.296  69.321  1.00  0.00    -0.109 NA 
HETATM   15  C   UNL     1      -9.337   2.756  70.574  1.00  0.00    -0.146 A  
HETATM   16  C   UNL     1      -9.385   3.155  68.309  1.00  0.00    -0.187 A  
HETATM   17  C   UNL     1      -9.823   4.457  68.491  1.00  0.00    -0.140 A  
ENDBRANCH   6  12
TORSDOF 1
ENDMDL
MODEL      154
REMARK 921   NORMALIZED FREE ENERGY PREDICTED BY IDOCK:   -2.94 KCAL/MOL
REMARK 922        TOTAL FREE ENERGY PREDICTED BY IDOCK:   -3.26 KCAL/MOL
REMARK 923 INTER-LIGAND FREE ENERGY PREDICTED BY IDOCK:   -3.09 KCAL/MOL
REMARK 924 INTRA-LIGAND FREE ENERGY PREDICTED BY IDOCK:   -0.16 KCAL/MOL
REMARK 927      BINDING AFFINITY PREDICTED BY RF-SCORE:    0.00 PKD
ROOT
HETATM    1  N   UNL     1      -5.746  14.630  70.725  1.00  0.00    -0.158 NA 
HETATM    2  H1  UNL     1      -5.759  13.628  70.911  1.00  0.00     0.000 HD 
HETATM    3  C   UNL     1      -6.248  15.234  69.584  1.00  0.00    -0.147 C  
HETATM    4  H2  UNL     1      -6.198  15.083  71.519  1.00  0.00     0.000 HD 
HETATM    5  C   UNL     1      -6.230  16.555  69.337  1.00  0.00    -0.197 C  
HETATM    6  C   UNL     1      -6.778  17.128  68.117  1.00  0.00    -0.164 C  
HETATM    7  C   UNL     1      -7.300  16.304  67.191  1.00  0.00    -0.209 C  
HETATM    8  O   UNL     1      -7.023  13.128  68.734  1.00  0.00    -0.097 OA 
HETATM    9  N   UNL     1      -7.345  14.949  67.402  1.00  0.00    -0.200 N  
HETATM   10  C   UNL     1      -6.895  14.334  68.543  1.00  0.00    -0.100 C  
HETATM   11  H   UNL     1      -7.737  14.363  66.665  1.00  0.00     0.000 HD 
ENDROOT
BRANCH   6  12
HETATM   12  C   UNL     1      -6.824  18.575  67.859  1.00  0.00    -0.224 A  
HETATM   13  C   UNL     1      -7.560  19.065  66.778  1.00  0.00    -0.245 A  
HETATM   14  N   UNL     1      -6.901  21.319  67.321  1.00  0.00    -0.557 NA 
HETATM   15  C   UNL     1      -7.565  20.430  66.551  1.00  0.00    -0.209 A  
HETATM   16  C   UNL     1      -6.205  20.821  68.366  1.00  0.00    -0.321 A  
HETATM   17  C   UNL     1      -6.136  19.473  68.675  1.00  0.00    -0.267 A  
ENDBRANCH   6  12
TORSDOF 1
ENDMDL
MODEL      155
REMARK 921   NORMALIZED FREE ENERGY PREDICTED BY IDOCK:   -2.86 KCAL/MOL
REMARK 922        TOTAL FREE ENERGY PREDICTED BY IDOCK:   -3.18 KCAL/MOL
REMARK 923 INTER-LIGAND FREE ENERGY PREDICTED BY IDOCK:   -3.05 KCAL/MOL
REMARK 924 INTRA-LIGAND FREE ENERGY PREDICTED BY IDOCK:   -0.13 KCAL/MOL
REMARK 927      BINDING AFFINITY PREDICTED BY RF-SCORE:    0.00 PKD
ROOT
HETATM    1  N   UNL     1      -7.676   8.016  70.087  1.00  0.00    -0.085 NA 
HETATM    2  H1  UNL     1      -7.383   7.042  70.023  1.00  0.00     0.000 HD 
HETATM    3  C   UNL     1      -8.758   8.567  69.420  1.00  0.00    -0.136 C  
HETATM    4  H2  UNL     1      -7.808   8.220  71.077  1.00  0.00     0.000 HD 
HETATM    5  C   UNL     1      -9.144   9.851  69.503  1.00  0.00    -0.237 C  
HETATM    6  C   UNL     1     -10.295  10.368  68.776  1.00  0.00    -0.213 C  
HETATM    7  C   UNL     1     -10.983   9.537  67.975  1.00  0.00    -0.096 C  
HETATM    8  O   UNL     1      -9.349   6.436  68.488  1.00  0.00    -0.124 OA 
HETATM    9  N   UNL     1     -10.629   8.216  67.863  1.00  0.00    -0.407 N  
HETATM   10  C   UNL     1      -9.589   7.638  68.549  1.00  0.00    -0.148 C  
HETATM   11  H   UNL     1     -11.172   7.627  67.232  1.00  0.00     0.000 HD 
ENDROOT
BRANCH   6  12
HETATM   12  C   UNL     1     -10.769  11.755  68.904  1.00  0.00    -0.241 A  
HETATM   13  C   UNL     1     -11.566  12.119  69.991  1.00  0.00    -0.251 A  
HETATM   14  N   UNL     1     -11.714  14.375  69.156  1.00  0.00    -0.297 NA 
HETATM   15  C   UNL     1     -12.012  13.427  70.069  1.00  0.00    -0.337 A  
HETATM   16  C   UNL     1     -10.933  14.001  68.120  1.00  0.00    -0.252 A  
HETATM   17  C   UNL     1     -10.438  12.718  67.951  1.00  0.00    -0.226 A  
ENDBRANCH   6  12
TORSDOF 1
ENDMDL
MODEL      156
REMARK 921   NORMALIZED FREE ENERGY PREDICTED BY IDOCK:   -2.83 KCAL/MOL
REMARK 922        TOTAL FREE ENERGY PREDICTED BY IDOCK:   -3.15 KCAL/MOL
REMARK 923 INTER-LIGAND FREE ENERGY PREDICTED BY IDOCK:   -3.00 KCAL/MOL
REMARK 924 INTRA-LIGAND FREE ENERGY PREDICTED BY IDOCK:   -0.15 KCAL/MOL
REMARK 927      BINDING AFFINITY PREDICTED BY RF-SCORE:    0.00 PKD
ROOT
HETATM    1  N   UNL     1      -7.056  15.035  69.416  1.00  0.00    -0.172 NA 
HETATM    2  H1  UNL     1      -7.501  14.473  70.142  1.00  0.00     0.000 HD 
HETATM    3  C   UNL     1      -7.682  16.032  68.688  1.00  0.00    -0.176 C  
HETATM    4  H2  UNL     1      -6.227  15.455  69.837  1.00  0.00     0.000 HD 
HETATM    5  C   UNL     1      -7.096  16.773  67.731  1.00  0.00    -0.146 C  
HETATM    6  C   UNL     1      -7.810  17.811  67.002  1.00  0.00    -0.234 C  
HETATM    7  C   UNL     1      -9.109  18.020  67.278  1.00  0.00    -0.255 C  
HETATM    8  O   UNL     1      -9.715  15.754  69.932  1.00  0.00    -0.250 OA 
HETATM    9  N   UNL     1      -9.748  17.293  68.250  1.00  0.00    -0.282 N  
HETATM   10  C   UNL     1      -9.136  16.331  69.016  1.00  0.00    -0.255 C  
HETATM   11  H   UNL     1     -10.737  17.477  68.414  1.00  0.00     0.000 HD 
ENDROOT
BRANCH   6  12
HETATM   12  C   UNL     1      -7.170  18.672  65.997  1.00  0.00    -0.293 A  
HETATM   13  C   UNL     1      -6.237  18.129  65.110  1.00  0.00    -0.038 A  
HETATM   14  N   UNL     1      -5.908  20.291  64.097  1.00  0.00    -0.246 NA 
HETATM   15  C   UNL     1      -5.637  18.972  64.190  1.00  0.00    -0.273 A  
HETATM   16  C   UNL     1      -6.820  20.790  64.958  1.00  0.00    -0.056 A  
HETATM   17  C   UNL     1      -7.474  20.031  65.915  1.00  0.00    -0.321 A  
ENDBRANCH   6  12
TORSDOF 1
ENDMDL
MODEL      157
REMARK 921   NORMALIZED FREE ENERGY PREDICTED BY IDOCK:   -2.83 KCAL/MOL
REMARK 922        TOTAL FREE ENERGY PREDICTED BY IDOCK:   -3.15 KCAL/MOL
REMARK 923 INTER-LIGAND FREE ENERGY PREDICTED BY IDOCK:   -2.98 KCAL/MOL
REMARK 924 INTRA-LIGAND FREE ENERGY PREDICTED BY IDOCK:   -0.16 KCAL/MOL
REMARK 927      BINDING AFFINITY PREDICTED BY RF-SCORE:    0.00 PKD
ROOT
HETATM    1  N   UNL     1      -7.264  11.079  65.663  1.00  0.00    -0.369 NA 
HETATM    2  H1  UNL     1      -7.094  11.550  64.775  1.00  0.00     0.000 HD 
HETATM    3  C   UNL     1      -8.350  11.309  66.491  1.00  0.00    -0.168 C  
HETATM    4  H2  UNL     1      -7.249  10.077  65.471  1.00  0.00     0.000 HD 
HETATM    5  C   UNL     1      -8.575  10.687  67.661  1.00  0.00    -0.118 C  
HETATM    6  C   UNL     1      -9.740  10.973  68.486  1.00  0.00    -0.189 C  
HETATM    7  C   UNL     1     -10.612  11.909  68.073  1.00  0.00    -0.207 C  
HETATM    8  O   UNL     1      -9.291  12.870  64.930  1.00  0.00     0.322 OA 
HETATM    9  N   UNL     1     -10.427  12.566  66.883  1.00  0.00    -0.228 N  
HETATM   10  C   UNL     1      -9.383  12.322  66.025  1.00  0.00    -0.141 C  
HETATM   11  H   UNL     1     -11.108  13.278  66.619  1.00  0.00     0.000 HD 
ENDROOT
BRANCH   6  12
HETATM   12  C   UNL     1     -10.033  10.259  69.737  1.00  0.00    -0.222 A  
HETATM   13  C   UNL     1     -11.291  10.383  70.330  1.00  0.00    -0.406 A  
HETATM   14  N   UNL     1     -10.610   8.941  72.136  1.00  0.00    -0.321 NA 
HETATM   15  C   UNL     1     -11.527   9.714  71.518  1.00  0.00    -0.369 A  
HETATM   16  C   UNL     1      -9.404   8.828  71.538  1.00  0.00    -0.267 A  
HETATM   17  C   UNL     1      -9.069   9.458  70.351  1.00  0.00    -0.302 A  
ENDBRANCH   6  12
TORSDOF 1
ENDMDL
MODEL      158
REMARK 921   NORMALIZED FREE ENERGY PREDICTED BY IDOCK:   -2.82 KCAL/MOL
REMARK 922        TOTAL FREE ENERGY PREDICTED BY IDOCK:   -3.14 KCAL/MOL
REMARK 923 INTER-LIGAND FREE ENERGY PREDICTED BY IDOCK:   -3.01 KCAL/MOL
REMARK 924 INTRA-LIGAND FREE ENERGY PREDICTED BY IDOCK:   -0.13 KCAL/MOL
REMARK 927      BINDING AFFINITY PREDICTED BY RF-SCORE:    0.00 PKD
ROOT
HETATM    1  N   UNL     1     -11.607  10.641  67.531  1.00  0.00    -0.567 NA 
HETATM    2  H1  UNL     1     -11.787  11.607  67.255  1.00  0.00     0.000 HD 
HETATM    3  C   UNL     1     -10.757   9.771  66.869  1.00  0.00    -0.122 C  
HETATM    4  H2  UNL     1     -11.302  10.666  68.504  1.00  0.00     0.000 HD 
HETATM    5  C   UNL     1     -10.520   8.498  67.232  1.00  0.00    -0.366 C  
HETATM    6  C   UNL     1      -9.611   7.634  66.493  1.00  0.00    -0.254 C  
HETATM    7  C   UNL     1      -9.006   8.117  65.395  1.00  0.00     0.027 C  
HETATM    8  O   UNL     1     -10.116  11.480  65.311  1.00  0.00    -0.245 OA 
HETATM    9  N   UNL     1      -9.213   9.411  64.990  1.00  0.00    -0.350 N  
HETATM   10  C   UNL     1     -10.015  10.305  65.655  1.00  0.00    -0.280 C  
HETATM   11  H   UNL     1      -8.743   9.728  64.142  1.00  0.00     0.000 HD 
ENDROOT
BRANCH   6  12
HETATM   12  C   UNL     1      -9.292   6.260  66.911  1.00  0.00    -0.148 A  
HETATM   13  C   UNL     1      -9.789   5.179  66.180  1.00  0.00    -0.204 A  
HETATM   14  N   UNL     1      -8.732   3.636  67.701  1.00  0.00    -0.100 NA 
HETATM   15  C   UNL     1      -9.486   3.899  66.613  1.00  0.00    -0.199 A  
HETATM   16  C   UNL     1      -8.254   4.699  68.385  1.00  0.00    -0.083 A  
HETATM   17  C   UNL     1      -8.501   6.016  68.034  1.00  0.00    -0.115 A  
ENDBRANCH   6  12
TORSDOF 1
ENDMDL
MODEL      159
REMARK 921   NORMALIZED FREE ENERGY PREDICTED BY IDOCK:   -2.82 KCAL/MOL
REMARK 922        TOTAL FREE ENERGY PREDICTED BY IDOCK:   -3.14 KCAL/MOL
REMARK 923 INTER-LIGAND FREE ENERGY PREDICTED BY IDOCK:   -2.98 KCAL/MOL
REMARK 924 INTRA-LIGAND FREE ENERGY PREDICTED BY IDOCK:   -0.16 KCAL/MOL
REMARK 927      BINDING AFFINITY PREDICTED BY RF-SCORE:    0.00 PKD
ROOT
HETATM    1  N   UNL     1      -8.458   7.913  68.922  1.00  0.00    -0.127 NA 
HETATM    2  H1  UNL     1      -8.517   8.812  68.443  1.00  0.00     0.000 HD 
HETATM    3  C   UNL     1      -9.380   7.440  69.840  1.00  0.00    -0.154 C  
HETATM    4  H2  UNL     1      -8.371   7.200  68.199  1.00  0.00     0.000 HD 
HETATM    5  C   UNL     1      -9.303   6.256  70.473  1.00  0.00    -0.171 C  
HETATM    6  C   UNL     1     -10.309   5.815  71.427  1.00  0.00    -0.279 C  
HETATM    7  C   UNL     1     -11.341   6.630  71.705  1.00  0.00    -0.276 C  
HETATM    8  O   UNL     1     -10.771   9.371  69.535  1.00  0.00    -0.220 OA 
HETATM    9  N   UNL     1     -11.465   7.845  71.080  1.00  0.00    -0.278 N  
HETATM   10  C   UNL     1     -10.588   8.315  70.134  1.00  0.00    -0.233 C  
HETATM   11  H   UNL     1     -12.257   8.435  71.334  1.00  0.00     0.000 HD 
ENDROOT
BRANCH   6  12
HETATM   12  C   UNL     1     -10.273   4.498  72.081  1.00  0.00    -0.256 A  
HETATM   13  C   UNL     1     -11.062   4.260  73.208  1.00  0.00    -0.342 A  
HETATM   14  N   UNL     1     -10.201   2.015  73.367  1.00  0.00    -0.099 NA 
HETATM   15  C   UNL     1     -10.988   3.016  73.811  1.00  0.00    -0.222 A  
HETATM   16  C   UNL     1      -9.455   2.266  72.268  1.00  0.00    -0.100 A  
HETATM   17  C   UNL     1      -9.457   3.476  71.595  1.00  0.00    -0.217 A  
ENDBRANCH   6  12
TORSDOF 1
ENDMDL
MODEL      160
REMARK 921   NORMALIZED FREE ENERGY PREDICTED BY IDOCK:   -2.82 KCAL/MOL
REMARK 922        TOTAL FREE ENERGY PREDICTED BY IDOCK:   -3.13 KCAL/MOL
REMARK 923 INTER-LIGAND FREE ENERGY PREDICTED BY IDOCK:   -2.98 KCAL/MOL
REMARK 924 INTRA-LIGAND FREE ENERGY PREDICTED BY IDOCK:   -0.16 KCAL/MOL
REMARK 927      BINDING AFFINITY PREDICTED BY RF-SCORE:    0.00 PKD
ROOT
HETATM    1  N   UNL     1      -9.631   5.646  71.910  1.00  0.00    -0.151 NA 
HETATM    2  H1  UNL     1      -9.329   4.690  72.097  1.00  0.00     0.000 HD 
HETATM    3  C   UNL     1      -9.872   6.172  70.652  1.00  0.00    -0.179 C  
HETATM    4  H2  UNL     1     -10.477   5.800  72.459  1.00  0.00     0.000 HD 
HETATM    5  C   UNL     1     -10.270   7.432  70.405  1.00  0.00    -0.201 C  
HETATM    6  C   UNL     1     -10.509   7.924  69.056  1.00  0.00    -0.210 C  
HETATM    7  C   UNL     1     -10.302   7.096  68.018  1.00  0.00    -0.194 C  
HETATM    8  O   UNL     1      -9.420   4.058  69.611  1.00  0.00    -0.161 OA 
HETATM    9  N   UNL     1      -9.901   5.799  68.221  1.00  0.00    -0.132 N  
HETATM   10  C   UNL     1      -9.700   5.243  69.461  1.00  0.00    -0.178 C  
HETATM   11  H   UNL     1      -9.743   5.213  67.402  1.00  0.00     0.000 HD 
ENDROOT
BRANCH   6  12
HETATM   12  C   UNL     1     -11.004   9.279  68.771  1.00  0.00    -0.047 A  
HETATM   13  C   UNL     1     -10.761   9.860  67.525  1.00  0.00    -0.333 A  
HETATM   14  N   UNL     1     -11.903  11.868  68.211  1.00  0.00    -0.456 NA 
HETATM   15  C   UNL     1     -11.223  11.145  67.297  1.00  0.00    -0.277 A  
HETATM   16  C   UNL     1     -12.135  11.281  69.405  1.00  0.00    -0.315 A  
HETATM   17  C   UNL     1     -11.713  10.002  69.731  1.00  0.00    -0.144 A  
ENDBRANCH   6  12
TORSDOF 1
ENDMDL
MODEL      161
REMARK 921   NORMALIZED FREE ENERGY PREDICTED BY IDOCK:   -2.82 KCAL/MOL
REMARK 922        TOTAL FREE ENERGY PREDICTED BY IDOCK:   -3.13 KCAL/MOL
REMARK 923 INTER-LIGAND FREE ENERGY PREDICTED BY IDOCK:   -2.97 KCAL/MOL
REMARK 924 INTRA-LIGAND FREE ENERGY PREDICTED BY IDOCK:   -0.16 KCAL/MOL
REMARK 927      BINDING AFFINITY PREDICTED BY RF-SCORE:    0.00 PKD
ROOT
HETATM    1  N   UNL     1      -6.531  12.338  70.038  1.00  0.00    -0.358 NA 
HETATM    2  H1  UNL     1      -6.400  11.328  70.096  1.00  0.00     0.000 HD 
HETATM    3  C   UNL     1      -7.205  12.995  69.022  1.00  0.00     0.014 C  
HETATM    4  H2  UNL     1      -6.966  12.628  70.914  1.00  0.00     0.000 HD 
HETATM    5  C   UNL     1      -7.378  14.326  68.945  1.00  0.00    -0.126 C  
HETATM    6  C   UNL     1      -8.100  14.956  67.849  1.00  0.00    -0.148 C  
HETATM    7  C   UNL     1      -8.591  14.182  66.866  1.00  0.00    -0.133 C  
HETATM    8  O   UNL     1      -7.776  10.916  67.969  1.00  0.00    -0.097 OA 
HETATM    9  N   UNL     1      -8.444  12.818  66.905  1.00  0.00    -0.363 N  
HETATM   10  C   UNL     1      -7.820  12.142  67.924  1.00  0.00    -0.147 C  
HETATM   11  H   UNL     1      -8.821  12.274  66.130  1.00  0.00     0.000 HD 
ENDROOT
BRANCH   6  12
HETATM   12  C   UNL     1      -8.353  16.403  67.781  1.00  0.00    -0.172 A  
HETATM   13  C   UNL     1      -9.297  16.901  66.881  1.00  0.00    -0.254 A  
HETATM   14  N   UNL     1      -8.831  19.153  67.603  1.00  0.00    -0.291 NA 
HETATM   15  C   UNL     1      -9.496  18.270  66.828  1.00  0.00    -0.300 A  
HETATM   16  C   UNL     1      -7.931  18.646  68.473  1.00  0.00    -0.337 A  
HETATM   17  C   UNL     1      -7.659  17.293  68.601  1.00  0.00    -0.260 A  
ENDBRANCH   6  12
TORSDOF 1
ENDMDL
MODEL      162
REMARK 921   NORMALIZED FREE ENERGY PREDICTED BY IDOCK:   -2.81 KCAL/MOL
REMARK 922        TOTAL FREE ENERGY PREDICTED BY IDOCK:   -3.12 KCAL/MOL
REMARK 923 INTER-LIGAND FREE ENERGY PREDICTED BY IDOCK:   -2.98 KCAL/MOL
REMARK 924 INTRA-LIGAND FREE ENERGY PREDICTED BY IDOCK:   -0.14 KCAL/MOL
REMARK 927      BINDING AFFINITY PREDICTED BY RF-SCORE:    0.00 PKD
ROOT
HETATM    1  N   UNL     1      -7.647  18.964  69.691  1.00  0.00     0.195 NA 
HETATM    2  H1  UNL     1      -8.251  18.911  70.511  1.00  0.00     0.000 HD 
HETATM    3  C   UNL     1      -8.050  19.374  68.431  1.00  0.00    -0.343 C  
HETATM    4  H2  UNL     1      -6.852  19.548  69.950  1.00  0.00     0.000 HD 
HETATM    5  C   UNL     1      -7.254  19.443  67.350  1.00  0.00    -0.239 C  
HETATM    6  C   UNL     1      -7.740  19.885  66.052  1.00  0.00    -0.337 C  
HETATM    7  C   UNL     1      -9.036  20.214  65.922  1.00  0.00    -0.056 C  
HETATM    8  O   UNL     1     -10.265  19.848  69.224  1.00  0.00    -0.374 OA 
HETATM    9  N   UNL     1      -9.885  20.164  66.998  1.00  0.00    -0.428 N  
HETATM   10  C   UNL     1      -9.498  19.805  68.266  1.00  0.00    -0.346 C  
HETATM   11  H   UNL     1     -10.864  20.409  66.848  1.00  0.00     0.000 HD 
ENDROOT
BRANCH   6  12
HETATM   12  C   UNL     1      -6.869  20.027  64.875  1.00  0.00    -0.164 A  
HETATM   13  C   UNL     1      -6.029  18.975  64.502  1.00  0.00    -0.272 A  
HETATM   14  N   UNL     1      -5.177  20.278  62.661  1.00  0.00    -0.191 NA 
HETATM   15  C   UNL     1      -5.208  19.149  63.401  1.00  0.00    -0.285 A  
HETATM   16  C   UNL     1      -6.007  21.276  63.036  1.00  0.00    -0.301 A  
HETATM   17  C   UNL     1      -6.864  21.201  64.121  1.00  0.00     0.159 A  
ENDBRANCH   6  12
TORSDOF 1
ENDMDL
MODEL      163
REMARK 921   NORMALIZED FREE ENERGY PREDICTED BY IDOCK:   -2.74 KCAL/MOL
REMARK 922        TOTAL FREE ENERGY PREDICTED BY IDOCK:   -3.05 KCAL/MOL
REMARK 923 INTER-LIGAND FREE ENERGY PREDICTED BY IDOCK:   -2.91 KCAL/MOL
REMARK 924 INTRA-LIGAND FREE ENERGY PREDICTED BY IDOCK:   -0.14 KCAL/MOL
REMARK 927      BINDING AFFINITY PREDICTED BY RF-SCORE:    0.00 PKD
ROOT
HETATM    1  N   UNL     1      -8.344   9.258  66.392  1.00  0.00    -0.117 NA 
HETATM    2  H1  UNL     1      -8.549  10.231  66.618  1.00  0.00     0.000 HD 
HETATM    3  C   UNL     1      -9.153   8.180  66.712  1.00  0.00    -0.157 C  
HETATM    4  H2  UNL     1      -8.186   9.218  65.386  1.00  0.00     0.000 HD 
HETATM    5  C   UNL     1      -8.884   6.898  66.414  1.00  0.00    -0.155 C  
HETATM    6  C   UNL     1      -9.778   5.808  66.777  1.00  0.00    -0.172 C  
HETATM    7  C   UNL     1     -10.904   6.092  67.455  1.00  0.00    -0.343 C  
HETATM    8  O   UNL     1     -10.815   9.628  67.662  1.00  0.00    -0.282 OA 
HETATM    9  N   UNL     1     -11.223   7.388  67.775  1.00  0.00    -0.453 N  
HETATM   10  C   UNL     1     -10.460   8.475  67.430  1.00  0.00    -0.280 C  
HETATM   11  H   UNL     1     -12.081   7.553  68.303  1.00  0.00     0.000 HD 
ENDROOT
BRANCH   6  12
HETATM   12  C   UNL     1      -9.530   4.407  66.405  1.00  0.00    -0.182 A  
HETATM   13  C   UNL     1      -9.363   3.444  67.402  1.00  0.00    -0.243 A  
HETATM   14  N   UNL     1      -9.022   1.741  65.731  1.00  0.00    -0.122 NA 
HETATM   15  C   UNL     1      -9.110   2.138  67.018  1.00  0.00    -0.098 A  
HETATM   16  C   UNL     1      -9.198   2.689  64.785  1.00  0.00    -0.137 A  
HETATM   17  C   UNL     1      -9.453   4.022  65.067  1.00  0.00    -0.172 A  
ENDBRANCH   6  12
TORSDOF 1
ENDMDL
MODEL      164
REMARK 921   NORMALIZED FREE ENERGY PREDICTED BY IDOCK:   -2.71 KCAL/MOL
REMARK 922        TOTAL FREE ENERGY PREDICTED BY IDOCK:   -3.02 KCAL/MOL
REMARK 923 INTER-LIGAND FREE ENERGY PREDICTED BY IDOCK:   -2.87 KCAL/MOL
REMARK 924 INTRA-LIGAND FREE ENERGY PREDICTED BY IDOCK:   -0.15 KCAL/MOL
REMARK 927      BINDING AFFINITY PREDICTED BY RF-SCORE:    0.00 PKD
ROOT
HETATM    1  N   UNL     1      -8.905   9.399  70.238  1.00  0.00    -0.219 NA 
HETATM    2  H1  UNL     1      -9.070  10.301  69.791  1.00  0.00     0.000 HD 
HETATM    3  C   UNL     1      -9.478   8.201  69.845  1.00  0.00    -0.160 C  
HETATM    4  H2  UNL     1      -7.896   9.254  70.244  1.00  0.00     0.000 HD 
HETATM    5  C   UNL     1      -9.262   7.012  70.434  1.00  0.00    -0.156 C  
HETATM    6  C   UNL     1      -9.894   5.786  69.971  1.00  0.00    -0.235 C  
HETATM    7  C   UNL     1     -10.743   5.847  68.931  1.00  0.00    -0.300 C  
HETATM    8  O   UNL     1     -10.581   9.260  67.996  1.00  0.00    -0.228 OA 
HETATM    9  N   UNL     1     -10.990   7.037  68.294  1.00  0.00    -0.460 N  
HETATM   10  C   UNL     1     -10.400   8.229  68.637  1.00  0.00    -0.200 C  
HETATM   11  H   UNL     1     -11.653   7.037  67.519  1.00  0.00     0.000 HD 
ENDROOT
BRANCH   6  12
HETATM   12  C   UNL     1      -9.620   4.468  70.563  1.00  0.00    -0.274 A  
HETATM   13  C   UNL     1      -9.581   3.334  69.748  1.00  0.00    -0.157 A  
HETATM   14  N   UNL     1      -9.138   1.942  71.665  1.00  0.00    -0.079 NA 
HETATM   15  C   UNL     1      -9.342   2.107  70.341  1.00  0.00    -0.117 A  
HETATM   16  C   UNL     1      -9.170   3.055  72.431  1.00  0.00    -0.098 A  
HETATM   17  C   UNL     1      -9.403   4.327  71.934  1.00  0.00    -0.186 A  
ENDBRANCH   6  12
TORSDOF 1
ENDMDL
MODEL      165
REMARK 921   NORMALIZED FREE ENERGY PREDICTED BY IDOCK:   -2.67 KCAL/MOL
REMARK 922        TOTAL FREE ENERGY PREDICTED BY IDOCK:   -2.98 KCAL/MOL
REMARK 923 INTER-LIGAND FREE ENERGY PREDICTED BY IDOCK:   -2.82 KCAL/MOL
REMARK 924 INTRA-LIGAND FREE ENERGY PREDICTED BY IDOCK:   -0.16 KCAL/MOL
REMARK 927      BINDING AFFINITY PREDICTED BY RF-SCORE:    0.00 PKD
ROOT
HETATM    1  N   UNL     1      -9.971   9.084  67.427  1.00  0.00    -0.193 NA 
HETATM    2  H1  UNL     1      -9.980   9.127  66.408  1.00  0.00     0.000 HD 
HETATM    3  C   UNL     1     -10.168   7.937  68.176  1.00  0.00    -0.205 C  
HETATM    4  H2  UNL     1      -9.082   9.483  67.729  1.00  0.00     0.000 HD 
HETATM    5  C   UNL     1     -10.155   7.879  69.519  1.00  0.00    -0.195 C  
HETATM    6  C   UNL     1     -10.367   6.638  70.249  1.00  0.00    -0.235 C  
HETATM    7  C   UNL     1     -10.608   5.512  69.556  1.00  0.00    -0.296 C  
HETATM    8  O   UNL     1     -10.330   6.593  66.194  1.00  0.00     0.126 OA 
HETATM    9  N   UNL     1     -10.625   5.520  68.184  1.00  0.00    -0.172 N  
HETATM   10  C   UNL     1     -10.387   6.636  67.420  1.00  0.00    -0.220 C  
HETATM   11  H   UNL     1     -10.826   4.644  67.702  1.00  0.00     0.000 HD 
ENDROOT
BRANCH   6  12
HETATM   12  C   UNL     1     -10.295   6.546  71.715  1.00  0.00    -0.229 A  
HETATM   13  C   UNL     1     -10.159   7.707  72.478  1.00  0.00    -0.284 A  
HETATM   14  N   UNL     1     -10.119   6.400  74.503  1.00  0.00    -0.350 NA 
HETATM   15  C   UNL     1     -10.073   7.583  73.854  1.00  0.00    -0.082 A  
HETATM   16  C   UNL     1     -10.262   5.292  73.743  1.00  0.00    -0.223 A  
HETATM   17  C   UNL     1     -10.355   5.311  72.361  1.00  0.00    -0.259 A  
ENDBRANCH   6  12
TORSDOF 1
ENDMDL
MODEL      166
REMARK 921   NORMALIZED FREE ENERGY PREDICTED BY IDOCK:   -2.63 KCAL/MOL
REMARK 922        TOTAL FREE ENERGY PREDICTED BY IDOCK:   -2.93 KCAL/MOL
REMARK 923 INTER-LIGAND FREE ENERGY PREDICTED BY IDOCK:   -2.78 KCAL/MOL
REMARK 924 INTRA-LIGAND FREE ENERGY PREDICTED BY IDOCK:   -0.15 KCAL/MOL
REMARK 927      BINDING AFFINITY PREDICTED BY RF-SCORE:    0.00 PKD
ROOT
HETATM    1  N   UNL     1     -10.561  17.294  69.681  1.00  0.00    -0.290 NA 
HETATM    2  H1  UNL     1     -11.322  17.841  70.083  1.00  0.00     0.000 HD 
HETATM    3  C   UNL     1     -10.647  15.962  69.312  1.00  0.00    -0.252 C  
HETATM    4  H2  UNL     1     -10.235  17.805  68.860  1.00  0.00     0.000 HD 
HETATM    5  C   UNL     1      -9.644  15.241  68.782  1.00  0.00    -0.214 C  
HETATM    6  C   UNL     1      -9.799  13.842  68.413  1.00  0.00    -0.229 C  
HETATM    7  C   UNL     1     -10.981  13.242  68.632  1.00  0.00    -0.264 C  
HETATM    8  O   UNL     1     -12.973  15.884  69.896  1.00  0.00    -0.081 OA 
HETATM    9  N   UNL     1     -12.036  13.939  69.165  1.00  0.00    -0.348 N  
HETATM   10  C   UNL     1     -11.988  15.270  69.496  1.00  0.00    -0.330 C  
HETATM   11  H   UNL     1     -12.909  13.437  69.326  1.00  0.00     0.000 HD 
ENDROOT
BRANCH   6  12
HETATM   12  C   UNL     1      -8.732  13.057  67.775  1.00  0.00    -0.188 A  
HETATM   13  C   UNL     1      -9.056  12.096  66.815  1.00  0.00    -0.205 A  
HETATM   14  N   UNL     1      -6.728  11.522  66.569  1.00  0.00    -0.075 NA 
HETATM   15  C   UNL     1      -8.029  11.360  66.249  1.00  0.00    -0.037 A  
HETATM   16  C   UNL     1      -6.439  12.464  67.493  1.00  0.00    -0.146 A  
HETATM   17  C   UNL     1      -7.394  13.251  68.117  1.00  0.00    -0.120 A  
ENDBRANCH   6  12
TORSDOF 1
ENDMDL
MODEL      167
REMARK 921   NORMALIZED FREE ENERGY PREDICTED BY IDOCK:   -2.50 KCAL/MOL
REMARK 922        TOTAL FREE ENERGY PREDICTED BY IDOCK:   -2.79 KCAL/MOL
REMARK 923 INTER-LIGAND FREE ENERGY PREDICTED BY IDOCK:   -2.66 KCAL/MOL
REMARK 924 INTRA-LIGAND FREE ENERGY PREDICTED BY IDOCK:   -0.13 KCAL/MOL
REMARK 927      BINDING AFFINITY PREDICTED BY RF-SCORE:    0.00 PKD
ROOT
HETATM    1  N   UNL     1      -9.026   4.164  65.363  1.00  0.00    -0.126 NA 
HETATM    2  H1  UNL     1      -8.459   4.190  64.516  1.00  0.00     0.000 HD 
HETATM    3  C   UNL     1      -8.827   4.961  66.478  1.00  0.00    -0.112 C  
HETATM    4  H2  UNL     1      -9.994   4.303  65.073  1.00  0.00     0.000 HD 
HETATM    5  C   UNL     1      -9.574   4.927  67.595  1.00  0.00    -0.183 C  
HETATM    6  C   UNL     1      -9.314   5.795  68.735  1.00  0.00    -0.135 C  
HETATM    7  C   UNL     1      -8.274   6.645  68.678  1.00  0.00    -0.119 C  
HETATM    8  O   UNL     1      -7.019   6.120  65.407  1.00  0.00    -0.054 OA 
HETATM    9  N   UNL     1      -7.487   6.719  67.556  1.00  0.00    -0.095 N  
HETATM   10  C   UNL     1      -7.693   5.972  66.423  1.00  0.00    -0.102 C  
HETATM   11  H   UNL     1      -6.701   7.368  67.565  1.00  0.00     0.000 HD 
ENDROOT
BRANCH   6  12
HETATM   12  C   UNL     1     -10.158   5.815  69.938  1.00  0.00    -0.273 A  
HETATM   13  C   UNL     1     -11.390   6.472  69.912  1.00  0.00    -0.469 A  
HETATM   14  N   UNL     1     -11.771   5.900  72.222  1.00  0.00    -0.294 NA 
HETATM   15  C   UNL     1     -12.150   6.489  71.069  1.00  0.00    -0.243 A  
HETATM   16  C   UNL     1     -10.581   5.262  72.219  1.00  0.00    -0.222 A  
HETATM   17  C   UNL     1      -9.747   5.190  71.116  1.00  0.00    -0.235 A  
ENDBRANCH   6  12
TORSDOF 1
ENDMDL
MODEL      168
REMARK 921   NORMALIZED FREE ENERGY PREDICTED BY IDOCK:   -2.40 KCAL/MOL
REMARK 922        TOTAL FREE ENERGY PREDICTED BY IDOCK:   -2.69 KCAL/MOL
REMARK 923 INTER-LIGAND FREE ENERGY PREDICTED BY IDOCK:   -2.56 KCAL/MOL
REMARK 924 INTRA-LIGAND FREE ENERGY PREDICTED BY IDOCK:   -0.13 KCAL/MOL
REMARK 927      BINDING AFFINITY PREDICTED BY RF-SCORE:    0.00 PKD
ROOT
HETATM    1  N   UNL     1     -11.669   7.041  69.744  1.00  0.00    -0.580 NA 
HETATM    2  H1  UNL     1     -12.290   6.298  69.424  1.00  0.00     0.000 HD 
HETATM    3  C   UNL     1     -10.585   7.533  69.035  1.00  0.00    -0.180 C  
HETATM    4  H2  UNL     1     -12.260   7.841  69.968  1.00  0.00     0.000 HD 
HETATM    5  C   UNL     1      -9.767   8.512  69.457  1.00  0.00    -0.176 C  
HETATM    6  C   UNL     1      -8.644   8.986  68.661  1.00  0.00    -0.129 C  
HETATM    7  C   UNL     1      -8.402   8.409  67.472  1.00  0.00    -0.129 C  
HETATM    8  O   UNL     1     -11.071   6.099  67.173  1.00  0.00    -0.333 OA 
HETATM    9  N   UNL     1      -9.214   7.409  66.997  1.00  0.00    -0.136 N  
HETATM   10  C   UNL     1     -10.320   6.938  67.662  1.00  0.00    -0.205 C  
HETATM   11  H   UNL     1      -8.983   6.992  66.096  1.00  0.00     0.000 HD 
ENDROOT
BRANCH   6  12
HETATM   12  C   UNL     1      -7.776  10.097  69.079  1.00  0.00    -0.100 A  
HETATM   13  C   UNL     1      -7.983  11.375  68.554  1.00  0.00    -0.143 A  
HETATM   14  N   UNL     1      -6.121  12.225  69.827  1.00  0.00    -0.133 NA 
HETATM   15  C   UNL     1      -7.135  12.394  68.953  1.00  0.00    -0.078 A  
HETATM   16  C   UNL     1      -5.949  10.982  70.329  1.00  0.00    -0.139 A  
HETATM   17  C   UNL     1      -6.741   9.897  69.992  1.00  0.00    -0.100 A  
ENDBRANCH   6  12
TORSDOF 1
ENDMDL
MODEL      169
REMARK 921   NORMALIZED FREE ENERGY PREDICTED BY IDOCK:   -2.39 KCAL/MOL
REMARK 922        TOTAL FREE ENERGY PREDICTED BY IDOCK:   -2.68 KCAL/MOL
REMARK 923 INTER-LIGAND FREE ENERGY PREDICTED BY IDOCK:   -2.52 KCAL/MOL
REMARK 924 INTRA-LIGAND FREE ENERGY PREDICTED BY IDOCK:   -0.16 KCAL/MOL
REMARK 927      BINDING AFFINITY PREDICTED BY RF-SCORE:    0.00 PKD
ROOT
HETATM    1  N   UNL     1      -8.200   8.256  66.872  1.00  0.00    -0.103 NA 
HETATM    2  H1  UNL     1      -8.548   9.031  67.437  1.00  0.00     0.000 HD 
HETATM    3  C   UNL     1      -8.943   7.149  66.498  1.00  0.00    -0.151 C  
HETATM    4  H2  UNL     1      -7.826   8.662  66.015  1.00  0.00     0.000 HD 
HETATM    5  C   UNL     1      -8.486   6.127  65.754  1.00  0.00    -0.147 C  
HETATM    6  C   UNL     1      -9.320   4.991  65.392  1.00  0.00    -0.123 C  
HETATM    7  C   UNL     1     -10.588   4.950  65.836  1.00  0.00    -0.230 C  
HETATM    8  O   UNL     1     -10.911   8.034  67.549  1.00  0.00    -0.202 OA 
HETATM    9  N   UNL     1     -11.101   5.973  66.593  1.00  0.00    -0.747 N  
HETATM   10  C   UNL     1     -10.397   7.101  66.938  1.00  0.00    -0.279 C  
HETATM   11  H   UNL     1     -12.064   5.891  66.920  1.00  0.00     0.000 HD 
ENDROOT
BRANCH   6  12
HETATM   12  C   UNL     1      -8.855   3.896  64.528  1.00  0.00    -0.124 A  
HETATM   13  C   UNL     1      -9.479   2.647  64.592  1.00  0.00    -0.135 A  
HETATM   14  N   UNL     1      -7.971   1.782  62.923  1.00  0.00    -0.055 NA 
HETATM   15  C   UNL     1      -9.002   1.632  63.780  1.00  0.00    -0.091 A  
HETATM   16  C   UNL     1      -7.392   3.001  62.871  1.00  0.00    -0.052 A  
HETATM   17  C   UNL     1      -7.793   4.080  63.642  1.00  0.00    -0.086 A  
ENDBRANCH   6  12
TORSDOF 1
ENDMDL
MODEL      170
REMARK 921   NORMALIZED FREE ENERGY PREDICTED BY IDOCK:   -2.33 KCAL/MOL
REMARK 922        TOTAL FREE ENERGY PREDICTED BY IDOCK:   -2.61 KCAL/MOL
REMARK 923 INTER-LIGAND FREE ENERGY PREDICTED BY IDOCK:   -2.47 KCAL/MOL
REMARK 924 INTRA-LIGAND FREE ENERGY PREDICTED BY IDOCK:   -0.14 KCAL/MOL
REMARK 927      BINDING AFFINITY PREDICTED BY RF-SCORE:    0.00 PKD
ROOT
HETATM    1  N   UNL     1      -7.958   2.233  73.225  1.00  0.00    -0.046 NA 
HETATM    2  H1  UNL     1      -7.543   1.323  73.028  1.00  0.00     0.000 HD 
HETATM    3  C   UNL     1      -8.513   3.076  72.276  1.00  0.00    -0.074 C  
HETATM    4  H2  UNL     1      -8.672   2.083  73.937  1.00  0.00     0.000 HD 
HETATM    5  C   UNL     1      -9.060   4.276  72.535  1.00  0.00    -0.136 C  
HETATM    6  C   UNL     1      -9.630   5.115  71.491  1.00  0.00    -0.208 C  
HETATM    7  C   UNL     1      -9.588   4.684  70.218  1.00  0.00    -0.200 C  
HETATM    8  O   UNL     1      -8.126   1.473  70.532  1.00  0.00    -0.041 OA 
HETATM    9  N   UNL     1      -9.045   3.463  69.907  1.00  0.00    -0.112 N  
HETATM   10  C   UNL     1      -8.531   2.592  70.835  1.00  0.00    -0.057 C  
HETATM   11  H   UNL     1      -9.023   3.186  68.926  1.00  0.00     0.000 HD 
ENDROOT
BRANCH   6  12
HETATM   12  C   UNL     1     -10.288   6.402  71.764  1.00  0.00    -0.231 A  
HETATM   13  C   UNL     1     -11.632   6.579  71.430  1.00  0.00    -0.371 A  
HETATM   14  N   UNL     1     -11.557   8.849  72.238  1.00  0.00    -0.325 NA 
HETATM   15  C   UNL     1     -12.215   7.810  71.682  1.00  0.00    -0.313 A  
HETATM   16  C   UNL     1     -10.261   8.649  72.562  1.00  0.00    -0.168 A  
HETATM   17  C   UNL     1      -9.588   7.457  72.349  1.00  0.00    -0.192 A  
ENDBRANCH   6  12
TORSDOF 1
ENDMDL
MODEL      171
REMARK 921   NORMALIZED FREE ENERGY PREDICTED BY IDOCK:   -2.25 KCAL/MOL
REMARK 922        TOTAL FREE ENERGY PREDICTED BY IDOCK:   -2.53 KCAL/MOL
REMARK 923 INTER-LIGAND FREE ENERGY PREDICTED BY IDOCK:   -2.40 KCAL/MOL
REMARK 924 INTRA-LIGAND FREE ENERGY PREDICTED BY IDOCK:   -0.14 KCAL/MOL
REMARK 927      BINDING AFFINITY PREDICTED BY RF-SCORE:    0.00 PKD
ROOT
HETATM    1  N   UNL     1     -11.110   8.564  72.000  1.00  0.00    -0.318 NA 
HETATM    2  H1  UNL     1     -11.355   9.499  72.326  1.00  0.00     0.000 HD 
HETATM    3  C   UNL     1     -10.598   8.268  70.748  1.00  0.00    -0.210 C  
HETATM    4  H2  UNL     1     -10.460   8.175  72.682  1.00  0.00     0.000 HD 
HETATM    5  C   UNL     1     -10.276   7.036  70.317  1.00  0.00    -0.206 C  
HETATM    6  C   UNL     1      -9.738   6.791  68.987  1.00  0.00    -0.145 C  
HETATM    7  C   UNL     1      -9.579   7.830  68.150  1.00  0.00    -0.151 C  
HETATM    8  O   UNL     1     -10.545  10.591  70.148  1.00  0.00    -0.246 OA 
HETATM    9  N   UNL     1      -9.888   9.106  68.548  1.00  0.00    -0.159 N  
HETATM   10  C   UNL     1     -10.354   9.430  69.798  1.00  0.00    -0.223 C  
HETATM   11  H   UNL     1      -9.765   9.861  67.873  1.00  0.00     0.000 HD 
ENDROOT
BRANCH   6  12
HETATM   12  C   UNL     1      -9.322   5.459  68.522  1.00  0.00    -0.144 A  
HETATM   13  C   UNL     1      -9.960   4.876  67.424  1.00  0.00    -0.209 A  
HETATM   14  N   UNL     1      -8.579   2.913  67.634  1.00  0.00    -0.091 NA 
HETATM   15  C   UNL     1      -9.558   3.613  67.025  1.00  0.00    -0.152 A  
HETATM   16  C   UNL     1      -7.970   3.502  68.687  1.00  0.00    -0.062 A  
HETATM   17  C   UNL     1      -8.300   4.760  69.163  1.00  0.00    -0.084 A  
ENDBRANCH   6  12
TORSDOF 1
ENDMDL
MODEL      172
REMARK 921   NORMALIZED FREE ENERGY PREDICTED BY IDOCK:   -2.14 KCAL/MOL
REMARK 922        TOTAL FREE ENERGY PREDICTED BY IDOCK:   -2.42 KCAL/MOL
REMARK 923 INTER-LIGAND FREE ENERGY PREDICTED BY IDOCK:   -2.26 KCAL/MOL
REMARK 924 INTRA-LIGAND FREE ENERGY PREDICTED BY IDOCK:   -0.15 KCAL/MOL
REMARK 927      BINDING AFFINITY PREDICTED BY RF-SCORE:    0.00 PKD
ROOT
HETATM    1  N   UNL     1     -11.143   7.732  70.337  1.00  0.00    -0.258 NA 
HETATM    2  H1  UNL     1     -11.539   8.626  70.624  1.00  0.00     0.000 HD 
HETATM    3  C   UNL     1     -10.628   7.456  69.081  1.00  0.00    -0.204 C  
HETATM    4  H2  UNL     1     -10.412   7.505  71.010  1.00  0.00     0.000 HD 
HETATM    5  C   UNL     1     -10.106   6.277  68.702  1.00  0.00    -0.185 C  
HETATM    6  C   UNL     1      -9.578   6.052  67.365  1.00  0.00    -0.118 C  
HETATM    7  C   UNL     1      -9.635   7.052  66.469  1.00  0.00    -0.144 C  
HETATM    8  O   UNL     1     -11.011   9.713  68.359  1.00  0.00    -0.198 OA 
HETATM    9  N   UNL     1     -10.154   8.275  66.812  1.00  0.00    -0.283 N  
HETATM   10  C   UNL     1     -10.628   8.585  68.062  1.00  0.00    -0.137 C  
HETATM   11  H   UNL     1     -10.189   8.998  66.094  1.00  0.00     0.000 HD 
ENDROOT
BRANCH   6  12
HETATM   12  C   UNL     1      -8.947   4.789  66.953  1.00  0.00    -0.111 A  
HETATM   13  C   UNL     1      -7.940   4.800  65.985  1.00  0.00    -0.103 A  
HETATM   14  N   UNL     1      -7.752   2.401  66.122  1.00  0.00    -0.074 NA 
HETATM   15  C   UNL     1      -7.382   3.591  65.605  1.00  0.00    -0.076 A  
HETATM   16  C   UNL     1      -8.720   2.418  67.063  1.00  0.00    -0.124 A  
HETATM   17  C   UNL     1      -9.341   3.573  67.510  1.00  0.00    -0.249 A  
ENDBRANCH   6  12
TORSDOF 1
ENDMDL
MODEL      173
REMARK 921   NORMALIZED FREE ENERGY PREDICTED BY IDOCK:   -1.96 KCAL/MOL
REMARK 922        TOTAL FREE ENERGY PREDICTED BY IDOCK:   -2.22 KCAL/MOL
REMARK 923 INTER-LIGAND FREE ENERGY PREDICTED BY IDOCK:   -2.10 KCAL/MOL
REMARK 924 INTRA-LIGAND FREE ENERGY PREDICTED BY IDOCK:   -0.13 KCAL/MOL
REMARK 927      BINDING AFFINITY PREDICTED BY RF-SCORE:    0.00 PKD
ROOT
HETATM    1  N   UNL     1     -12.201  11.946  68.470  1.00  0.00    -0.330 NA 
HETATM    2  H1  UNL     1     -12.858  12.713  68.610  1.00  0.00     0.000 HD 
HETATM    3  C   UNL     1     -10.855  12.096  68.178  1.00  0.00    -0.222 C  
HETATM    4  H2  UNL     1     -12.257  11.356  69.300  1.00  0.00     0.000 HD 
HETATM    5  C   UNL     1      -9.988  11.086  67.993  1.00  0.00    -0.188 C  
HETATM    6  C   UNL     1      -8.582  11.310  67.690  1.00  0.00    -0.124 C  
HETATM    7  C   UNL     1      -8.139  12.573  67.567  1.00  0.00    -0.176 C  
HETATM    8  O   UNL     1     -11.023  14.485  68.326  1.00  0.00    -0.236 OA 
HETATM    9  N   UNL     1      -8.986  13.636  67.753  1.00  0.00    -0.185 N  
HETATM   10  C   UNL     1     -10.312  13.513  68.088  1.00  0.00    -0.247 C  
HETATM   11  H   UNL     1      -8.608  14.576  67.635  1.00  0.00     0.000 HD 
ENDROOT
BRANCH   6  12
HETATM   12  C   UNL     1      -7.607  10.219  67.547  1.00  0.00    -0.094 A  
HETATM   13  C   UNL     1      -7.443   9.592  66.309  1.00  0.00    -0.098 A  
HETATM   14  N   UNL     1      -5.786   8.116  67.250  1.00  0.00    -0.037 NA 
HETATM   15  C   UNL     1      -6.532   8.554  66.214  1.00  0.00    -0.061 A  
HETATM   16  C   UNL     1      -5.955   8.745  68.433  1.00  0.00    -0.046 A  
HETATM   17  C   UNL     1      -6.841   9.791  68.631  1.00  0.00    -0.051 A  
ENDBRANCH   6  12
TORSDOF 1
ENDMDL
MODEL      174
REMARK 921   NORMALIZED FREE ENERGY PREDICTED BY IDOCK:   -1.95 KCAL/MOL
REMARK 922        TOTAL FREE ENERGY PREDICTED BY IDOCK:   -2.21 KCAL/MOL
REMARK 923 INTER-LIGAND FREE ENERGY PREDICTED BY IDOCK:   -2.08 KCAL/MOL
REMARK 924 INTRA-LIGAND FREE ENERGY PREDICTED BY IDOCK:   -0.13 KCAL/MOL
REMARK 927      BINDING AFFINITY PREDICTED BY RF-SCORE:    0.00 PKD
ROOT
HETATM    1  N   UNL     1      -8.697   9.407  68.463  1.00  0.00    -0.127 NA 
HETATM    2  H1  UNL     1      -8.307  10.295  68.149  1.00  0.00     0.000 HD 
HETATM    3  C   UNL     1      -8.443   8.816  69.689  1.00  0.00    -0.129 C  
HETATM    4  H2  UNL     1      -9.710   9.485  68.379  1.00  0.00     0.000 HD 
HETATM    5  C   UNL     1      -8.958   7.645  70.104  1.00  0.00    -0.146 C  
HETATM    6  C   UNL     1      -8.653   7.078  71.409  1.00  0.00    -0.121 C  
HETATM    7  C   UNL     1      -7.808   7.736  72.221  1.00  0.00    -0.108 C  
HETATM    8  O   UNL     1      -7.094  10.676  70.379  1.00  0.00    -0.249 OA 
HETATM    9  N   UNL     1      -7.263   8.937  71.843  1.00  0.00    -0.012 N  
HETATM   10  C   UNL     1      -7.535   9.564  70.652  1.00  0.00    -0.118 C  
HETATM   11  H   UNL     1      -6.616   9.393  72.487  1.00  0.00     0.000 HD 
ENDROOT
BRANCH   6  12
HETATM   12  C   UNL     1      -9.255   5.830  71.903  1.00  0.00    -0.155 A  
HETATM   13  C   UNL     1      -8.746   4.599  71.482  1.00  0.00    -0.137 A  
HETATM   14  N   UNL     1     -10.400   3.440  72.797  1.00  0.00    -0.167 NA 
HETATM   15  C   UNL     1      -9.350   3.445  71.950  1.00  0.00    -0.127 A  
HETATM   16  C   UNL     1     -10.867   4.643  73.197  1.00  0.00    -0.264 A  
HETATM   17  C   UNL     1     -10.335   5.853  72.786  1.00  0.00    -0.222 A  
ENDBRANCH   6  12
TORSDOF 1
ENDMDL
MODEL      175
REMARK 921   NORMALIZED FREE ENERGY PREDICTED BY IDOCK:   -1.91 KCAL/MOL
REMARK 922        TOTAL FREE ENERGY PREDICTED BY IDOCK:   -2.17 KCAL/MOL
REMARK 923 INTER-LIGAND FREE ENERGY PREDICTED BY IDOCK:   -2.04 KCAL/MOL
REMARK 924 INTRA-LIGAND FREE ENERGY PREDICTED BY IDOCK:   -0.13 KCAL/MOL
REMARK 927      BINDING AFFINITY PREDICTED BY RF-SCORE:    0.00 PKD
ROOT
HETATM    1  N   UNL     1      -8.660   5.693  66.797  1.00  0.00    -0.111 NA 
HETATM    2  H1  UNL     1      -9.370   5.101  66.367  1.00  0.00     0.000 HD 
HETATM    3  C   UNL     1      -8.896   6.617  67.801  1.00  0.00    -0.114 C  
HETATM    4  H2  UNL     1      -7.926   5.071  67.138  1.00  0.00     0.000 HD 
HETATM    5  C   UNL     1      -7.960   7.398  68.369  1.00  0.00    -0.124 C  
HETATM    6  C   UNL     1      -8.274   8.350  69.424  1.00  0.00    -0.116 C  
HETATM    7  C   UNL     1      -9.549   8.470  69.831  1.00  0.00    -0.171 C  
HETATM    8  O   UNL     1     -11.213   6.000  67.912  1.00  0.00    -0.245 OA 
HETATM    9  N   UNL     1     -10.538   7.690  69.285  1.00  0.00    -0.264 N  
HETATM   10  C   UNL     1     -10.320   6.736  68.321  1.00  0.00    -0.187 C  
HETATM   11  H   UNL     1     -11.493   7.827  69.615  1.00  0.00     0.000 HD 
ENDROOT
BRANCH   6  12
HETATM   12  C   UNL     1      -7.254   9.166  70.098  1.00  0.00    -0.070 A  
HETATM   13  C   UNL     1      -6.569   8.651  71.201  1.00  0.00    -0.061 A  
HETATM   14  N   UNL     1      -5.332  10.707  71.424  1.00  0.00    -0.240 NA 
HETATM   15  C   UNL     1      -5.630   9.454  71.825  1.00  0.00    -0.070 A  
HETATM   16  C   UNL     1      -6.000  11.179  70.348  1.00  0.00    -0.144 A  
HETATM   17  C   UNL     1      -6.958  10.456  69.657  1.00  0.00    -0.127 A  
ENDBRANCH   6  12
TORSDOF 1
ENDMDL
MODEL      176
REMARK 921   NORMALIZED FREE ENERGY PREDICTED BY IDOCK:   -1.86 KCAL/MOL
REMARK 922        TOTAL FREE ENERGY PREDICTED BY IDOCK:   -2.12 KCAL/MOL
REMARK 923 INTER-LIGAND FREE ENERGY PREDICTED BY IDOCK:   -1.99 KCAL/MOL
REMARK 924 INTRA-LIGAND FREE ENERGY PREDICTED BY IDOCK:   -0.13 KCAL/MOL
REMARK 927      BINDING AFFINITY PREDICTED BY RF-SCORE:    0.00 PKD
ROOT
HETATM    1  N   UNL     1      -9.526   1.644  64.450  1.00  0.00    -0.135 NA 
HETATM    2  H1  UNL     1      -9.997   1.585  63.548  1.00  0.00     0.000 HD 
HETATM    3  C   UNL     1      -9.655   2.691  65.348  1.00  0.00     0.109 C  
HETATM    4  H2  UNL     1      -9.758   0.791  64.959  1.00  0.00     0.000 HD 
HETATM    5  C   UNL     1      -9.034   2.769  66.537  1.00  0.00    -0.159 C  
HETATM    6  C   UNL     1      -9.214   3.898  67.438  1.00  0.00    -0.199 C  
HETATM    7  C   UNL     1     -10.012   4.910  67.058  1.00  0.00    -0.208 C  
HETATM    8  O   UNL     1     -11.259   3.786  63.939  1.00  0.00    -0.296 OA 
HETATM    9  N   UNL     1     -10.671   4.872  65.855  1.00  0.00    -0.613 N  
HETATM   10  C   UNL     1     -10.594   3.825  64.970  1.00  0.00     0.088 C  
HETATM   11  H   UNL     1     -11.254   5.670  65.602  1.00  0.00     0.000 HD 
ENDROOT
BRANCH   6  12
HETATM   12  C   UNL     1      -8.592   3.971  68.769  1.00  0.00    -0.114 A  
HETATM   13  C   UNL     1      -9.334   3.628  69.902  1.00  0.00    -0.246 A  
HETATM   14  N   UNL     1      -7.449   4.132  71.317  1.00  0.00    -0.054 NA 
HETATM   15  C   UNL     1      -8.725   3.727  71.141  1.00  0.00    -0.081 A  
HETATM   16  C   UNL     1      -6.750   4.448  70.205  1.00  0.00    -0.033 A  
HETATM   17  C   UNL     1      -7.269   4.383  68.922  1.00  0.00    -0.052 A  
ENDBRANCH   6  12
TORSDOF 1
ENDMDL
MODEL      177
REMARK 921   NORMALIZED FREE ENERGY PREDICTED BY IDOCK:    0.21 KCAL/MOL
REMARK 922        TOTAL FREE ENERGY PREDICTED BY IDOCK:    0.07 KCAL/MOL
REMARK 923 INTER-LIGAND FREE ENERGY PREDICTED BY IDOCK:    0.20 KCAL/MOL
REMARK 924 INTRA-LIGAND FREE ENERGY PREDICTED BY IDOCK:   -0.13 KCAL/MOL
REMARK 927      BINDING AFFINITY PREDICTED BY RF-SCORE:    0.00 PKD
ROOT
HETATM    1  N   UNL     1      -7.083  19.937  69.070  1.00  0.00    -0.306 NA 
HETATM    2  H1  UNL     1      -6.107  20.232  69.083  1.00  0.00     0.000 HD 
HETATM    3  C   UNL     1      -7.518  18.624  69.137  1.00  0.00    -0.147 C  
HETATM    4  H2  UNL     1      -7.552  20.441  69.822  1.00  0.00     0.000 HD 
HETATM    5  C   UNL     1      -8.805  18.235  69.119  1.00  0.00     0.098 C  
HETATM    6  C   UNL     1      -9.198  16.836  69.195  1.00  0.00    -0.140 C  
HETATM    7  C   UNL     1      -8.239  15.896  69.263  1.00  0.00    -0.227 C  
HETATM    8  O   UNL     1      -5.269  17.824  69.377  1.00  0.00    -0.172 OA 
HETATM    9  N   UNL     1      -6.913  16.246  69.290  1.00  0.00    -0.210 N  
HETATM   10  C   UNL     1      -6.459  17.542  69.270  1.00  0.00    -0.243 C  
HETATM   11  H   UNL     1      -6.221  15.498  69.327  1.00  0.00     0.000 HD 
ENDROOT
BRANCH   6  12
HETATM   12  C   UNL     1     -10.600  16.397  69.239  1.00  0.00    -0.311 A  
HETATM   13  C   UNL     1     -11.115  15.831  70.408  1.00  0.00    -0.380 A  
HETATM   14  N   UNL     1     -13.255  15.520  69.343  1.00  0.00     0.790 NA 
HETATM   15  C   UNL     1     -12.433  15.409  70.408  1.00  0.00    -0.404 A  
HETATM   16  C   UNL     1     -12.737  16.080  68.229  1.00  0.00     1.893 A  
HETATM   17  C   UNL     1     -11.431  16.532  68.127  1.00  0.00    -0.037 A  
ENDBRANCH   6  12
TORSDOF 1
ENDMDL
MODEL      178
REMARK 921   NORMALIZED FREE ENERGY PREDICTED BY IDOCK:    3.28 KCAL/MOL
REMARK 922        TOTAL FREE ENERGY PREDICTED BY IDOCK:    3.32 KCAL/MOL
REMARK 923 INTER-LIGAND FREE ENERGY PREDICTED BY IDOCK:    3.46 KCAL/MOL
REMARK 924 INTRA-LIGAND FREE ENERGY PREDICTED BY IDOCK:   -0.14 KCAL/MOL
REMARK 927      BINDING AFFINITY PREDICTED BY RF-SCORE:    0.00 PKD
ROOT
HETATM    1  N   UNL     1      -6.898  20.326  72.373  1.00  0.00     0.043 NA 
HETATM    2  H1  UNL     1      -7.394  20.599  73.222  1.00  0.00     0.000 HD 
HETATM    3  C   UNL     1      -7.499  20.013  71.166  1.00  0.00     1.288 C  
HETATM    4  H2  UNL     1      -6.220  21.063  72.180  1.00  0.00     0.000 HD 
HETATM    5  C   UNL     1      -6.846  19.653  70.048  1.00  0.00    -0.114 C  
HETATM    6  C   UNL     1      -7.538  19.337  68.807  1.00  0.00    -0.393 C  
HETATM    7  C   UNL     1      -8.881  19.384  68.784  1.00  0.00    -0.342 C  
HETATM    8  O   UNL     1      -9.675  20.511  72.047  1.00  0.00     1.856 OA 
HETATM    9  N   UNL     1      -9.591  19.751  69.899  1.00  0.00     0.231 N  
HETATM   10  C   UNL     1      -9.015  20.110  71.093  1.00  0.00     2.154 C  
HETATM   11  H   UNL     1     -10.609  19.758  69.838  1.00  0.00     0.000 HD 
ENDROOT
BRANCH   6  12
HETATM   12  C   UNL     1      -6.836  19.003  67.559  1.00  0.00    -0.217 A  
HETATM   13  C   UNL     1      -5.926  17.944  67.536  1.00  0.00    -0.165 A  
HETATM   14  N   UNL     1      -5.460  18.365  65.209  1.00  0.00    -0.182 NA 
HETATM   15  C   UNL     1      -5.267  17.670  66.349  1.00  0.00    -0.182 A  
HETATM   16  C   UNL     1      -6.353  19.377  65.254  1.00  0.00    -0.273 A  
HETATM   17  C   UNL     1      -7.061  19.732  66.390  1.00  0.00    -0.248 A  
ENDBRANCH   6  12
TORSDOF 1
ENDMDL
