MODEL        1
REMARK 921   NORMALIZED FREE ENERGY PREDICTED BY IDOCK:   -7.86 KCAL/MOL
REMARK 922        TOTAL FREE ENERGY PREDICTED BY IDOCK:  -10.69 KCAL/MOL
REMARK 923 INTER-LIGAND FREE ENERGY PREDICTED BY IDOCK:  -10.16 KCAL/MOL
REMARK 924 INTRA-LIGAND FREE ENERGY PREDICTED BY IDOCK:   -0.53 KCAL/MOL
REMARK 927      BINDING AFFINITY PREDICTED BY RF-SCORE:    0.00 PKD
ROOT
HETATM    1  C   UNL     1     -12.217  13.549  64.597  1.00  0.00    -0.406 C  
HETATM    2  O   UNL     1     -12.330  13.684  66.018  1.00  0.00    -0.432 OA 
ENDROOT
BRANCH   2   3
HETATM    3  C   UNL     1     -11.220  14.238  66.620  1.00  0.00    -0.334 A  
HETATM    4  C   UNL     1     -10.680  13.562  67.740  1.00  0.00    -0.252 A  
HETATM    5  C   UNL     1      -9.495  14.048  68.306  1.00  0.00    -0.216 A  
HETATM    6  C   UNL     1      -9.508  15.932  66.787  1.00  0.00    -0.235 A  
HETATM    7  C   UNL     1      -8.908  15.228  67.830  1.00  0.00    -0.174 A  
HETATM    8  C   UNL     1     -10.659  15.441  66.182  1.00  0.00    -0.321 A  
BRANCH   4   9
HETATM    9  N   UNL     1     -11.358  12.450  68.281  1.00  0.00    -0.261 NA 
HETATM   10  H   UNL     1     -11.657  11.786  67.566  1.00  0.00     0.000 HD 
BRANCH   9  11
HETATM   11  C   UNL     1     -11.722  12.039  69.599  1.00  0.00    -0.335 A  
HETATM   12  C   UNL     1     -12.291   9.073  71.728  1.00  0.00    -0.438 A  
HETATM   13  C   UNL     1     -12.409  13.000  70.405  1.00  0.00    -0.351 A  
HETATM   14  C   UNL     1     -12.533  14.372  70.072  1.00  0.00    -0.353 A  
HETATM   15  C   UNL     1     -11.593  10.699  70.073  1.00  0.00    -0.406 A  
HETATM   16  C   UNL     1     -13.196  15.271  70.909  1.00  0.00    -0.506 A  
HETATM   17  C   UNL     1     -12.272  10.386  71.271  1.00  0.00    -0.389 A  
HETATM   18  C   UNL     1     -10.882   9.649  69.435  1.00  0.00    -0.239 A  
HETATM   19  C   UNL     1     -13.758  14.815  72.092  1.00  0.00    -0.543 A  
HETATM   20  C   UNL     1     -10.871   8.346  69.940  1.00  0.00    -0.207 A  
HETATM   21  C   UNL     1     -11.607   8.051  71.075  1.00  0.00    -0.303 A  
HETATM   22  C   UNL     1     -13.649  13.466  72.426  1.00  0.00    -0.708 A  
HETATM   23  C   UNL     1     -12.988  12.558  71.607  1.00  0.00    -0.302 A  
HETATM   24  N   UNL     1     -12.939  11.282  72.006  1.00  0.00    -0.389 NA 
ENDBRANCH   9  11
ENDBRANCH   4   9
BRANCH   6  25
HETATM   25  N   UNL     1      -9.007  17.195  66.349  1.00  0.00    -0.263 N  
HETATM   26  H   UNL     1      -8.053  17.299  66.004  1.00  0.00     0.000 HD 
BRANCH  25  27
HETATM   27  S   UNL     1     -10.065  18.512  66.426  1.00  0.00    -0.412 S  
HETATM   28  C   UNL     1      -8.914  19.879  66.424  1.00  0.00    -0.363 C  
HETATM   29  O   UNL     1     -10.666  18.447  67.740  1.00  0.00    -0.414 OA 
HETATM   30  O   UNL     1     -10.876  18.580  65.233  1.00  0.00    -0.606 OA 
ENDBRANCH  25  27
ENDBRANCH   6  25
ENDBRANCH   2   3
TORSDOF 5
ENDMDL
MODEL        2
REMARK 921   NORMALIZED FREE ENERGY PREDICTED BY IDOCK:   -7.80 KCAL/MOL
REMARK 922        TOTAL FREE ENERGY PREDICTED BY IDOCK:  -10.61 KCAL/MOL
REMARK 923 INTER-LIGAND FREE ENERGY PREDICTED BY IDOCK:   -9.88 KCAL/MOL
REMARK 924 INTRA-LIGAND FREE ENERGY PREDICTED BY IDOCK:   -0.72 KCAL/MOL
REMARK 927      BINDING AFFINITY PREDICTED BY RF-SCORE:    0.00 PKD
ROOT
HETATM    1  C   UNL     1     -11.010  12.098  65.195  1.00  0.00    -0.310 C  
HETATM    2  O   UNL     1     -11.425  12.699  66.426  1.00  0.00    -0.315 OA 
ENDROOT
BRANCH   2   3
HETATM    3  C   UNL     1     -10.530  13.618  66.932  1.00  0.00    -0.272 A  
HETATM    4  C   UNL     1      -9.973  13.353  68.205  1.00  0.00    -0.240 A  
HETATM    5  C   UNL     1      -8.988  14.219  68.696  1.00  0.00    -0.154 A  
HETATM    6  C   UNL     1      -9.259  15.665  66.774  1.00  0.00    -0.251 A  
HETATM    7  C   UNL     1      -8.628  15.370  67.982  1.00  0.00    -0.151 A  
HETATM    8  C   UNL     1     -10.206  14.794  66.248  1.00  0.00    -0.309 A  
BRANCH   4   9
HETATM    9  N   UNL     1     -10.441  12.259  68.961  1.00  0.00    -0.419 NA 
HETATM   10  H   UNL     1      -9.876  11.420  68.828  1.00  0.00     0.000 HD 
BRANCH   9  11
HETATM   11  C   UNL     1     -11.523  12.055  69.870  1.00  0.00    -0.162 A  
HETATM   12  C   UNL     1     -13.757  13.782  72.253  1.00  0.00    -0.673 A  
HETATM   13  C   UNL     1     -11.733  10.717  70.330  1.00  0.00    -0.445 A  
HETATM   14  C   UNL     1     -11.103   9.577  69.772  1.00  0.00    -0.216 A  
HETATM   15  C   UNL     1     -12.272  13.118  70.457  1.00  0.00    -0.405 A  
HETATM   16  C   UNL     1     -11.362   8.292  70.248  1.00  0.00    -0.129 A  
HETATM   17  C   UNL     1     -13.093  12.780  71.556  1.00  0.00    -0.286 A  
HETATM   18  C   UNL     1     -12.239  14.483  70.067  1.00  0.00    -0.396 A  
HETATM   19  C   UNL     1     -12.250   8.119  71.299  1.00  0.00    -0.302 A  
HETATM   20  C   UNL     1     -12.956  15.468  70.751  1.00  0.00    -0.490 A  
HETATM   21  C   UNL     1     -13.693  15.120  71.869  1.00  0.00    -0.577 A  
HETATM   22  C   UNL     1     -12.869   9.234  71.862  1.00  0.00    -0.485 A  
HETATM   23  C   UNL     1     -12.627  10.521  71.397  1.00  0.00    -0.434 A  
HETATM   24  N   UNL     1     -13.262  11.531  72.003  1.00  0.00    -0.462 NA 
ENDBRANCH   9  11
ENDBRANCH   4   9
BRANCH   6  25
HETATM   25  N   UNL     1      -9.006  16.883  66.073  1.00  0.00    -0.221 N  
HETATM   26  H   UNL     1      -8.151  17.019  65.534  1.00  0.00     0.000 HD 
BRANCH  25  27
HETATM   27  S   UNL     1     -10.185  18.090  66.176  1.00  0.00    -0.311 S  
HETATM   28  C   UNL     1      -9.175  19.563  66.139  1.00  0.00    -0.318 C  
HETATM   29  O   UNL     1     -10.742  17.973  67.505  1.00  0.00    -0.404 OA 
HETATM   30  O   UNL     1     -11.031  18.071  65.005  1.00  0.00    -0.748 OA 
ENDBRANCH  25  27
ENDBRANCH   6  25
ENDBRANCH   2   3
TORSDOF 5
ENDMDL
MODEL        3
REMARK 921   NORMALIZED FREE ENERGY PREDICTED BY IDOCK:   -7.70 KCAL/MOL
REMARK 922        TOTAL FREE ENERGY PREDICTED BY IDOCK:  -10.48 KCAL/MOL
REMARK 923 INTER-LIGAND FREE ENERGY PREDICTED BY IDOCK:   -9.53 KCAL/MOL
REMARK 924 INTRA-LIGAND FREE ENERGY PREDICTED BY IDOCK:   -0.95 KCAL/MOL
REMARK 927      BINDING AFFINITY PREDICTED BY RF-SCORE:    0.00 PKD
ROOT
HETATM    1  C   UNL     1     -11.963  14.940  64.456  1.00  0.00    -0.410 C  
HETATM    2  O   UNL     1     -11.042  14.673  65.519  1.00  0.00    -0.320 OA 
ENDROOT
BRANCH   2   3
HETATM    3  C   UNL     1     -10.771  15.766  66.315  1.00  0.00    -0.282 A  
HETATM    4  C   UNL     1     -11.255  15.740  67.645  1.00  0.00    -0.246 A  
HETATM    5  C   UNL     1     -10.908  16.791  68.502  1.00  0.00    -0.345 A  
HETATM    6  C   UNL     1      -9.788  17.939  66.690  1.00  0.00    -0.342 A  
HETATM    7  C   UNL     1     -10.173  17.887  68.029  1.00  0.00    -0.381 A  
HETATM    8  C   UNL     1     -10.084  16.884  65.834  1.00  0.00    -0.302 A  
BRANCH   4   9
HETATM    9  N   UNL     1     -12.098  14.690  68.064  1.00  0.00    -0.582 NA 
HETATM   10  H   UNL     1     -12.971  14.652  67.537  1.00  0.00     0.000 HD 
BRANCH   9  11
HETATM   11  C   UNL     1     -12.010  13.666  69.056  1.00  0.00    -0.353 A  
HETATM   12  C   UNL     1     -11.359  10.063  69.547  1.00  0.00    -0.220 A  
HETATM   13  C   UNL     1     -12.651  13.928  70.307  1.00  0.00    -0.328 A  
HETATM   14  C   UNL     1     -13.147  15.197  70.696  1.00  0.00    -0.385 A  
HETATM   15  C   UNL     1     -11.480  12.366  68.805  1.00  0.00    -0.350 A  
HETATM   16  C   UNL     1     -13.746  15.399  71.940  1.00  0.00    -0.603 A  
HETATM   17  C   UNL     1     -11.740  11.378  69.780  1.00  0.00    -0.344 A  
HETATM   18  C   UNL     1     -10.752  11.965  67.653  1.00  0.00    -0.253 A  
HETATM   19  C   UNL     1     -13.870  14.334  72.819  1.00  0.00    -0.361 A  
HETATM   20  C   UNL     1     -10.333  10.646  67.462  1.00  0.00    -0.254 A  
HETATM   21  C   UNL     1     -10.667   9.683  68.399  1.00  0.00    -0.251 A  
HETATM   22  C   UNL     1     -13.393  13.078  72.444  1.00  0.00    -0.563 A  
HETATM   23  C   UNL     1     -12.789  12.860  71.211  1.00  0.00    -0.270 A  
HETATM   24  N   UNL     1     -12.368  11.621  70.936  1.00  0.00    -0.371 NA 
ENDBRANCH   9  11
ENDBRANCH   4   9
BRANCH   6  25
HETATM   25  N   UNL     1      -9.140  19.086  66.140  1.00  0.00    -0.269 N  
HETATM   26  H   UNL     1      -9.669  19.828  65.682  1.00  0.00     0.000 HD 
BRANCH  25  27
HETATM   27  S   UNL     1      -7.457  19.162  66.281  1.00  0.00    -0.279 S  
HETATM   28  C   UNL     1      -7.271  20.426  67.530  1.00  0.00    -0.313 C  
HETATM   29  O   UNL     1      -6.989  19.711  65.028  1.00  0.00    -0.385 OA 
HETATM   30  O   UNL     1      -6.936  17.915  66.794  1.00  0.00    -0.171 OA 
ENDBRANCH  25  27
ENDBRANCH   6  25
ENDBRANCH   2   3
TORSDOF 5
ENDMDL
MODEL        4
REMARK 921   NORMALIZED FREE ENERGY PREDICTED BY IDOCK:   -7.67 KCAL/MOL
REMARK 922        TOTAL FREE ENERGY PREDICTED BY IDOCK:  -10.44 KCAL/MOL
REMARK 923 INTER-LIGAND FREE ENERGY PREDICTED BY IDOCK:   -9.44 KCAL/MOL
REMARK 924 INTRA-LIGAND FREE ENERGY PREDICTED BY IDOCK:   -1.01 KCAL/MOL
REMARK 927      BINDING AFFINITY PREDICTED BY RF-SCORE:    0.00 PKD
ROOT
HETATM    1  C   UNL     1     -14.387   8.517  72.119  1.00  0.00    -0.436 C  
HETATM    2  O   UNL     1     -13.430   9.580  72.165  1.00  0.00    -0.420 OA 
ENDROOT
BRANCH   2   3
HETATM    3  C   UNL     1     -12.138   9.187  71.887  1.00  0.00    -0.378 A  
HETATM    4  C   UNL     1     -11.445   9.893  70.875  1.00  0.00    -0.376 A  
HETATM    5  C   UNL     1     -10.100   9.579  70.644  1.00  0.00    -0.353 A  
HETATM    6  C   UNL     1     -10.211   7.781  72.260  1.00  0.00    -0.228 A  
HETATM    7  C   UNL     1      -9.482   8.528  71.336  1.00  0.00    -0.279 A  
HETATM    8  C   UNL     1     -11.534   8.107  72.537  1.00  0.00    -0.470 A  
BRANCH   4   9
HETATM    9  N   UNL     1     -12.123  10.860  70.106  1.00  0.00    -0.320 NA 
HETATM   10  H   UNL     1     -12.900  10.466  69.575  1.00  0.00     0.000 HD 
BRANCH   9  11
HETATM   11  C   UNL     1     -11.973  12.265  69.898  1.00  0.00    -0.306 A  
HETATM   12  C   UNL     1     -13.182  15.573  71.014  1.00  0.00    -0.539 A  
HETATM   13  C   UNL     1     -11.389  12.672  68.657  1.00  0.00    -0.331 A  
HETATM   14  C   UNL     1     -10.751  11.788  67.751  1.00  0.00    -0.244 A  
HETATM   15  C   UNL     1     -12.520  13.256  70.767  1.00  0.00    -0.403 A  
HETATM   16  C   UNL     1     -10.179  12.245  66.563  1.00  0.00    -0.235 A  
HETATM   17  C   UNL     1     -12.555  14.579  70.273  1.00  0.00    -0.323 A  
HETATM   18  C   UNL     1     -13.064  13.029  72.059  1.00  0.00    -0.481 A  
HETATM   19  C   UNL     1     -10.241  13.595  66.250  1.00  0.00    -0.296 A  
HETATM   20  C   UNL     1     -13.644  14.055  72.809  1.00  0.00    -0.515 A  
HETATM   21  C   UNL     1     -13.732  15.327  72.270  1.00  0.00    -0.614 A  
HETATM   22  C   UNL     1     -10.874  14.473  67.130  1.00  0.00    -0.296 A  
HETATM   23  C   UNL     1     -11.444  14.036  68.320  1.00  0.00    -0.304 A  
HETATM   24  N   UNL     1     -12.035  14.949  69.098  1.00  0.00    -0.297 NA 
ENDBRANCH   9  11
ENDBRANCH   4   9
BRANCH   6  25
HETATM   25  N   UNL     1      -9.655   6.633  72.901  1.00  0.00    -0.148 N  
HETATM   26  H   UNL     1      -8.922   6.719  73.605  1.00  0.00     0.000 HD 
BRANCH  25  27
HETATM   27  S   UNL     1     -10.267   5.124  72.444  1.00  0.00    -0.204 S  
HETATM   28  C   UNL     1      -8.815   4.097  72.615  1.00  0.00    -0.103 C  
HETATM   29  O   UNL     1     -10.559   5.238  71.032  1.00  0.00    -0.228 OA 
HETATM   30  O   UNL     1     -11.270   4.679  73.384  1.00  0.00    -0.309 OA 
ENDBRANCH  25  27
ENDBRANCH   6  25
ENDBRANCH   2   3
TORSDOF 5
ENDMDL
MODEL        5
REMARK 921   NORMALIZED FREE ENERGY PREDICTED BY IDOCK:   -7.62 KCAL/MOL
REMARK 922        TOTAL FREE ENERGY PREDICTED BY IDOCK:  -10.38 KCAL/MOL
REMARK 923 INTER-LIGAND FREE ENERGY PREDICTED BY IDOCK:   -9.39 KCAL/MOL
REMARK 924 INTRA-LIGAND FREE ENERGY PREDICTED BY IDOCK:   -0.99 KCAL/MOL
REMARK 927      BINDING AFFINITY PREDICTED BY RF-SCORE:    0.00 PKD
ROOT
HETATM    1  C   UNL     1     -14.393   8.341  71.909  1.00  0.00    -0.476 C  
HETATM    2  O   UNL     1     -13.482   9.381  72.281  1.00  0.00    -0.434 OA 
ENDROOT
BRANCH   2   3
HETATM    3  C   UNL     1     -12.161   9.096  72.009  1.00  0.00    -0.373 A  
HETATM    4  C   UNL     1     -11.532   9.836  70.980  1.00  0.00    -0.383 A  
HETATM    5  C   UNL     1     -10.165   9.634  70.753  1.00  0.00    -0.330 A  
HETATM    6  C   UNL     1     -10.118   7.874  72.413  1.00  0.00    -0.248 A  
HETATM    7  C   UNL     1      -9.458   8.659  71.469  1.00  0.00    -0.320 A  
HETATM    8  C   UNL     1     -11.465   8.089  72.684  1.00  0.00    -0.465 A  
BRANCH   4   9
HETATM    9  N   UNL     1     -12.292  10.720  70.188  1.00  0.00    -0.345 NA 
HETATM   10  H   UNL     1     -13.180  10.316  69.889  1.00  0.00     0.000 HD 
BRANCH   9  11
HETATM   11  C   UNL     1     -12.105  12.052  69.708  1.00  0.00    -0.248 A  
HETATM   12  C   UNL     1     -10.374  14.059  67.134  1.00  0.00    -0.265 A  
HETATM   13  C   UNL     1     -12.410  13.112  70.619  1.00  0.00    -0.405 A  
HETATM   14  C   UNL     1     -13.093  12.932  71.847  1.00  0.00    -0.474 A  
HETATM   15  C   UNL     1     -11.482  12.363  68.463  1.00  0.00    -0.350 A  
HETATM   16  C   UNL     1     -13.383  14.007  72.687  1.00  0.00    -0.643 A  
HETATM   17  C   UNL     1     -11.094  13.707  68.269  1.00  0.00    -0.256 A  
HETATM   18  C   UNL     1     -11.183  11.444  67.422  1.00  0.00    -0.370 A  
HETATM   19  C   UNL     1     -12.988  15.286  72.322  1.00  0.00    -0.459 A  
HETATM   20  C   UNL     1     -10.504  11.830  66.264  1.00  0.00    -0.281 A  
HETATM   21  C   UNL     1     -10.069  13.138  66.134  1.00  0.00    -0.291 A  
HETATM   22  C   UNL     1     -12.308  15.474  71.119  1.00  0.00    -0.468 A  
HETATM   23  C   UNL     1     -12.015  14.415  70.268  1.00  0.00    -0.321 A  
HETATM   24  N   UNL     1     -11.354  14.690  69.139  1.00  0.00    -0.266 NA 
ENDBRANCH   9  11
ENDBRANCH   4   9
BRANCH   6  25
HETATM   25  N   UNL     1      -9.464   6.795  73.080  1.00  0.00    -0.142 N  
HETATM   26  H   UNL     1      -8.882   6.952  73.903  1.00  0.00     0.000 HD 
BRANCH  25  27
HETATM   27  S   UNL     1      -9.696   5.244  72.448  1.00  0.00    -0.154 S  
HETATM   28  C   UNL     1     -10.828   4.549  73.643  1.00  0.00    -0.294 C  
HETATM   29  O   UNL     1      -8.426   4.570  72.603  1.00  0.00    -0.111 OA 
HETATM   30  O   UNL     1     -10.355   5.315  71.164  1.00  0.00    -0.217 OA 
ENDBRANCH  25  27
ENDBRANCH   6  25
ENDBRANCH   2   3
TORSDOF 5
ENDMDL
MODEL        6
REMARK 921   NORMALIZED FREE ENERGY PREDICTED BY IDOCK:   -7.60 KCAL/MOL
REMARK 922        TOTAL FREE ENERGY PREDICTED BY IDOCK:  -10.35 KCAL/MOL
REMARK 923 INTER-LIGAND FREE ENERGY PREDICTED BY IDOCK:   -9.56 KCAL/MOL
REMARK 924 INTRA-LIGAND FREE ENERGY PREDICTED BY IDOCK:   -0.79 KCAL/MOL
REMARK 927      BINDING AFFINITY PREDICTED BY RF-SCORE:    0.00 PKD
ROOT
HETATM    1  C   UNL     1     -11.560  15.913  70.478  1.00  0.00    -0.381 C  
HETATM    2  O   UNL     1     -11.981  15.828  69.113  1.00  0.00    -0.387 OA 
ENDROOT
BRANCH   2   3
HETATM    3  C   UNL     1     -10.986  16.109  68.200  1.00  0.00    -0.341 A  
HETATM    4  C   UNL     1     -10.886  15.269  67.065  1.00  0.00    -0.321 A  
HETATM    5  C   UNL     1      -9.950  15.594  66.076  1.00  0.00    -0.359 A  
HETATM    6  C   UNL     1      -9.124  17.431  67.417  1.00  0.00    -0.236 A  
HETATM    7  C   UNL     1      -9.073  16.673  66.248  1.00  0.00    -0.333 A  
HETATM    8  C   UNL     1     -10.076  17.153  68.391  1.00  0.00    -0.314 A  
BRANCH   4   9
HETATM    9  N   UNL     1     -11.692  14.117  66.973  1.00  0.00    -0.385 NA 
HETATM   10  H   UNL     1     -12.682  14.337  66.860  1.00  0.00     0.000 HD 
BRANCH   9  11
HETATM   11  C   UNL     1     -11.442  12.711  67.003  1.00  0.00    -0.346 A  
HETATM   12  C   UNL     1     -10.833   9.856  69.267  1.00  0.00    -0.255 A  
HETATM   13  C   UNL     1     -10.949  12.121  65.797  1.00  0.00    -0.338 A  
HETATM   14  C   UNL     1     -10.922  12.780  64.543  1.00  0.00    -0.370 A  
HETATM   15  C   UNL     1     -11.493  11.924  68.192  1.00  0.00    -0.384 A  
HETATM   16  C   UNL     1     -10.449  12.147  63.393  1.00  0.00    -0.450 A  
HETATM   17  C   UNL     1     -10.928  10.631  68.118  1.00  0.00    -0.269 A  
HETATM   18  C   UNL     1     -12.021  12.332  69.445  1.00  0.00    -0.318 A  
HETATM   19  C   UNL     1      -9.984  10.843  63.474  1.00  0.00    -0.419 A  
HETATM   20  C   UNL     1     -11.962  11.514  70.576  1.00  0.00    -0.439 A  
HETATM   21  C   UNL     1     -11.336  10.283  70.494  1.00  0.00    -0.422 A  
HETATM   22  C   UNL     1      -9.998  10.187  64.704  1.00  0.00    -0.304 A  
HETATM   23  C   UNL     1     -10.470  10.800  65.858  1.00  0.00    -0.204 A  
HETATM   24  N   UNL     1     -10.440  10.095  66.994  1.00  0.00    -0.242 NA 
ENDBRANCH   9  11
ENDBRANCH   4   9
BRANCH   6  25
HETATM   25  N   UNL     1      -8.175  18.465  67.682  1.00  0.00    -0.251 N  
HETATM   26  H   UNL     1      -7.612  18.464  68.532  1.00  0.00     0.000 HD 
BRANCH  25  27
HETATM   27  S   UNL     1      -8.028  19.690  66.527  1.00  0.00    -0.319 S  
HETATM   28  C   UNL     1      -7.102  20.916  67.439  1.00  0.00    -0.361 C  
HETATM   29  O   UNL     1      -9.366  20.204  66.336  1.00  0.00    -0.369 OA 
HETATM   30  O   UNL     1      -7.232  19.238  65.409  1.00  0.00    -0.448 OA 
ENDBRANCH  25  27
ENDBRANCH   6  25
ENDBRANCH   2   3
TORSDOF 5
ENDMDL
MODEL        7
REMARK 921   NORMALIZED FREE ENERGY PREDICTED BY IDOCK:   -7.59 KCAL/MOL
REMARK 922        TOTAL FREE ENERGY PREDICTED BY IDOCK:  -10.34 KCAL/MOL
REMARK 923 INTER-LIGAND FREE ENERGY PREDICTED BY IDOCK:   -9.49 KCAL/MOL
REMARK 924 INTRA-LIGAND FREE ENERGY PREDICTED BY IDOCK:   -0.85 KCAL/MOL
REMARK 927      BINDING AFFINITY PREDICTED BY RF-SCORE:    0.00 PKD
ROOT
HETATM    1  C   UNL     1     -11.967  15.798  71.266  1.00  0.00    -0.434 C  
HETATM    2  O   UNL     1     -12.185  15.247  69.963  1.00  0.00    -0.332 OA 
ENDROOT
BRANCH   2   3
HETATM    3  C   UNL     1     -11.413  15.820  68.975  1.00  0.00    -0.391 A  
HETATM    4  C   UNL     1     -11.427  15.206  67.699  1.00  0.00    -0.309 A  
HETATM    5  C   UNL     1     -10.730  15.826  66.654  1.00  0.00    -0.287 A  
HETATM    6  C   UNL     1      -9.888  17.511  68.172  1.00  0.00    -0.306 A  
HETATM    7  C   UNL     1      -9.966  16.976  66.887  1.00  0.00    -0.289 A  
HETATM    8  C   UNL     1     -10.608  16.937  69.215  1.00  0.00    -0.325 A  
BRANCH   4   9
HETATM    9  N   UNL     1     -12.100  13.981  67.518  1.00  0.00    -0.505 NA 
HETATM   10  H   UNL     1     -13.113  14.091  67.481  1.00  0.00     0.000 HD 
BRANCH   9  11
HETATM   11  C   UNL     1     -11.689  12.621  67.375  1.00  0.00    -0.369 A  
HETATM   12  C   UNL     1     -10.584   9.645  69.265  1.00  0.00    -0.236 A  
HETATM   13  C   UNL     1     -11.226  12.222  66.082  1.00  0.00    -0.372 A  
HETATM   14  C   UNL     1     -11.372  13.004  64.910  1.00  0.00    -0.332 A  
HETATM   15  C   UNL     1     -11.558  11.716  68.471  1.00  0.00    -0.379 A  
HETATM   16  C   UNL     1     -10.919  12.555  63.669  1.00  0.00    -0.507 A  
HETATM   17  C   UNL     1     -10.856  10.517  68.218  1.00  0.00    -0.248 A  
HETATM   18  C   UNL     1     -12.031  11.926  69.793  1.00  0.00    -0.377 A  
HETATM   19  C   UNL     1     -10.303  11.316  63.575  1.00  0.00    -0.463 A  
HETATM   20  C   UNL     1     -11.792  11.010  70.821  1.00  0.00    -0.383 A  
HETATM   21  C   UNL     1     -11.036   9.879  70.562  1.00  0.00    -0.398 A  
HETATM   22  C   UNL     1     -10.147  10.540  64.724  1.00  0.00    -0.406 A  
HETATM   23  C   UNL     1     -10.596  10.970  65.966  1.00  0.00    -0.213 A  
HETATM   24  N   UNL     1     -10.397  10.162  67.013  1.00  0.00    -0.233 NA 
ENDBRANCH   9  11
ENDBRANCH   4   9
BRANCH   6  25
HETATM   25  N   UNL     1      -9.031  18.611  68.476  1.00  0.00    -0.331 N  
HETATM   26  H   UNL     1      -9.406  19.530  68.711  1.00  0.00     0.000 HD 
BRANCH  25  27
HETATM   27  S   UNL     1      -7.365  18.326  68.431  1.00  0.00    -0.282 S  
HETATM   28  C   UNL     1      -6.748  19.737  69.338  1.00  0.00    -0.347 C  
HETATM   29  O   UNL     1      -6.982  18.492  67.047  1.00  0.00    -0.193 OA 
HETATM   30  O   UNL     1      -7.038  17.121  69.160  1.00  0.00    -0.241 OA 
ENDBRANCH  25  27
ENDBRANCH   6  25
ENDBRANCH   2   3
TORSDOF 5
ENDMDL
MODEL        8
REMARK 921   NORMALIZED FREE ENERGY PREDICTED BY IDOCK:   -7.56 KCAL/MOL
REMARK 922        TOTAL FREE ENERGY PREDICTED BY IDOCK:  -10.30 KCAL/MOL
REMARK 923 INTER-LIGAND FREE ENERGY PREDICTED BY IDOCK:   -9.34 KCAL/MOL
REMARK 924 INTRA-LIGAND FREE ENERGY PREDICTED BY IDOCK:   -0.96 KCAL/MOL
REMARK 927      BINDING AFFINITY PREDICTED BY RF-SCORE:    0.00 PKD
ROOT
HETATM    1  C   UNL     1     -11.260  15.988  64.491  1.00  0.00    -0.297 C  
HETATM    2  O   UNL     1     -10.553  15.182  65.439  1.00  0.00    -0.331 OA 
ENDROOT
BRANCH   2   3
HETATM    3  C   UNL     1      -9.933  15.902  66.438  1.00  0.00    -0.287 A  
HETATM    4  C   UNL     1     -10.453  15.781  67.748  1.00  0.00    -0.283 A  
HETATM    5  C   UNL     1      -9.780  16.423  68.796  1.00  0.00    -0.250 A  
HETATM    6  C   UNL     1      -8.230  17.421  67.228  1.00  0.00    -0.205 A  
HETATM    7  C   UNL     1      -8.670  17.238  68.538  1.00  0.00    -0.273 A  
HETATM    8  C   UNL     1      -8.857  16.756  66.179  1.00  0.00    -0.298 A  
BRANCH   4   9
HETATM    9  N   UNL     1     -11.644  15.059  67.966  1.00  0.00    -0.337 NA 
HETATM   10  H   UNL     1     -12.404  15.360  67.354  1.00  0.00     0.000 HD 
BRANCH   9  11
HETATM   11  C   UNL     1     -12.033  14.003  68.845  1.00  0.00    -0.352 A  
HETATM   12  C   UNL     1     -13.073  13.264  72.312  1.00  0.00    -0.474 A  
HETATM   13  C   UNL     1     -11.662  12.676  68.459  1.00  0.00    -0.372 A  
HETATM   14  C   UNL     1     -11.159  12.333  67.179  1.00  0.00    -0.330 A  
HETATM   15  C   UNL     1     -12.602  14.218  70.135  1.00  0.00    -0.338 A  
HETATM   16  C   UNL     1     -10.833  11.017  66.850  1.00  0.00    -0.324 A  
HETATM   17  C   UNL     1     -12.645  13.102  71.000  1.00  0.00    -0.312 A  
HETATM   18  C   UNL     1     -13.090  15.451  70.642  1.00  0.00    -0.405 A  
HETATM   19  C   UNL     1     -10.994  10.016  67.797  1.00  0.00    -0.310 A  
HETATM   20  C   UNL     1     -13.565  15.580  71.949  1.00  0.00    -0.580 A  
HETATM   21  C   UNL     1     -13.526  14.488  72.798  1.00  0.00    -0.575 A  
HETATM   22  C   UNL     1     -11.480  10.344  69.062  1.00  0.00    -0.258 A  
HETATM   23  C   UNL     1     -11.815  11.648  69.405  1.00  0.00    -0.342 A  
HETATM   24  N   UNL     1     -12.267  11.869  70.644  1.00  0.00    -0.374 NA 
ENDBRANCH   9  11
ENDBRANCH   4   9
BRANCH   6  25
HETATM   25  N   UNL     1      -7.177  18.331  66.910  1.00  0.00    -0.200 N  
HETATM   26  H   UNL     1      -6.209  18.019  66.834  1.00  0.00     0.000 HD 
BRANCH  25  27
HETATM   27  S   UNL     1      -7.605  19.948  66.663  1.00  0.00    -0.282 S  
HETATM   28  C   UNL     1      -6.765  20.297  65.125  1.00  0.00    -0.300 C  
HETATM   29  O   UNL     1      -6.933  20.688  67.708  1.00  0.00    -0.306 OA 
HETATM   30  O   UNL     1      -9.030  20.068  66.457  1.00  0.00    -0.348 OA 
ENDBRANCH  25  27
ENDBRANCH   6  25
ENDBRANCH   2   3
TORSDOF 5
ENDMDL
MODEL        9
REMARK 921   NORMALIZED FREE ENERGY PREDICTED BY IDOCK:   -7.56 KCAL/MOL
REMARK 922        TOTAL FREE ENERGY PREDICTED BY IDOCK:  -10.30 KCAL/MOL
REMARK 923 INTER-LIGAND FREE ENERGY PREDICTED BY IDOCK:   -9.69 KCAL/MOL
REMARK 924 INTRA-LIGAND FREE ENERGY PREDICTED BY IDOCK:   -0.62 KCAL/MOL
REMARK 927      BINDING AFFINITY PREDICTED BY RF-SCORE:    0.00 PKD
ROOT
HETATM    1  C   UNL     1      -8.635   9.047  69.421  1.00  0.00    -0.137 C  
HETATM    2  O   UNL     1      -9.616  10.033  69.761  1.00  0.00    -0.222 OA 
ENDROOT
BRANCH   2   3
HETATM    3  C   UNL     1     -10.592   9.580  70.623  1.00  0.00    -0.308 A  
HETATM    4  C   UNL     1     -11.900  10.094  70.454  1.00  0.00    -0.288 A  
HETATM    5  C   UNL     1     -12.928   9.575  71.251  1.00  0.00    -0.407 A  
HETATM    6  C   UNL     1     -11.341   8.212  72.466  1.00  0.00    -0.401 A  
HETATM    7  C   UNL     1     -12.652   8.635  72.252  1.00  0.00    -0.457 A  
HETATM    8  C   UNL     1     -10.312   8.681  71.656  1.00  0.00    -0.366 A  
BRANCH   4   9
HETATM    9  N   UNL     1     -12.132  11.131  69.527  1.00  0.00    -0.333 NA 
HETATM   10  H   UNL     1     -12.554  10.796  68.661  1.00  0.00     0.000 HD 
BRANCH   9  11
HETATM   11  C   UNL     1     -11.910  12.541  69.522  1.00  0.00    -0.310 A  
HETATM   12  C   UNL     1     -12.931  15.707  71.129  1.00  0.00    -0.539 A  
HETATM   13  C   UNL     1     -11.321  13.095  68.342  1.00  0.00    -0.324 A  
HETATM   14  C   UNL     1     -10.741  12.322  67.306  1.00  0.00    -0.263 A  
HETATM   15  C   UNL     1     -12.394  13.421  70.536  1.00  0.00    -0.401 A  
HETATM   16  C   UNL     1     -10.161  12.917  66.186  1.00  0.00    -0.286 A  
HETATM   17  C   UNL     1     -12.366  14.802  70.240  1.00  0.00    -0.345 A  
HETATM   18  C   UNL     1     -12.934  13.036  71.792  1.00  0.00    -0.420 A  
HETATM   19  C   UNL     1     -10.156  14.299  66.073  1.00  0.00    -0.333 A  
HETATM   20  C   UNL     1     -13.450  13.969  72.694  1.00  0.00    -0.650 A  
HETATM   21  C   UNL     1     -13.478  15.309  72.347  1.00  0.00    -0.565 A  
HETATM   22  C   UNL     1     -10.732  15.070  67.082  1.00  0.00    -0.303 A  
HETATM   23  C   UNL     1     -11.309  14.494  68.207  1.00  0.00    -0.297 A  
HETATM   24  N   UNL     1     -11.842  15.313  69.120  1.00  0.00    -0.327 NA 
ENDBRANCH   9  11
ENDBRANCH   4   9
BRANCH   6  25
HETATM   25  N   UNL     1     -10.999   7.344  73.547  1.00  0.00    -0.524 N  
HETATM   26  H   UNL     1     -10.939   7.687  74.506  1.00  0.00     0.000 HD 
BRANCH  25  27
HETATM   27  S   UNL     1     -10.699   5.724  73.169  1.00  0.00    -0.277 S  
HETATM   28  C   UNL     1      -8.967   5.785  72.737  1.00  0.00    -0.127 C  
HETATM   29  O   UNL     1     -11.445   5.466  71.957  1.00  0.00    -0.128 OA 
HETATM   30  O   UNL     1     -10.861   4.893  74.340  1.00  0.00    -0.346 OA 
ENDBRANCH  25  27
ENDBRANCH   6  25
ENDBRANCH   2   3
TORSDOF 5
ENDMDL
MODEL       10
REMARK 921   NORMALIZED FREE ENERGY PREDICTED BY IDOCK:   -7.54 KCAL/MOL
REMARK 922        TOTAL FREE ENERGY PREDICTED BY IDOCK:  -10.27 KCAL/MOL
REMARK 923 INTER-LIGAND FREE ENERGY PREDICTED BY IDOCK:   -9.22 KCAL/MOL
REMARK 924 INTRA-LIGAND FREE ENERGY PREDICTED BY IDOCK:   -1.05 KCAL/MOL
REMARK 927      BINDING AFFINITY PREDICTED BY RF-SCORE:    0.00 PKD
ROOT
HETATM    1  C   UNL     1     -14.150   8.601  72.064  1.00  0.00    -0.453 C  
HETATM    2  O   UNL     1     -13.211   9.670  72.223  1.00  0.00    -0.433 OA 
ENDROOT
BRANCH   2   3
HETATM    3  C   UNL     1     -11.954   9.392  71.730  1.00  0.00    -0.382 A  
HETATM    4  C   UNL     1     -11.495  10.168  70.639  1.00  0.00    -0.349 A  
HETATM    5  C   UNL     1     -10.184   9.972  70.186  1.00  0.00    -0.297 A  
HETATM    6  C   UNL     1      -9.882   8.152  71.751  1.00  0.00    -0.194 A  
HETATM    7  C   UNL     1      -9.378   8.970  70.741  1.00  0.00    -0.305 A  
HETATM    8  C   UNL     1     -11.165   8.360  72.246  1.00  0.00    -0.446 A  
BRANCH   4   9
HETATM    9  N   UNL     1     -12.367  11.083  70.014  1.00  0.00    -0.319 NA 
HETATM   10  H   UNL     1     -13.278  10.675  69.802  1.00  0.00     0.000 HD 
BRANCH   9  11
HETATM   11  C   UNL     1     -12.268  12.448  69.609  1.00  0.00    -0.108 A  
HETATM   12  C   UNL     1     -10.761  14.690  67.088  1.00  0.00    -0.292 A  
HETATM   13  C   UNL     1     -12.579  13.436  70.596  1.00  0.00    -0.325 A  
HETATM   14  C   UNL     1     -13.193  13.148  71.840  1.00  0.00    -0.526 A  
HETATM   15  C   UNL     1     -11.721  12.864  68.358  1.00  0.00    -0.382 A  
HETATM   16  C   UNL     1     -13.494  14.156  72.758  1.00  0.00    -0.592 A  
HETATM   17  C   UNL     1     -11.408  14.236  68.231  1.00  0.00    -0.289 A  
HETATM   18  C   UNL     1     -11.428  12.025  67.250  1.00  0.00    -0.403 A  
HETATM   19  C   UNL     1     -13.179  15.472  72.454  1.00  0.00    -0.546 A  
HETATM   20  C   UNL     1     -10.825  12.514  66.089  1.00  0.00    -0.304 A  
HETATM   21  C   UNL     1     -10.460  13.847  66.021  1.00  0.00    -0.299 A  
HETATM   22  C   UNL     1     -12.567  15.765  71.236  1.00  0.00    -0.504 A  
HETATM   23  C   UNL     1     -12.265  14.775  70.309  1.00  0.00    -0.338 A  
HETATM   24  N   UNL     1     -11.673  15.150  69.170  1.00  0.00    -0.311 NA 
ENDBRANCH   9  11
ENDBRANCH   4   9
BRANCH   6  25
HETATM   25  N   UNL     1      -9.137   7.047  72.264  1.00  0.00    -0.133 N  
HETATM   26  H   UNL     1      -9.254   6.106  71.889  1.00  0.00     0.000 HD 
BRANCH  25  27
HETATM   27  S   UNL     1      -8.051   7.368  73.520  1.00  0.00    -0.134 S  
HETATM   28  C   UNL     1      -6.487   7.078  72.707  1.00  0.00    -0.057 C  
HETATM   29  O   UNL     1      -8.249   6.307  74.481  1.00  0.00    -0.121 OA 
HETATM   30  O   UNL     1      -8.125   8.757  73.910  1.00  0.00    -0.375 OA 
ENDBRANCH  25  27
ENDBRANCH   6  25
ENDBRANCH   2   3
TORSDOF 5
ENDMDL
MODEL       11
REMARK 921   NORMALIZED FREE ENERGY PREDICTED BY IDOCK:   -7.53 KCAL/MOL
REMARK 922        TOTAL FREE ENERGY PREDICTED BY IDOCK:  -10.27 KCAL/MOL
REMARK 923 INTER-LIGAND FREE ENERGY PREDICTED BY IDOCK:   -9.26 KCAL/MOL
REMARK 924 INTRA-LIGAND FREE ENERGY PREDICTED BY IDOCK:   -1.01 KCAL/MOL
REMARK 927      BINDING AFFINITY PREDICTED BY RF-SCORE:    0.00 PKD
ROOT
HETATM    1  C   UNL     1     -14.192   8.961  72.318  1.00  0.00    -0.397 C  
HETATM    2  O   UNL     1     -13.175   9.968  72.324  1.00  0.00    -0.427 OA 
ENDROOT
BRANCH   2   3
HETATM    3  C   UNL     1     -12.054   9.639  71.592  1.00  0.00    -0.402 A  
HETATM    4  C   UNL     1     -11.681  10.510  70.541  1.00  0.00    -0.350 A  
HETATM    5  C   UNL     1     -10.491  10.251  69.849  1.00  0.00    -0.304 A  
HETATM    6  C   UNL     1     -10.170   8.208  71.107  1.00  0.00    -0.195 A  
HETATM    7  C   UNL     1      -9.735   9.106  70.133  1.00  0.00    -0.234 A  
HETATM    8  C   UNL     1     -11.324   8.471  71.836  1.00  0.00    -0.399 A  
BRANCH   4   9
HETATM    9  N   UNL     1     -12.523  11.585  70.190  1.00  0.00    -0.206 NA 
HETATM   10  H   UNL     1     -13.510  11.326  70.186  1.00  0.00     0.000 HD 
BRANCH   9  11
HETATM   11  C   UNL     1     -12.312  12.953  69.840  1.00  0.00    -0.088 A  
HETATM   12  C   UNL     1     -10.809  15.161  67.288  1.00  0.00    -0.316 A  
HETATM   13  C   UNL     1     -12.420  13.911  70.897  1.00  0.00    -0.447 A  
HETATM   14  C   UNL     1     -12.944  13.621  72.181  1.00  0.00    -0.421 A  
HETATM   15  C   UNL     1     -11.841  13.378  68.562  1.00  0.00    -0.401 A  
HETATM   16  C   UNL     1     -13.045  14.602  73.168  1.00  0.00    -0.580 A  
HETATM   17  C   UNL     1     -11.392  14.714  68.467  1.00  0.00    -0.284 A  
HETATM   18  C   UNL     1     -11.747  12.576  67.394  1.00  0.00    -0.432 A  
HETATM   19  C   UNL     1     -12.617  15.892  72.896  1.00  0.00    -0.581 A  
HETATM   20  C   UNL     1     -11.204  13.062  66.202  1.00  0.00    -0.320 A  
HETATM   21  C   UNL     1     -10.703  14.352  66.159  1.00  0.00    -0.304 A  
HETATM   22  C   UNL     1     -12.092  16.187  71.638  1.00  0.00    -0.479 A  
HETATM   23  C   UNL     1     -11.989  15.224  70.641  1.00  0.00    -0.343 A  
HETATM   24  N   UNL     1     -11.467  15.598  69.468  1.00  0.00    -0.318 NA 
ENDBRANCH   9  11
ENDBRANCH   4   9
BRANCH   6  25
HETATM   25  N   UNL     1      -9.492   6.975  71.347  1.00  0.00    -0.159 N  
HETATM   26  H   UNL     1      -8.814   6.878  72.102  1.00  0.00     0.000 HD 
BRANCH  25  27
HETATM   27  S   UNL     1      -9.863   5.681  70.323  1.00  0.00    -0.208 S  
HETATM   28  C   UNL     1      -9.913   4.325  71.486  1.00  0.00    -0.173 C  
HETATM   29  O   UNL     1      -8.695   5.501  69.490  1.00  0.00    -0.103 OA 
HETATM   30  O   UNL     1     -11.177   5.852  69.747  1.00  0.00    -0.389 OA 
ENDBRANCH  25  27
ENDBRANCH   6  25
ENDBRANCH   2   3
TORSDOF 5
ENDMDL
MODEL       12
REMARK 921   NORMALIZED FREE ENERGY PREDICTED BY IDOCK:   -7.48 KCAL/MOL
REMARK 922        TOTAL FREE ENERGY PREDICTED BY IDOCK:  -10.20 KCAL/MOL
REMARK 923 INTER-LIGAND FREE ENERGY PREDICTED BY IDOCK:   -9.59 KCAL/MOL
REMARK 924 INTRA-LIGAND FREE ENERGY PREDICTED BY IDOCK:   -0.60 KCAL/MOL
REMARK 927      BINDING AFFINITY PREDICTED BY RF-SCORE:    0.00 PKD
ROOT
HETATM    1  C   UNL     1     -12.644  11.992  63.513  1.00  0.00    -0.507 C  
HETATM    2  O   UNL     1     -13.069  12.651  64.712  1.00  0.00    -0.852 OA 
ENDROOT
BRANCH   2   3
HETATM    3  C   UNL     1     -12.099  13.441  65.293  1.00  0.00    -0.413 A  
HETATM    4  C   UNL     1     -11.335  12.872  66.339  1.00  0.00    -0.319 A  
HETATM    5  C   UNL     1     -10.280  13.619  66.877  1.00  0.00    -0.261 A  
HETATM    6  C   UNL     1     -10.868  15.509  65.484  1.00  0.00    -0.361 A  
HETATM    7  C   UNL     1     -10.043  14.932  66.449  1.00  0.00    -0.296 A  
HETATM    8  C   UNL     1     -11.893  14.768  64.906  1.00  0.00    -0.377 A  
BRANCH   4   9
HETATM    9  N   UNL     1     -11.672  11.598  66.840  1.00  0.00    -0.555 NA 
HETATM   10  H   UNL     1     -12.651  11.358  66.679  1.00  0.00     0.000 HD 
BRANCH   9  11
HETATM   11  C   UNL     1     -10.958  10.565  67.520  1.00  0.00    -0.303 A  
HETATM   12  C   UNL     1      -8.884   7.553  66.992  1.00  0.00    -0.134 A  
HETATM   13  C   UNL     1     -11.318  10.325  68.884  1.00  0.00    -0.230 A  
HETATM   14  C   UNL     1     -12.146  11.183  69.649  1.00  0.00    -0.406 A  
HETATM   15  C   UNL     1     -10.052   9.672  66.873  1.00  0.00    -0.290 A  
HETATM   16  C   UNL     1     -12.447  10.910  70.983  1.00  0.00    -0.514 A  
HETATM   17  C   UNL     1      -9.666   8.526  67.603  1.00  0.00    -0.160 A  
HETATM   18  C   UNL     1      -9.538   9.808  65.556  1.00  0.00    -0.348 A  
HETATM   19  C   UNL     1     -11.934   9.768  71.580  1.00  0.00    -0.488 A  
HETATM   20  C   UNL     1      -8.710   8.842  64.980  1.00  0.00    -0.183 A  
HETATM   21  C   UNL     1      -8.408   7.693  65.690  1.00  0.00    -0.143 A  
HETATM   22  C   UNL     1     -11.124   8.912  70.834  1.00  0.00    -0.328 A  
HETATM   23  C   UNL     1     -10.810   9.172  69.505  1.00  0.00    -0.180 A  
HETATM   24  N   UNL     1     -10.031   8.291  68.868  1.00  0.00    -0.181 NA 
ENDBRANCH   9  11
ENDBRANCH   4   9
BRANCH   6  25
HETATM   25  N   UNL     1     -10.734  16.878  65.104  1.00  0.00    -0.222 N  
HETATM   26  H   UNL     1     -11.024  17.206  64.183  1.00  0.00     0.000 HD 
BRANCH  25  27
HETATM   27  S   UNL     1     -10.072  17.934  66.247  1.00  0.00    -0.326 S  
HETATM   28  C   UNL     1     -10.590  19.516  65.597  1.00  0.00    -0.341 C  
HETATM   29  O   UNL     1      -8.639  17.838  66.077  1.00  0.00    -0.497 OA 
HETATM   30  O   UNL     1     -10.689  17.733  67.538  1.00  0.00    -0.375 OA 
ENDBRANCH  25  27
ENDBRANCH   6  25
ENDBRANCH   2   3
TORSDOF 5
ENDMDL
MODEL       13
REMARK 921   NORMALIZED FREE ENERGY PREDICTED BY IDOCK:   -7.43 KCAL/MOL
REMARK 922        TOTAL FREE ENERGY PREDICTED BY IDOCK:  -10.13 KCAL/MOL
REMARK 923 INTER-LIGAND FREE ENERGY PREDICTED BY IDOCK:   -9.17 KCAL/MOL
REMARK 924 INTRA-LIGAND FREE ENERGY PREDICTED BY IDOCK:   -0.96 KCAL/MOL
REMARK 927      BINDING AFFINITY PREDICTED BY RF-SCORE:    0.00 PKD
ROOT
HETATM    1  C   UNL     1     -12.194  13.285  63.686  1.00  0.00    -0.451 C  
HETATM    2  O   UNL     1     -12.092  13.523  65.094  1.00  0.00    -0.363 OA 
ENDROOT
BRANCH   2   3
HETATM    3  C   UNL     1     -11.580  12.461  65.809  1.00  0.00    -0.398 A  
HETATM    4  C   UNL     1     -11.741  12.482  67.214  1.00  0.00    -0.362 A  
HETATM    5  C   UNL     1     -11.319  11.368  67.951  1.00  0.00    -0.371 A  
HETATM    6  C   UNL     1     -10.436  10.339  65.947  1.00  0.00    -0.097 A  
HETATM    7  C   UNL     1     -10.671  10.298  67.320  1.00  0.00    -0.323 A  
HETATM    8  C   UNL     1     -10.888  11.415  65.191  1.00  0.00    -0.302 A  
BRANCH   4   9
HETATM    9  N   UNL     1     -12.281  13.624  67.841  1.00  0.00    -0.382 NA 
HETATM   10  H   UNL     1     -13.226  13.838  67.521  1.00  0.00     0.000 HD 
BRANCH   9  11
HETATM   11  C   UNL     1     -11.809  14.549  68.821  1.00  0.00    -0.315 A  
HETATM   12  C   UNL     1     -12.363  15.752  72.270  1.00  0.00    -0.540 A  
HETATM   13  C   UNL     1     -11.043  15.657  68.341  1.00  0.00    -0.326 A  
HETATM   14  C   UNL     1     -10.535  15.761  67.023  1.00  0.00    -0.309 A  
HETATM   15  C   UNL     1     -12.202  14.517  70.192  1.00  0.00    -0.399 A  
HETATM   16  C   UNL     1      -9.773  16.857  66.616  1.00  0.00    -0.283 A  
HETATM   17  C   UNL     1     -11.904  15.663  70.962  1.00  0.00    -0.400 A  
HETATM   18  C   UNL     1     -12.896  13.461  70.841  1.00  0.00    -0.279 A  
HETATM   19  C   UNL     1      -9.511  17.878  67.516  1.00  0.00    -0.258 A  
HETATM   20  C   UNL     1     -13.303  13.550  72.174  1.00  0.00    -0.593 A  
HETATM   21  C   UNL     1     -13.063  14.715  72.883  1.00  0.00    -0.609 A  
HETATM   22  C   UNL     1     -10.013  17.791  68.814  1.00  0.00    -0.367 A  
HETATM   23  C   UNL     1     -10.768  16.705  69.238  1.00  0.00    -0.337 A  
HETATM   24  N   UNL     1     -11.213  16.711  70.499  1.00  0.00    -0.112 NA 
ENDBRANCH   9  11
ENDBRANCH   4   9
BRANCH   6  25
HETATM   25  N   UNL     1      -9.680   9.325  65.284  1.00  0.00    -0.454 N  
HETATM   26  H   UNL     1     -10.042   8.379  65.172  1.00  0.00     0.000 HD 
BRANCH  25  27
HETATM   27  S   UNL     1      -8.157   9.763  64.692  1.00  0.00    -0.158 S  
HETATM   28  C   UNL     1      -7.275   8.215  64.830  1.00  0.00    -0.082 C  
HETATM   29  O   UNL     1      -7.607  10.670  65.675  1.00  0.00    -0.151 OA 
HETATM   30  O   UNL     1      -8.244  10.131  63.298  1.00  0.00    -0.149 OA 
ENDBRANCH  25  27
ENDBRANCH   6  25
ENDBRANCH   2   3
TORSDOF 5
ENDMDL
MODEL       14
REMARK 921   NORMALIZED FREE ENERGY PREDICTED BY IDOCK:   -7.42 KCAL/MOL
REMARK 922        TOTAL FREE ENERGY PREDICTED BY IDOCK:  -10.12 KCAL/MOL
REMARK 923 INTER-LIGAND FREE ENERGY PREDICTED BY IDOCK:   -9.27 KCAL/MOL
REMARK 924 INTRA-LIGAND FREE ENERGY PREDICTED BY IDOCK:   -0.85 KCAL/MOL
REMARK 927      BINDING AFFINITY PREDICTED BY RF-SCORE:    0.00 PKD
ROOT
HETATM    1  C   UNL     1      -7.390  14.271  67.755  1.00  0.00    -0.174 C  
HETATM    2  O   UNL     1      -8.471  14.609  68.631  1.00  0.00    -0.155 OA 
ENDROOT
BRANCH   2   3
HETATM    3  C   UNL     1      -8.901  15.914  68.516  1.00  0.00    -0.195 A  
HETATM    4  C   UNL     1     -10.285  16.129  68.312  1.00  0.00    -0.248 A  
HETATM    5  C   UNL     1     -10.759  17.446  68.293  1.00  0.00    -0.327 A  
HETATM    6  C   UNL     1      -8.502  18.295  68.486  1.00  0.00    -0.307 A  
HETATM    7  C   UNL     1      -9.872  18.527  68.383  1.00  0.00    -0.404 A  
HETATM    8  C   UNL     1      -8.014  16.994  68.553  1.00  0.00    -0.249 A  
BRANCH   4   9
HETATM    9  N   UNL     1     -11.141  15.029  68.098  1.00  0.00    -0.279 NA 
HETATM   10  H   UNL     1     -11.445  14.952  67.127  1.00  0.00     0.000 HD 
BRANCH   9  11
HETATM   11  C   UNL     1     -11.680  14.000  68.927  1.00  0.00    -0.340 A  
HETATM   12  C   UNL     1     -13.082  13.323  72.278  1.00  0.00    -0.474 A  
HETATM   13  C   UNL     1     -11.369  12.652  68.563  1.00  0.00    -0.333 A  
HETATM   14  C   UNL     1     -10.776  12.279  67.331  1.00  0.00    -0.261 A  
HETATM   15  C   UNL     1     -12.348  14.249  70.163  1.00  0.00    -0.413 A  
HETATM   16  C   UNL     1     -10.514  10.944  67.020  1.00  0.00    -0.291 A  
HETATM   17  C   UNL     1     -12.548  13.136  71.009  1.00  0.00    -0.312 A  
HETATM   18  C   UNL     1     -12.794  15.512  70.636  1.00  0.00    -0.466 A  
HETATM   19  C   UNL     1     -10.830   9.954  67.938  1.00  0.00    -0.312 A  
HETATM   20  C   UNL     1     -13.377  15.670  71.895  1.00  0.00    -0.537 A  
HETATM   21  C   UNL     1     -13.492  14.574  72.734  1.00  0.00    -0.575 A  
HETATM   22  C   UNL     1     -11.406  10.310  69.157  1.00  0.00    -0.244 A  
HETATM   23  C   UNL     1     -11.679  11.634  69.481  1.00  0.00    -0.344 A  
HETATM   24  N   UNL     1     -12.226  11.881  70.676  1.00  0.00    -0.374 NA 
ENDBRANCH   9  11
ENDBRANCH   4   9
BRANCH   6  25
HETATM   25  N   UNL     1      -7.556  19.364  68.465  1.00  0.00    -0.322 N  
HETATM   26  H   UNL     1      -7.183  19.762  69.326  1.00  0.00     0.000 HD 
BRANCH  25  27
HETATM   27  S   UNL     1      -7.080  19.941  66.949  1.00  0.00    -0.230 S  
HETATM   28  C   UNL     1      -5.408  19.319  66.851  1.00  0.00    -0.164 C  
HETATM   29  O   UNL     1      -7.005  21.379  67.089  1.00  0.00    -0.547 OA 
HETATM   30  O   UNL     1      -7.870  19.330  65.904  1.00  0.00    -0.392 OA 
ENDBRANCH  25  27
ENDBRANCH   6  25
ENDBRANCH   2   3
TORSDOF 5
ENDMDL
MODEL       15
REMARK 921   NORMALIZED FREE ENERGY PREDICTED BY IDOCK:   -7.41 KCAL/MOL
REMARK 922        TOTAL FREE ENERGY PREDICTED BY IDOCK:  -10.11 KCAL/MOL
REMARK 923 INTER-LIGAND FREE ENERGY PREDICTED BY IDOCK:   -9.20 KCAL/MOL
REMARK 924 INTRA-LIGAND FREE ENERGY PREDICTED BY IDOCK:   -0.91 KCAL/MOL
REMARK 927      BINDING AFFINITY PREDICTED BY RF-SCORE:    0.00 PKD
ROOT
HETATM    1  C   UNL     1     -10.655  11.533  65.428  1.00  0.00    -0.282 C  
HETATM    2  O   UNL     1     -11.677  11.675  66.422  1.00  0.00    -0.472 OA 
ENDROOT
BRANCH   2   3
HETATM    3  C   UNL     1     -11.387  11.053  67.618  1.00  0.00    -0.281 A  
HETATM    4  C   UNL     1     -11.815  11.693  68.806  1.00  0.00    -0.325 A  
HETATM    5  C   UNL     1     -11.622  11.033  70.026  1.00  0.00    -0.427 A  
HETATM    6  C   UNL     1     -10.443   9.242  68.905  1.00  0.00    -0.215 A  
HETATM    7  C   UNL     1     -10.942   9.810  70.076  1.00  0.00    -0.319 A  
HETATM    8  C   UNL     1     -10.664   9.859  67.678  1.00  0.00    -0.339 A  
BRANCH   4   9
HETATM    9  N   UNL     1     -12.384  12.981  68.742  1.00  0.00     0.016 NA 
HETATM   10  H   UNL     1     -13.291  12.987  68.274  1.00  0.00     0.000 HD 
BRANCH   9  11
HETATM   11  C   UNL     1     -11.983  14.280  69.181  1.00  0.00    -0.335 A  
HETATM   12  C   UNL     1      -9.717  17.096  68.420  1.00  0.00    -0.284 A  
HETATM   13  C   UNL     1     -12.276  14.617  70.539  1.00  0.00    -0.389 A  
HETATM   14  C   UNL     1     -13.126  13.858  71.381  1.00  0.00    -0.413 A  
HETATM   15  C   UNL     1     -11.175  15.162  68.403  1.00  0.00    -0.307 A  
HETATM   16  C   UNL     1     -13.392  14.247  72.694  1.00  0.00    -0.619 A  
HETATM   17  C   UNL     1     -10.611  16.264  69.083  1.00  0.00    -0.292 A  
HETATM   18  C   UNL     1     -10.855  15.013  67.028  1.00  0.00    -0.311 A  
HETATM   19  C   UNL     1     -12.808  15.400  73.197  1.00  0.00    -0.606 A  
HETATM   20  C   UNL     1      -9.994  15.893  66.367  1.00  0.00    -0.304 A  
HETATM   21  C   UNL     1      -9.396  16.920  67.076  1.00  0.00    -0.245 A  
HETATM   22  C   UNL     1     -11.962  16.150  72.381  1.00  0.00    -0.649 A  
HETATM   23  C   UNL     1     -11.690  15.780  71.069  1.00  0.00    -0.422 A  
HETATM   24  N   UNL     1     -10.863  16.558  70.363  1.00  0.00    -0.192 NA 
ENDBRANCH   9  11
ENDBRANCH   4   9
BRANCH   6  25
HETATM   25  N   UNL     1      -9.646   8.057  68.925  1.00  0.00    -0.151 N  
HETATM   26  H   UNL     1      -8.629   8.101  68.986  1.00  0.00     0.000 HD 
BRANCH  25  27
HETATM   27  S   UNL     1     -10.462   6.579  68.843  1.00  0.00    -0.239 S  
HETATM   28  C   UNL     1      -9.096   5.428  68.880  1.00  0.00    -0.118 C  
HETATM   29  O   UNL     1     -11.041   6.530  67.519  1.00  0.00    -0.341 OA 
HETATM   30  O   UNL     1     -11.273   6.382  70.023  1.00  0.00    -0.342 OA 
ENDBRANCH  25  27
ENDBRANCH   6  25
ENDBRANCH   2   3
TORSDOF 5
ENDMDL
MODEL       16
REMARK 921   NORMALIZED FREE ENERGY PREDICTED BY IDOCK:   -7.41 KCAL/MOL
REMARK 922        TOTAL FREE ENERGY PREDICTED BY IDOCK:  -10.10 KCAL/MOL
REMARK 923 INTER-LIGAND FREE ENERGY PREDICTED BY IDOCK:   -9.70 KCAL/MOL
REMARK 924 INTRA-LIGAND FREE ENERGY PREDICTED BY IDOCK:   -0.41 KCAL/MOL
REMARK 927      BINDING AFFINITY PREDICTED BY RF-SCORE:    0.00 PKD
ROOT
HETATM    1  C   UNL     1      -8.697   9.887  69.392  1.00  0.00    -0.179 C  
HETATM    2  O   UNL     1      -9.928  10.617  69.377  1.00  0.00    -0.216 OA 
ENDROOT
BRANCH   2   3
HETATM    3  C   UNL     1     -10.849  10.186  70.309  1.00  0.00    -0.310 A  
HETATM    4  C   UNL     1     -12.087  10.870  70.367  1.00  0.00    -0.363 A  
HETATM    5  C   UNL     1     -13.075  10.388  71.235  1.00  0.00    -0.494 A  
HETATM    6  C   UNL     1     -11.552   8.710  72.086  1.00  0.00    -0.370 A  
HETATM    7  C   UNL     1     -12.811   9.309  72.090  1.00  0.00    -0.485 A  
HETATM    8  C   UNL     1     -10.573   9.145  71.199  1.00  0.00    -0.379 A  
BRANCH   4   9
HETATM    9  N   UNL     1     -12.285  12.028  69.589  1.00  0.00    -0.194 NA 
HETATM   10  H   UNL     1     -12.902  11.867  68.793  1.00  0.00     0.000 HD 
BRANCH   9  11
HETATM   11  C   UNL     1     -11.820  13.377  69.659  1.00  0.00    -0.331 A  
HETATM   12  C   UNL     1      -9.235  15.691  68.388  1.00  0.00    -0.191 A  
HETATM   13  C   UNL     1     -12.233  14.140  70.796  1.00  0.00    -0.435 A  
HETATM   14  C   UNL     1     -13.238  13.730  71.706  1.00  0.00    -0.467 A  
HETATM   15  C   UNL     1     -10.852  13.927  68.767  1.00  0.00    -0.282 A  
HETATM   16  C   UNL     1     -13.616  14.526  72.787  1.00  0.00    -0.533 A  
HETATM   17  C   UNL     1     -10.271  15.157  69.145  1.00  0.00    -0.249 A  
HETATM   18  C   UNL     1     -10.393  13.336  67.560  1.00  0.00    -0.229 A  
HETATM   19  C   UNL     1     -12.990  15.748  72.988  1.00  0.00    -0.628 A  
HETATM   20  C   UNL     1      -9.386  13.917  66.785  1.00  0.00    -0.286 A  
HETATM   21  C   UNL     1      -8.782  15.084  67.219  1.00  0.00    -0.221 A  
HETATM   22  C   UNL     1     -11.993  16.158  72.103  1.00  0.00    -0.623 A  
HETATM   23  C   UNL     1     -11.608  15.380  71.018  1.00  0.00    -0.367 A  
HETATM   24  N   UNL     1     -10.639  15.852  70.227  1.00  0.00    -0.296 NA 
ENDBRANCH   9  11
ENDBRANCH   4   9
BRANCH   6  25
HETATM   25  N   UNL     1     -11.206   7.687  73.018  1.00  0.00    -0.535 N  
HETATM   26  H   UNL     1     -11.096   7.887  74.012  1.00  0.00     0.000 HD 
BRANCH  25  27
HETATM   27  S   UNL     1     -10.985   6.127  72.403  1.00  0.00    -0.274 S  
HETATM   28  C   UNL     1      -9.208   6.077  72.220  1.00  0.00    -0.144 C  
HETATM   29  O   UNL     1     -11.562   6.149  71.078  1.00  0.00    -0.303 OA 
HETATM   30  O   UNL     1     -11.383   5.138  73.379  1.00  0.00    -0.313 OA 
ENDBRANCH  25  27
ENDBRANCH   6  25
ENDBRANCH   2   3
TORSDOF 5
ENDMDL
MODEL       17
REMARK 921   NORMALIZED FREE ENERGY PREDICTED BY IDOCK:   -7.32 KCAL/MOL
REMARK 922        TOTAL FREE ENERGY PREDICTED BY IDOCK:   -9.99 KCAL/MOL
REMARK 923 INTER-LIGAND FREE ENERGY PREDICTED BY IDOCK:   -9.05 KCAL/MOL
REMARK 924 INTRA-LIGAND FREE ENERGY PREDICTED BY IDOCK:   -0.94 KCAL/MOL
REMARK 927      BINDING AFFINITY PREDICTED BY RF-SCORE:    0.00 PKD
ROOT
HETATM    1  C   UNL     1     -10.133  11.454  65.199  1.00  0.00    -0.271 C  
HETATM    2  O   UNL     1     -11.227  11.534  66.119  1.00  0.00    -0.286 OA 
ENDROOT
BRANCH   2   3
HETATM    3  C   UNL     1     -11.047  10.798  67.271  1.00  0.00    -0.270 A  
HETATM    4  C   UNL     1     -11.487  11.373  68.488  1.00  0.00    -0.297 A  
HETATM    5  C   UNL     1     -11.407  10.605  69.656  1.00  0.00    -0.360 A  
HETATM    6  C   UNL     1     -10.307   8.822  68.445  1.00  0.00    -0.204 A  
HETATM    7  C   UNL     1     -10.822   9.332  69.636  1.00  0.00    -0.228 A  
HETATM    8  C   UNL     1     -10.418   9.550  67.265  1.00  0.00    -0.328 A  
BRANCH   4   9
HETATM    9  N   UNL     1     -11.956  12.702  68.505  1.00  0.00    -0.278 NA 
HETATM   10  H   UNL     1     -12.720  12.859  67.847  1.00  0.00     0.000 HD 
BRANCH   9  11
HETATM   11  C   UNL     1     -11.607  13.881  69.233  1.00  0.00    -0.309 A  
HETATM   12  C   UNL     1     -12.536  15.944  72.153  1.00  0.00    -0.540 A  
HETATM   13  C   UNL     1     -10.820  14.854  68.540  1.00  0.00    -0.249 A  
HETATM   14  C   UNL     1     -10.182  14.621  67.297  1.00  0.00    -0.241 A  
HETATM   15  C   UNL     1     -12.137  14.202  70.518  1.00  0.00    -0.420 A  
HETATM   16  C   UNL     1      -9.408  15.601  66.677  1.00  0.00    -0.291 A  
HETATM   17  C   UNL     1     -11.944  15.526  70.968  1.00  0.00    -0.381 A  
HETATM   18  C   UNL     1     -12.871  13.329  71.365  1.00  0.00    -0.411 A  
HETATM   19  C   UNL     1      -9.261  16.840  67.283  1.00  0.00    -0.234 A  
HETATM   20  C   UNL     1     -13.413  13.755  72.579  1.00  0.00    -0.682 A  
HETATM   21  C   UNL     1     -13.273  15.079  72.959  1.00  0.00    -0.596 A  
HETATM   22  C   UNL     1      -9.891  17.084  68.503  1.00  0.00    -0.290 A  
HETATM   23  C   UNL     1     -10.662  16.117  69.137  1.00  0.00    -0.292 A  
HETATM   24  N   UNL     1     -11.233  16.443  70.301  1.00  0.00    -0.333 NA 
ENDBRANCH   9  11
ENDBRANCH   4   9
BRANCH   6  25
HETATM   25  N   UNL     1      -9.602   7.581  68.403  1.00  0.00    -0.148 N  
HETATM   26  H   UNL     1      -8.585   7.545  68.459  1.00  0.00     0.000 HD 
BRANCH  25  27
HETATM   27  S   UNL     1     -10.528   6.174  68.255  1.00  0.00    -0.261 S  
HETATM   28  C   UNL     1      -9.259   4.917  68.321  1.00  0.00    -0.123 C  
HETATM   29  O   UNL     1     -11.053   6.197  66.908  1.00  0.00    -0.334 OA 
HETATM   30  O   UNL     1     -11.400   6.020  69.397  1.00  0.00    -0.398 OA 
ENDBRANCH  25  27
ENDBRANCH   6  25
ENDBRANCH   2   3
TORSDOF 5
ENDMDL
MODEL       18
REMARK 921   NORMALIZED FREE ENERGY PREDICTED BY IDOCK:   -7.32 KCAL/MOL
REMARK 922        TOTAL FREE ENERGY PREDICTED BY IDOCK:   -9.99 KCAL/MOL
REMARK 923 INTER-LIGAND FREE ENERGY PREDICTED BY IDOCK:   -9.55 KCAL/MOL
REMARK 924 INTRA-LIGAND FREE ENERGY PREDICTED BY IDOCK:   -0.45 KCAL/MOL
REMARK 927      BINDING AFFINITY PREDICTED BY RF-SCORE:    0.00 PKD
ROOT
HETATM    1  C   UNL     1     -13.443  13.224  72.247  1.00  0.00    -0.582 C  
HETATM    2  O   UNL     1     -12.977  13.622  70.953  1.00  0.00    -0.272 OA 
ENDROOT
BRANCH   2   3
HETATM    3  C   UNL     1     -12.234  12.660  70.302  1.00  0.00    -0.271 A  
HETATM    4  C   UNL     1     -11.393  13.088  69.247  1.00  0.00    -0.251 A  
HETATM    5  C   UNL     1     -10.554  12.147  68.638  1.00  0.00    -0.248 A  
HETATM    6  C   UNL     1     -11.515  10.378  69.981  1.00  0.00    -0.308 A  
HETATM    7  C   UNL     1     -10.612  10.796  69.005  1.00  0.00    -0.250 A  
HETATM    8  C   UNL     1     -12.325  11.304  70.629  1.00  0.00    -0.477 A  
BRANCH   4   9
HETATM    9  N   UNL     1     -11.444  14.428  68.810  1.00  0.00    -0.272 NA 
HETATM   10  H   UNL     1     -11.583  15.086  69.577  1.00  0.00     0.000 HD 
BRANCH   9  11
HETATM   11  C   UNL     1     -11.346  15.074  67.540  1.00  0.00    -0.333 A  
HETATM   12  C   UNL     1     -11.416  14.475  63.896  1.00  0.00     0.289 A  
HETATM   13  C   UNL     1     -10.721  16.361  67.521  1.00  0.00    -0.298 A  
HETATM   14  C   UNL     1     -10.418  17.114  68.682  1.00  0.00    -0.366 A  
HETATM   15  C   UNL     1     -11.674  14.442  66.304  1.00  0.00    -0.394 A  
HETATM   16  C   UNL     1      -9.826  18.375  68.603  1.00  0.00    -0.403 A  
HETATM   17  C   UNL     1     -11.239  15.092  65.128  1.00  0.00    -0.388 A  
HETATM   18  C   UNL     1     -12.361  13.209  66.149  1.00  0.00    -0.385 A  
HETATM   19  C   UNL     1      -9.516  18.907  67.360  1.00  0.00    -0.334 A  
HETATM   20  C   UNL     1     -12.574  12.631  64.895  1.00  0.00    -0.525 A  
HETATM   21  C   UNL     1     -12.071  13.252  63.765  1.00  0.00    -0.546 A  
HETATM   22  C   UNL     1      -9.801  18.170  66.210  1.00  0.00    -0.311 A  
HETATM   23  C   UNL     1     -10.395  16.915  66.271  1.00  0.00    -0.308 A  
HETATM   24  N   UNL     1     -10.626  16.281  65.117  1.00  0.00    -0.638 NA 
ENDBRANCH   9  11
ENDBRANCH   4   9
BRANCH   6  25
HETATM   25  N   UNL     1     -11.687   8.997  70.303  1.00  0.00    -0.468 N  
HETATM   26  H   UNL     1     -12.238   8.377  69.710  1.00  0.00     0.000 HD 
BRANCH  25  27
HETATM   27  S   UNL     1     -10.936   8.436  71.710  1.00  0.00    -0.315 S  
HETATM   28  C   UNL     1     -10.501   6.771  71.228  1.00  0.00    -0.213 C  
HETATM   29  O   UNL     1     -11.987   8.346  72.699  1.00  0.00    -0.396 OA 
HETATM   30  O   UNL     1      -9.724   9.180  71.968  1.00  0.00    -0.283 OA 
ENDBRANCH  25  27
ENDBRANCH   6  25
ENDBRANCH   2   3
TORSDOF 5
ENDMDL
MODEL       19
REMARK 921   NORMALIZED FREE ENERGY PREDICTED BY IDOCK:   -7.26 KCAL/MOL
REMARK 922        TOTAL FREE ENERGY PREDICTED BY IDOCK:   -9.92 KCAL/MOL
REMARK 923 INTER-LIGAND FREE ENERGY PREDICTED BY IDOCK:   -9.05 KCAL/MOL
REMARK 924 INTRA-LIGAND FREE ENERGY PREDICTED BY IDOCK:   -0.87 KCAL/MOL
REMARK 927      BINDING AFFINITY PREDICTED BY RF-SCORE:    0.00 PKD
ROOT
HETATM    1  C   UNL     1     -12.206  15.139  70.159  1.00  0.00    -0.352 C  
HETATM    2  O   UNL     1     -12.059  13.716  70.204  1.00  0.00    -0.327 OA 
ENDROOT
BRANCH   2   3
HETATM    3  C   UNL     1     -11.578  13.163  69.036  1.00  0.00    -0.312 A  
HETATM    4  C   UNL     1     -11.168  11.809  69.075  1.00  0.00    -0.265 A  
HETATM    5  C   UNL     1     -10.772  11.197  67.879  1.00  0.00    -0.261 A  
HETATM    6  C   UNL     1     -11.013  13.292  66.692  1.00  0.00    -0.283 A  
HETATM    7  C   UNL     1     -10.697  11.934  66.690  1.00  0.00    -0.291 A  
HETATM    8  C   UNL     1     -11.453  13.907  67.859  1.00  0.00    -0.350 A  
BRANCH   4   9
HETATM    9  N   UNL     1     -11.132  11.123  70.306  1.00  0.00    -0.455 NA 
HETATM   10  H   UNL     1     -11.324  11.733  71.102  1.00  0.00     0.000 HD 
BRANCH   9  11
HETATM   11  C   UNL     1     -10.888   9.771  70.696  1.00  0.00    -0.329 A  
HETATM   12  C   UNL     1      -8.419   7.030  70.502  1.00  0.00    -0.133 A  
HETATM   13  C   UNL     1     -12.032   8.988  71.048  1.00  0.00    -0.323 A  
HETATM   14  C   UNL     1     -13.327   9.523  71.258  1.00  0.00    -0.385 A  
HETATM   15  C   UNL     1      -9.616   9.135  70.587  1.00  0.00    -0.312 A  
HETATM   16  C   UNL     1     -14.404   8.712  71.620  1.00  0.00    -0.451 A  
HETATM   17  C   UNL     1      -9.601   7.728  70.717  1.00  0.00    -0.165 A  
HETATM   18  C   UNL     1      -8.377   9.776  70.323  1.00  0.00    -0.172 A  
HETATM   19  C   UNL     1     -14.210   7.348  71.773  1.00  0.00    -0.544 A  
HETATM   20  C   UNL     1      -7.189   9.058  70.162  1.00  0.00    -0.062 A  
HETATM   21  C   UNL     1      -7.217   7.676  70.220  1.00  0.00    -0.067 A  
HETATM   22  C   UNL     1     -12.941   6.809  71.560  1.00  0.00    -0.281 A  
HETATM   23  C   UNL     1     -11.858   7.602  71.204  1.00  0.00    -0.293 A  
HETATM   24  N   UNL     1     -10.680   6.996  71.015  1.00  0.00    -0.230 NA 
ENDBRANCH   9  11
ENDBRANCH   4   9
BRANCH   6  25
HETATM   25  N   UNL     1     -10.841  14.104  65.531  1.00  0.00    -0.298 N  
HETATM   26  H   UNL     1      -9.942  14.531  65.308  1.00  0.00     0.000 HD 
BRANCH  25  27
HETATM   27  S   UNL     1     -12.192  14.328  64.540  1.00  0.00    -0.423 S  
HETATM   28  C   UNL     1     -11.941  13.048  63.319  1.00  0.00    -0.421 C  
HETATM   29  O   UNL     1     -11.987  15.602  63.888  1.00  0.00    -0.524 OA 
HETATM   30  O   UNL     1     -13.407  14.047  65.270  1.00  0.00    -0.741 OA 
ENDBRANCH  25  27
ENDBRANCH   6  25
ENDBRANCH   2   3
TORSDOF 5
ENDMDL
MODEL       20
REMARK 921   NORMALIZED FREE ENERGY PREDICTED BY IDOCK:   -7.26 KCAL/MOL
REMARK 922        TOTAL FREE ENERGY PREDICTED BY IDOCK:   -9.91 KCAL/MOL
REMARK 923 INTER-LIGAND FREE ENERGY PREDICTED BY IDOCK:   -8.98 KCAL/MOL
REMARK 924 INTRA-LIGAND FREE ENERGY PREDICTED BY IDOCK:   -0.93 KCAL/MOL
REMARK 927      BINDING AFFINITY PREDICTED BY RF-SCORE:    0.00 PKD
ROOT
HETATM    1  C   UNL     1     -12.190  14.085  64.351  1.00  0.00    -0.426 C  
HETATM    2  O   UNL     1     -12.636  13.731  65.664  1.00  0.00    -0.491 OA 
ENDROOT
BRANCH   2   3
HETATM    3  C   UNL     1     -11.859  14.246  66.680  1.00  0.00    -0.421 A  
HETATM    4  C   UNL     1     -11.441  13.355  67.698  1.00  0.00    -0.319 A  
HETATM    5  C   UNL     1     -10.569  13.831  68.685  1.00  0.00    -0.263 A  
HETATM    6  C   UNL     1     -10.690  16.063  67.758  1.00  0.00    -0.323 A  
HETATM    7  C   UNL     1     -10.191  15.180  68.714  1.00  0.00    -0.235 A  
HETATM    8  C   UNL     1     -11.520  15.601  66.743  1.00  0.00     0.113 A  
BRANCH   4   9
HETATM    9  N   UNL     1     -11.935  12.035  67.719  1.00  0.00    -0.553 NA 
HETATM   10  H   UNL     1     -12.918  11.979  67.450  1.00  0.00     0.000 HD 
BRANCH   9  11
HETATM   11  C   UNL     1     -11.377  10.758  68.031  1.00  0.00    -0.307 A  
HETATM   12  C   UNL     1     -10.645   8.445  70.816  1.00  0.00    -0.240 A  
HETATM   13  C   UNL     1     -10.500  10.185  67.057  1.00  0.00    -0.302 A  
HETATM   14  C   UNL     1     -10.345  10.681  65.738  1.00  0.00    -0.287 A  
HETATM   15  C   UNL     1     -11.510  10.128  69.304  1.00  0.00    -0.168 A  
HETATM   16  C   UNL     1      -9.490  10.068  64.823  1.00  0.00    -0.366 A  
HETATM   17  C   UNL     1     -10.656   9.031  69.557  1.00  0.00    -0.225 A  
HETATM   18  C   UNL     1     -12.388  10.522  70.348  1.00  0.00    -0.409 A  
HETATM   19  C   UNL     1      -8.763   8.951  65.208  1.00  0.00    -0.220 A  
HETATM   20  C   UNL     1     -12.397   9.884  71.590  1.00  0.00    -0.496 A  
HETATM   21  C   UNL     1     -11.497   8.861  71.837  1.00  0.00    -0.442 A  
HETATM   22  C   UNL     1      -8.901   8.460  66.506  1.00  0.00    -0.172 A  
HETATM   23  C   UNL     1      -9.752   9.055  67.429  1.00  0.00    -0.168 A  
HETATM   24  N   UNL     1      -9.815   8.518  68.652  1.00  0.00    -0.165 NA 
ENDBRANCH   9  11
ENDBRANCH   4   9
BRANCH   6  25
HETATM   25  N   UNL     1     -10.422  17.464  67.818  1.00  0.00    -0.364 N  
HETATM   26  H   UNL     1     -10.677  18.020  68.634  1.00  0.00     0.000 HD 
BRANCH  25  27
HETATM   27  S   UNL     1      -9.663  18.162  66.478  1.00  0.00    -0.345 S  
HETATM   28  C   UNL     1      -8.815  19.539  67.239  1.00  0.00    -0.303 C  
HETATM   29  O   UNL     1     -10.731  18.700  65.666  1.00  0.00    -0.555 OA 
HETATM   30  O   UNL     1      -8.682  17.256  65.924  1.00  0.00    -0.528 OA 
ENDBRANCH  25  27
ENDBRANCH   6  25
ENDBRANCH   2   3
TORSDOF 5
ENDMDL
MODEL       21
REMARK 921   NORMALIZED FREE ENERGY PREDICTED BY IDOCK:   -7.25 KCAL/MOL
REMARK 922        TOTAL FREE ENERGY PREDICTED BY IDOCK:   -9.90 KCAL/MOL
REMARK 923 INTER-LIGAND FREE ENERGY PREDICTED BY IDOCK:   -9.04 KCAL/MOL
REMARK 924 INTRA-LIGAND FREE ENERGY PREDICTED BY IDOCK:   -0.86 KCAL/MOL
REMARK 927      BINDING AFFINITY PREDICTED BY RF-SCORE:    0.00 PKD
ROOT
HETATM    1  C   UNL     1     -13.761   9.316  72.195  1.00  0.00    -0.453 C  
HETATM    2  O   UNL     1     -12.938  10.318  71.588  1.00  0.00    -0.394 OA 
ENDROOT
BRANCH   2   3
HETATM    3  C   UNL     1     -11.782   9.827  71.020  1.00  0.00    -0.370 A  
HETATM    4  C   UNL     1     -11.363  10.399  69.795  1.00  0.00    -0.289 A  
HETATM    5  C   UNL     1     -10.140   9.988  69.250  1.00  0.00    -0.226 A  
HETATM    6  C   UNL     1      -9.871   8.351  71.012  1.00  0.00    -0.187 A  
HETATM    7  C   UNL     1      -9.394   8.969  69.857  1.00  0.00    -0.182 A  
HETATM    8  C   UNL     1     -11.060   8.776  71.594  1.00  0.00    -0.398 A  
BRANCH   4   9
HETATM    9  N   UNL     1     -12.192  11.331  69.138  1.00  0.00    -0.415 NA 
HETATM   10  H   UNL     1     -13.126  10.965  68.953  1.00  0.00     0.000 HD 
BRANCH   9  11
HETATM   11  C   UNL     1     -12.024  12.670  68.671  1.00  0.00    -0.223 A  
HETATM   12  C   UNL     1     -10.802  14.686  65.827  1.00  0.00    -0.326 A  
HETATM   13  C   UNL     1     -12.027  13.701  69.662  1.00  0.00    -0.402 A  
HETATM   14  C   UNL     1     -12.414  13.505  71.011  1.00  0.00    -0.451 A  
HETATM   15  C   UNL     1     -11.689  13.002  67.324  1.00  0.00    -0.429 A  
HETATM   16  C   UNL     1     -12.418  14.554  71.931  1.00  0.00    -0.406 A  
HETATM   17  C   UNL     1     -11.259  14.326  67.088  1.00  0.00    -0.322 A  
HETATM   18  C   UNL     1     -11.712  12.118  66.213  1.00  0.00    -0.389 A  
HETATM   19  C   UNL     1     -12.027  15.821  71.525  1.00  0.00    -0.506 A  
HETATM   20  C   UNL     1     -11.297  12.516  64.940  1.00  0.00    -0.351 A  
HETATM   21  C   UNL     1     -10.808  13.798  64.753  1.00  0.00    -0.410 A  
HETATM   22  C   UNL     1     -11.635  16.024  70.201  1.00  0.00    -0.324 A  
HETATM   23  C   UNL     1     -11.630  14.992  69.271  1.00  0.00    -0.315 A  
HETATM   24  N   UNL     1     -11.234  15.279  68.026  1.00  0.00    -0.315 NA 
ENDBRANCH   9  11
ENDBRANCH   4   9
BRANCH   6  25
HETATM   25  N   UNL     1      -9.201   7.234  71.597  1.00  0.00    -0.146 N  
HETATM   26  H   UNL     1      -8.398   7.358  72.212  1.00  0.00     0.000 HD 
BRANCH  25  27
HETATM   27  S   UNL     1      -9.798   5.696  71.225  1.00  0.00    -0.181 S  
HETATM   28  C   UNL     1     -10.762   5.337  72.685  1.00  0.00    -0.239 C  
HETATM   29  O   UNL     1      -8.645   4.823  71.234  1.00  0.00    -0.113 OA 
HETATM   30  O   UNL     1     -10.682   5.760  70.083  1.00  0.00    -0.281 OA 
ENDBRANCH  25  27
ENDBRANCH   6  25
ENDBRANCH   2   3
TORSDOF 5
ENDMDL
MODEL       22
REMARK 921   NORMALIZED FREE ENERGY PREDICTED BY IDOCK:   -7.21 KCAL/MOL
REMARK 922        TOTAL FREE ENERGY PREDICTED BY IDOCK:   -9.85 KCAL/MOL
REMARK 923 INTER-LIGAND FREE ENERGY PREDICTED BY IDOCK:   -9.08 KCAL/MOL
REMARK 924 INTRA-LIGAND FREE ENERGY PREDICTED BY IDOCK:   -0.77 KCAL/MOL
REMARK 927      BINDING AFFINITY PREDICTED BY RF-SCORE:    0.00 PKD
ROOT
HETATM    1  C   UNL     1     -10.085   7.974  67.579  1.00  0.00    -0.219 C  
HETATM    2  O   UNL     1     -10.061   9.237  68.252  1.00  0.00    -0.170 OA 
ENDROOT
BRANCH   2   3
HETATM    3  C   UNL     1     -10.671   9.226  69.488  1.00  0.00    -0.222 A  
HETATM    4  C   UNL     1     -11.801  10.060  69.665  1.00  0.00     0.030 A  
HETATM    5  C   UNL     1     -12.497   9.991  70.879  1.00  0.00    -0.431 A  
HETATM    6  C   UNL     1     -10.864   8.441  71.764  1.00  0.00    -0.284 A  
HETATM    7  C   UNL     1     -12.033   9.183  71.924  1.00  0.00    -0.443 A  
HETATM    8  C   UNL     1     -10.183   8.461  70.551  1.00  0.00    -0.216 A  
BRANCH   4   9
HETATM    9  N   UNL     1     -12.175  10.959  68.646  1.00  0.00    -0.810 NA 
HETATM   10  H   UNL     1     -12.882  10.571  68.020  1.00  0.00     0.000 HD 
BRANCH   9  11
HETATM   11  C   UNL     1     -11.793  12.287  68.287  1.00  0.00    -0.310 A  
HETATM   12  C   UNL     1     -11.990  15.818  69.355  1.00  0.00    -0.321 A  
HETATM   13  C   UNL     1     -11.454  12.510  66.915  1.00  0.00    -0.416 A  
HETATM   14  C   UNL     1     -11.249  11.475  65.970  1.00  0.00    -0.240 A  
HETATM   15  C   UNL     1     -11.899  13.405  69.167  1.00  0.00    -0.383 A  
HETATM   16  C   UNL     1     -10.898  11.750  64.648  1.00  0.00    -0.363 A  
HETATM   17  C   UNL     1     -11.778  14.684  68.581  1.00  0.00    -0.329 A  
HETATM   18  C   UNL     1     -12.151  13.351  70.564  1.00  0.00    -0.399 A  
HETATM   19  C   UNL     1     -10.754  13.068  64.240  1.00  0.00    -0.430 A  
HETATM   20  C   UNL     1     -12.309  14.506  71.334  1.00  0.00    -0.425 A  
HETATM   21  C   UNL     1     -12.261  15.745  70.720  1.00  0.00    -0.441 A  
HETATM   22  C   UNL     1     -10.962  14.095  65.160  1.00  0.00    -0.361 A  
HETATM   23  C   UNL     1     -11.306  13.839  66.482  1.00  0.00    -0.325 A  
HETATM   24  N   UNL     1     -11.492  14.887  67.290  1.00  0.00    -0.352 NA 
ENDBRANCH   9  11
ENDBRANCH   4   9
BRANCH   6  25
HETATM   25  N   UNL     1     -10.294   7.696  72.840  1.00  0.00    -0.291 N  
HETATM   26  H   UNL     1      -9.755   8.150  73.576  1.00  0.00     0.000 HD 
BRANCH  25  27
HETATM   27  S   UNL     1     -10.553   6.024  72.840  1.00  0.00    -0.250 S  
HETATM   28  C   UNL     1     -10.140   5.611  74.529  1.00  0.00    -0.280 C  
HETATM   29  O   UNL     1      -9.521   5.474  71.989  1.00  0.00    -0.150 OA 
HETATM   30  O   UNL     1     -11.949   5.729  72.613  1.00  0.00    -0.250 OA 
ENDBRANCH  25  27
ENDBRANCH   6  25
ENDBRANCH   2   3
TORSDOF 5
ENDMDL
MODEL       23
REMARK 921   NORMALIZED FREE ENERGY PREDICTED BY IDOCK:   -7.19 KCAL/MOL
REMARK 922        TOTAL FREE ENERGY PREDICTED BY IDOCK:   -9.83 KCAL/MOL
REMARK 923 INTER-LIGAND FREE ENERGY PREDICTED BY IDOCK:   -9.16 KCAL/MOL
REMARK 924 INTRA-LIGAND FREE ENERGY PREDICTED BY IDOCK:   -0.67 KCAL/MOL
REMARK 927      BINDING AFFINITY PREDICTED BY RF-SCORE:    0.00 PKD
ROOT
HETATM    1  C   UNL     1     -12.211   9.647  71.784  1.00  0.00    -0.384 C  
HETATM    2  O   UNL     1     -11.824  10.698  70.893  1.00  0.00    -0.332 OA 
ENDROOT
BRANCH   2   3
HETATM    3  C   UNL     1     -11.277  10.256  69.707  1.00  0.00    -0.282 A  
HETATM    4  C   UNL     1     -11.447  11.074  68.565  1.00  0.00    -0.309 A  
HETATM    5  C   UNL     1     -10.816  10.695  67.373  1.00  0.00    -0.353 A  
HETATM    6  C   UNL     1     -10.031   8.651  68.402  1.00  0.00    -0.184 A  
HETATM    7  C   UNL     1     -10.107   9.490  67.291  1.00  0.00    -0.272 A  
HETATM    8  C   UNL     1     -10.613   9.030  69.607  1.00  0.00    -0.230 A  
BRANCH   4   9
HETATM    9  N   UNL     1     -12.269  12.217  68.638  1.00  0.00    -0.210 NA 
HETATM   10  H   UNL     1     -13.264  11.987  68.621  1.00  0.00     0.000 HD 
BRANCH   9  11
HETATM   11  C   UNL     1     -12.031  13.621  68.729  1.00  0.00    -0.359 A  
HETATM   12  C   UNL     1     -10.385  16.464  67.038  1.00  0.00    -0.293 A  
HETATM   13  C   UNL     1     -12.184  14.217  70.021  1.00  0.00    -0.418 A  
HETATM   14  C   UNL     1     -12.773  13.563  71.132  1.00  0.00    -0.425 A  
HETATM   15  C   UNL     1     -11.493  14.403  67.663  1.00  0.00    -0.369 A  
HETATM   16  C   UNL     1     -12.916  14.201  72.364  1.00  0.00    -0.478 A  
HETATM   17  C   UNL     1     -11.030  15.694  67.998  1.00  0.00    -0.318 A  
HETATM   18  C   UNL     1     -11.347  13.990  66.312  1.00  0.00    -0.336 A  
HETATM   19  C   UNL     1     -12.465  15.504  72.515  1.00  0.00    -0.502 A  
HETATM   20  C   UNL     1     -10.742  14.802  65.350  1.00  0.00    -0.385 A  
HETATM   21  C   UNL     1     -10.229  16.032  65.722  1.00  0.00    -0.401 A  
HETATM   22  C   UNL     1     -11.875  16.154  71.431  1.00  0.00    -0.490 A  
HETATM   23  C   UNL     1     -11.730  15.535  70.196  1.00  0.00    -0.347 A  
HETATM   24  N   UNL     1     -11.147  16.235  69.216  1.00  0.00    -0.323 NA 
ENDBRANCH   9  11
ENDBRANCH   4   9
BRANCH   6  25
HETATM   25  N   UNL     1      -9.418   7.364  68.329  1.00  0.00    -0.142 N  
HETATM   26  H   UNL     1      -8.407   7.250  68.403  1.00  0.00     0.000 HD 
BRANCH  25  27
HETATM   27  S   UNL     1     -10.441   6.034  68.117  1.00  0.00    -0.258 S  
HETATM   28  C   UNL     1      -9.264   4.755  67.702  1.00  0.00    -0.128 C  
HETATM   29  O   UNL     1     -11.210   6.325  66.927  1.00  0.00    -0.335 OA 
HETATM   30  O   UNL     1     -11.088   5.689  69.362  1.00  0.00    -0.294 OA 
ENDBRANCH  25  27
ENDBRANCH   6  25
ENDBRANCH   2   3
TORSDOF 5
ENDMDL
MODEL       24
REMARK 921   NORMALIZED FREE ENERGY PREDICTED BY IDOCK:   -7.17 KCAL/MOL
REMARK 922        TOTAL FREE ENERGY PREDICTED BY IDOCK:   -9.80 KCAL/MOL
REMARK 923 INTER-LIGAND FREE ENERGY PREDICTED BY IDOCK:   -9.03 KCAL/MOL
REMARK 924 INTRA-LIGAND FREE ENERGY PREDICTED BY IDOCK:   -0.78 KCAL/MOL
REMARK 927      BINDING AFFINITY PREDICTED BY RF-SCORE:    0.00 PKD
ROOT
HETATM    1  C   UNL     1     -12.270  14.157  70.162  1.00  0.00    -0.351 C  
HETATM    2  O   UNL     1     -11.743  12.832  70.040  1.00  0.00    -0.288 OA 
ENDROOT
BRANCH   2   3
HETATM    3  C   UNL     1     -11.198  12.555  68.804  1.00  0.00    -0.273 A  
HETATM    4  C   UNL     1     -10.490  11.338  68.661  1.00  0.00    -0.203 A  
HETATM    5  C   UNL     1     -10.014  10.988  67.391  1.00  0.00    -0.209 A  
HETATM    6  C   UNL     1     -10.774  13.102  66.490  1.00  0.00    -0.279 A  
HETATM    7  C   UNL     1     -10.158  11.865  66.307  1.00  0.00    -0.249 A  
HETATM    8  C   UNL     1     -11.294  13.449  67.733  1.00  0.00    -0.325 A  
BRANCH   4   9
HETATM    9  N   UNL     1     -10.247  10.531  69.791  1.00  0.00    -0.409 NA 
HETATM   10  H   UNL     1      -9.719  11.019  70.516  1.00  0.00     0.000 HD 
BRANCH   9  11
HETATM   11  C   UNL     1     -10.571   9.189  70.155  1.00  0.00    -0.228 A  
HETATM   12  C   UNL     1      -9.924   5.651  69.309  1.00  0.00    -0.251 A  
HETATM   13  C   UNL     1     -11.770   8.999  70.911  1.00  0.00    -0.327 A  
HETATM   14  C   UNL     1     -12.507  10.052  71.509  1.00  0.00    -0.516 A  
HETATM   15  C   UNL     1      -9.869   8.047  69.666  1.00  0.00    -0.184 A  
HETATM   16  C   UNL     1     -13.660   9.806  72.255  1.00  0.00    -0.397 A  
HETATM   17  C   UNL     1     -10.488   6.793  69.864  1.00  0.00    -0.211 A  
HETATM   18  C   UNL     1      -8.632   8.057  68.968  1.00  0.00    -0.137 A  
HETATM   19  C   UNL     1     -14.106   8.502  72.413  1.00  0.00    -0.391 A  
HETATM   20  C   UNL     1      -8.056   6.890  68.463  1.00  0.00    -0.120 A  
HETATM   21  C   UNL     1      -8.721   5.685  68.607  1.00  0.00    -0.106 A  
HETATM   22  C   UNL     1     -13.393   7.459  71.822  1.00  0.00    -0.373 A  
HETATM   23  C   UNL     1     -12.241   7.686  71.080  1.00  0.00    -0.285 A  
HETATM   24  N   UNL     1     -11.627   6.624  70.546  1.00  0.00    -0.370 NA 
ENDBRANCH   9  11
ENDBRANCH   4   9
BRANCH   6  25
HETATM   25  N   UNL     1     -10.839  14.070  65.443  1.00  0.00    -0.313 N  
HETATM   26  H   UNL     1     -10.061  14.701  65.252  1.00  0.00     0.000 HD 
BRANCH  25  27
HETATM   27  S   UNL     1     -12.263  14.126  64.533  1.00  0.00    -0.418 S  
HETATM   28  C   UNL     1     -11.960  12.834  63.337  1.00  0.00    -0.535 C  
HETATM   29  O   UNL     1     -12.224  15.390  63.833  1.00  0.00    -0.607 OA 
HETATM   30  O   UNL     1     -13.398  13.755  65.347  1.00  0.00    -0.669 OA 
ENDBRANCH  25  27
ENDBRANCH   6  25
ENDBRANCH   2   3
TORSDOF 5
ENDMDL
MODEL       25
REMARK 921   NORMALIZED FREE ENERGY PREDICTED BY IDOCK:   -7.14 KCAL/MOL
REMARK 922        TOTAL FREE ENERGY PREDICTED BY IDOCK:   -9.76 KCAL/MOL
REMARK 923 INTER-LIGAND FREE ENERGY PREDICTED BY IDOCK:  -10.44 KCAL/MOL
REMARK 924 INTRA-LIGAND FREE ENERGY PREDICTED BY IDOCK:    0.67 KCAL/MOL
REMARK 927      BINDING AFFINITY PREDICTED BY RF-SCORE:    0.00 PKD
ROOT
HETATM    1  C   UNL     1     -13.821  15.696  72.665  1.00  0.00    -0.564 C  
HETATM    2  O   UNL     1     -13.669  15.463  71.261  1.00  0.00    -0.498 OA 
ENDROOT
BRANCH   2   3
HETATM    3  C   UNL     1     -13.151  14.224  70.949  1.00  0.00    -0.304 A  
HETATM    4  C   UNL     1     -12.390  14.116  69.760  1.00  0.00    -0.299 A  
HETATM    5  C   UNL     1     -11.770  12.893  69.474  1.00  0.00    -0.387 A  
HETATM    6  C   UNL     1     -12.802  11.881  71.415  1.00  0.00    -0.307 A  
HETATM    7  C   UNL     1     -11.971  11.779  70.300  1.00  0.00    -0.429 A  
HETATM    8  C   UNL     1     -13.391  13.098  71.741  1.00  0.00    -0.477 A  
BRANCH   4   9
HETATM    9  N   UNL     1     -12.305  15.214  68.880  1.00  0.00    -0.603 NA 
HETATM   10  H   UNL     1     -13.011  15.926  69.071  1.00  0.00     0.000 HD 
BRANCH   9  11
HETATM   11  C   UNL     1     -11.459  15.559  67.783  1.00  0.00    -0.243 A  
HETATM   12  C   UNL     1      -9.307  18.239  66.429  1.00  0.00    -0.280 A  
HETATM   13  C   UNL     1     -11.636  14.813  66.576  1.00  0.00    -0.306 A  
HETATM   14  C   UNL     1     -12.410  13.630  66.479  1.00  0.00    -0.412 A  
HETATM   15  C   UNL     1     -10.593  16.693  67.779  1.00  0.00    -0.342 A  
HETATM   16  C   UNL     1     -12.531  12.931  65.278  1.00  0.00    -0.552 A  
HETATM   17  C   UNL     1     -10.059  17.075  66.529  1.00  0.00    -0.314 A  
HETATM   18  C   UNL     1     -10.251  17.491  68.903  1.00  0.00    -0.353 A  
HETATM   19  C   UNL     1     -11.887  13.404  64.144  1.00  0.00    -0.492 A  
HETATM   20  C   UNL     1      -9.449  18.629  68.789  1.00  0.00    -0.358 A  
HETATM   21  C   UNL     1      -9.001  19.023  67.540  1.00  0.00    -0.322 A  
HETATM   22  C   UNL     1     -11.130  14.573  64.225  1.00  0.00    -0.024 A  
HETATM   23  C   UNL     1     -10.995  15.279  65.415  1.00  0.00    -0.372 A  
HETATM   24  N   UNL     1     -10.254  16.392  65.396  1.00  0.00    -0.588 NA 
ENDBRANCH   9  11
ENDBRANCH   4   9
BRANCH   6  25
HETATM   25  N   UNL     1     -13.125  10.744  72.216  1.00  0.00    -0.504 N  
HETATM   26  H   UNL     1     -13.637  10.839  73.092  1.00  0.00     0.000 HD 
BRANCH  25  27
HETATM   27  S   UNL     1     -12.623   9.233  71.647  1.00  0.00    -0.391 S  
HETATM   28  C   UNL     1     -14.147   8.304  71.740  1.00  0.00    -0.437 C  
HETATM   29  O   UNL     1     -11.731   8.716  72.661  1.00  0.00    -0.325 OA 
HETATM   30  O   UNL     1     -12.213   9.324  70.264  1.00  0.00     0.047 OA 
ENDBRANCH  25  27
ENDBRANCH   6  25
ENDBRANCH   2   3
TORSDOF 5
ENDMDL
MODEL       26
REMARK 921   NORMALIZED FREE ENERGY PREDICTED BY IDOCK:   -7.11 KCAL/MOL
REMARK 922        TOTAL FREE ENERGY PREDICTED BY IDOCK:   -9.72 KCAL/MOL
REMARK 923 INTER-LIGAND FREE ENERGY PREDICTED BY IDOCK:   -9.11 KCAL/MOL
REMARK 924 INTRA-LIGAND FREE ENERGY PREDICTED BY IDOCK:   -0.61 KCAL/MOL
REMARK 927      BINDING AFFINITY PREDICTED BY RF-SCORE:    0.00 PKD
ROOT
HETATM    1  C   UNL     1     -11.361  16.020  70.605  1.00  0.00    -0.399 C  
HETATM    2  O   UNL     1     -12.073  15.508  69.474  1.00  0.00    -0.344 OA 
ENDROOT
BRANCH   2   3
HETATM    3  C   UNL     1     -11.473  15.778  68.262  1.00  0.00    -0.337 A  
HETATM    4  C   UNL     1     -11.480  14.753  67.287  1.00  0.00    -0.366 A  
HETATM    5  C   UNL     1     -10.966  15.037  66.016  1.00  0.00    -0.334 A  
HETATM    6  C   UNL     1     -10.294  17.243  66.748  1.00  0.00    -0.308 A  
HETATM    7  C   UNL     1     -10.378  16.279  65.744  1.00  0.00    -0.393 A  
HETATM    8  C   UNL     1     -10.839  16.997  68.003  1.00  0.00    -0.330 A  
BRANCH   4   9
HETATM    9  N   UNL     1     -11.962  13.471  67.622  1.00  0.00    -0.354 NA 
HETATM   10  H   UNL     1     -12.973  13.456  67.765  1.00  0.00     0.000 HD 
BRANCH   9  11
HETATM   11  C   UNL     1     -11.362  12.188  67.807  1.00  0.00    -0.307 A  
HETATM   12  C   UNL     1      -9.849   9.337  66.010  1.00  0.00    -0.363 A  
HETATM   13  C   UNL     1     -11.631  11.526  69.046  1.00  0.00    -0.383 A  
HETATM   14  C   UNL     1     -12.240  12.149  70.164  1.00  0.00    -0.308 A  
HETATM   15  C   UNL     1     -10.673  11.482  66.777  1.00  0.00    -0.311 A  
HETATM   16  C   UNL     1     -12.459  11.459  71.357  1.00  0.00    -0.370 A  
HETATM   17  C   UNL     1     -10.408  10.116  67.016  1.00  0.00    -0.244 A  
HETATM   18  C   UNL     1     -10.264  12.014  65.525  1.00  0.00    -0.290 A  
HETATM   19  C   UNL     1     -12.081  10.128  71.455  1.00  0.00    -0.442 A  
HETATM   20  C   UNL     1      -9.656  11.224  64.547  1.00  0.00    -0.260 A  
HETATM   21  C   UNL     1      -9.477   9.871  64.779  1.00  0.00    -0.356 A  
HETATM   22  C   UNL     1     -11.488   9.503  70.359  1.00  0.00    -0.297 A  
HETATM   23  C   UNL     1     -11.258  10.176  69.165  1.00  0.00    -0.183 A  
HETATM   24  N   UNL     1     -10.690   9.493  68.166  1.00  0.00    -0.220 NA 
ENDBRANCH   9  11
ENDBRANCH   4   9
BRANCH   6  25
HETATM   25  N   UNL     1      -9.602  18.476  66.548  1.00  0.00    -0.319 N  
HETATM   26  H   UNL     1     -10.094  19.322  66.260  1.00  0.00     0.000 HD 
BRANCH  25  27
HETATM   27  S   UNL     1      -7.931  18.473  66.810  1.00  0.00    -0.260 S  
HETATM   28  C   UNL     1      -7.679  20.122  67.449  1.00  0.00    -0.306 C  
HETATM   29  O   UNL     1      -7.335  18.416  65.494  1.00  0.00    -0.534 OA 
HETATM   30  O   UNL     1      -7.582  17.515  67.834  1.00  0.00    -0.195 OA 
ENDBRANCH  25  27
ENDBRANCH   6  25
ENDBRANCH   2   3
TORSDOF 5
ENDMDL
MODEL       27
REMARK 921   NORMALIZED FREE ENERGY PREDICTED BY IDOCK:   -7.10 KCAL/MOL
REMARK 922        TOTAL FREE ENERGY PREDICTED BY IDOCK:   -9.71 KCAL/MOL
REMARK 923 INTER-LIGAND FREE ENERGY PREDICTED BY IDOCK:   -8.90 KCAL/MOL
REMARK 924 INTRA-LIGAND FREE ENERGY PREDICTED BY IDOCK:   -0.81 KCAL/MOL
REMARK 927      BINDING AFFINITY PREDICTED BY RF-SCORE:    0.00 PKD
ROOT
HETATM    1  C   UNL     1     -14.353   7.505  71.493  1.00  0.00    -0.458 C  
HETATM    2  O   UNL     1     -13.638   8.745  71.524  1.00  0.00    -0.362 OA 
ENDROOT
BRANCH   2   3
HETATM    3  C   UNL     1     -12.283   8.607  71.740  1.00  0.00    -0.343 A  
HETATM    4  C   UNL     1     -11.411   9.355  70.913  1.00  0.00    -0.316 A  
HETATM    5  C   UNL     1     -10.037   9.309  71.179  1.00  0.00    -0.374 A  
HETATM    6  C   UNL     1     -10.397   7.670  72.921  1.00  0.00    -0.322 A  
HETATM    7  C   UNL     1      -9.530   8.472  72.181  1.00  0.00    -0.375 A  
HETATM    8  C   UNL     1     -11.769   7.735  72.704  1.00  0.00    -0.364 A  
BRANCH   4   9
HETATM    9  N   UNL     1     -11.933  10.092  69.831  1.00  0.00    -0.467 NA 
HETATM   10  H   UNL     1     -12.898   9.841  69.613  1.00  0.00     0.000 HD 
BRANCH   9  11
HETATM   11  C   UNL     1     -11.422  11.109  68.968  1.00  0.00    -0.296 A  
HETATM   12  C   UNL     1     -11.559  14.730  68.250  1.00  0.00    -0.348 A  
HETATM   13  C   UNL     1     -10.871  10.677  67.721  1.00  0.00    -0.338 A  
HETATM   14  C   UNL     1     -10.591   9.324  67.402  1.00  0.00    -0.324 A  
HETATM   15  C   UNL     1     -11.588  12.505  69.208  1.00  0.00    -0.378 A  
HETATM   16  C   UNL     1     -10.033   8.963  66.176  1.00  0.00    -0.290 A  
HETATM   17  C   UNL     1     -11.304  13.370  68.128  1.00  0.00    -0.287 A  
HETATM   18  C   UNL     1     -12.047  13.101  70.413  1.00  0.00    -0.392 A  
HETATM   19  C   UNL     1      -9.750   9.944  65.238  1.00  0.00    -0.383 A  
HETATM   20  C   UNL     1     -12.247  14.478  70.531  1.00  0.00    -0.399 A  
HETATM   21  C   UNL     1     -12.032  15.293  69.433  1.00  0.00    -0.342 A  
HETATM   22  C   UNL     1     -10.028  11.277  65.537  1.00  0.00    -0.293 A  
HETATM   23  C   UNL     1     -10.580  11.656  66.755  1.00  0.00    -0.244 A  
HETATM   24  N   UNL     1     -10.818  12.957  66.952  1.00  0.00    -0.254 NA 
ENDBRANCH   9  11
ENDBRANCH   4   9
BRANCH   6  25
HETATM   25  N   UNL     1      -9.914   6.720  73.872  1.00  0.00    -0.276 N  
HETATM   26  H   UNL     1      -9.761   6.974  74.847  1.00  0.00     0.000 HD 
BRANCH  25  27
HETATM   27  S   UNL     1      -9.605   5.156  73.308  1.00  0.00    -0.141 S  
HETATM   28  C   UNL     1     -11.234   4.426  73.404  1.00  0.00    -0.295 C  
HETATM   29  O   UNL     1      -8.786   4.534  74.325  1.00  0.00    -0.106 OA 
HETATM   30  O   UNL     1      -9.188   5.189  71.925  1.00  0.00    -0.136 OA 
ENDBRANCH  25  27
ENDBRANCH   6  25
ENDBRANCH   2   3
TORSDOF 5
ENDMDL
MODEL       28
REMARK 921   NORMALIZED FREE ENERGY PREDICTED BY IDOCK:   -7.10 KCAL/MOL
REMARK 922        TOTAL FREE ENERGY PREDICTED BY IDOCK:   -9.71 KCAL/MOL
REMARK 923 INTER-LIGAND FREE ENERGY PREDICTED BY IDOCK:   -9.05 KCAL/MOL
REMARK 924 INTRA-LIGAND FREE ENERGY PREDICTED BY IDOCK:   -0.65 KCAL/MOL
REMARK 927      BINDING AFFINITY PREDICTED BY RF-SCORE:    0.00 PKD
ROOT
HETATM    1  C   UNL     1      -8.346  10.859  68.082  1.00  0.00    -0.123 C  
HETATM    2  O   UNL     1      -9.771  10.729  68.136  1.00  0.00    -0.152 OA 
ENDROOT
BRANCH   2   3
HETATM    3  C   UNL     1     -10.252  10.318  69.361  1.00  0.00    -0.235 A  
HETATM    4  C   UNL     1     -11.546  10.753  69.733  1.00  0.00    -0.317 A  
HETATM    5  C   UNL     1     -12.096  10.268  70.926  1.00  0.00    -0.468 A  
HETATM    6  C   UNL     1     -10.037   9.105  71.438  1.00  0.00    -0.322 A  
HETATM    7  C   UNL     1     -11.346   9.444  71.776  1.00  0.00    -0.387 A  
HETATM    8  C   UNL     1      -9.489   9.539  70.236  1.00  0.00    -0.307 A  
BRANCH   4   9
HETATM    9  N   UNL     1     -12.232  11.682  68.924  1.00  0.00    -0.377 NA 
HETATM   10  H   UNL     1     -13.085  11.295  68.518  1.00  0.00     0.000 HD 
BRANCH   9  11
HETATM   11  C   UNL     1     -12.009  13.040  68.544  1.00  0.00    -0.261 A  
HETATM   12  C   UNL     1     -10.774  15.184  65.800  1.00  0.00    -0.359 A  
HETATM   13  C   UNL     1     -11.924  13.999  69.602  1.00  0.00    -0.393 A  
HETATM   14  C   UNL     1     -12.277  13.729  70.948  1.00  0.00    -0.427 A  
HETATM   15  C   UNL     1     -11.701  13.447  67.211  1.00  0.00    -0.424 A  
HETATM   16  C   UNL     1     -12.195  14.710  71.936  1.00  0.00    -0.390 A  
HETATM   17  C   UNL     1     -11.208  14.761  67.050  1.00  0.00    -0.345 A  
HETATM   18  C   UNL     1     -11.807  12.645  66.044  1.00  0.00    -0.492 A  
HETATM   19  C   UNL     1     -11.749  15.981  71.602  1.00  0.00    -0.583 A  
HETATM   20  C   UNL     1     -11.413  13.109  64.787  1.00  0.00    -0.355 A  
HETATM   21  C   UNL     1     -10.863  14.374  64.670  1.00  0.00    -0.363 A  
HETATM   22  C   UNL     1     -11.391  16.255  70.283  1.00  0.00    -0.299 A  
HETATM   23  C   UNL     1     -11.472  15.291  69.285  1.00  0.00    -0.320 A  
HETATM   24  N   UNL     1     -11.101  15.644  68.049  1.00  0.00    -0.325 NA 
ENDBRANCH   9  11
ENDBRANCH   4   9
BRANCH   6  25
HETATM   25  N   UNL     1      -9.201   8.364  72.327  1.00  0.00    -0.238 N  
HETATM   26  H   UNL     1      -8.481   8.821  72.886  1.00  0.00     0.000 HD 
BRANCH  25  27
HETATM   27  S   UNL     1      -9.456   6.695  72.412  1.00  0.00    -0.146 S  
HETATM   28  C   UNL     1     -10.333   6.558  73.963  1.00  0.00    -0.340 C  
HETATM   29  O   UNL     1      -8.145   6.113  72.598  1.00  0.00    -0.104 OA 
HETATM   30  O   UNL     1     -10.325   6.260  71.342  1.00  0.00    -0.202 OA 
ENDBRANCH  25  27
ENDBRANCH   6  25
ENDBRANCH   2   3
TORSDOF 5
ENDMDL
MODEL       29
REMARK 921   NORMALIZED FREE ENERGY PREDICTED BY IDOCK:   -7.09 KCAL/MOL
REMARK 922        TOTAL FREE ENERGY PREDICTED BY IDOCK:   -9.70 KCAL/MOL
REMARK 923 INTER-LIGAND FREE ENERGY PREDICTED BY IDOCK:   -9.23 KCAL/MOL
REMARK 924 INTRA-LIGAND FREE ENERGY PREDICTED BY IDOCK:   -0.47 KCAL/MOL
REMARK 927      BINDING AFFINITY PREDICTED BY RF-SCORE:    0.00 PKD
ROOT
HETATM    1  C   UNL     1      -7.854  15.253  69.353  1.00  0.00    -0.227 C  
HETATM    2  O   UNL     1      -9.119  15.899  69.532  1.00  0.00    -0.256 OA 
ENDROOT
BRANCH   2   3
HETATM    3  C   UNL     1      -9.320  16.981  68.702  1.00  0.00    -0.270 A  
HETATM    4  C   UNL     1     -10.611  17.146  68.146  1.00  0.00    -0.380 A  
HETATM    5  C   UNL     1     -10.867  18.291  67.381  1.00  0.00    -0.281 A  
HETATM    6  C   UNL     1      -8.554  18.976  67.577  1.00  0.00    -0.286 A  
HETATM    7  C   UNL     1      -9.843  19.206  67.099  1.00  0.00    -0.411 A  
HETATM    8  C   UNL     1      -8.290  17.868  68.376  1.00  0.00    -0.307 A  
BRANCH   4   9
HETATM    9  N   UNL     1     -11.589  16.149  68.338  1.00  0.00    -0.310 NA 
HETATM   10  H   UNL     1     -12.514  16.439  68.019  1.00  0.00     0.000 HD 
BRANCH   9  11
HETATM   11  C   UNL     1     -11.583  14.827  68.877  1.00  0.00    -0.313 A  
HETATM   12  C   UNL     1     -11.193  11.264  67.982  1.00  0.00    -0.351 A  
HETATM   13  C   UNL     1     -12.217  14.647  70.146  1.00  0.00    -0.391 A  
HETATM   14  C   UNL     1     -12.626  15.712  70.987  1.00  0.00    -0.515 A  
HETATM   15  C   UNL     1     -11.143  13.680  68.151  1.00  0.00    -0.281 A  
HETATM   16  C   UNL     1     -13.222  15.477  72.227  1.00  0.00    -0.539 A  
HETATM   17  C   UNL     1     -11.482  12.421  68.695  1.00  0.00    -0.303 A  
HETATM   18  C   UNL     1     -10.434  13.687  66.921  1.00  0.00    -0.272 A  
HETATM   19  C   UNL     1     -13.429  14.173  72.650  1.00  0.00    -0.634 A  
HETATM   20  C   UNL     1     -10.107  12.508  66.246  1.00  0.00    -0.264 A  
HETATM   21  C   UNL     1     -10.517  11.292  66.764  1.00  0.00    -0.291 A  
HETATM   22  C   UNL     1     -13.038  13.117  71.827  1.00  0.00    -0.478 A  
HETATM   23  C   UNL     1     -12.439  13.332  70.591  1.00  0.00    -0.298 A  
HETATM   24  N   UNL     1     -12.103  12.259  69.868  1.00  0.00    -0.282 NA 
ENDBRANCH   9  11
ENDBRANCH   4   9
BRANCH   6  25
HETATM   25  N   UNL     1      -7.460  19.819  67.218  1.00  0.00    -0.242 N  
HETATM   26  H   UNL     1      -7.393  20.779  67.558  1.00  0.00     0.000 HD 
BRANCH  25  27
HETATM   27  S   UNL     1      -6.277  19.159  66.206  1.00  0.00    -0.178 S  
HETATM   28  C   UNL     1      -5.680  20.622  65.372  1.00  0.00    -0.214 C  
HETATM   29  O   UNL     1      -6.999  18.365  65.236  1.00  0.00    -0.534 OA 
HETATM   30  O   UNL     1      -5.201  18.593  66.987  1.00  0.00    -0.129 OA 
ENDBRANCH  25  27
ENDBRANCH   6  25
ENDBRANCH   2   3
TORSDOF 5
ENDMDL
MODEL       30
REMARK 921   NORMALIZED FREE ENERGY PREDICTED BY IDOCK:   -7.06 KCAL/MOL
REMARK 922        TOTAL FREE ENERGY PREDICTED BY IDOCK:   -9.65 KCAL/MOL
REMARK 923 INTER-LIGAND FREE ENERGY PREDICTED BY IDOCK:   -8.95 KCAL/MOL
REMARK 924 INTRA-LIGAND FREE ENERGY PREDICTED BY IDOCK:   -0.70 KCAL/MOL
REMARK 927      BINDING AFFINITY PREDICTED BY RF-SCORE:    0.00 PKD
ROOT
HETATM    1  C   UNL     1     -10.418   8.295  67.009  1.00  0.00    -0.314 C  
HETATM    2  O   UNL     1     -10.368   9.451  67.853  1.00  0.00    -0.199 OA 
ENDROOT
BRANCH   2   3
HETATM    3  C   UNL     1     -10.696   9.200  69.169  1.00  0.00    -0.172 A  
HETATM    4  C   UNL     1     -11.634  10.064  69.783  1.00  0.00    -0.134 A  
HETATM    5  C   UNL     1     -12.059   9.770  71.085  1.00  0.00    -0.460 A  
HETATM    6  C   UNL     1     -10.507   7.918  71.206  1.00  0.00    -0.203 A  
HETATM    7  C   UNL     1     -11.500   8.699  71.795  1.00  0.00    -0.394 A  
HETATM    8  C   UNL     1     -10.104   8.165  69.898  1.00  0.00    -0.195 A  
BRANCH   4   9
HETATM    9  N   UNL     1     -12.088  11.208  69.095  1.00  0.00    -0.445 NA 
HETATM   10  H   UNL     1     -12.682  10.977  68.298  1.00  0.00     0.000 HD 
BRANCH   9  11
HETATM   11  C   UNL     1     -11.909  12.615  69.258  1.00  0.00    -0.302 A  
HETATM   12  C   UNL     1     -13.073  15.548  71.179  1.00  0.00    -0.573 A  
HETATM   13  C   UNL     1     -11.299  13.315  68.170  1.00  0.00    -0.323 A  
HETATM   14  C   UNL     1     -10.664  12.681  67.074  1.00  0.00    -0.268 A  
HETATM   15  C   UNL     1     -12.450  13.359  70.348  1.00  0.00    -0.322 A  
HETATM   16  C   UNL     1     -10.067  13.416  66.049  1.00  0.00    -0.308 A  
HETATM   17  C   UNL     1     -12.453  14.765  70.213  1.00  0.00    -0.340 A  
HETATM   18  C   UNL     1     -13.018  12.820  71.533  1.00  0.00    -0.388 A  
HETATM   19  C   UNL     1     -10.099  14.802  66.095  1.00  0.00    -0.312 A  
HETATM   20  C   UNL     1     -13.590  13.629  72.517  1.00  0.00    -0.675 A  
HETATM   21  C   UNL     1     -13.647  14.999  72.323  1.00  0.00    -0.547 A  
HETATM   22  C   UNL     1     -10.729  15.437  67.165  1.00  0.00    -0.314 A  
HETATM   23  C   UNL     1     -11.324  14.721  68.196  1.00  0.00    -0.307 A  
HETATM   24  N   UNL     1     -11.910  15.415  69.178  1.00  0.00    -0.341 NA 
ENDBRANCH   9  11
ENDBRANCH   4   9
BRANCH   6  25
HETATM   25  N   UNL     1      -9.831   6.892  71.933  1.00  0.00    -0.165 N  
HETATM   26  H   UNL     1      -9.877   5.915  71.642  1.00  0.00     0.000 HD 
BRANCH  25  27
HETATM   27  S   UNL     1      -8.949   7.365  73.296  1.00  0.00    -0.186 S  
HETATM   28  C   UNL     1      -7.604   6.190  73.263  1.00  0.00    -0.096 C  
HETATM   29  O   UNL     1      -9.787   7.041  74.429  1.00  0.00    -0.270 OA 
HETATM   30  O   UNL     1      -8.414   8.695  73.115  1.00  0.00    -0.398 OA 
ENDBRANCH  25  27
ENDBRANCH   6  25
ENDBRANCH   2   3
TORSDOF 5
ENDMDL
MODEL       31
REMARK 921   NORMALIZED FREE ENERGY PREDICTED BY IDOCK:   -7.04 KCAL/MOL
REMARK 922        TOTAL FREE ENERGY PREDICTED BY IDOCK:   -9.63 KCAL/MOL
REMARK 923 INTER-LIGAND FREE ENERGY PREDICTED BY IDOCK:   -8.88 KCAL/MOL
REMARK 924 INTRA-LIGAND FREE ENERGY PREDICTED BY IDOCK:   -0.75 KCAL/MOL
REMARK 927      BINDING AFFINITY PREDICTED BY RF-SCORE:    0.00 PKD
ROOT
HETATM    1  C   UNL     1      -7.139  11.898  67.417  1.00  0.00    -0.129 C  
HETATM    2  O   UNL     1      -8.140  11.536  68.375  1.00  0.00    -0.136 OA 
ENDROOT
BRANCH   2   3
HETATM    3  C   UNL     1      -9.412  11.952  68.043  1.00  0.00    -0.197 A  
HETATM    4  C   UNL     1     -10.475  11.528  68.875  1.00  0.00    -0.187 A  
HETATM    5  C   UNL     1     -11.761  12.019  68.618  1.00  0.00    -0.380 A  
HETATM    6  C   UNL     1     -10.960  13.169  66.645  1.00  0.00    -0.283 A  
HETATM    7  C   UNL     1     -12.004  12.840  67.509  1.00  0.00    -0.342 A  
HETATM    8  C   UNL     1      -9.667  12.729  66.909  1.00  0.00    -0.234 A  
BRANCH   4   9
HETATM    9  N   UNL     1     -10.228  10.601  69.909  1.00  0.00    -0.437 NA 
HETATM   10  H   UNL     1      -9.683  11.001  70.673  1.00  0.00     0.000 HD 
BRANCH   9  11
HETATM   11  C   UNL     1     -10.566   9.232  70.132  1.00  0.00    -0.231 A  
HETATM   12  C   UNL     1      -9.912   5.789  68.964  1.00  0.00    -0.222 A  
HETATM   13  C   UNL     1     -11.786   8.978  70.836  1.00  0.00    -0.327 A  
HETATM   14  C   UNL     1     -12.534   9.972  71.514  1.00  0.00    -0.516 A  
HETATM   15  C   UNL     1      -9.857   8.138  69.553  1.00  0.00    -0.181 A  
HETATM   16  C   UNL     1     -13.706   9.662  72.203  1.00  0.00    -0.399 A  
HETATM   17  C   UNL     1     -10.486   6.875  69.613  1.00  0.00    -0.218 A  
HETATM   18  C   UNL     1      -8.603   8.208  68.891  1.00  0.00    -0.130 A  
HETATM   19  C   UNL     1     -14.162   8.352  72.222  1.00  0.00    -0.436 A  
HETATM   20  C   UNL     1      -8.017   7.092  68.289  1.00  0.00    -0.123 A  
HETATM   21  C   UNL     1      -8.691   5.883  68.298  1.00  0.00    -0.112 A  
HETATM   22  C   UNL     1     -13.438   7.367  71.551  1.00  0.00    -0.445 A  
HETATM   23  C   UNL     1     -12.266   7.657  70.864  1.00  0.00    -0.168 A  
HETATM   24  N   UNL     1     -11.643   6.648  70.246  1.00  0.00    -0.393 NA 
ENDBRANCH   9  11
ENDBRANCH   4   9
BRANCH   6  25
HETATM   25  N   UNL     1     -11.184  13.906  65.444  1.00  0.00    -0.300 N  
HETATM   26  H   UNL     1     -10.807  14.845  65.316  1.00  0.00     0.000 HD 
BRANCH  25  27
HETATM   27  S   UNL     1     -12.103  13.155  64.239  1.00  0.00    -0.421 S  
HETATM   28  C   UNL     1     -10.854  12.186  63.406  1.00  0.00    -0.414 C  
HETATM   29  O   UNL     1     -12.505  14.215  63.342  1.00  0.00    -0.797 OA 
HETATM   30  O   UNL     1     -13.074  12.261  64.828  1.00  0.00    -0.724 OA 
ENDBRANCH  25  27
ENDBRANCH   6  25
ENDBRANCH   2   3
TORSDOF 5
ENDMDL
MODEL       32
REMARK 921   NORMALIZED FREE ENERGY PREDICTED BY IDOCK:   -7.04 KCAL/MOL
REMARK 922        TOTAL FREE ENERGY PREDICTED BY IDOCK:   -9.63 KCAL/MOL
REMARK 923 INTER-LIGAND FREE ENERGY PREDICTED BY IDOCK:   -8.71 KCAL/MOL
REMARK 924 INTRA-LIGAND FREE ENERGY PREDICTED BY IDOCK:   -0.92 KCAL/MOL
REMARK 927      BINDING AFFINITY PREDICTED BY RF-SCORE:    0.00 PKD
ROOT
HETATM    1  C   UNL     1     -11.822  13.357  63.825  1.00  0.00    -0.431 C  
HETATM    2  O   UNL     1     -12.307  14.118  64.936  1.00  0.00    -0.421 OA 
ENDROOT
BRANCH   2   3
HETATM    3  C   UNL     1     -11.313  14.651  65.729  1.00  0.00    -0.340 A  
HETATM    4  C   UNL     1     -10.912  13.906  66.863  1.00  0.00    -0.295 A  
HETATM    5  C   UNL     1      -9.837  14.378  67.626  1.00  0.00    -0.224 A  
HETATM    6  C   UNL     1      -9.704  16.372  66.260  1.00  0.00    -0.308 A  
HETATM    7  C   UNL     1      -9.231  15.606  67.325  1.00  0.00    -0.214 A  
HETATM    8  C   UNL     1     -10.741  15.899  65.463  1.00  0.00    -0.386 A  
BRANCH   4   9
HETATM    9  N   UNL     1     -11.618  12.739  67.220  1.00  0.00    -0.340 NA 
HETATM   10  H   UNL     1     -12.554  12.706  66.814  1.00  0.00     0.000 HD 
BRANCH   9  11
HETATM   11  C   UNL     1     -11.324  11.592  68.018  1.00  0.00    -0.296 A  
HETATM   12  C   UNL     1     -10.196   8.078  67.855  1.00  0.00    -0.267 A  
HETATM   13  C   UNL     1     -11.889  11.562  69.332  1.00  0.00    -0.417 A  
HETATM   14  C   UNL     1     -12.505  12.674  69.958  1.00  0.00    -0.051 A  
HETATM   15  C   UNL     1     -10.660  10.432  67.520  1.00  0.00    -0.312 A  
HETATM   16  C   UNL     1     -13.021  12.593  71.251  1.00  0.00    -0.306 A  
HETATM   17  C   UNL     1     -10.716   9.276  68.330  1.00  0.00    -0.145 A  
HETATM   18  C   UNL     1      -9.984  10.321  66.276  1.00  0.00    -0.295 A  
HETATM   19  C   UNL     1     -12.940  11.394  71.945  1.00  0.00    -0.466 A  
HETATM   20  C   UNL     1      -9.422   9.119  65.841  1.00  0.00    -0.326 A  
HETATM   21  C   UNL     1      -9.558   7.983  66.620  1.00  0.00    -0.297 A  
HETATM   22  C   UNL     1     -12.344  10.290  71.335  1.00  0.00    -0.502 A  
HETATM   23  C   UNL     1     -11.821  10.355  70.050  1.00  0.00    -0.273 A  
HETATM   24  N   UNL     1     -11.273   9.244  69.545  1.00  0.00    -0.076 NA 
ENDBRANCH   9  11
ENDBRANCH   4   9
BRANCH   6  25
HETATM   25  N   UNL     1      -9.193  17.677  65.990  1.00  0.00    -0.099 N  
HETATM   26  H   UNL     1      -8.310  17.812  65.497  1.00  0.00     0.000 HD 
BRANCH  25  27
HETATM   27  S   UNL     1     -10.114  18.991  66.523  1.00  0.00    -0.432 S  
HETATM   28  C   UNL     1      -8.836  20.190  66.871  1.00  0.00    -0.332 C  
HETATM   29  O   UNL     1     -10.682  18.576  67.787  1.00  0.00    -0.410 OA 
HETATM   30  O   UNL     1     -10.948  19.491  65.454  1.00  0.00    -0.447 OA 
ENDBRANCH  25  27
ENDBRANCH   6  25
ENDBRANCH   2   3
TORSDOF 5
ENDMDL
MODEL       33
REMARK 921   NORMALIZED FREE ENERGY PREDICTED BY IDOCK:   -7.01 KCAL/MOL
REMARK 922        TOTAL FREE ENERGY PREDICTED BY IDOCK:   -9.60 KCAL/MOL
REMARK 923 INTER-LIGAND FREE ENERGY PREDICTED BY IDOCK:   -9.00 KCAL/MOL
REMARK 924 INTRA-LIGAND FREE ENERGY PREDICTED BY IDOCK:   -0.60 KCAL/MOL
REMARK 927      BINDING AFFINITY PREDICTED BY RF-SCORE:    0.00 PKD
ROOT
HETATM    1  C   UNL     1      -7.209  15.074  69.561  1.00  0.00    -0.199 C  
HETATM    2  O   UNL     1      -8.627  14.914  69.681  1.00  0.00    -0.074 OA 
ENDROOT
BRANCH   2   3
HETATM    3  C   UNL     1      -9.328  15.248  68.542  1.00  0.00    -0.200 A  
HETATM    4  C   UNL     1     -10.317  14.339  68.095  1.00  0.00    -0.233 A  
HETATM    5  C   UNL     1     -11.111  14.702  67.000  1.00  0.00    -0.333 A  
HETATM    6  C   UNL     1      -9.829  16.733  66.705  1.00  0.00    -0.276 A  
HETATM    7  C   UNL     1     -10.871  15.897  66.308  1.00  0.00    -0.200 A  
HETATM    8  C   UNL     1      -9.059  16.413  67.818  1.00  0.00    -0.199 A  
BRANCH   4   9
HETATM    9  N   UNL     1     -10.456  13.087  68.728  1.00  0.00    -0.384 NA 
HETATM   10  H   UNL     1      -9.698  12.444  68.499  1.00  0.00     0.000 HD 
BRANCH   9  11
HETATM   11  C   UNL     1     -11.414  12.513  69.618  1.00  0.00    -0.185 A  
HETATM   12  C   UNL     1     -13.816  13.315  72.308  1.00  0.00    -0.637 A  
HETATM   13  C   UNL     1     -11.306  11.106  69.857  1.00  0.00    -0.348 A  
HETATM   14  C   UNL     1     -10.483  10.233  69.103  1.00  0.00    -0.246 A  
HETATM   15  C   UNL     1     -12.335  13.281  70.391  1.00  0.00    -0.365 A  
HETATM   16  C   UNL     1     -10.433   8.864  69.368  1.00  0.00    -0.228 A  
HETATM   17  C   UNL     1     -12.998  12.604  71.439  1.00  0.00    -0.258 A  
HETATM   18  C   UNL     1     -12.617  14.663  70.229  1.00  0.00    -0.370 A  
HETATM   19  C   UNL     1     -11.199   8.340  70.398  1.00  0.00    -0.222 A  
HETATM   20  C   UNL     1     -13.484  15.348  71.083  1.00  0.00    -0.565 A  
HETATM   21  C   UNL     1     -14.062  14.677  72.148  1.00  0.00    -0.604 A  
HETATM   22  C   UNL     1     -12.007   9.191  71.152  1.00  0.00    -0.374 A  
HETATM   23  C   UNL     1     -12.072  10.556  70.899  1.00  0.00    -0.383 A  
HETATM   24  N   UNL     1     -12.869  11.294  71.678  1.00  0.00    -0.425 NA 
ENDBRANCH   9  11
ENDBRANCH   4   9
BRANCH   6  25
HETATM   25  N   UNL     1      -9.478  17.900  65.961  1.00  0.00    -0.131 N  
HETATM   26  H   UNL     1      -8.882  17.846  65.136  1.00  0.00     0.000 HD 
BRANCH  25  27
HETATM   27  S   UNL     1     -10.095  19.377  66.507  1.00  0.00    -0.463 S  
HETATM   28  C   UNL     1      -8.624  20.140  67.174  1.00  0.00    -0.343 C  
HETATM   29  O   UNL     1     -10.960  19.046  67.618  1.00  0.00    -0.407 OA 
HETATM   30  O   UNL     1     -10.571  20.168  65.396  1.00  0.00    -0.345 OA 
ENDBRANCH  25  27
ENDBRANCH   6  25
ENDBRANCH   2   3
TORSDOF 5
ENDMDL
MODEL       34
REMARK 921   NORMALIZED FREE ENERGY PREDICTED BY IDOCK:   -6.99 KCAL/MOL
REMARK 922        TOTAL FREE ENERGY PREDICTED BY IDOCK:   -9.57 KCAL/MOL
REMARK 923 INTER-LIGAND FREE ENERGY PREDICTED BY IDOCK:   -8.90 KCAL/MOL
REMARK 924 INTRA-LIGAND FREE ENERGY PREDICTED BY IDOCK:   -0.66 KCAL/MOL
REMARK 927      BINDING AFFINITY PREDICTED BY RF-SCORE:    0.00 PKD
ROOT
HETATM    1  C   UNL     1      -8.768   8.304  65.631  1.00  0.00    -0.156 C  
HETATM    2  O   UNL     1      -9.974   8.881  66.142  1.00  0.00    -0.291 OA 
ENDROOT
BRANCH   2   3
HETATM    3  C   UNL     1      -9.913  10.248  66.316  1.00  0.00    -0.235 A  
HETATM    4  C   UNL     1      -9.611  10.727  67.613  1.00  0.00    -0.158 A  
HETATM    5  C   UNL     1      -9.445  12.106  67.793  1.00  0.00    -0.192 A  
HETATM    6  C   UNL     1     -10.050  12.511  65.486  1.00  0.00    -0.265 A  
HETATM    7  C   UNL     1      -9.660  12.996  66.733  1.00  0.00    -0.248 A  
HETATM    8  C   UNL     1     -10.176  11.142  65.275  1.00  0.00    -0.337 A  
BRANCH   4   9
HETATM    9  N   UNL     1      -9.524   9.823  68.692  1.00  0.00    -0.148 NA 
HETATM   10  H   UNL     1      -8.562   9.559  68.906  1.00  0.00     0.000 HD 
BRANCH   9  11
HETATM   11  C   UNL     1     -10.472   9.191  69.552  1.00  0.00    -0.219 A  
HETATM   12  C   UNL     1     -12.961   9.841  72.204  1.00  0.00    -0.483 A  
HETATM   13  C   UNL     1     -10.306   7.787  69.772  1.00  0.00    -0.221 A  
HETATM   14  C   UNL     1      -9.429   6.964  69.022  1.00  0.00    -0.137 A  
HETATM   15  C   UNL     1     -11.442   9.904  70.318  1.00  0.00    -0.349 A  
HETATM   16  C   UNL     1      -9.323   5.595  69.267  1.00  0.00    -0.150 A  
HETATM   17  C   UNL     1     -12.095   9.182  71.341  1.00  0.00    -0.337 A  
HETATM   18  C   UNL     1     -11.783  11.275  70.172  1.00  0.00    -0.429 A  
HETATM   19  C   UNL     1     -10.084   5.020  70.273  1.00  0.00    -0.339 A  
HETATM   20  C   UNL     1     -12.698  11.906  71.018  1.00  0.00    -0.354 A  
HETATM   21  C   UNL     1     -13.265  11.193  72.060  1.00  0.00    -0.428 A  
HETATM   22  C   UNL     1     -10.944   5.821  71.023  1.00  0.00    -0.300 A  
HETATM   23  C   UNL     1     -11.066   7.186  70.789  1.00  0.00    -0.269 A  
HETATM   24  N   UNL     1     -11.912   7.875  71.563  1.00  0.00    -0.292 NA 
ENDBRANCH   9  11
ENDBRANCH   4   9
BRANCH   6  25
HETATM   25  N   UNL     1     -10.390  13.388  64.412  1.00  0.00    -0.587 N  
HETATM   26  H   UNL     1      -9.732  13.588  63.659  1.00  0.00     0.000 HD 
BRANCH  25  27
HETATM   27  S   UNL     1     -11.931  14.084  64.444  1.00  0.00    -0.440 S  
HETATM   28  C   UNL     1     -11.524  15.821  64.533  1.00  0.00    -0.289 C  
HETATM   29  O   UNL     1     -12.501  13.700  65.717  1.00  0.00    -0.458 OA 
HETATM   30  O   UNL     1     -12.627  13.828  63.204  1.00  0.00    -0.793 OA 
ENDBRANCH  25  27
ENDBRANCH   6  25
ENDBRANCH   2   3
TORSDOF 5
ENDMDL
MODEL       35
REMARK 921   NORMALIZED FREE ENERGY PREDICTED BY IDOCK:   -6.98 KCAL/MOL
REMARK 922        TOTAL FREE ENERGY PREDICTED BY IDOCK:   -9.55 KCAL/MOL
REMARK 923 INTER-LIGAND FREE ENERGY PREDICTED BY IDOCK:   -8.44 KCAL/MOL
REMARK 924 INTRA-LIGAND FREE ENERGY PREDICTED BY IDOCK:   -1.11 KCAL/MOL
REMARK 927      BINDING AFFINITY PREDICTED BY RF-SCORE:    0.00 PKD
ROOT
HETATM    1  C   UNL     1     -11.475  12.198  64.693  1.00  0.00    -0.328 C  
HETATM    2  O   UNL     1     -12.092  12.271  65.983  1.00  0.00    -0.623 OA 
ENDROOT
BRANCH   2   3
HETATM    3  C   UNL     1     -11.442  11.544  66.959  1.00  0.00    -0.214 A  
HETATM    4  C   UNL     1     -11.646  11.932  68.305  1.00  0.00    -0.327 A  
HETATM    5  C   UNL     1     -11.078  11.149  69.317  1.00  0.00    -0.318 A  
HETATM    6  C   UNL     1      -9.988   9.752  67.669  1.00  0.00    -0.174 A  
HETATM    7  C   UNL     1     -10.254  10.060  69.002  1.00  0.00    -0.216 A  
HETATM    8  C   UNL     1     -10.579  10.490  66.648  1.00  0.00    -0.263 A  
BRANCH   4   9
HETATM    9  N   UNL     1     -12.374  13.104  68.594  1.00  0.00    -0.011 NA 
HETATM   10  H   UNL     1     -13.373  13.000  68.414  1.00  0.00     0.000 HD 
BRANCH   9  11
HETATM   11  C   UNL     1     -12.034  14.403  69.081  1.00  0.00    -0.322 A  
HETATM   12  C   UNL     1      -9.996  17.399  68.360  1.00  0.00    -0.329 A  
HETATM   13  C   UNL     1     -12.276  14.652  70.468  1.00  0.00    -0.389 A  
HETATM   14  C   UNL     1     -13.030  13.797  71.310  1.00  0.00    -0.409 A  
HETATM   15  C   UNL     1     -11.326  15.374  68.313  1.00  0.00    -0.354 A  
HETATM   16  C   UNL     1     -13.252  14.102  72.653  1.00  0.00    -0.612 A  
HETATM   17  C   UNL     1     -10.799  16.477  69.020  1.00  0.00    -0.329 A  
HETATM   18  C   UNL     1     -11.070  15.316  66.917  1.00  0.00    -0.288 A  
HETATM   19  C   UNL     1     -12.717  15.265  73.187  1.00  0.00    -0.586 A  
HETATM   20  C   UNL     1     -10.303  16.283  66.262  1.00  0.00    -0.335 A  
HETATM   21  C   UNL     1      -9.736  17.312  66.994  1.00  0.00    -0.267 A  
HETATM   22  C   UNL     1     -11.965  16.110  72.370  1.00  0.00    -0.649 A  
HETATM   23  C   UNL     1     -11.739  15.824  71.029  1.00  0.00    -0.422 A  
HETATM   24  N   UNL     1     -11.001  16.690  70.326  1.00  0.00    -0.203 NA 
ENDBRANCH   9  11
ENDBRANCH   4   9
BRANCH   6  25
HETATM   25  N   UNL     1      -9.065   8.725  67.306  1.00  0.00    -0.131 N  
HETATM   26  H   UNL     1      -9.281   7.740  67.452  1.00  0.00     0.000 HD 
BRANCH  25  27
HETATM   27  S   UNL     1      -7.598   9.215  66.622  1.00  0.00    -0.089 S  
HETATM   28  C   UNL     1      -6.551   7.821  67.016  1.00  0.00    -0.063 C  
HETATM   29  O   UNL     1      -7.155  10.336  67.421  1.00  0.00    -0.082 OA 
HETATM   30  O   UNL     1      -7.719   9.319  65.186  1.00  0.00    -0.103 OA 
ENDBRANCH  25  27
ENDBRANCH   6  25
ENDBRANCH   2   3
TORSDOF 5
ENDMDL
MODEL       36
REMARK 921   NORMALIZED FREE ENERGY PREDICTED BY IDOCK:   -6.96 KCAL/MOL
REMARK 922        TOTAL FREE ENERGY PREDICTED BY IDOCK:   -9.53 KCAL/MOL
REMARK 923 INTER-LIGAND FREE ENERGY PREDICTED BY IDOCK:   -8.93 KCAL/MOL
REMARK 924 INTRA-LIGAND FREE ENERGY PREDICTED BY IDOCK:   -0.61 KCAL/MOL
REMARK 927      BINDING AFFINITY PREDICTED BY RF-SCORE:    0.00 PKD
ROOT
HETATM    1  C   UNL     1      -8.167  14.079  68.455  1.00  0.00    -0.150 C  
HETATM    2  O   UNL     1      -9.102  14.919  69.141  1.00  0.00    -0.192 OA 
ENDROOT
BRANCH   2   3
HETATM    3  C   UNL     1      -9.303  16.143  68.539  1.00  0.00    -0.209 A  
HETATM    4  C   UNL     1     -10.639  16.530  68.278  1.00  0.00    -0.326 A  
HETATM    5  C   UNL     1     -10.874  17.810  67.760  1.00  0.00    -0.238 A  
HETATM    6  C   UNL     1      -8.494  18.216  67.600  1.00  0.00    -0.244 A  
HETATM    7  C   UNL     1      -9.807  18.653  67.425  1.00  0.00    -0.347 A  
HETATM    8  C   UNL     1      -8.240  16.966  68.155  1.00  0.00    -0.207 A  
BRANCH   4   9
HETATM    9  N   UNL     1     -11.690  15.617  68.505  1.00  0.00    -0.433 NA 
HETATM   10  H   UNL     1     -12.484  16.044  68.983  1.00  0.00     0.000 HD 
BRANCH   9  11
HETATM   11  C   UNL     1     -11.898  14.234  68.219  1.00  0.00    -0.335 A  
HETATM   12  C   UNL     1     -12.104  10.887  69.769  1.00  0.00    -0.409 A  
HETATM   13  C   UNL     1     -11.684  13.817  66.868  1.00  0.00    -0.424 A  
HETATM   14  C   UNL     1     -11.518  14.709  65.779  1.00  0.00    -0.338 A  
HETATM   15  C   UNL     1     -12.131  13.246  69.223  1.00  0.00    -0.291 A  
HETATM   16  C   UNL     1     -11.334  14.245  64.476  1.00  0.00    -0.341 A  
HETATM   17  C   UNL     1     -12.011  11.898  68.821  1.00  0.00    -0.249 A  
HETATM   18  C   UNL     1     -12.433  13.493  70.588  1.00  0.00    -0.405 A  
HETATM   19  C   UNL     1     -11.304  12.880  64.234  1.00  0.00    -0.417 A  
HETATM   20  C   UNL     1     -12.575  12.458  71.515  1.00  0.00    -0.250 A  
HETATM   21  C   UNL     1     -12.377  11.149  71.110  1.00  0.00    -0.451 A  
HETATM   22  C   UNL     1     -11.458  11.993  65.300  1.00  0.00    -0.358 A  
HETATM   23  C   UNL     1     -11.647  12.437  66.603  1.00  0.00    -0.385 A  
HETATM   24  N   UNL     1     -11.780  11.514  67.561  1.00  0.00    -0.604 NA 
ENDBRANCH   9  11
ENDBRANCH   4   9
BRANCH   6  25
HETATM   25  N   UNL     1      -7.380  18.995  67.166  1.00  0.00    -0.216 N  
HETATM   26  H   UNL     1      -7.195  19.155  66.176  1.00  0.00     0.000 HD 
BRANCH  25  27
HETATM   27  S   UNL     1      -6.380  19.644  68.366  1.00  0.00    -0.264 S  
HETATM   28  C   UNL     1      -6.052  21.269  67.700  1.00  0.00    -0.354 C  
HETATM   29  O   UNL     1      -5.151  18.885  68.295  1.00  0.00    -0.175 OA 
HETATM   30  O   UNL     1      -7.105  19.783  69.608  1.00  0.00    -0.315 OA 
ENDBRANCH  25  27
ENDBRANCH   6  25
ENDBRANCH   2   3
TORSDOF 5
ENDMDL
MODEL       37
REMARK 921   NORMALIZED FREE ENERGY PREDICTED BY IDOCK:   -6.93 KCAL/MOL
REMARK 922        TOTAL FREE ENERGY PREDICTED BY IDOCK:   -9.49 KCAL/MOL
REMARK 923 INTER-LIGAND FREE ENERGY PREDICTED BY IDOCK:   -8.95 KCAL/MOL
REMARK 924 INTRA-LIGAND FREE ENERGY PREDICTED BY IDOCK:   -0.53 KCAL/MOL
REMARK 927      BINDING AFFINITY PREDICTED BY RF-SCORE:    0.00 PKD
ROOT
HETATM    1  C   UNL     1      -9.619   9.941  69.925  1.00  0.00    -0.227 C  
HETATM    2  O   UNL     1     -10.470  10.997  69.468  1.00  0.00    -0.195 OA 
ENDROOT
BRANCH   2   3
HETATM    3  C   UNL     1     -10.556  11.095  68.095  1.00  0.00    -0.193 A  
HETATM    4  C   UNL     1     -11.333  12.152  67.564  1.00  0.00    -0.326 A  
HETATM    5  C   UNL     1     -11.354  12.332  66.175  1.00  0.00    -0.402 A  
HETATM    6  C   UNL     1     -10.015  10.340  65.866  1.00  0.00    -0.256 A  
HETATM    7  C   UNL     1     -10.695  11.431  65.328  1.00  0.00    -0.326 A  
HETATM    8  C   UNL     1      -9.944  10.170  67.245  1.00  0.00    -0.241 A  
BRANCH   4   9
HETATM    9  N   UNL     1     -12.089  12.969  68.429  1.00  0.00    -0.247 NA 
HETATM   10  H   UNL     1     -12.967  12.534  68.713  1.00  0.00     0.000 HD 
BRANCH   9  11
HETATM   11  C   UNL     1     -11.909  14.266  68.999  1.00  0.00    -0.335 A  
HETATM   12  C   UNL     1     -10.194  17.503  68.516  1.00  0.00    -0.378 A  
HETATM   13  C   UNL     1     -12.214  14.405  70.389  1.00  0.00    -0.404 A  
HETATM   14  C   UNL     1     -12.893  13.425  71.155  1.00  0.00    -0.372 A  
HETATM   15  C   UNL     1     -11.291  15.353  68.311  1.00  0.00    -0.354 A  
HETATM   16  C   UNL     1     -13.184  13.624  72.505  1.00  0.00    -0.578 A  
HETATM   17  C   UNL     1     -10.909  16.462  69.096  1.00  0.00    -0.329 A  
HETATM   18  C   UNL     1     -10.992  15.405  66.923  1.00  0.00    -0.294 A  
HETATM   19  C   UNL     1     -12.795  14.804  73.121  1.00  0.00    -0.614 A  
HETATM   20  C   UNL     1     -10.318  16.486  66.350  1.00  0.00    -0.316 A  
HETATM   21  C   UNL     1      -9.889  17.526  67.157  1.00  0.00    -0.297 A  
HETATM   22  C   UNL     1     -12.120  15.773  72.379  1.00  0.00    -0.588 A  
HETATM   23  C   UNL     1     -11.826  15.593  71.033  1.00  0.00    -0.400 A  
HETATM   24  N   UNL     1     -11.169  16.574  70.404  1.00  0.00    -0.248 NA 
ENDBRANCH   9  11
ENDBRANCH   4   9
BRANCH   6  25
HETATM   25  N   UNL     1      -9.429   9.337  65.036  1.00  0.00    -0.453 N  
HETATM   26  H   UNL     1      -9.828   8.401  64.969  1.00  0.00     0.000 HD 
BRANCH  25  27
HETATM   27  S   UNL     1      -8.044   9.770  64.167  1.00  0.00    -0.164 S  
HETATM   28  C   UNL     1      -7.490   8.174  63.584  1.00  0.00    -0.120 C  
HETATM   29  O   UNL     1      -7.095  10.229  65.157  1.00  0.00    -0.135 OA 
HETATM   30  O   UNL     1      -8.396  10.589  63.030  1.00  0.00    -0.163 OA 
ENDBRANCH  25  27
ENDBRANCH   6  25
ENDBRANCH   2   3
TORSDOF 5
ENDMDL
MODEL       38
REMARK 921   NORMALIZED FREE ENERGY PREDICTED BY IDOCK:   -6.91 KCAL/MOL
REMARK 922        TOTAL FREE ENERGY PREDICTED BY IDOCK:   -9.46 KCAL/MOL
REMARK 923 INTER-LIGAND FREE ENERGY PREDICTED BY IDOCK:   -8.68 KCAL/MOL
REMARK 924 INTRA-LIGAND FREE ENERGY PREDICTED BY IDOCK:   -0.77 KCAL/MOL
REMARK 927      BINDING AFFINITY PREDICTED BY RF-SCORE:    0.00 PKD
ROOT
HETATM    1  C   UNL     1      -7.830  14.557  68.782  1.00  0.00    -0.145 C  
HETATM    2  O   UNL     1      -8.968  15.221  69.343  1.00  0.00    -0.243 OA 
ENDROOT
BRANCH   2   3
HETATM    3  C   UNL     1      -9.268  16.425  68.742  1.00  0.00    -0.239 A  
HETATM    4  C   UNL     1     -10.595  16.614  68.286  1.00  0.00    -0.338 A  
HETATM    5  C   UNL     1     -10.950  17.864  67.764  1.00  0.00    -0.097 A  
HETATM    6  C   UNL     1      -8.667  18.637  67.982  1.00  0.00    -0.303 A  
HETATM    7  C   UNL     1      -9.991  18.875  67.615  1.00  0.00    -0.404 A  
HETATM    8  C   UNL     1      -8.304  17.418  68.545  1.00  0.00    -0.271 A  
BRANCH   4   9
HETATM    9  N   UNL     1     -11.509  15.542  68.329  1.00  0.00    -0.354 NA 
HETATM   10  H   UNL     1     -12.446  15.836  68.605  1.00  0.00     0.000 HD 
BRANCH   9  11
HETATM   11  C   UNL     1     -11.426  14.139  68.076  1.00  0.00    -0.312 A  
HETATM   12  C   UNL     1     -11.199  11.623  65.380  1.00  0.00    -0.262 A  
HETATM   13  C   UNL     1     -11.853  13.269  69.128  1.00  0.00    -0.378 A  
HETATM   14  C   UNL     1     -12.119  13.696  70.452  1.00  0.00    -0.421 A  
HETATM   15  C   UNL     1     -11.111  13.584  66.799  1.00  0.00    -0.311 A  
HETATM   16  C   UNL     1     -12.513  12.798  71.445  1.00  0.00    -0.224 A  
HETATM   17  C   UNL     1     -11.367  12.205  66.630  1.00  0.00    -0.350 A  
HETATM   18  C   UNL     1     -10.604  14.293  65.678  1.00  0.00    -0.328 A  
HETATM   19  C   UNL     1     -12.658  11.455  71.133  1.00  0.00    -0.490 A  
HETATM   20  C   UNL     1     -10.394  13.676  64.443  1.00  0.00    -0.242 A  
HETATM   21  C   UNL     1     -10.724  12.341  64.285  1.00  0.00    -0.389 A  
HETATM   22  C   UNL     1     -12.407  11.025  69.830  1.00  0.00    -0.356 A  
HETATM   23  C   UNL     1     -12.009  11.904  68.831  1.00  0.00    -0.254 A  
HETATM   24  N   UNL     1     -11.796  11.402  67.609  1.00  0.00    -0.636 NA 
ENDBRANCH   9  11
ENDBRANCH   4   9
BRANCH   6  25
HETATM   25  N   UNL     1      -7.638  19.597  67.742  1.00  0.00    -0.270 N  
HETATM   26  H   UNL     1      -7.537  20.427  68.325  1.00  0.00     0.000 HD 
BRANCH  25  27
HETATM   27  S   UNL     1      -6.592  19.297  66.447  1.00  0.00    -0.197 S  
HETATM   28  C   UNL     1      -6.247  20.959  65.890  1.00  0.00    -0.237 C  
HETATM   29  O   UNL     1      -7.403  18.655  65.437  1.00  0.00    -0.502 OA 
HETATM   30  O   UNL     1      -5.365  18.696  66.917  1.00  0.00    -0.131 OA 
ENDBRANCH  25  27
ENDBRANCH   6  25
ENDBRANCH   2   3
TORSDOF 5
ENDMDL
MODEL       39
REMARK 921   NORMALIZED FREE ENERGY PREDICTED BY IDOCK:   -6.88 KCAL/MOL
REMARK 922        TOTAL FREE ENERGY PREDICTED BY IDOCK:   -9.42 KCAL/MOL
REMARK 923 INTER-LIGAND FREE ENERGY PREDICTED BY IDOCK:   -8.95 KCAL/MOL
REMARK 924 INTRA-LIGAND FREE ENERGY PREDICTED BY IDOCK:   -0.47 KCAL/MOL
REMARK 927      BINDING AFFINITY PREDICTED BY RF-SCORE:    0.00 PKD
ROOT
HETATM    1  C   UNL     1      -7.311  12.865  68.422  1.00  0.00    -0.119 C  
HETATM    2  O   UNL     1      -8.741  12.907  68.469  1.00  0.00    -0.139 OA 
ENDROOT
BRANCH   2   3
HETATM    3  C   UNL     1      -9.290  14.030  67.887  1.00  0.00    -0.206 A  
HETATM    4  C   UNL     1     -10.701  14.136  67.878  1.00  0.00    -0.240 A  
HETATM    5  C   UNL     1     -11.279  15.312  67.383  1.00  0.00    -0.311 A  
HETATM    6  C   UNL     1      -9.098  16.156  66.760  1.00  0.00    -0.230 A  
HETATM    7  C   UNL     1     -10.481  16.322  66.829  1.00  0.00    -0.287 A  
HETATM    8  C   UNL     1      -8.502  15.016  67.287  1.00  0.00    -0.220 A  
BRANCH   4   9
HETATM    9  N   UNL     1     -11.488  13.055  68.325  1.00  0.00    -0.290 NA 
HETATM   10  H   UNL     1     -11.910  12.532  67.557  1.00  0.00     0.000 HD 
BRANCH   9  11
HETATM   11  C   UNL     1     -11.831  12.524  69.605  1.00  0.00    -0.314 A  
HETATM   12  C   UNL     1     -12.304   9.374  71.477  1.00  0.00    -0.452 A  
HETATM   13  C   UNL     1     -12.536  13.394  70.495  1.00  0.00    -0.350 A  
HETATM   14  C   UNL     1     -12.698  14.786  70.281  1.00  0.00    -0.324 A  
HETATM   15  C   UNL     1     -11.663  11.153  69.963  1.00  0.00    -0.438 A  
HETATM   16  C   UNL     1     -13.378  15.592  71.195  1.00  0.00    -0.553 A  
HETATM   17  C   UNL     1     -12.323  10.720  71.134  1.00  0.00    -0.393 A  
HETATM   18  C   UNL     1     -10.929  10.180  69.233  1.00  0.00    -0.279 A  
HETATM   19  C   UNL     1     -13.918  15.022  72.338  1.00  0.00    -0.593 A  
HETATM   20  C   UNL     1     -10.880   8.840  69.625  1.00  0.00    -0.175 A  
HETATM   21  C   UNL     1     -11.598   8.429  70.735  1.00  0.00    -0.252 A  
HETATM   22  C   UNL     1     -13.771  13.652  72.555  1.00  0.00    -0.663 A  
HETATM   23  C   UNL     1     -13.093  12.836  71.658  1.00  0.00    -0.331 A  
HETATM   24  N   UNL     1     -13.008  11.533  71.946  1.00  0.00    -0.419 NA 
ENDBRANCH   9  11
ENDBRANCH   4   9
BRANCH   6  25
HETATM   25  N   UNL     1      -8.261  17.107  66.101  1.00  0.00    -0.267 N  
HETATM   26  H   UNL     1      -7.765  16.874  65.241  1.00  0.00     0.000 HD 
BRANCH  25  27
HETATM   27  S   UNL     1      -8.127  18.637  66.809  1.00  0.00    -0.273 S  
HETATM   28  C   UNL     1      -6.589  19.210  66.103  1.00  0.00    -0.212 C  
HETATM   29  O   UNL     1      -7.899  18.392  68.216  1.00  0.00    -0.279 OA 
HETATM   30  O   UNL     1      -9.198  19.497  66.361  1.00  0.00    -0.341 OA 
ENDBRANCH  25  27
ENDBRANCH   6  25
ENDBRANCH   2   3
TORSDOF 5
ENDMDL
MODEL       40
REMARK 921   NORMALIZED FREE ENERGY PREDICTED BY IDOCK:   -6.84 KCAL/MOL
REMARK 922        TOTAL FREE ENERGY PREDICTED BY IDOCK:   -9.38 KCAL/MOL
REMARK 923 INTER-LIGAND FREE ENERGY PREDICTED BY IDOCK:   -8.73 KCAL/MOL
REMARK 924 INTRA-LIGAND FREE ENERGY PREDICTED BY IDOCK:   -0.64 KCAL/MOL
REMARK 927      BINDING AFFINITY PREDICTED BY RF-SCORE:    0.00 PKD
ROOT
HETATM    1  C   UNL     1      -7.323   9.617  69.586  1.00  0.00    -0.093 C  
HETATM    2  O   UNL     1      -7.980  10.825  69.189  1.00  0.00    -0.143 OA 
ENDROOT
BRANCH   2   3
HETATM    3  C   UNL     1      -8.804  10.683  68.092  1.00  0.00    -0.134 A  
HETATM    4  C   UNL     1     -10.051  11.351  68.123  1.00  0.00    -0.189 A  
HETATM    5  C   UNL     1     -10.861  11.303  66.981  1.00  0.00    -0.332 A  
HETATM    6  C   UNL     1      -9.297   9.810  65.896  1.00  0.00    -0.205 A  
HETATM    7  C   UNL     1     -10.485  10.538  65.869  1.00  0.00    -0.224 A  
HETATM    8  C   UNL     1      -8.457   9.880  67.002  1.00  0.00    -0.121 A  
BRANCH   4   9
HETATM    9  N   UNL     1     -10.466  12.009  69.298  1.00  0.00    -0.430 NA 
HETATM   10  H   UNL     1      -9.794  12.709  69.614  1.00  0.00     0.000 HD 
BRANCH   9  11
HETATM   11  C   UNL     1     -11.609  11.921  70.149  1.00  0.00    -0.167 A  
HETATM   12  C   UNL     1     -13.906  13.919  72.243  1.00  0.00    -0.669 A  
HETATM   13  C   UNL     1     -11.904  10.634  70.698  1.00  0.00    -0.463 A  
HETATM   14  C   UNL     1     -11.292   9.429  70.272  1.00  0.00    -0.261 A  
HETATM   15  C   UNL     1     -12.345  13.056  70.603  1.00  0.00    -0.391 A  
HETATM   16  C   UNL     1     -11.635   8.197  70.830  1.00  0.00    -0.283 A  
HETATM   17  C   UNL     1     -13.245  12.840  71.670  1.00  0.00    -0.317 A  
HETATM   18  C   UNL     1     -12.230  14.383  70.110  1.00  0.00    -0.401 A  
HETATM   19  C   UNL     1     -12.591   8.144  71.833  1.00  0.00    -0.368 A  
HETATM   20  C   UNL     1     -12.943  15.446  70.667  1.00  0.00    -0.450 A  
HETATM   21  C   UNL     1     -13.761  15.218  71.760  1.00  0.00    -0.605 A  
HETATM   22  C   UNL     1     -13.194   9.324  72.266  1.00  0.00    -0.535 A  
HETATM   23  C   UNL     1     -12.869  10.559  71.718  1.00  0.00    -0.454 A  
HETATM   24  N   UNL     1     -13.495  11.638  72.201  1.00  0.00    -0.320 NA 
ENDBRANCH   9  11
ENDBRANCH   4   9
BRANCH   6  25
HETATM   25  N   UNL     1      -8.932   8.930  64.833  1.00  0.00    -0.405 N  
HETATM   26  H   UNL     1      -8.960   7.917  64.947  1.00  0.00     0.000 HD 
BRANCH  25  27
HETATM   27  S   UNL     1      -8.453   9.639  63.375  1.00  0.00    -0.204 S  
HETATM   28  C   UNL     1      -7.914   8.206  62.453  1.00  0.00    -0.156 C  
HETATM   29  O   UNL     1      -7.279  10.422  63.694  1.00  0.00    -0.106 OA 
HETATM   30  O   UNL     1      -9.587  10.230  62.702  1.00  0.00    -0.310 OA 
ENDBRANCH  25  27
ENDBRANCH   6  25
ENDBRANCH   2   3
TORSDOF 5
ENDMDL
MODEL       41
REMARK 921   NORMALIZED FREE ENERGY PREDICTED BY IDOCK:   -6.79 KCAL/MOL
REMARK 922        TOTAL FREE ENERGY PREDICTED BY IDOCK:   -9.31 KCAL/MOL
REMARK 923 INTER-LIGAND FREE ENERGY PREDICTED BY IDOCK:   -8.69 KCAL/MOL
REMARK 924 INTRA-LIGAND FREE ENERGY PREDICTED BY IDOCK:   -0.62 KCAL/MOL
REMARK 927      BINDING AFFINITY PREDICTED BY RF-SCORE:    0.00 PKD
ROOT
HETATM    1  C   UNL     1     -11.635  16.053  64.264  1.00  0.00    -0.138 C  
HETATM    2  O   UNL     1     -11.193  15.297  65.396  1.00  0.00    -0.341 OA 
ENDROOT
BRANCH   2   3
HETATM    3  C   UNL     1     -10.897  16.064  66.503  1.00  0.00    -0.167 A  
HETATM    4  C   UNL     1     -11.210  15.524  67.773  1.00  0.00    -0.302 A  
HETATM    5  C   UNL     1     -10.828  16.239  68.915  1.00  0.00    -0.317 A  
HETATM    6  C   UNL     1     -10.019  18.060  67.541  1.00  0.00    -0.327 A  
HETATM    7  C   UNL     1     -10.231  17.502  68.801  1.00  0.00    -0.373 A  
HETATM    8  C   UNL     1     -10.349  17.346  66.394  1.00  0.00    -0.317 A  
BRANCH   4   9
HETATM    9  N   UNL     1     -11.923  14.311  67.862  1.00  0.00    -0.501 NA 
HETATM   10  H   UNL     1     -12.895  14.404  67.564  1.00  0.00     0.000 HD 
BRANCH   9  11
HETATM   11  C   UNL     1     -11.599  12.983  68.274  1.00  0.00    -0.340 A  
HETATM   12  C   UNL     1     -10.413   9.706  67.048  1.00  0.00    -0.302 A  
HETATM   13  C   UNL     1     -12.146  12.545  69.521  1.00  0.00    -0.248 A  
HETATM   14  C   UNL     1     -12.773  13.404  70.459  1.00  0.00    -0.194 A  
HETATM   15  C   UNL     1     -10.921  12.041  67.444  1.00  0.00    -0.311 A  
HETATM   16  C   UNL     1     -13.270  12.925  71.671  1.00  0.00    -0.416 A  
HETATM   17  C   UNL     1     -10.947  10.694  67.866  1.00  0.00    -0.295 A  
HETATM   18  C   UNL     1     -10.260  12.326  66.220  1.00  0.00    -0.251 A  
HETATM   19  C   UNL     1     -13.160  11.575  71.969  1.00  0.00    -0.430 A  
HETATM   20  C   UNL     1      -9.684  11.323  65.437  1.00  0.00    -0.271 A  
HETATM   21  C   UNL     1      -9.789  10.002  65.838  1.00  0.00    -0.330 A  
HETATM   22  C   UNL     1     -12.553  10.719  71.050  1.00  0.00    -0.520 A  
HETATM   23  C   UNL     1     -12.047  11.180  69.840  1.00  0.00    -0.344 A  
HETATM   24  N   UNL     1     -11.488  10.285  69.019  1.00  0.00    -0.184 NA 
ENDBRANCH   9  11
ENDBRANCH   4   9
BRANCH   6  25
HETATM   25  N   UNL     1      -9.521  19.388  67.383  1.00  0.00    -0.308 N  
HETATM   26  H   UNL     1     -10.128  20.153  67.090  1.00  0.00     0.000 HD 
BRANCH  25  27
HETATM   27  S   UNL     1      -7.879  19.638  67.703  1.00  0.00    -0.289 S  
HETATM   28  C   UNL     1      -7.137  18.316  66.757  1.00  0.00    -0.206 C  
HETATM   29  O   UNL     1      -7.707  19.325  69.104  1.00  0.00    -0.328 OA 
HETATM   30  O   UNL     1      -7.445  20.904  67.159  1.00  0.00    -0.339 OA 
ENDBRANCH  25  27
ENDBRANCH   6  25
ENDBRANCH   2   3
TORSDOF 5
ENDMDL
MODEL       42
REMARK 921   NORMALIZED FREE ENERGY PREDICTED BY IDOCK:   -6.74 KCAL/MOL
REMARK 922        TOTAL FREE ENERGY PREDICTED BY IDOCK:   -9.24 KCAL/MOL
REMARK 923 INTER-LIGAND FREE ENERGY PREDICTED BY IDOCK:   -8.76 KCAL/MOL
REMARK 924 INTRA-LIGAND FREE ENERGY PREDICTED BY IDOCK:   -0.48 KCAL/MOL
REMARK 927      BINDING AFFINITY PREDICTED BY RF-SCORE:    0.00 PKD
ROOT
HETATM    1  C   UNL     1     -11.020   9.188  70.339  1.00  0.00    -0.248 C  
HETATM    2  O   UNL     1     -11.439  10.337  69.595  1.00  0.00    -0.248 OA 
ENDROOT
BRANCH   2   3
HETATM    3  C   UNL     1     -11.048  10.324  68.273  1.00  0.00    -0.254 A  
HETATM    4  C   UNL     1     -11.356  11.463  67.491  1.00  0.00    -0.292 A  
HETATM    5  C   UNL     1     -10.881  11.516  66.174  1.00  0.00    -0.330 A  
HETATM    6  C   UNL     1      -9.987   9.277  66.374  1.00  0.00    -0.286 A  
HETATM    7  C   UNL     1     -10.196  10.428  65.617  1.00  0.00    -0.308 A  
HETATM    8  C   UNL     1     -10.410   9.222  67.698  1.00  0.00    -0.311 A  
BRANCH   4   9
HETATM    9  N   UNL     1     -12.155  12.491  68.032  1.00  0.00    -0.342 NA 
HETATM   10  H   UNL     1     -13.147  12.363  67.833  1.00  0.00     0.000 HD 
BRANCH   9  11
HETATM   11  C   UNL     1     -11.894  13.669  68.796  1.00  0.00    -0.360 A  
HETATM   12  C   UNL     1     -12.824  15.459  71.891  1.00  0.00    -0.474 A  
HETATM   13  C   UNL     1     -11.293  14.765  68.102  1.00  0.00    -0.324 A  
HETATM   14  C   UNL     1     -10.737  14.673  66.802  1.00  0.00    -0.301 A  
HETATM   15  C   UNL     1     -12.351  13.860  70.134  1.00  0.00    -0.400 A  
HETATM   16  C   UNL     1     -10.143  15.772  66.181  1.00  0.00    -0.337 A  
HETATM   17  C   UNL     1     -12.285  15.176  70.642  1.00  0.00    -0.351 A  
HETATM   18  C   UNL     1     -12.899  12.862  70.984  1.00  0.00    -0.268 A  
HETATM   19  C   UNL     1     -10.099  16.990  66.842  1.00  0.00    -0.298 A  
HETATM   20  C   UNL     1     -13.387  13.160  72.259  1.00  0.00    -0.621 A  
HETATM   21  C   UNL     1     -13.379  14.471  72.701  1.00  0.00    -0.588 A  
HETATM   22  C   UNL     1     -10.651  17.094  68.119  1.00  0.00    -0.380 A  
HETATM   23  C   UNL     1     -11.242  16.009  68.755  1.00  0.00    -0.360 A  
HETATM   24  N   UNL     1     -11.750  16.205  69.976  1.00  0.00    -0.264 NA 
ENDBRANCH   9  11
ENDBRANCH   4   9
BRANCH   6  25
HETATM   25  N   UNL     1      -9.396   8.105  65.811  1.00  0.00    -0.415 N  
HETATM   26  H   UNL     1      -9.922   7.237  65.716  1.00  0.00     0.000 HD 
BRANCH  25  27
HETATM   27  S   UNL     1      -7.786   8.221  65.307  1.00  0.00    -0.113 S  
HETATM   28  C   UNL     1      -7.210   6.556  65.606  1.00  0.00    -0.073 C  
HETATM   29  O   UNL     1      -7.142   9.087  66.270  1.00  0.00    -0.084 OA 
HETATM   30  O   UNL     1      -7.717   8.493  63.890  1.00  0.00    -0.125 OA 
ENDBRANCH  25  27
ENDBRANCH   6  25
ENDBRANCH   2   3
TORSDOF 5
ENDMDL
MODEL       43
REMARK 921   NORMALIZED FREE ENERGY PREDICTED BY IDOCK:   -6.72 KCAL/MOL
REMARK 922        TOTAL FREE ENERGY PREDICTED BY IDOCK:   -9.22 KCAL/MOL
REMARK 923 INTER-LIGAND FREE ENERGY PREDICTED BY IDOCK:   -8.61 KCAL/MOL
REMARK 924 INTRA-LIGAND FREE ENERGY PREDICTED BY IDOCK:   -0.61 KCAL/MOL
REMARK 927      BINDING AFFINITY PREDICTED BY RF-SCORE:    0.00 PKD
ROOT
HETATM    1  C   UNL     1      -7.655  13.650  67.682  1.00  0.00    -0.179 C  
HETATM    2  O   UNL     1      -8.765  13.780  68.577  1.00  0.00    -0.173 OA 
ENDROOT
BRANCH   2   3
HETATM    3  C   UNL     1      -9.319  15.042  68.604  1.00  0.00    -0.202 A  
HETATM    4  C   UNL     1     -10.728  15.133  68.696  1.00  0.00    -0.239 A  
HETATM    5  C   UNL     1     -11.308  16.402  68.826  1.00  0.00    -0.277 A  
HETATM    6  C   UNL     1      -9.140  17.450  68.590  1.00  0.00    -0.261 A  
HETATM    7  C   UNL     1     -10.517  17.557  68.777  1.00  0.00    -0.318 A  
HETATM    8  C   UNL     1      -8.540  16.198  68.504  1.00  0.00    -0.202 A  
BRANCH   4   9
HETATM    9  N   UNL     1     -11.513  13.965  68.616  1.00  0.00    -0.276 NA 
HETATM   10  H   UNL     1     -12.284  13.963  69.284  1.00  0.00     0.000 HD 
BRANCH   9  11
HETATM   11  C   UNL     1     -11.476  12.783  67.816  1.00  0.00    -0.326 A  
HETATM   12  C   UNL     1     -10.418   9.243  67.805  1.00  0.00    -0.313 A  
HETATM   13  C   UNL     1     -11.603  12.960  66.402  1.00  0.00    -0.425 A  
HETATM   14  C   UNL     1     -11.992  14.175  65.786  1.00  0.00    -0.410 A  
HETATM   15  C   UNL     1     -11.153  11.491  68.329  1.00  0.00    -0.295 A  
HETATM   16  C   UNL     1     -12.121  14.284  64.401  1.00  0.00    -0.490 A  
HETATM   17  C   UNL     1     -10.858  10.490  67.378  1.00  0.00    -0.291 A  
HETATM   18  C   UNL     1     -11.065  11.131  69.700  1.00  0.00    -0.297 A  
HETATM   19  C   UNL     1     -11.855  13.182  63.601  1.00  0.00    -0.549 A  
HETATM   20  C   UNL     1     -10.671   9.855  70.108  1.00  0.00    -0.361 A  
HETATM   21  C   UNL     1     -10.314   8.916  69.155  1.00  0.00    -0.230 A  
HETATM   22  C   UNL     1     -11.463  11.984  64.197  1.00  0.00    -0.460 A  
HETATM   23  C   UNL     1     -11.335  11.856  65.574  1.00  0.00    -0.277 A  
HETATM   24  N   UNL     1     -10.948  10.669  66.055  1.00  0.00     0.027 NA 
ENDBRANCH   9  11
ENDBRANCH   4   9
BRANCH   6  25
HETATM   25  N   UNL     1      -8.314  18.602  68.419  1.00  0.00    -0.326 N  
HETATM   26  H   UNL     1      -7.666  18.905  69.146  1.00  0.00     0.000 HD 
BRANCH  25  27
HETATM   27  S   UNL     1      -8.457  19.443  66.959  1.00  0.00    -0.300 S  
HETATM   28  C   UNL     1      -6.979  20.447  66.992  1.00  0.00    -0.276 C  
HETATM   29  O   UNL     1      -9.590  20.324  67.130  1.00  0.00    -0.391 OA 
HETATM   30  O   UNL     1      -8.378  18.531  65.840  1.00  0.00    -0.494 OA 
ENDBRANCH  25  27
ENDBRANCH   6  25
ENDBRANCH   2   3
TORSDOF 5
ENDMDL
MODEL       44
REMARK 921   NORMALIZED FREE ENERGY PREDICTED BY IDOCK:   -6.72 KCAL/MOL
REMARK 922        TOTAL FREE ENERGY PREDICTED BY IDOCK:   -9.22 KCAL/MOL
REMARK 923 INTER-LIGAND FREE ENERGY PREDICTED BY IDOCK:   -8.65 KCAL/MOL
REMARK 924 INTRA-LIGAND FREE ENERGY PREDICTED BY IDOCK:   -0.57 KCAL/MOL
REMARK 927      BINDING AFFINITY PREDICTED BY RF-SCORE:    0.00 PKD
ROOT
HETATM    1  C   UNL     1     -11.833  12.954  67.651  1.00  0.00    -0.346 C  
HETATM    2  O   UNL     1     -11.169  12.466  68.821  1.00  0.00    -0.238 OA 
ENDROOT
BRANCH   2   3
HETATM    3  C   UNL     1     -11.981  12.377  69.932  1.00  0.00    -0.299 A  
HETATM    4  C   UNL     1     -12.334  11.081  70.380  1.00  0.00    -0.356 A  
HETATM    5  C   UNL     1     -13.073  10.963  71.563  1.00  0.00    -0.503 A  
HETATM    6  C   UNL     1     -13.252  13.370  71.729  1.00  0.00    -0.407 A  
HETATM    7  C   UNL     1     -13.529  12.102  72.239  1.00  0.00    -0.298 A  
HETATM    8  C   UNL     1     -12.481  13.510  70.580  1.00  0.00    -0.405 A  
BRANCH   4   9
HETATM    9  N   UNL     1     -11.971   9.953  69.616  1.00  0.00    -0.461 NA 
HETATM   10  H   UNL     1     -12.670   9.714  68.912  1.00  0.00     0.000 HD 
BRANCH   9  11
HETATM   11  C   UNL     1     -10.851   9.068  69.601  1.00  0.00    -0.186 A  
HETATM   12  C   UNL     1      -8.484   7.245  71.775  1.00  0.00    -0.116 A  
HETATM   13  C   UNL     1     -10.099   9.004  68.386  1.00  0.00    -0.216 A  
HETATM   14  C   UNL     1     -10.525   9.566  67.157  1.00  0.00    -0.322 A  
HETATM   15  C   UNL     1     -10.358   8.397  70.760  1.00  0.00    -0.228 A  
HETATM   16  C   UNL     1      -9.759   9.455  65.997  1.00  0.00    -0.345 A  
HETATM   17  C   UNL     1      -9.079   7.809  70.653  1.00  0.00    -0.153 A  
HETATM   18  C   UNL     1     -11.015   8.299  72.015  1.00  0.00    -0.374 A  
HETATM   19  C   UNL     1      -8.545   8.785  66.041  1.00  0.00    -0.166 A  
HETATM   20  C   UNL     1     -10.421   7.681  73.117  1.00  0.00    -0.433 A  
HETATM   21  C   UNL     1      -9.135   7.180  73.005  1.00  0.00    -0.166 A  
HETATM   22  C   UNL     1      -8.111   8.235  67.247  1.00  0.00    -0.109 A  
HETATM   23  C   UNL     1      -8.864   8.333  68.411  1.00  0.00    -0.137 A  
HETATM   24  N   UNL     1      -8.365   7.779  69.522  1.00  0.00    -0.128 NA 
ENDBRANCH   9  11
ENDBRANCH   4   9
BRANCH   6  25
HETATM   25  N   UNL     1     -13.793  14.551  72.320  1.00  0.00    -0.447 N  
HETATM   26  H   UNL     1     -14.755  14.842  72.145  1.00  0.00     0.000 HD 
BRANCH  25  27
HETATM   27  S   UNL     1     -12.770  15.447  73.325  1.00  0.00    -0.568 S  
HETATM   28  C   UNL     1     -11.759  16.295  72.120  1.00  0.00    -0.441 C  
HETATM   29  O   UNL     1     -11.934  14.474  73.992  1.00  0.00    -0.318 OA 
HETATM   30  O   UNL     1     -13.526  16.425  74.074  1.00  0.00    -0.480 OA 
ENDBRANCH  25  27
ENDBRANCH   6  25
ENDBRANCH   2   3
TORSDOF 5
ENDMDL
MODEL       45
REMARK 921   NORMALIZED FREE ENERGY PREDICTED BY IDOCK:   -6.70 KCAL/MOL
REMARK 922        TOTAL FREE ENERGY PREDICTED BY IDOCK:   -9.19 KCAL/MOL
REMARK 923 INTER-LIGAND FREE ENERGY PREDICTED BY IDOCK:   -8.41 KCAL/MOL
REMARK 924 INTRA-LIGAND FREE ENERGY PREDICTED BY IDOCK:   -0.78 KCAL/MOL
REMARK 927      BINDING AFFINITY PREDICTED BY RF-SCORE:    0.00 PKD
ROOT
HETATM    1  C   UNL     1      -9.756   9.052  66.242  1.00  0.00    -0.275 C  
HETATM    2  O   UNL     1      -8.793   9.987  66.737  1.00  0.00    -0.131 OA 
ENDROOT
BRANCH   2   3
HETATM    3  C   UNL     1      -9.293  11.257  66.937  1.00  0.00    -0.177 A  
HETATM    4  C   UNL     1      -9.413  11.707  68.273  1.00  0.00    -0.191 A  
HETATM    5  C   UNL     1      -9.824  13.027  68.498  1.00  0.00    -0.153 A  
HETATM    6  C   UNL     1     -10.158  13.359  66.124  1.00  0.00    -0.302 A  
HETATM    7  C   UNL     1     -10.192  13.853  67.428  1.00  0.00    -0.252 A  
HETATM    8  C   UNL     1      -9.710  12.066  65.876  1.00  0.00    -0.256 A  
BRANCH   4   9
HETATM    9  N   UNL     1      -9.158  10.819  69.338  1.00  0.00    -0.397 NA 
HETATM   10  H   UNL     1      -8.273  11.011  69.806  1.00  0.00     0.000 HD 
BRANCH   9  11
HETATM   11  C   UNL     1      -9.855   9.712  69.911  1.00  0.00    -0.239 A  
HETATM   12  C   UNL     1     -12.642   8.808  72.162  1.00  0.00    -0.463 A  
HETATM   13  C   UNL     1      -9.165   8.459  69.932  1.00  0.00    -0.151 A  
HETATM   14  C   UNL     1      -7.964   8.202  69.224  1.00  0.00    -0.115 A  
HETATM   15  C   UNL     1     -11.098   9.832  70.600  1.00  0.00    -0.398 A  
HETATM   16  C   UNL     1      -7.345   6.952  69.264  1.00  0.00    -0.092 A  
HETATM   17  C   UNL     1     -11.504   8.719  71.369  1.00  0.00    -0.297 A  
HETATM   18  C   UNL     1     -11.942  10.974  70.616  1.00  0.00    -0.464 A  
HETATM   19  C   UNL     1      -7.908   5.935  70.020  1.00  0.00    -0.100 A  
HETATM   20  C   UNL     1     -13.110  11.024  71.380  1.00  0.00    -0.441 A  
HETATM   21  C   UNL     1     -13.444   9.947  72.183  1.00  0.00    -0.454 A  
HETATM   22  C   UNL     1      -9.085   6.179  70.727  1.00  0.00    -0.156 A  
HETATM   23  C   UNL     1      -9.717   7.416  70.695  1.00  0.00    -0.175 A  
HETATM   24  N   UNL     1     -10.838   7.559  71.410  1.00  0.00    -0.228 NA 
ENDBRANCH   9  11
ENDBRANCH   4   9
BRANCH   6  25
HETATM   25  N   UNL     1     -10.632  14.127  65.018  1.00  0.00    -0.395 N  
HETATM   26  H   UNL     1     -10.011  14.739  64.489  1.00  0.00     0.000 HD 
BRANCH  25  27
HETATM   27  S   UNL     1     -12.270  13.979  64.624  1.00  0.00    -0.421 S  
HETATM   28  C   UNL     1     -12.213  12.684  63.394  1.00  0.00    -0.517 C  
HETATM   29  O   UNL     1     -12.617  15.210  63.949  1.00  0.00    -0.794 OA 
HETATM   30  O   UNL     1     -13.024  13.510  65.764  1.00  0.00    -0.379 OA 
ENDBRANCH  25  27
ENDBRANCH   6  25
ENDBRANCH   2   3
TORSDOF 5
ENDMDL
MODEL       46
REMARK 921   NORMALIZED FREE ENERGY PREDICTED BY IDOCK:   -6.69 KCAL/MOL
REMARK 922        TOTAL FREE ENERGY PREDICTED BY IDOCK:   -9.18 KCAL/MOL
REMARK 923 INTER-LIGAND FREE ENERGY PREDICTED BY IDOCK:   -8.50 KCAL/MOL
REMARK 924 INTRA-LIGAND FREE ENERGY PREDICTED BY IDOCK:   -0.69 KCAL/MOL
REMARK 927      BINDING AFFINITY PREDICTED BY RF-SCORE:    0.00 PKD
ROOT
HETATM    1  C   UNL     1     -13.310  13.000  71.926  1.00  0.00    -0.446 C  
HETATM    2  O   UNL     1     -12.434  12.278  71.053  1.00  0.00    -0.370 OA 
ENDROOT
BRANCH   2   3
HETATM    3  C   UNL     1     -12.157  12.930  69.871  1.00  0.00    -0.265 A  
HETATM    4  C   UNL     1     -12.013  12.137  68.707  1.00  0.00    -0.239 A  
HETATM    5  C   UNL     1     -11.831  12.784  67.478  1.00  0.00    -0.402 A  
HETATM    6  C   UNL     1     -11.753  14.934  68.585  1.00  0.00    -0.330 A  
HETATM    7  C   UNL     1     -11.705  14.177  67.415  1.00  0.00    -0.422 A  
HETATM    8  C   UNL     1     -11.978  14.316  69.810  1.00  0.00    -0.394 A  
BRANCH   4   9
HETATM    9  N   UNL     1     -12.018  10.732  68.812  1.00  0.00    -0.718 NA 
HETATM   10  H   UNL     1     -12.957  10.349  68.918  1.00  0.00     0.000 HD 
BRANCH   9  11
HETATM   11  C   UNL     1     -11.009   9.721  68.805  1.00  0.00    -0.148 A  
HETATM   12  C   UNL     1      -8.837   7.718  66.587  1.00  0.00    -0.166 A  
HETATM   13  C   UNL     1     -10.908   8.905  69.976  1.00  0.00    -0.239 A  
HETATM   14  C   UNL     1     -11.566   9.187  71.199  1.00  0.00    -0.386 A  
HETATM   15  C   UNL     1     -10.239   9.381  67.653  1.00  0.00    -0.281 A  
HETATM   16  C   UNL     1     -11.414   8.366  72.317  1.00  0.00    -0.454 A  
HETATM   17  C   UNL     1      -9.511   8.172  67.713  1.00  0.00    -0.142 A  
HETATM   18  C   UNL     1     -10.167  10.123  66.444  1.00  0.00    -0.288 A  
HETATM   19  C   UNL     1     -10.607   7.241  72.234  1.00  0.00    -0.257 A  
HETATM   20  C   UNL     1      -9.439   9.673  65.340  1.00  0.00    -0.343 A  
HETATM   21  C   UNL     1      -8.797   8.448  65.401  1.00  0.00    -0.146 A  
HETATM   22  C   UNL     1      -9.961   6.950  71.033  1.00  0.00    -0.199 A  
HETATM   23  C   UNL     1     -10.098   7.759  69.911  1.00  0.00    -0.203 A  
HETATM   24  N   UNL     1      -9.445   7.397  68.801  1.00  0.00    -0.144 NA 
ENDBRANCH   9  11
ENDBRANCH   4   9
BRANCH   6  25
HETATM   25  N   UNL     1     -11.514  16.341  68.579  1.00  0.00    -0.340 N  
HETATM   26  H   UNL     1     -12.201  16.999  68.947  1.00  0.00     0.000 HD 
BRANCH  25  27
HETATM   27  S   UNL     1     -10.044  16.871  67.933  1.00  0.00    -0.302 S  
HETATM   28  C   UNL     1      -9.903  18.489  68.677  1.00  0.00    -0.385 C  
HETATM   29  O   UNL     1     -10.287  17.057  66.520  1.00  0.00    -0.309 OA 
HETATM   30  O   UNL     1      -8.957  16.042  68.404  1.00  0.00    -0.179 OA 
ENDBRANCH  25  27
ENDBRANCH   6  25
ENDBRANCH   2   3
TORSDOF 5
ENDMDL
MODEL       47
REMARK 921   NORMALIZED FREE ENERGY PREDICTED BY IDOCK:   -6.66 KCAL/MOL
REMARK 922        TOTAL FREE ENERGY PREDICTED BY IDOCK:   -9.14 KCAL/MOL
REMARK 923 INTER-LIGAND FREE ENERGY PREDICTED BY IDOCK:   -8.93 KCAL/MOL
REMARK 924 INTRA-LIGAND FREE ENERGY PREDICTED BY IDOCK:   -0.21 KCAL/MOL
REMARK 927      BINDING AFFINITY PREDICTED BY RF-SCORE:    0.00 PKD
ROOT
HETATM    1  C   UNL     1     -11.542  10.945  69.851  1.00  0.00    -0.331 C  
HETATM    2  O   UNL     1     -11.729  11.822  68.736  1.00  0.00    -0.283 OA 
ENDROOT
BRANCH   2   3
HETATM    3  C   UNL     1     -11.520  13.154  69.026  1.00  0.00    -0.296 A  
HETATM    4  C   UNL     1     -10.381  13.774  68.460  1.00  0.00    -0.244 A  
HETATM    5  C   UNL     1     -10.202  15.149  68.658  1.00  0.00    -0.227 A  
HETATM    6  C   UNL     1     -12.144  15.225  70.099  1.00  0.00    -0.358 A  
HETATM    7  C   UNL     1     -11.082  15.874  69.472  1.00  0.00    -0.315 A  
HETATM    8  C   UNL     1     -12.366  13.870  69.879  1.00  0.00    -0.358 A  
BRANCH   4   9
HETATM    9  N   UNL     1      -9.441  12.999  67.750  1.00  0.00    -0.201 NA 
HETATM   10  H   UNL     1      -8.533  12.963  68.212  1.00  0.00     0.000 HD 
BRANCH   9  11
HETATM   11  C   UNL     1      -9.470  12.254  66.532  1.00  0.00    -0.236 A  
HETATM   12  C   UNL     1     -11.368  11.763  63.401  1.00  0.00    -0.437 A  
HETATM   13  C   UNL     1      -8.721  11.035  66.507  1.00  0.00    -0.169 A  
HETATM   14  C   UNL     1      -7.789  10.655  67.504  1.00  0.00    -0.106 A  
HETATM   15  C   UNL     1     -10.323  12.568  65.433  1.00  0.00    -0.305 A  
HETATM   16  C   UNL     1      -7.070   9.462  67.418  1.00  0.00    -0.086 A  
HETATM   17  C   UNL     1     -10.462  11.576  64.437  1.00  0.00    -0.325 A  
HETATM   18  C   UNL     1     -11.071  13.764  65.267  1.00  0.00    -0.315 A  
HETATM   19  C   UNL     1      -7.274   8.619  66.336  1.00  0.00    -0.080 A  
HETATM   20  C   UNL     1     -11.939  13.952  64.189  1.00  0.00    -0.464 A  
HETATM   21  C   UNL     1     -12.112  12.933  63.268  1.00  0.00    -0.520 A  
HETATM   22  C   UNL     1      -8.196   8.979  65.353  1.00  0.00    -0.131 A  
HETATM   23  C   UNL     1      -8.916  10.165  65.421  1.00  0.00    -0.177 A  
HETATM   24  N   UNL     1      -9.783  10.423  64.435  1.00  0.00    -0.314 NA 
ENDBRANCH   9  11
ENDBRANCH   4   9
BRANCH   6  25
HETATM   25  N   UNL     1     -12.995  15.901  71.026  1.00  0.00    -0.589 N  
HETATM   26  H   UNL     1     -13.626  16.644  70.725  1.00  0.00     0.000 HD 
BRANCH  25  27
HETATM   27  S   UNL     1     -12.912  15.415  72.643  1.00  0.00    -0.474 S  
HETATM   28  C   UNL     1     -13.726  13.826  72.569  1.00  0.00    -0.561 C  
HETATM   29  O   UNL     1     -13.781  16.319  73.363  1.00  0.00    -0.597 OA 
HETATM   30  O   UNL     1     -11.537  15.219  73.043  1.00  0.00    -0.425 OA 
ENDBRANCH  25  27
ENDBRANCH   6  25
ENDBRANCH   2   3
TORSDOF 5
ENDMDL
MODEL       48
REMARK 921   NORMALIZED FREE ENERGY PREDICTED BY IDOCK:   -6.66 KCAL/MOL
REMARK 922        TOTAL FREE ENERGY PREDICTED BY IDOCK:   -9.13 KCAL/MOL
REMARK 923 INTER-LIGAND FREE ENERGY PREDICTED BY IDOCK:   -8.62 KCAL/MOL
REMARK 924 INTRA-LIGAND FREE ENERGY PREDICTED BY IDOCK:   -0.52 KCAL/MOL
REMARK 927      BINDING AFFINITY PREDICTED BY RF-SCORE:    0.00 PKD
ROOT
HETATM    1  C   UNL     1      -7.230  10.225  68.911  1.00  0.00    -0.086 C  
HETATM    2  O   UNL     1      -8.368  11.087  69.013  1.00  0.00    -0.147 OA 
ENDROOT
BRANCH   2   3
HETATM    3  C   UNL     1      -9.243  10.991  67.951  1.00  0.00    -0.155 A  
HETATM    4  C   UNL     1     -10.453  11.720  68.035  1.00  0.00    -0.199 A  
HETATM    5  C   UNL     1     -11.311  11.719  66.928  1.00  0.00    -0.386 A  
HETATM    6  C   UNL     1      -9.870  10.154  65.775  1.00  0.00    -0.266 A  
HETATM    7  C   UNL     1     -11.020  10.941  65.799  1.00  0.00    -0.045 A  
HETATM    8  C   UNL     1      -8.982  10.177  66.845  1.00  0.00    -0.146 A  
BRANCH   4   9
HETATM    9  N   UNL     1     -10.784  12.393  69.229  1.00  0.00    -0.445 NA 
HETATM   10  H   UNL     1     -10.281  13.274  69.336  1.00  0.00     0.000 HD 
BRANCH   9  11
HETATM   11  C   UNL     1     -11.662  12.125  70.323  1.00  0.00    -0.153 A  
HETATM   12  C   UNL     1     -13.496   9.428  72.059  1.00  0.00    -0.522 A  
HETATM   13  C   UNL     1     -12.396  13.236  70.845  1.00  0.00    -0.413 A  
HETATM   14  C   UNL     1     -12.133  14.589  70.512  1.00  0.00    -0.395 A  
HETATM   15  C   UNL     1     -11.964  10.811  70.790  1.00  0.00    -0.464 A  
HETATM   16  C   UNL     1     -12.868  15.635  71.070  1.00  0.00    -0.521 A  
HETATM   17  C   UNL     1     -13.070  10.689  71.661  1.00  0.00    -0.450 A  
HETATM   18  C   UNL     1     -11.285   9.617  70.432  1.00  0.00    -0.342 A  
HETATM   19  C   UNL     1     -13.888  15.352  71.967  1.00  0.00    -0.625 A  
HETATM   20  C   UNL     1     -11.699   8.363  70.886  1.00  0.00    -0.269 A  
HETATM   21  C   UNL     1     -12.830   8.265  71.677  1.00  0.00    -0.350 A  
HETATM   22  C   UNL     1     -14.161  14.025  72.295  1.00  0.00    -0.633 A  
HETATM   23  C   UNL     1     -13.435  12.970  71.753  1.00  0.00    -0.314 A  
HETATM   24  N   UNL     1     -13.772  11.730  72.122  1.00  0.00    -0.110 NA 
ENDBRANCH   9  11
ENDBRANCH   4   9
BRANCH   6  25
HETATM   25  N   UNL     1      -9.594   9.262  64.695  1.00  0.00    -0.352 N  
HETATM   26  H   UNL     1      -9.943   8.303  64.695  1.00  0.00     0.000 HD 
BRANCH  25  27
HETATM   27  S   UNL     1      -8.664   9.862  63.417  1.00  0.00    -0.244 S  
HETATM   28  C   UNL     1      -9.712  11.180  62.817  1.00  0.00    -0.264 C  
HETATM   29  O   UNL     1      -8.659   8.816  62.419  1.00  0.00    -0.212 OA 
HETATM   30  O   UNL     1      -7.432  10.432  63.912  1.00  0.00    -0.110 OA 
ENDBRANCH  25  27
ENDBRANCH   6  25
ENDBRANCH   2   3
TORSDOF 5
ENDMDL
MODEL       49
REMARK 921   NORMALIZED FREE ENERGY PREDICTED BY IDOCK:   -6.64 KCAL/MOL
REMARK 922        TOTAL FREE ENERGY PREDICTED BY IDOCK:   -9.12 KCAL/MOL
REMARK 923 INTER-LIGAND FREE ENERGY PREDICTED BY IDOCK:   -8.68 KCAL/MOL
REMARK 924 INTRA-LIGAND FREE ENERGY PREDICTED BY IDOCK:   -0.44 KCAL/MOL
REMARK 927      BINDING AFFINITY PREDICTED BY RF-SCORE:    0.00 PKD
ROOT
HETATM    1  C   UNL     1     -12.680  13.628  71.291  1.00  0.00    -0.361 C  
HETATM    2  O   UNL     1     -11.937  12.892  70.314  1.00  0.00    -0.341 OA 
ENDROOT
BRANCH   2   3
HETATM    3  C   UNL     1     -11.764  13.559  69.120  1.00  0.00    -0.327 A  
HETATM    4  C   UNL     1     -11.871  12.803  67.928  1.00  0.00    -0.339 A  
HETATM    5  C   UNL     1     -11.799  13.476  66.702  1.00  0.00    -0.450 A  
HETATM    6  C   UNL     1     -11.339  15.562  67.839  1.00  0.00    -0.308 A  
HETATM    7  C   UNL     1     -11.537  14.852  66.656  1.00  0.00    -0.265 A  
HETATM    8  C   UNL     1     -11.452  14.921  69.068  1.00  0.00    -0.322 A  
BRANCH   4   9
HETATM    9  N   UNL     1     -12.009  11.402  67.997  1.00  0.00    -0.640 NA 
HETATM   10  H   UNL     1     -12.978  11.097  67.901  1.00  0.00     0.000 HD 
BRANCH   9  11
HETATM   11  C   UNL     1     -11.104  10.311  68.172  1.00  0.00    -0.264 A  
HETATM   12  C   UNL     1      -9.368   8.280  70.723  1.00  0.00    -0.183 A  
HETATM   13  C   UNL     1     -10.282   9.973  67.051  1.00  0.00    -0.295 A  
HETATM   14  C   UNL     1     -10.474  10.481  65.743  1.00  0.00    -0.214 A  
HETATM   15  C   UNL     1     -10.863   9.677  69.427  1.00  0.00    -0.239 A  
HETATM   16  C   UNL     1      -9.654  10.099  64.681  1.00  0.00    -0.379 A  
HETATM   17  C   UNL     1      -9.732   8.835  69.503  1.00  0.00    -0.172 A  
HETATM   18  C   UNL     1     -11.630   9.843  70.611  1.00  0.00    -0.413 A  
HETATM   19  C   UNL     1      -8.617   9.206  64.907  1.00  0.00    -0.208 A  
HETATM   20  C   UNL     1     -11.274   9.233  71.816  1.00  0.00    -0.413 A  
HETATM   21  C   UNL     1     -10.119   8.474  71.880  1.00  0.00    -0.367 A  
HETATM   22  C   UNL     1      -8.412   8.706  66.192  1.00  0.00    -0.140 A  
HETATM   23  C   UNL     1      -9.223   9.072  67.260  1.00  0.00    -0.134 A  
HETATM   24  N   UNL     1      -8.948   8.546  68.458  1.00  0.00    -0.139 NA 
ENDBRANCH   9  11
ENDBRANCH   4   9
BRANCH   6  25
HETATM   25  N   UNL     1     -10.957  16.938  67.834  1.00  0.00    -0.309 N  
HETATM   26  H   UNL     1     -11.372  17.608  68.481  1.00  0.00     0.000 HD 
BRANCH  25  27
HETATM   27  S   UNL     1      -9.788  17.408  66.707  1.00  0.00    -0.310 S  
HETATM   28  C   UNL     1      -8.928  18.685  67.614  1.00  0.00    -0.275 C  
HETATM   29  O   UNL     1     -10.519  18.048  65.636  1.00  0.00    -0.619 OA 
HETATM   30  O   UNL     1      -8.872  16.321  66.445  1.00  0.00    -0.252 OA 
ENDBRANCH  25  27
ENDBRANCH   6  25
ENDBRANCH   2   3
TORSDOF 5
ENDMDL
MODEL       50
REMARK 921   NORMALIZED FREE ENERGY PREDICTED BY IDOCK:   -6.63 KCAL/MOL
REMARK 922        TOTAL FREE ENERGY PREDICTED BY IDOCK:   -9.10 KCAL/MOL
REMARK 923 INTER-LIGAND FREE ENERGY PREDICTED BY IDOCK:   -8.25 KCAL/MOL
REMARK 924 INTRA-LIGAND FREE ENERGY PREDICTED BY IDOCK:   -0.85 KCAL/MOL
REMARK 927      BINDING AFFINITY PREDICTED BY RF-SCORE:    0.00 PKD
ROOT
HETATM    1  C   UNL     1     -10.462  12.160  64.834  1.00  0.00    -0.288 C  
HETATM    2  O   UNL     1     -10.504  13.329  65.660  1.00  0.00    -0.271 OA 
ENDROOT
BRANCH   2   3
HETATM    3  C   UNL     1     -10.950  13.095  66.943  1.00  0.00    -0.276 A  
HETATM    4  C   UNL     1     -11.053  14.208  67.811  1.00  0.00    -0.276 A  
HETATM    5  C   UNL     1     -11.598  14.012  69.086  1.00  0.00    -0.356 A  
HETATM    6  C   UNL     1     -11.749  11.630  68.688  1.00  0.00    -0.325 A  
HETATM    7  C   UNL     1     -11.949  12.728  69.524  1.00  0.00    -0.338 A  
HETATM    8  C   UNL     1     -11.252  11.809  67.402  1.00  0.00    -0.357 A  
BRANCH   4   9
HETATM    9  N   UNL     1     -10.577  15.468  67.394  1.00  0.00    -0.286 NA 
HETATM   10  H   UNL     1     -11.191  15.914  66.711  1.00  0.00     0.000 HD 
BRANCH   9  11
HETATM   11  C   UNL     1      -9.434  16.264  67.707  1.00  0.00    -0.221 A  
HETATM   12  C   UNL     1      -6.286  16.296  69.640  1.00  0.00    -0.195 A  
HETATM   13  C   UNL     1      -9.552  17.673  67.491  1.00  0.00    -0.267 A  
HETATM   14  C   UNL     1     -10.618  18.281  66.781  1.00  0.00    -0.338 A  
HETATM   15  C   UNL     1      -8.276  15.757  68.368  1.00  0.00    -0.151 A  
HETATM   16  C   UNL     1     -10.671  19.660  66.583  1.00  0.00    -0.552 A  
HETATM   17  C   UNL     1      -7.371  16.713  68.880  1.00  0.00    -0.225 A  
HETATM   18  C   UNL     1      -7.970  14.388  68.593  1.00  0.00    -0.145 A  
HETATM   19  C   UNL     1      -9.664  20.464  67.096  1.00  0.00    -0.601 A  
HETATM   20  C   UNL     1      -6.843  13.989  69.316  1.00  0.00    -0.105 A  
HETATM   21  C   UNL     1      -6.015  14.949  69.870  1.00  0.00    -0.132 A  
HETATM   22  C   UNL     1      -8.615  19.877  67.803  1.00  0.00    -0.370 A  
HETATM   23  C   UNL     1      -8.543  18.504  68.006  1.00  0.00    -0.291 A  
HETATM   24  N   UNL     1      -7.503  18.032  68.702  1.00  0.00    -0.281 NA 
ENDBRANCH   9  11
ENDBRANCH   4   9
BRANCH   6  25
HETATM   25  N   UNL     1     -11.985  10.295  69.135  1.00  0.00    -0.516 N  
HETATM   26  H   UNL     1     -12.792   9.760  68.814  1.00  0.00     0.000 HD 
BRANCH  25  27
HETATM   27  S   UNL     1     -10.867   9.637  70.220  1.00  0.00    -0.308 S  
HETATM   28  C   UNL     1     -10.911   7.912  69.758  1.00  0.00    -0.202 C  
HETATM   29  O   UNL     1     -11.478   9.758  71.525  1.00  0.00    -0.378 OA 
HETATM   30  O   UNL     1      -9.544  10.158  69.961  1.00  0.00    -0.200 OA 
ENDBRANCH  25  27
ENDBRANCH   6  25
ENDBRANCH   2   3
TORSDOF 5
ENDMDL
MODEL       51
REMARK 921   NORMALIZED FREE ENERGY PREDICTED BY IDOCK:   -6.62 KCAL/MOL
REMARK 922        TOTAL FREE ENERGY PREDICTED BY IDOCK:   -9.09 KCAL/MOL
REMARK 923 INTER-LIGAND FREE ENERGY PREDICTED BY IDOCK:   -8.12 KCAL/MOL
REMARK 924 INTRA-LIGAND FREE ENERGY PREDICTED BY IDOCK:   -0.97 KCAL/MOL
REMARK 927      BINDING AFFINITY PREDICTED BY RF-SCORE:    0.00 PKD
ROOT
HETATM    1  C   UNL     1      -7.330   8.675  68.852  1.00  0.00    -0.082 C  
HETATM    2  O   UNL     1      -7.835  10.008  68.984  1.00  0.00    -0.087 OA 
ENDROOT
BRANCH   2   3
HETATM    3  C   UNL     1      -9.147  10.073  69.400  1.00  0.00    -0.215 A  
HETATM    4  C   UNL     1      -9.979  11.039  68.786  1.00  0.00    -0.207 A  
HETATM    5  C   UNL     1     -11.340  11.057  69.120  1.00  0.00    -0.348 A  
HETATM    6  C   UNL     1     -10.990   9.320  70.767  1.00  0.00    -0.284 A  
HETATM    7  C   UNL     1     -11.846  10.199  70.104  1.00  0.00    -0.299 A  
HETATM    8  C   UNL     1      -9.645   9.254  70.418  1.00  0.00    -0.292 A  
BRANCH   4   9
HETATM    9  N   UNL     1      -9.423  11.976  67.892  1.00  0.00    -0.190 NA 
HETATM   10  H   UNL     1      -8.438  11.795  67.696  1.00  0.00     0.000 HD 
BRANCH   9  11
HETATM   11  C   UNL     1      -9.921  13.119  67.196  1.00  0.00    -0.236 A  
HETATM   12  C   UNL     1     -10.862  16.667  67.618  1.00  0.00    -0.258 A  
HETATM   13  C   UNL     1     -10.605  12.875  65.964  1.00  0.00    -0.287 A  
HETATM   14  C   UNL     1     -10.608  11.627  65.291  1.00  0.00    -0.333 A  
HETATM   15  C   UNL     1      -9.923  14.438  67.742  1.00  0.00    -0.226 A  
HETATM   16  C   UNL     1     -11.276  11.451  64.079  1.00  0.00    -0.350 A  
HETATM   17  C   UNL     1     -10.717  15.396  67.075  1.00  0.00    -0.321 A  
HETATM   18  C   UNL     1      -9.234  14.863  68.909  1.00  0.00    -0.192 A  
HETATM   19  C   UNL     1     -11.962  12.517  63.516  1.00  0.00    -0.629 A  
HETATM   20  C   UNL     1      -9.353  16.162  69.409  1.00  0.00    -0.186 A  
HETATM   21  C   UNL     1     -10.197  17.059  68.778  1.00  0.00    -0.317 A  
HETATM   22  C   UNL     1     -11.973  13.747  64.174  1.00  0.00    -0.473 A  
HETATM   23  C   UNL     1     -11.309  13.941  65.379  1.00  0.00    -0.309 A  
HETATM   24  N   UNL     1     -11.380  15.154  65.939  1.00  0.00    -0.281 NA 
ENDBRANCH   9  11
ENDBRANCH   4   9
BRANCH   6  25
HETATM   25  N   UNL     1     -11.440   8.511  71.854  1.00  0.00    -0.311 N  
HETATM   26  H   UNL     1     -11.300   8.795  72.823  1.00  0.00     0.000 HD 
BRANCH  25  27
HETATM   27  S   UNL     1     -12.218   7.060  71.464  1.00  0.00    -0.384 S  
HETATM   28  C   UNL     1     -13.933   7.536  71.616  1.00  0.00    -0.412 C  
HETATM   29  O   UNL     1     -11.915   6.156  72.551  1.00  0.00    -0.244 OA 
HETATM   30  O   UNL     1     -11.952   6.697  70.090  1.00  0.00    -0.367 OA 
ENDBRANCH  25  27
ENDBRANCH   6  25
ENDBRANCH   2   3
TORSDOF 5
ENDMDL
MODEL       52
REMARK 921   NORMALIZED FREE ENERGY PREDICTED BY IDOCK:   -6.61 KCAL/MOL
REMARK 922        TOTAL FREE ENERGY PREDICTED BY IDOCK:   -9.07 KCAL/MOL
REMARK 923 INTER-LIGAND FREE ENERGY PREDICTED BY IDOCK:   -8.56 KCAL/MOL
REMARK 924 INTRA-LIGAND FREE ENERGY PREDICTED BY IDOCK:   -0.50 KCAL/MOL
REMARK 927      BINDING AFFINITY PREDICTED BY RF-SCORE:    0.00 PKD
ROOT
HETATM    1  C   UNL     1     -13.488  11.362  72.038  1.00  0.00    -0.183 C  
HETATM    2  O   UNL     1     -13.301  10.688  70.789  1.00  0.00    -0.214 OA 
ENDROOT
BRANCH   2   3
HETATM    3  C   UNL     1     -12.120   9.984  70.701  1.00  0.00    -0.292 A  
HETATM    4  C   UNL     1     -11.337  10.165  69.536  1.00  0.00    -0.206 A  
HETATM    5  C   UNL     1     -10.086   9.539  69.469  1.00  0.00    -0.218 A  
HETATM    6  C   UNL     1     -10.488   8.439  71.586  1.00  0.00    -0.252 A  
HETATM    7  C   UNL     1      -9.660   8.681  70.491  1.00  0.00    -0.210 A  
HETATM    8  C   UNL     1     -11.714   9.087  71.694  1.00  0.00    -0.431 A  
BRANCH   4   9
HETATM    9  N   UNL     1     -11.841  10.932  68.466  1.00  0.00    -0.676 NA 
HETATM   10  H   UNL     1     -12.558  10.439  67.933  1.00  0.00     0.000 HD 
BRANCH   9  11
HETATM   11  C   UNL     1     -11.578  12.239  67.956  1.00  0.00    -0.349 A  
HETATM   12  C   UNL     1     -11.882  15.839  68.731  1.00  0.00    -0.321 A  
HETATM   13  C   UNL     1     -11.394  12.353  66.542  1.00  0.00    -0.392 A  
HETATM   14  C   UNL     1     -11.222  11.247  65.672  1.00  0.00    -0.074 A  
HETATM   15  C   UNL     1     -11.662  13.426  68.743  1.00  0.00    -0.377 A  
HETATM   16  C   UNL     1     -11.024  11.418  64.302  1.00  0.00    -0.390 A  
HETATM   17  C   UNL     1     -11.680  14.651  68.039  1.00  0.00    -0.342 A  
HETATM   18  C   UNL     1     -11.769  13.489  70.158  1.00  0.00    -0.280 A  
HETATM   19  C   UNL     1     -11.003  12.698  63.769  1.00  0.00    -0.481 A  
HETATM   20  C   UNL     1     -11.919  14.699  70.838  1.00  0.00    -0.388 A  
HETATM   21  C   UNL     1     -12.008  15.878  70.118  1.00  0.00    -0.306 A  
HETATM   22  C   UNL     1     -11.179  13.794  64.614  1.00  0.00    -0.383 A  
HETATM   23  C   UNL     1     -11.372  13.642  65.982  1.00  0.00    -0.312 A  
HETATM   24  N   UNL     1     -11.538  14.750  66.713  1.00  0.00    -0.354 NA 
ENDBRANCH   9  11
ENDBRANCH   4   9
BRANCH   6  25
HETATM   25  N   UNL     1     -10.143   7.486  72.592  1.00  0.00    -0.203 N  
HETATM   26  H   UNL     1      -9.672   7.766  73.452  1.00  0.00     0.000 HD 
BRANCH  25  27
HETATM   27  S   UNL     1     -10.551   5.872  72.295  1.00  0.00    -0.228 S  
HETATM   28  C   UNL     1      -8.935   5.108  72.266  1.00  0.00    -0.128 C  
HETATM   29  O   UNL     1     -11.071   5.847  70.946  1.00  0.00    -0.282 OA 
HETATM   30  O   UNL     1     -11.306   5.330  73.401  1.00  0.00    -0.293 OA 
ENDBRANCH  25  27
ENDBRANCH   6  25
ENDBRANCH   2   3
TORSDOF 5
ENDMDL
MODEL       53
REMARK 921   NORMALIZED FREE ENERGY PREDICTED BY IDOCK:   -6.58 KCAL/MOL
REMARK 922        TOTAL FREE ENERGY PREDICTED BY IDOCK:   -9.04 KCAL/MOL
REMARK 923 INTER-LIGAND FREE ENERGY PREDICTED BY IDOCK:   -8.14 KCAL/MOL
REMARK 924 INTRA-LIGAND FREE ENERGY PREDICTED BY IDOCK:   -0.89 KCAL/MOL
REMARK 927      BINDING AFFINITY PREDICTED BY RF-SCORE:    0.00 PKD
ROOT
HETATM    1  C   UNL     1      -7.919   9.258  68.213  1.00  0.00    -0.102 C  
HETATM    2  O   UNL     1      -8.202  10.368  69.072  1.00  0.00    -0.121 OA 
ENDROOT
BRANCH   2   3
HETATM    3  C   UNL     1      -9.466  10.345  69.622  1.00  0.00    -0.086 A  
HETATM    4  C   UNL     1     -10.350  11.391  69.268  1.00  0.00    -0.024 A  
HETATM    5  C   UNL     1     -11.670  11.336  69.734  1.00  0.00    -0.422 A  
HETATM    6  C   UNL     1     -11.165   9.347  71.017  1.00  0.00    -0.342 A  
HETATM    7  C   UNL     1     -12.079  10.315  70.603  1.00  0.00    -0.433 A  
HETATM    8  C   UNL     1      -9.863   9.358  70.530  1.00  0.00    -0.331 A  
BRANCH   4   9
HETATM    9  N   UNL     1      -9.882  12.474  68.496  1.00  0.00    -0.351 NA 
HETATM   10  H   UNL     1      -9.115  12.974  68.945  1.00  0.00     0.000 HD 
BRANCH   9  11
HETATM   11  C   UNL     1     -10.235  13.031  67.230  1.00  0.00    -0.239 A  
HETATM   12  C   UNL     1     -10.231  12.368  63.595  1.00  0.00    -0.383 A  
HETATM   13  C   UNL     1     -10.397  14.451  67.175  1.00  0.00    -0.262 A  
HETATM   14  C   UNL     1     -10.463  15.288  68.317  1.00  0.00    -0.244 A  
HETATM   15  C   UNL     1     -10.261  12.281  66.016  1.00  0.00    -0.267 A  
HETATM   16  C   UNL     1     -10.644  16.666  68.204  1.00  0.00    -0.336 A  
HETATM   17  C   UNL     1     -10.325  13.024  64.816  1.00  0.00    -0.336 A  
HETATM   18  C   UNL     1     -10.191  10.867  65.902  1.00  0.00    -0.314 A  
HETATM   19  C   UNL     1     -10.754  17.241  66.947  1.00  0.00    -0.126 A  
HETATM   20  C   UNL     1     -10.151  10.224  64.663  1.00  0.00    -0.317 A  
HETATM   21  C   UNL     1     -10.138  10.980  63.504  1.00  0.00    -0.428 A  
HETATM   22  C   UNL     1     -10.682  16.428  65.816  1.00  0.00    -0.245 A  
HETATM   23  C   UNL     1     -10.508  15.053  65.909  1.00  0.00    -0.328 A  
HETATM   24  N   UNL     1     -10.445  14.355  64.770  1.00  0.00    -0.418 NA 
ENDBRANCH   9  11
ENDBRANCH   4   9
BRANCH   6  25
HETATM   25  N   UNL     1     -11.508   8.359  71.989  1.00  0.00    -0.324 N  
HETATM   26  H   UNL     1     -11.303   8.492  72.979  1.00  0.00     0.000 HD 
BRANCH  25  27
HETATM   27  S   UNL     1     -12.270   6.957  71.427  1.00  0.00    -0.373 S  
HETATM   28  C   UNL     1     -11.654   5.742  72.583  1.00  0.00    -0.253 C  
HETATM   29  O   UNL     1     -11.670   6.682  70.140  1.00  0.00    -0.394 OA 
HETATM   30  O   UNL     1     -13.703   7.065  71.579  1.00  0.00    -0.343 OA 
ENDBRANCH  25  27
ENDBRANCH   6  25
ENDBRANCH   2   3
TORSDOF 5
ENDMDL
MODEL       54
REMARK 921   NORMALIZED FREE ENERGY PREDICTED BY IDOCK:   -6.58 KCAL/MOL
REMARK 922        TOTAL FREE ENERGY PREDICTED BY IDOCK:   -9.04 KCAL/MOL
REMARK 923 INTER-LIGAND FREE ENERGY PREDICTED BY IDOCK:   -8.73 KCAL/MOL
REMARK 924 INTRA-LIGAND FREE ENERGY PREDICTED BY IDOCK:   -0.31 KCAL/MOL
REMARK 927      BINDING AFFINITY PREDICTED BY RF-SCORE:    0.00 PKD
ROOT
HETATM    1  C   UNL     1     -12.362  13.469  66.173  1.00  0.00    -0.407 C  
HETATM    2  O   UNL     1     -12.144  12.270  66.924  1.00  0.00    -0.583 OA 
ENDROOT
BRANCH   2   3
HETATM    3  C   UNL     1     -10.849  11.800  66.868  1.00  0.00    -0.271 A  
HETATM    4  C   UNL     1     -10.083  11.855  68.057  1.00  0.00    -0.195 A  
HETATM    5  C   UNL     1      -8.800  11.292  68.051  1.00  0.00    -0.148 A  
HETATM    6  C   UNL     1      -8.990  10.810  65.687  1.00  0.00    -0.189 A  
HETATM    7  C   UNL     1      -8.255  10.768  66.871  1.00  0.00    -0.130 A  
HETATM    8  C   UNL     1     -10.282  11.324  65.682  1.00  0.00    -0.304 A  
BRANCH   4   9
HETATM    9  N   UNL     1     -10.604  12.500  69.197  1.00  0.00    -0.438 NA 
HETATM   10  H   UNL     1     -10.073  13.333  69.454  1.00  0.00     0.000 HD 
BRANCH   9  11
HETATM   11  C   UNL     1     -11.703  12.256  70.075  1.00  0.00    -0.242 A  
HETATM   12  C   UNL     1     -14.146  13.913  72.296  1.00  0.00    -0.632 A  
HETATM   13  C   UNL     1     -11.834  10.927  70.587  1.00  0.00    -0.453 A  
HETATM   14  C   UNL     1     -11.102   9.814  70.103  1.00  0.00    -0.335 A  
HETATM   15  C   UNL     1     -12.549  13.284  70.586  1.00  0.00    -0.305 A  
HETATM   16  C   UNL     1     -11.286   8.534  70.628  1.00  0.00    -0.265 A  
HETATM   17  C   UNL     1     -13.386  12.934  71.669  1.00  0.00    -0.269 A  
HETATM   18  C   UNL     1     -12.600  14.630  70.136  1.00  0.00    -0.333 A  
HETATM   19  C   UNL     1     -12.200   8.340  71.653  1.00  0.00    -0.350 A  
HETATM   20  C   UNL     1     -13.412  15.588  70.749  1.00  0.00    -0.226 A  
HETATM   21  C   UNL     1     -14.165  15.234  71.855  1.00  0.00    -0.681 A  
HETATM   22  C   UNL     1     -12.919   9.430  72.143  1.00  0.00    -0.503 A  
HETATM   23  C   UNL     1     -12.752  10.710  71.629  1.00  0.00    -0.426 A  
HETATM   24  N   UNL     1     -13.481  11.695  72.165  1.00  0.00    -0.320 NA 
ENDBRANCH   9  11
ENDBRANCH   4   9
BRANCH   6  25
HETATM   25  N   UNL     1      -8.430  10.393  64.442  1.00  0.00    -0.186 N  
HETATM   26  H   UNL     1      -8.257  11.057  63.687  1.00  0.00     0.000 HD 
BRANCH  25  27
HETATM   27  S   UNL     1      -8.067   8.750  64.272  1.00  0.00    -0.160 S  
HETATM   28  C   UNL     1      -6.300   8.758  64.538  1.00  0.00    -0.067 C  
HETATM   29  O   UNL     1      -8.299   8.446  62.878  1.00  0.00    -0.178 OA 
HETATM   30  O   UNL     1      -8.695   7.982  65.322  1.00  0.00    -0.130 OA 
ENDBRANCH  25  27
ENDBRANCH   6  25
ENDBRANCH   2   3
TORSDOF 5
ENDMDL
MODEL       55
REMARK 921   NORMALIZED FREE ENERGY PREDICTED BY IDOCK:   -6.53 KCAL/MOL
REMARK 922        TOTAL FREE ENERGY PREDICTED BY IDOCK:   -8.98 KCAL/MOL
REMARK 923 INTER-LIGAND FREE ENERGY PREDICTED BY IDOCK:   -8.22 KCAL/MOL
REMARK 924 INTRA-LIGAND FREE ENERGY PREDICTED BY IDOCK:   -0.76 KCAL/MOL
REMARK 927      BINDING AFFINITY PREDICTED BY RF-SCORE:    0.00 PKD
ROOT
HETATM    1  C   UNL     1      -6.967  13.134  68.548  1.00  0.00    -0.103 C  
HETATM    2  O   UNL     1      -7.848  12.204  67.909  1.00  0.00    -0.126 OA 
ENDROOT
BRANCH   2   3
HETATM    3  C   UNL     1      -9.128  12.681  67.719  1.00  0.00    -0.192 A  
HETATM    4  C   UNL     1     -10.150  12.151  68.542  1.00  0.00    -0.187 A  
HETATM    5  C   UNL     1     -11.438  12.691  68.438  1.00  0.00    -0.350 A  
HETATM    6  C   UNL     1     -10.728  14.112  66.613  1.00  0.00    -0.289 A  
HETATM    7  C   UNL     1     -11.727  13.671  67.479  1.00  0.00    -0.406 A  
HETATM    8  C   UNL     1      -9.432  13.621  66.730  1.00  0.00    -0.275 A  
BRANCH   4   9
HETATM    9  N   UNL     1      -9.864  11.078  69.411  1.00  0.00    -0.428 NA 
HETATM   10  H   UNL     1      -9.083  11.276  70.036  1.00  0.00     0.000 HD 
BRANCH   9  11
HETATM   11  C   UNL     1     -10.417   9.777  69.617  1.00  0.00    -0.242 A  
HETATM   12  C   UNL     1     -12.668   7.825  71.800  1.00  0.00    -0.354 A  
HETATM   13  C   UNL     1      -9.726   8.682  69.009  1.00  0.00    -0.173 A  
HETATM   14  C   UNL     1      -8.695   8.828  68.047  1.00  0.00    -0.141 A  
HETATM   15  C   UNL     1     -11.492   9.509  70.516  1.00  0.00    -0.337 A  
HETATM   16  C   UNL     1      -8.070   7.722  67.471  1.00  0.00    -0.124 A  
HETATM   17  C   UNL     1     -11.719   8.153  70.840  1.00  0.00    -0.244 A  
HETATM   18  C   UNL     1     -12.324  10.475  71.141  1.00  0.00    -0.510 A  
HETATM   19  C   UNL     1      -8.455   6.445  67.852  1.00  0.00    -0.118 A  
HETATM   20  C   UNL     1     -13.308  10.119  72.065  1.00  0.00    -0.492 A  
HETATM   21  C   UNL     1     -13.459   8.790  72.421  1.00  0.00    -0.446 A  
HETATM   22  C   UNL     1      -9.462   6.289  68.804  1.00  0.00    -0.124 A  
HETATM   23  C   UNL     1     -10.099   7.380  69.384  1.00  0.00    -0.185 A  
HETATM   24  N   UNL     1     -11.049   7.133  70.292  1.00  0.00    -0.266 NA 
ENDBRANCH   9  11
ENDBRANCH   4   9
BRANCH   6  25
HETATM   25  N   UNL     1     -11.005  15.023  65.549  1.00  0.00    -0.342 N  
HETATM   26  H   UNL     1     -11.598  14.758  64.763  1.00  0.00     0.000 HD 
BRANCH  25  27
HETATM   27  S   UNL     1     -10.308  16.560  65.650  1.00  0.00    -0.263 S  
HETATM   28  C   UNL     1     -10.745  17.028  67.318  1.00  0.00    -0.206 C  
HETATM   29  O   UNL     1     -11.074  17.390  64.747  1.00  0.00    -0.973 OA 
HETATM   30  O   UNL     1      -8.870  16.471  65.549  1.00  0.00    -0.325 OA 
ENDBRANCH  25  27
ENDBRANCH   6  25
ENDBRANCH   2   3
TORSDOF 5
ENDMDL
MODEL       56
REMARK 921   NORMALIZED FREE ENERGY PREDICTED BY IDOCK:   -6.53 KCAL/MOL
REMARK 922        TOTAL FREE ENERGY PREDICTED BY IDOCK:   -8.97 KCAL/MOL
REMARK 923 INTER-LIGAND FREE ENERGY PREDICTED BY IDOCK:   -8.10 KCAL/MOL
REMARK 924 INTRA-LIGAND FREE ENERGY PREDICTED BY IDOCK:   -0.88 KCAL/MOL
REMARK 927      BINDING AFFINITY PREDICTED BY RF-SCORE:    0.00 PKD
ROOT
HETATM    1  C   UNL     1     -10.101  10.368  64.849  1.00  0.00    -0.312 C  
HETATM    2  O   UNL     1     -10.801  10.961  65.949  1.00  0.00    -0.178 OA 
ENDROOT
BRANCH   2   3
HETATM    3  C   UNL     1     -10.617  10.307  67.149  1.00  0.00    -0.260 A  
HETATM    4  C   UNL     1     -11.256  10.848  68.291  1.00  0.00    -0.286 A  
HETATM    5  C   UNL     1     -11.167  10.147  69.500  1.00  0.00    -0.288 A  
HETATM    6  C   UNL     1      -9.690   8.522  68.485  1.00  0.00    -0.163 A  
HETATM    7  C   UNL     1     -10.389   8.986  69.597  1.00  0.00    -0.217 A  
HETATM    8  C   UNL     1      -9.801   9.178  67.263  1.00  0.00    -0.244 A  
BRANCH   4   9
HETATM    9  N   UNL     1     -11.928  12.084  68.198  1.00  0.00    -0.496 NA 
HETATM   10  H   UNL     1     -12.722  12.053  67.558  1.00  0.00     0.000 HD 
BRANCH   9  11
HETATM   11  C   UNL     1     -11.752  13.370  68.793  1.00  0.00    -0.340 A  
HETATM   12  C   UNL     1     -12.891  15.534  71.563  1.00  0.00    -0.519 A  
HETATM   13  C   UNL     1     -11.170  14.385  67.971  1.00  0.00    -0.298 A  
HETATM   14  C   UNL     1     -10.556  14.137  66.718  1.00  0.00    -0.277 A  
HETATM   15  C   UNL     1     -12.274  13.726  70.073  1.00  0.00    -0.407 A  
HETATM   16  C   UNL     1      -9.984  15.165  65.968  1.00  0.00    -0.335 A  
HETATM   17  C   UNL     1     -12.288  15.103  70.388  1.00  0.00    -0.363 A  
HETATM   18  C   UNL     1     -12.813  12.834  71.037  1.00  0.00    -0.262 A  
HETATM   19  C   UNL     1     -10.023  16.465  66.449  1.00  0.00    -0.318 A  
HETATM   20  C   UNL     1     -13.368  13.284  72.237  1.00  0.00    -0.630 A  
HETATM   21  C   UNL     1     -13.437  14.644  72.486  1.00  0.00    -0.565 A  
HETATM   22  C   UNL     1     -10.633  16.722  67.676  1.00  0.00    -0.325 A  
HETATM   23  C   UNL     1     -11.202  15.710  68.439  1.00  0.00    -0.352 A  
HETATM   24  N   UNL     1     -11.770  16.052  69.601  1.00  0.00    -0.311 NA 
ENDBRANCH   9  11
ENDBRANCH   4   9
BRANCH   6  25
HETATM   25  N   UNL     1      -8.797   7.411  68.569  1.00  0.00    -0.127 N  
HETATM   26  H   UNL     1      -9.137   6.451  68.527  1.00  0.00     0.000 HD 
BRANCH  25  27
HETATM   27  S   UNL     1      -7.151   7.757  68.743  1.00  0.00    -0.077 S  
HETATM   28  C   UNL     1      -6.507   6.155  69.201  1.00  0.00    -0.043 C  
HETATM   29  O   UNL     1      -7.057   8.615  69.902  1.00  0.00    -0.048 OA 
HETATM   30  O   UNL     1      -6.579   8.147  67.474  1.00  0.00    -0.056 OA 
ENDBRANCH  25  27
ENDBRANCH   6  25
ENDBRANCH   2   3
TORSDOF 5
ENDMDL
MODEL       57
REMARK 921   NORMALIZED FREE ENERGY PREDICTED BY IDOCK:   -6.51 KCAL/MOL
REMARK 922        TOTAL FREE ENERGY PREDICTED BY IDOCK:   -8.95 KCAL/MOL
REMARK 923 INTER-LIGAND FREE ENERGY PREDICTED BY IDOCK:   -8.30 KCAL/MOL
REMARK 924 INTRA-LIGAND FREE ENERGY PREDICTED BY IDOCK:   -0.65 KCAL/MOL
REMARK 927      BINDING AFFINITY PREDICTED BY RF-SCORE:    0.00 PKD
ROOT
HETATM    1  C   UNL     1      -6.988  14.101  68.586  1.00  0.00    -0.107 C  
HETATM    2  O   UNL     1      -7.758  13.754  67.430  1.00  0.00    -0.169 OA 
ENDROOT
BRANCH   2   3
HETATM    3  C   UNL     1      -8.563  14.772  66.964  1.00  0.00    -0.234 A  
HETATM    4  C   UNL     1      -9.868  14.428  66.537  1.00  0.00    -0.287 A  
HETATM    5  C   UNL     1     -10.737  15.458  66.155  1.00  0.00    -0.316 A  
HETATM    6  C   UNL     1      -8.976  17.093  66.442  1.00  0.00    -0.260 A  
HETATM    7  C   UNL     1     -10.295  16.787  66.110  1.00  0.00    -0.338 A  
HETATM    8  C   UNL     1      -8.111  16.091  66.868  1.00  0.00    -0.282 A  
BRANCH   4   9
HETATM    9  N   UNL     1     -10.249  13.073  66.471  1.00  0.00    -0.263 NA 
HETATM   10  H   UNL     1     -10.085  12.663  65.551  1.00  0.00     0.000 HD 
BRANCH   9  11
HETATM   11  C   UNL     1     -10.813  12.142  67.395  1.00  0.00    -0.245 A  
HETATM   12  C   UNL     1     -12.269  11.834  70.776  1.00  0.00    -0.424 A  
HETATM   13  C   UNL     1     -10.514  10.760  67.178  1.00  0.00    -0.285 A  
HETATM   14  C   UNL     1      -9.910  10.253  66.000  1.00  0.00    -0.292 A  
HETATM   15  C   UNL     1     -11.495  12.526  68.588  1.00  0.00    -0.348 A  
HETATM   16  C   UNL     1      -9.660   8.891  65.834  1.00  0.00    -0.293 A  
HETATM   17  C   UNL     1     -11.721  11.510  69.542  1.00  0.00    -0.346 A  
HETATM   18  C   UNL     1     -11.931  13.837  68.919  1.00  0.00    -0.394 A  
HETATM   19  C   UNL     1     -10.002   8.005  66.845  1.00  0.00    -0.338 A  
HETATM   20  C   UNL     1     -12.528  14.132  70.147  1.00  0.00    -0.391 A  
HETATM   21  C   UNL     1     -12.669  13.131  71.093  1.00  0.00    -0.386 A  
HETATM   22  C   UNL     1     -10.590   8.494  68.012  1.00  0.00    -0.197 A  
HETATM   23  C   UNL     1     -10.850   9.847  68.192  1.00  0.00    -0.234 A  
HETATM   24  N   UNL     1     -11.410  10.223  69.347  1.00  0.00    -0.237 NA 
ENDBRANCH   9  11
ENDBRANCH   4   9
BRANCH   6  25
HETATM   25  N   UNL     1      -8.454  18.414  66.300  1.00  0.00    -0.239 N  
HETATM   26  H   UNL     1      -7.736  18.631  65.609  1.00  0.00     0.000 HD 
BRANCH  25  27
HETATM   27  S   UNL     1      -9.078  19.603  67.327  1.00  0.00    -0.332 S  
HETATM   28  C   UNL     1      -7.681  20.709  67.463  1.00  0.00    -0.277 C  
HETATM   29  O   UNL     1      -9.251  18.955  68.608  1.00  0.00    -0.343 OA 
HETATM   30  O   UNL     1     -10.169  20.303  66.687  1.00  0.00    -0.438 OA 
ENDBRANCH  25  27
ENDBRANCH   6  25
ENDBRANCH   2   3
TORSDOF 5
ENDMDL
MODEL       58
REMARK 921   NORMALIZED FREE ENERGY PREDICTED BY IDOCK:   -6.47 KCAL/MOL
REMARK 922        TOTAL FREE ENERGY PREDICTED BY IDOCK:   -8.89 KCAL/MOL
REMARK 923 INTER-LIGAND FREE ENERGY PREDICTED BY IDOCK:   -7.82 KCAL/MOL
REMARK 924 INTRA-LIGAND FREE ENERGY PREDICTED BY IDOCK:   -1.07 KCAL/MOL
REMARK 927      BINDING AFFINITY PREDICTED BY RF-SCORE:    0.00 PKD
ROOT
HETATM    1  C   UNL     1     -11.026   6.159  68.527  1.00  0.00    -0.320 C  
HETATM    2  O   UNL     1     -11.716   6.443  69.748  1.00  0.00    -0.414 OA 
ENDROOT
BRANCH   2   3
HETATM    3  C   UNL     1     -10.917   6.988  70.731  1.00  0.00    -0.255 A  
HETATM    4  C   UNL     1     -11.071   8.368  71.005  1.00  0.00    -0.258 A  
HETATM    5  C   UNL     1     -10.343   8.922  72.066  1.00  0.00    -0.378 A  
HETATM    6  C   UNL     1      -9.213   6.815  72.432  1.00  0.00    -0.134 A  
HETATM    7  C   UNL     1      -9.420   8.149  72.781  1.00  0.00    -0.349 A  
HETATM    8  C   UNL     1      -9.958   6.233  71.412  1.00  0.00    -0.210 A  
BRANCH   4   9
HETATM    9  N   UNL     1     -11.912   9.155  70.192  1.00  0.00    -0.443 NA 
HETATM   10  H   UNL     1     -12.803   8.700  69.993  1.00  0.00     0.000 HD 
BRANCH   9  11
HETATM   11  C   UNL     1     -11.803  10.442  69.583  1.00  0.00    -0.180 A  
HETATM   12  C   UNL     1     -10.056  12.325  66.927  1.00  0.00    -0.224 A  
HETATM   13  C   UNL     1     -12.266  11.557  70.350  1.00  0.00    -0.442 A  
HETATM   14  C   UNL     1     -13.024  11.442  71.541  1.00  0.00    -0.505 A  
HETATM   15  C   UNL     1     -11.114  10.680  68.356  1.00  0.00    -0.328 A  
HETATM   16  C   UNL     1     -13.468  12.566  72.237  1.00  0.00    -0.490 A  
HETATM   17  C   UNL     1     -10.828  12.027  68.043  1.00  0.00    -0.216 A  
HETATM   18  C   UNL     1     -10.659   9.690  67.445  1.00  0.00    -0.333 A  
HETATM   19  C   UNL     1     -13.157  13.831  71.762  1.00  0.00    -0.463 A  
HETATM   20  C   UNL     1      -9.928  10.016  66.300  1.00  0.00    -0.310 A  
HETATM   21  C   UNL     1      -9.597  11.338  66.057  1.00  0.00    -0.245 A  
HETATM   22  C   UNL     1     -12.404  13.957  70.594  1.00  0.00    -0.451 A  
HETATM   23  C   UNL     1     -11.958  12.848  69.886  1.00  0.00    -0.307 A  
HETATM   24  N   UNL     1     -11.238  13.065  68.780  1.00  0.00    -0.266 NA 
ENDBRANCH   9  11
ENDBRANCH   4   9
BRANCH   6  25
HETATM   25  N   UNL     1      -8.201   6.024  73.057  1.00  0.00    -0.116 N  
HETATM   26  H   UNL     1      -8.438   5.254  73.682  1.00  0.00     0.000 HD 
BRANCH  25  27
HETATM   27  S   UNL     1      -6.593   6.420  72.716  1.00  0.00    -0.065 S  
HETATM   28  C   UNL     1      -5.782   4.857  73.014  1.00  0.00    -0.013 C  
HETATM   29  O   UNL     1      -6.189   7.331  73.763  1.00  0.00    -0.064 OA 
HETATM   30  O   UNL     1      -6.443   6.768  71.321  1.00  0.00    -0.041 OA 
ENDBRANCH  25  27
ENDBRANCH   6  25
ENDBRANCH   2   3
TORSDOF 5
ENDMDL
MODEL       59
REMARK 921   NORMALIZED FREE ENERGY PREDICTED BY IDOCK:   -6.47 KCAL/MOL
REMARK 922        TOTAL FREE ENERGY PREDICTED BY IDOCK:   -8.89 KCAL/MOL
REMARK 923 INTER-LIGAND FREE ENERGY PREDICTED BY IDOCK:   -8.38 KCAL/MOL
REMARK 924 INTRA-LIGAND FREE ENERGY PREDICTED BY IDOCK:   -0.51 KCAL/MOL
REMARK 927      BINDING AFFINITY PREDICTED BY RF-SCORE:    0.00 PKD
ROOT
HETATM    1  C   UNL     1     -11.228   7.893  70.910  1.00  0.00    -0.270 C  
HETATM    2  O   UNL     1     -11.166   9.042  70.058  1.00  0.00    -0.221 OA 
ENDROOT
BRANCH   2   3
HETATM    3  C   UNL     1     -10.616   8.793  68.818  1.00  0.00    -0.145 A  
HETATM    4  C   UNL     1     -10.890   9.721  67.785  1.00  0.00    -0.246 A  
HETATM    5  C   UNL     1     -10.262   9.544  66.546  1.00  0.00    -0.307 A  
HETATM    6  C   UNL     1      -9.271   7.473  67.309  1.00  0.00    -0.131 A  
HETATM    7  C   UNL     1      -9.452   8.426  66.308  1.00  0.00    -0.292 A  
HETATM    8  C   UNL     1      -9.850   7.653  68.561  1.00  0.00    -0.174 A  
BRANCH   4   9
HETATM    9  N   UNL     1     -11.807  10.768  68.009  1.00  0.00    -0.773 NA 
HETATM   10  H   UNL     1     -12.759  10.522  67.735  1.00  0.00     0.000 HD 
BRANCH   9  11
HETATM   11  C   UNL     1     -11.711  12.094  68.530  1.00  0.00    -0.330 A  
HETATM   12  C   UNL     1     -12.899  14.307  71.239  1.00  0.00    -0.422 A  
HETATM   13  C   UNL     1     -11.249  13.106  67.630  1.00  0.00    -0.313 A  
HETATM   14  C   UNL     1     -10.672  12.840  66.364  1.00  0.00    -0.282 A  
HETATM   15  C   UNL     1     -12.203  12.476  69.813  1.00  0.00    -0.199 A  
HETATM   16  C   UNL     1     -10.219  13.867  65.536  1.00  0.00    -0.348 A  
HETATM   17  C   UNL     1     -12.315  13.863  70.059  1.00  0.00    -0.316 A  
HETATM   18  C   UNL     1     -12.626  11.597  70.845  1.00  0.00    -0.409 A  
HETATM   19  C   UNL     1     -10.341  15.184  65.952  1.00  0.00    -0.344 A  
HETATM   20  C   UNL     1     -13.163  12.067  72.046  1.00  0.00    -0.481 A  
HETATM   21  C   UNL     1     -13.330  13.429  72.230  1.00  0.00    -0.641 A  
HETATM   22  C   UNL     1     -10.916  15.458  67.193  1.00  0.00    -0.317 A  
HETATM   23  C   UNL     1     -11.368  14.447  68.032  1.00  0.00    -0.294 A  
HETATM   24  N   UNL     1     -11.910  14.806  69.201  1.00  0.00    -0.304 NA 
ENDBRANCH   9  11
ENDBRANCH   4   9
BRANCH   6  25
HETATM   25  N   UNL     1      -8.550   6.264  67.073  1.00  0.00    -0.105 N  
HETATM   26  H   UNL     1      -7.651   6.084  67.520  1.00  0.00     0.000 HD 
BRANCH  25  27
HETATM   27  S   UNL     1      -9.249   5.143  66.018  1.00  0.00    -0.158 S  
HETATM   28  C   UNL     1      -8.492   3.624  66.576  1.00  0.00    -0.107 C  
HETATM   29  O   UNL     1      -8.707   5.450  64.713  1.00  0.00    -0.143 OA 
HETATM   30  O   UNL     1     -10.675   5.063  66.237  1.00  0.00    -0.312 OA 
ENDBRANCH  25  27
ENDBRANCH   6  25
ENDBRANCH   2   3
TORSDOF 5
ENDMDL
MODEL       60
REMARK 921   NORMALIZED FREE ENERGY PREDICTED BY IDOCK:   -6.44 KCAL/MOL
REMARK 922        TOTAL FREE ENERGY PREDICTED BY IDOCK:   -8.85 KCAL/MOL
REMARK 923 INTER-LIGAND FREE ENERGY PREDICTED BY IDOCK:   -7.86 KCAL/MOL
REMARK 924 INTRA-LIGAND FREE ENERGY PREDICTED BY IDOCK:   -1.00 KCAL/MOL
REMARK 927      BINDING AFFINITY PREDICTED BY RF-SCORE:    0.00 PKD
ROOT
HETATM    1  C   UNL     1      -7.387  12.854  68.454  1.00  0.00    -0.119 C  
HETATM    2  O   UNL     1      -8.550  12.025  68.555  1.00  0.00    -0.157 OA 
ENDROOT
BRANCH   2   3
HETATM    3  C   UNL     1      -9.182  11.794  67.352  1.00  0.00    -0.174 A  
HETATM    4  C   UNL     1      -9.478  10.452  67.017  1.00  0.00    -0.163 A  
HETATM    5  C   UNL     1     -10.208  10.201  65.849  1.00  0.00    -0.281 A  
HETATM    6  C   UNL     1     -10.174  12.554  65.285  1.00  0.00    -0.282 A  
HETATM    7  C   UNL     1     -10.559  11.248  64.986  1.00  0.00    -0.353 A  
HETATM    8  C   UNL     1      -9.488  12.830  66.463  1.00  0.00    -0.253 A  
BRANCH   4   9
HETATM    9  N   UNL     1      -9.006   9.405  67.835  1.00  0.00    -0.124 NA 
HETATM   10  H   UNL     1      -8.051   9.561  68.160  1.00  0.00     0.000 HD 
BRANCH   9  11
HETATM   11  C   UNL     1      -9.556   8.178  68.314  1.00  0.00    -0.144 A  
HETATM   12  C   UNL     1     -10.403   4.722  67.318  1.00  0.00    -0.109 A  
HETATM   13  C   UNL     1     -10.364   8.251  69.492  1.00  0.00    -0.219 A  
HETATM   14  C   UNL     1     -10.452   9.395  70.324  1.00  0.00    -0.298 A  
HETATM   15  C   UNL     1      -9.485   6.947  67.596  1.00  0.00    -0.133 A  
HETATM   16  C   UNL     1     -11.241   9.403  71.475  1.00  0.00    -0.457 A  
HETATM   17  C   UNL     1     -10.330   5.906  68.041  1.00  0.00    -0.208 A  
HETATM   18  C   UNL     1      -8.677   6.685  66.458  1.00  0.00    -0.137 A  
HETATM   19  C   UNL     1     -11.966   8.271  71.814  1.00  0.00    -0.364 A  
HETATM   20  C   UNL     1      -8.727   5.467  65.776  1.00  0.00    -0.149 A  
HETATM   21  C   UNL     1      -9.619   4.492  66.189  1.00  0.00    -0.191 A  
HETATM   22  C   UNL     1     -11.894   7.143  70.998  1.00  0.00    -0.373 A  
HETATM   23  C   UNL     1     -11.110   7.115  69.851  1.00  0.00    -0.235 A  
HETATM   24  N   UNL     1     -11.107   5.991  69.126  1.00  0.00    -0.370 NA 
ENDBRANCH   9  11
ENDBRANCH   4   9
BRANCH   6  25
HETATM   25  N   UNL     1     -10.410  13.632  64.380  1.00  0.00    -0.659 N  
HETATM   26  H   UNL     1      -9.668  13.998  63.783  1.00  0.00     0.000 HD 
BRANCH  25  27
HETATM   27  S   UNL     1     -11.973  14.274  64.338  1.00  0.00    -0.428 S  
HETATM   28  C   UNL     1     -11.627  16.027  64.375  1.00  0.00    -0.212 C  
HETATM   29  O   UNL     1     -12.571  13.918  65.606  1.00  0.00    -0.492 OA 
HETATM   30  O   UNL     1     -12.620  13.951  63.087  1.00  0.00    -0.775 OA 
ENDBRANCH  25  27
ENDBRANCH   6  25
ENDBRANCH   2   3
TORSDOF 5
ENDMDL
MODEL       61
REMARK 921   NORMALIZED FREE ENERGY PREDICTED BY IDOCK:   -6.44 KCAL/MOL
REMARK 922        TOTAL FREE ENERGY PREDICTED BY IDOCK:   -8.85 KCAL/MOL
REMARK 923 INTER-LIGAND FREE ENERGY PREDICTED BY IDOCK:   -7.98 KCAL/MOL
REMARK 924 INTRA-LIGAND FREE ENERGY PREDICTED BY IDOCK:   -0.87 KCAL/MOL
REMARK 927      BINDING AFFINITY PREDICTED BY RF-SCORE:    0.00 PKD
ROOT
HETATM    1  C   UNL     1      -6.451  11.987  68.490  1.00  0.00    -0.058 C  
HETATM    2  O   UNL     1      -7.768  11.822  69.026  1.00  0.00    -0.083 OA 
ENDROOT
BRANCH   2   3
HETATM    3  C   UNL     1      -8.767  11.830  68.075  1.00  0.00    -0.167 A  
HETATM    4  C   UNL     1      -9.696  10.763  68.096  1.00  0.00    -0.159 A  
HETATM    5  C   UNL     1     -10.776  10.801  67.206  1.00  0.00    -0.325 A  
HETATM    6  C   UNL     1      -9.908  12.818  66.190  1.00  0.00    -0.267 A  
HETATM    7  C   UNL     1     -10.885  11.827  66.258  1.00  0.00    -0.325 A  
HETATM    8  C   UNL     1      -8.851  12.823  67.095  1.00  0.00    -0.202 A  
BRANCH   4   9
HETATM    9  N   UNL     1      -9.496   9.677  68.973  1.00  0.00    -0.162 NA 
HETATM   10  H   UNL     1      -8.528   9.598  69.286  1.00  0.00     0.000 HD 
BRANCH   9  11
HETATM   11  C   UNL     1     -10.337   8.664  69.525  1.00  0.00    -0.214 A  
HETATM   12  C   UNL     1     -12.907   8.023  72.101  1.00  0.00    -0.269 A  
HETATM   13  C   UNL     1      -9.954   7.307  69.281  1.00  0.00    -0.170 A  
HETATM   14  C   UNL     1      -8.957   6.919  68.352  1.00  0.00    -0.121 A  
HETATM   15  C   UNL     1     -11.410   8.932  70.427  1.00  0.00    -0.229 A  
HETATM   16  C   UNL     1      -8.639   5.577  68.139  1.00  0.00    -0.100 A  
HETATM   17  C   UNL     1     -11.945   7.823  71.119  1.00  0.00    -0.291 A  
HETATM   18  C   UNL     1     -11.960  10.208  70.721  1.00  0.00    -0.442 A  
HETATM   19  C   UNL     1      -9.306   4.595  68.856  1.00  0.00    -0.200 A  
HETATM   20  C   UNL     1     -12.965  10.380  71.675  1.00  0.00    -0.581 A  
HETATM   21  C   UNL     1     -13.418   9.286  72.392  1.00  0.00    -0.526 A  
HETATM   22  C   UNL     1     -10.283   4.966  69.779  1.00  0.00    -0.284 A  
HETATM   23  C   UNL     1     -10.616   6.297  70.000  1.00  0.00    -0.248 A  
HETATM   24  N   UNL     1     -11.561   6.558  70.909  1.00  0.00    -0.346 NA 
ENDBRANCH   9  11
ENDBRANCH   4   9
BRANCH   6  25
HETATM   25  N   UNL     1      -9.919  13.814  65.168  1.00  0.00    -0.579 N  
HETATM   26  H   UNL     1      -9.228  13.815  64.417  1.00  0.00     0.000 HD 
BRANCH  25  27
HETATM   27  S   UNL     1     -11.127  14.994  65.255  1.00  0.00    -0.400 S  
HETATM   28  C   UNL     1     -12.378  14.286  64.193  1.00  0.00    -0.327 C  
HETATM   29  O   UNL     1     -10.585  16.153  64.581  1.00  0.00    -0.597 OA 
HETATM   30  O   UNL     1     -11.650  15.085  66.599  1.00  0.00    -0.311 OA 
ENDBRANCH  25  27
ENDBRANCH   6  25
ENDBRANCH   2   3
TORSDOF 5
ENDMDL
MODEL       62
REMARK 921   NORMALIZED FREE ENERGY PREDICTED BY IDOCK:   -6.42 KCAL/MOL
REMARK 922        TOTAL FREE ENERGY PREDICTED BY IDOCK:   -8.83 KCAL/MOL
REMARK 923 INTER-LIGAND FREE ENERGY PREDICTED BY IDOCK:   -8.12 KCAL/MOL
REMARK 924 INTRA-LIGAND FREE ENERGY PREDICTED BY IDOCK:   -0.71 KCAL/MOL
REMARK 927      BINDING AFFINITY PREDICTED BY RF-SCORE:    0.00 PKD
ROOT
HETATM    1  C   UNL     1      -9.623  11.263  65.715  1.00  0.00    -0.227 C  
HETATM    2  O   UNL     1      -9.988  12.582  66.134  1.00  0.00    -0.246 OA 
ENDROOT
BRANCH   2   3
HETATM    3  C   UNL     1     -10.610  12.629  67.363  1.00  0.00    -0.224 A  
HETATM    4  C   UNL     1     -10.481  13.822  68.114  1.00  0.00    -0.249 A  
HETATM    5  C   UNL     1     -11.186  13.931  69.320  1.00  0.00    -0.296 A  
HETATM    6  C   UNL     1     -11.966  11.651  69.105  1.00  0.00    -0.313 A  
HETATM    7  C   UNL     1     -11.929  12.851  69.813  1.00  0.00    -0.365 A  
HETATM    8  C   UNL     1     -11.311  11.537  67.884  1.00  0.00    -0.372 A  
BRANCH   4   9
HETATM    9  N   UNL     1      -9.627  14.847  67.660  1.00  0.00    -0.200 NA 
HETATM   10  H   UNL     1      -9.454  14.798  66.655  1.00  0.00     0.000 HD 
BRANCH   9  11
HETATM   11  C   UNL     1      -8.948  15.939  68.282  1.00  0.00    -0.184 A  
HETATM   12  C   UNL     1      -8.656  19.622  68.302  1.00  0.00    -0.358 A  
HETATM   13  C   UNL     1      -7.721  15.636  68.951  1.00  0.00    -0.181 A  
HETATM   14  C   UNL     1      -7.274  14.321  69.232  1.00  0.00    -0.083 A  
HETATM   15  C   UNL     1      -9.334  17.303  68.122  1.00  0.00    -0.274 A  
HETATM   16  C   UNL     1      -6.077  14.084  69.908  1.00  0.00    -0.140 A  
HETATM   17  C   UNL     1      -8.399  18.277  68.537  1.00  0.00    -0.310 A  
HETATM   18  C   UNL     1     -10.549  17.770  67.552  1.00  0.00    -0.365 A  
HETATM   19  C   UNL     1      -5.296  15.158  70.310  1.00  0.00    -0.122 A  
HETATM   20  C   UNL     1     -10.809  19.131  67.372  1.00  0.00    -0.533 A  
HETATM   21  C   UNL     1      -9.843  20.060  67.719  1.00  0.00    -0.545 A  
HETATM   22  C   UNL     1      -5.722  16.456  70.032  1.00  0.00    -0.198 A  
HETATM   23  C   UNL     1      -6.914  16.710  69.364  1.00  0.00    -0.194 A  
HETATM   24  N   UNL     1      -7.238  17.987  69.135  1.00  0.00    -0.204 NA 
ENDBRANCH   9  11
ENDBRANCH   4   9
BRANCH   6  25
HETATM   25  N   UNL     1     -12.616  10.491  69.627  1.00  0.00    -0.518 N  
HETATM   26  H   UNL     1     -13.257   9.939  69.058  1.00  0.00     0.000 HD 
BRANCH  25  27
HETATM   27  S   UNL     1     -12.275  10.073  71.229  1.00  0.00    -0.427 S  
HETATM   28  C   UNL     1     -13.144   8.519  71.373  1.00  0.00    -0.230 C  
HETATM   29  O   UNL     1     -12.976  11.044  72.039  1.00  0.00    -0.452 OA 
HETATM   30  O   UNL     1     -10.859   9.837  71.400  1.00  0.00    -0.308 OA 
ENDBRANCH  25  27
ENDBRANCH   6  25
ENDBRANCH   2   3
TORSDOF 5
ENDMDL
MODEL       63
REMARK 921   NORMALIZED FREE ENERGY PREDICTED BY IDOCK:   -6.42 KCAL/MOL
REMARK 922        TOTAL FREE ENERGY PREDICTED BY IDOCK:   -8.82 KCAL/MOL
REMARK 923 INTER-LIGAND FREE ENERGY PREDICTED BY IDOCK:   -9.11 KCAL/MOL
REMARK 924 INTRA-LIGAND FREE ENERGY PREDICTED BY IDOCK:    0.29 KCAL/MOL
REMARK 927      BINDING AFFINITY PREDICTED BY RF-SCORE:    0.00 PKD
ROOT
HETATM    1  C   UNL     1     -10.031  13.998  68.316  1.00  0.00    -0.236 C  
HETATM    2  O   UNL     1     -11.416  13.638  68.259  1.00  0.00    -0.274 OA 
ENDROOT
BRANCH   2   3
HETATM    3  C   UNL     1     -11.884  13.025  69.402  1.00  0.00    -0.322 A  
HETATM    4  C   UNL     1     -12.154  11.637  69.333  1.00  0.00    -0.263 A  
HETATM    5  C   UNL     1     -12.535  10.973  70.506  1.00  0.00    -0.432 A  
HETATM    6  C   UNL     1     -12.551  13.065  71.722  1.00  0.00    -0.048 A  
HETATM    7  C   UNL     1     -12.730  11.683  71.699  1.00  0.00    -0.375 A  
HETATM    8  C   UNL     1     -12.130  13.737  70.580  1.00  0.00    -0.416 A  
BRANCH   4   9
HETATM    9  N   UNL     1     -12.074  10.968  68.095  1.00  0.00    -0.780 NA 
HETATM   10  H   UNL     1     -12.991  10.752  67.705  1.00  0.00     0.000 HD 
BRANCH   9  11
HETATM   11  C   UNL     1     -11.003  10.523  67.262  1.00  0.00    -0.260 A  
HETATM   12  C   UNL     1      -9.702  10.618  63.805  1.00  0.00    -0.382 A  
HETATM   13  C   UNL     1     -10.244   9.406  67.732  1.00  0.00    -0.273 A  
HETATM   14  C   UNL     1     -10.333   8.882  69.046  1.00  0.00    -0.226 A  
HETATM   15  C   UNL     1     -10.773  11.014  65.942  1.00  0.00    -0.226 A  
HETATM   16  C   UNL     1      -9.551   7.802  69.457  1.00  0.00    -0.160 A  
HETATM   17  C   UNL     1      -9.881  10.270  65.138  1.00  0.00    -0.321 A  
HETATM   18  C   UNL     1     -11.383  12.153  65.352  1.00  0.00    -0.388 A  
HETATM   19  C   UNL     1      -8.669   7.217  68.561  1.00  0.00    -0.126 A  
HETATM   20  C   UNL     1     -11.148  12.516  64.024  1.00  0.00    -0.449 A  
HETATM   21  C   UNL     1     -10.328  11.725  63.237  1.00  0.00    -0.446 A  
HETATM   22  C   UNL     1      -8.579   7.719  67.263  1.00  0.00    -0.128 A  
HETATM   23  C   UNL     1      -9.346   8.797  66.838  1.00  0.00    -0.167 A  
HETATM   24  N   UNL     1      -9.196   9.206  65.574  1.00  0.00    -0.228 NA 
ENDBRANCH   9  11
ENDBRANCH   4   9
BRANCH   6  25
HETATM   25  N   UNL     1     -12.850  13.840  72.883  1.00  0.00    -0.214 N  
HETATM   26  H   UNL     1     -13.024  13.401  73.787  1.00  0.00     0.000 HD 
BRANCH  25  27
HETATM   27  S   UNL     1     -12.901  15.520  72.696  1.00  0.00    -0.475 S  
HETATM   28  C   UNL     1     -12.525  16.065  74.355  1.00  0.00    -0.572 C  
HETATM   29  O   UNL     1     -14.287  15.837  72.433  1.00  0.00    -0.514 OA 
HETATM   30  O   UNL     1     -11.849  15.962  71.808  1.00  0.00    -0.412 OA 
ENDBRANCH  25  27
ENDBRANCH   6  25
ENDBRANCH   2   3
TORSDOF 5
ENDMDL
MODEL       64
REMARK 921   NORMALIZED FREE ENERGY PREDICTED BY IDOCK:   -6.41 KCAL/MOL
REMARK 922        TOTAL FREE ENERGY PREDICTED BY IDOCK:   -8.81 KCAL/MOL
REMARK 923 INTER-LIGAND FREE ENERGY PREDICTED BY IDOCK:   -8.15 KCAL/MOL
REMARK 924 INTRA-LIGAND FREE ENERGY PREDICTED BY IDOCK:   -0.66 KCAL/MOL
REMARK 927      BINDING AFFINITY PREDICTED BY RF-SCORE:    0.00 PKD
ROOT
HETATM    1  C   UNL     1     -12.194  15.620  70.250  1.00  0.00    -0.386 C  
HETATM    2  O   UNL     1     -11.955  15.614  68.839  1.00  0.00    -0.367 OA 
ENDROOT
BRANCH   2   3
HETATM    3  C   UNL     1     -10.647  15.874  68.489  1.00  0.00    -0.263 A  
HETATM    4  C   UNL     1      -9.857  14.780  68.059  1.00  0.00    -0.218 A  
HETATM    5  C   UNL     1      -8.558  15.034  67.604  1.00  0.00    -0.179 A  
HETATM    6  C   UNL     1      -8.782  17.375  68.174  1.00  0.00    -0.256 A  
HETATM    7  C   UNL     1      -8.021  16.328  67.657  1.00  0.00    -0.160 A  
HETATM    8  C   UNL     1     -10.091  17.152  68.589  1.00  0.00    -0.329 A  
BRANCH   4   9
HETATM    9  N   UNL     1     -10.375  13.471  68.133  1.00  0.00    -0.240 NA 
HETATM   10  H   UNL     1     -10.752  13.249  69.055  1.00  0.00     0.000 HD 
BRANCH   9  11
HETATM   11  C   UNL     1     -10.491  12.384  67.215  1.00  0.00    -0.222 A  
HETATM   12  C   UNL     1      -9.186   9.020  66.423  1.00  0.00    -0.239 A  
HETATM   13  C   UNL     1     -11.078  12.677  65.943  1.00  0.00    -0.323 A  
HETATM   14  C   UNL     1     -11.748  13.888  65.638  1.00  0.00    -0.362 A  
HETATM   15  C   UNL     1      -9.910  11.099  67.432  1.00  0.00    -0.195 A  
HETATM   16  C   UNL     1     -12.320  14.111  64.385  1.00  0.00    -0.410 A  
HETATM   17  C   UNL     1      -9.847  10.237  66.315  1.00  0.00    -0.219 A  
HETATM   18  C   UNL     1      -9.358  10.624  68.652  1.00  0.00    -0.177 A  
HETATM   19  C   UNL     1     -12.227  13.132  63.407  1.00  0.00    -0.521 A  
HETATM   20  C   UNL     1      -8.744   9.374  68.751  1.00  0.00    -0.131 A  
HETATM   21  C   UNL     1      -8.629   8.581  67.622  1.00  0.00    -0.133 A  
HETATM   22  C   UNL     1     -11.563  11.940  63.694  1.00  0.00    -0.559 A  
HETATM   23  C   UNL     1     -10.991  11.699  64.937  1.00  0.00    -0.284 A  
HETATM   24  N   UNL     1     -10.369  10.529  65.119  1.00  0.00    -0.284 NA 
ENDBRANCH   9  11
ENDBRANCH   4   9
BRANCH   6  25
HETATM   25  N   UNL     1      -8.236  18.682  68.352  1.00  0.00    -0.325 N  
HETATM   26  H   UNL     1      -7.789  18.958  69.226  1.00  0.00     0.000 HD 
BRANCH  25  27
HETATM   27  S   UNL     1      -8.363  19.754  67.051  1.00  0.00    -0.324 S  
HETATM   28  C   UNL     1      -9.735  20.772  67.573  1.00  0.00    -0.304 C  
HETATM   29  O   UNL     1      -8.811  18.953  65.933  1.00  0.00    -0.460 OA 
HETATM   30  O   UNL     1      -7.178  20.577  66.956  1.00  0.00    -0.283 OA 
ENDBRANCH  25  27
ENDBRANCH   6  25
ENDBRANCH   2   3
TORSDOF 5
ENDMDL
MODEL       65
REMARK 921   NORMALIZED FREE ENERGY PREDICTED BY IDOCK:   -6.38 KCAL/MOL
REMARK 922        TOTAL FREE ENERGY PREDICTED BY IDOCK:   -8.78 KCAL/MOL
REMARK 923 INTER-LIGAND FREE ENERGY PREDICTED BY IDOCK:   -8.23 KCAL/MOL
REMARK 924 INTRA-LIGAND FREE ENERGY PREDICTED BY IDOCK:   -0.55 KCAL/MOL
REMARK 927      BINDING AFFINITY PREDICTED BY RF-SCORE:    0.00 PKD
ROOT
HETATM    1  C   UNL     1     -11.695  15.791  64.272  1.00  0.00    -0.162 C  
HETATM    2  O   UNL     1     -11.029  14.807  65.072  1.00  0.00    -0.365 OA 
ENDROOT
BRANCH   2   3
HETATM    3  C   UNL     1     -10.735  15.228  66.351  1.00  0.00    -0.318 A  
HETATM    4  C   UNL     1     -10.982  14.321  67.409  1.00  0.00    -0.295 A  
HETATM    5  C   UNL     1     -10.597  14.687  68.705  1.00  0.00    -0.248 A  
HETATM    6  C   UNL     1      -9.917  16.872  67.919  1.00  0.00    -0.274 A  
HETATM    7  C   UNL     1     -10.063  15.957  68.961  1.00  0.00    -0.228 A  
HETATM    8  C   UNL     1     -10.250  16.512  66.618  1.00  0.00    -0.302 A  
BRANCH   4   9
HETATM    9  N   UNL     1     -11.636  13.100  67.147  1.00  0.00    -0.340 NA 
HETATM   10  H   UNL     1     -12.549  13.229  66.710  1.00  0.00     0.000 HD 
BRANCH   9  11
HETATM   11  C   UNL     1     -11.314  11.724  67.352  1.00  0.00    -0.311 A  
HETATM   12  C   UNL     1     -10.896   9.134  69.953  1.00  0.00    -0.242 A  
HETATM   13  C   UNL     1     -10.610  11.064  66.295  1.00  0.00    -0.295 A  
HETATM   14  C   UNL     1     -10.430  11.609  65.000  1.00  0.00    -0.336 A  
HETATM   15  C   UNL     1     -11.500  11.045  68.593  1.00  0.00    -0.375 A  
HETATM   16  C   UNL     1      -9.753  10.910  64.000  1.00  0.00    -0.351 A  
HETATM   17  C   UNL     1     -10.858   9.795  68.731  1.00  0.00    -0.188 A  
HETATM   18  C   UNL     1     -12.235  11.525  69.709  1.00  0.00    -0.310 A  
HETATM   19  C   UNL     1      -9.232   9.654  64.277  1.00  0.00    -0.235 A  
HETATM   20  C   UNL     1     -12.303  10.819  70.912  1.00  0.00    -0.497 A  
HETATM   21  C   UNL     1     -11.602   9.632  71.045  1.00  0.00    -0.436 A  
HETATM   22  C   UNL     1      -9.396   9.112  65.551  1.00  0.00    -0.287 A  
HETATM   23  C   UNL     1     -10.072   9.792  66.557  1.00  0.00    -0.239 A  
HETATM   24  N   UNL     1     -10.175   9.196  67.750  1.00  0.00    -0.210 NA 
ENDBRANCH   9  11
ENDBRANCH   4   9
BRANCH   6  25
HETATM   25  N   UNL     1      -9.485  18.212  68.154  1.00  0.00    -0.284 N  
HETATM   26  H   UNL     1     -10.150  18.957  68.364  1.00  0.00     0.000 HD 
BRANCH  25  27
HETATM   27  S   UNL     1      -7.823  18.513  68.067  1.00  0.00    -0.282 S  
HETATM   28  C   UNL     1      -7.459  17.964  66.406  1.00  0.00    -0.273 C  
HETATM   29  O   UNL     1      -7.214  17.574  68.983  1.00  0.00    -0.251 OA 
HETATM   30  O   UNL     1      -7.560  19.931  68.161  1.00  0.00    -0.294 OA 
ENDBRANCH  25  27
ENDBRANCH   6  25
ENDBRANCH   2   3
TORSDOF 5
ENDMDL
MODEL       66
REMARK 921   NORMALIZED FREE ENERGY PREDICTED BY IDOCK:   -6.38 KCAL/MOL
REMARK 922        TOTAL FREE ENERGY PREDICTED BY IDOCK:   -8.77 KCAL/MOL
REMARK 923 INTER-LIGAND FREE ENERGY PREDICTED BY IDOCK:   -8.04 KCAL/MOL
REMARK 924 INTRA-LIGAND FREE ENERGY PREDICTED BY IDOCK:   -0.73 KCAL/MOL
REMARK 927      BINDING AFFINITY PREDICTED BY RF-SCORE:    0.00 PKD
ROOT
HETATM    1  C   UNL     1     -10.059  11.749  64.515  1.00  0.00    -0.274 C  
HETATM    2  O   UNL     1     -11.048  11.411  65.493  1.00  0.00    -0.239 OA 
ENDROOT
BRANCH   2   3
HETATM    3  C   UNL     1     -11.120  12.294  66.549  1.00  0.00    -0.299 A  
HETATM    4  C   UNL     1     -11.290  11.750  67.844  1.00  0.00    -0.292 A  
HETATM    5  C   UNL     1     -11.266  12.619  68.942  1.00  0.00    -0.329 A  
HETATM    6  C   UNL     1     -11.094  14.528  67.465  1.00  0.00    -0.307 A  
HETATM    7  C   UNL     1     -11.164  14.004  68.755  1.00  0.00    -0.298 A  
HETATM    8  C   UNL     1     -11.071  13.679  66.364  1.00  0.00    -0.307 A  
BRANCH   4   9
HETATM    9  N   UNL     1     -11.517  10.367  67.999  1.00  0.00    -0.649 NA 
HETATM   10  H   UNL     1     -12.412  10.070  67.609  1.00  0.00     0.000 HD 
BRANCH   9  11
HETATM   11  C   UNL     1     -10.782   9.287  68.576  1.00  0.00    -0.142 A  
HETATM   12  C   UNL     1      -8.689   6.355  67.757  1.00  0.00    -0.114 A  
HETATM   13  C   UNL     1     -11.118   8.926  69.919  1.00  0.00    -0.146 A  
HETATM   14  C   UNL     1     -11.943   9.705  70.768  1.00  0.00    -0.356 A  
HETATM   15  C   UNL     1      -9.879   8.463  67.840  1.00  0.00    -0.208 A  
HETATM   16  C   UNL     1     -12.220   9.314  72.078  1.00  0.00    -0.418 A  
HETATM   17  C   UNL     1      -9.470   7.263  68.461  1.00  0.00    -0.140 A  
HETATM   18  C   UNL     1      -9.387   8.719  66.533  1.00  0.00    -0.260 A  
HETATM   19  C   UNL     1     -11.686   8.131  72.565  1.00  0.00    -0.457 A  
HETATM   20  C   UNL     1      -8.559   7.815  65.862  1.00  0.00    -0.170 A  
HETATM   21  C   UNL     1      -8.235   6.612  66.465  1.00  0.00    -0.114 A  
HETATM   22  C   UNL     1     -10.880   7.351  71.736  1.00  0.00    -0.253 A  
HETATM   23  C   UNL     1     -10.590   7.728  70.430  1.00  0.00    -0.227 A  
HETATM   24  N   UNL     1      -9.813   6.915  69.707  1.00  0.00    -0.170 NA 
ENDBRANCH   9  11
ENDBRANCH   4   9
BRANCH   6  25
HETATM   25  N   UNL     1     -11.105  15.936  67.225  1.00  0.00    -0.234 N  
HETATM   26  H   UNL     1     -11.790  16.546  67.671  1.00  0.00     0.000 HD 
BRANCH  25  27
HETATM   27  S   UNL     1      -9.933  16.547  66.170  1.00  0.00    -0.349 S  
HETATM   28  C   UNL     1      -9.898  18.267  66.653  1.00  0.00    -0.352 C  
HETATM   29  O   UNL     1     -10.524  16.473  64.853  1.00  0.00    -0.653 OA 
HETATM   30  O   UNL     1      -8.644  15.955  66.449  1.00  0.00    -0.285 OA 
ENDBRANCH  25  27
ENDBRANCH   6  25
ENDBRANCH   2   3
TORSDOF 5
ENDMDL
MODEL       67
REMARK 921   NORMALIZED FREE ENERGY PREDICTED BY IDOCK:   -6.35 KCAL/MOL
REMARK 922        TOTAL FREE ENERGY PREDICTED BY IDOCK:   -8.74 KCAL/MOL
REMARK 923 INTER-LIGAND FREE ENERGY PREDICTED BY IDOCK:   -8.98 KCAL/MOL
REMARK 924 INTRA-LIGAND FREE ENERGY PREDICTED BY IDOCK:    0.24 KCAL/MOL
REMARK 927      BINDING AFFINITY PREDICTED BY RF-SCORE:    0.00 PKD
ROOT
HETATM    1  C   UNL     1     -13.372  13.226  72.126  1.00  0.00    -0.523 C  
HETATM    2  O   UNL     1     -13.117  13.443  70.734  1.00  0.00    -0.121 OA 
ENDROOT
BRANCH   2   3
HETATM    3  C   UNL     1     -12.248  12.531  70.174  1.00  0.00    -0.234 A  
HETATM    4  C   UNL     1     -11.320  13.015  69.222  1.00  0.00    -0.251 A  
HETATM    5  C   UNL     1     -10.362  12.129  68.714  1.00  0.00    -0.168 A  
HETATM    6  C   UNL     1     -11.361  10.297  69.939  1.00  0.00    -0.290 A  
HETATM    7  C   UNL     1     -10.379  10.774  69.073  1.00  0.00    -0.235 A  
HETATM    8  C   UNL     1     -12.294  11.170  70.490  1.00  0.00    -0.454 A  
BRANCH   4   9
HETATM    9  N   UNL     1     -11.401  14.351  68.780  1.00  0.00    -0.257 NA 
HETATM   10  H   UNL     1     -11.803  14.973  69.482  1.00  0.00     0.000 HD 
BRANCH   9  11
HETATM   11  C   UNL     1     -11.051  15.035  67.576  1.00  0.00    -0.317 A  
HETATM   12  C   UNL     1      -9.980  18.303  66.229  1.00  0.00    -0.361 A  
HETATM   13  C   UNL     1     -11.498  14.448  66.351  1.00  0.00    -0.365 A  
HETATM   14  C   UNL     1     -12.044  13.145  66.247  1.00  0.00    -0.460 A  
HETATM   15  C   UNL     1     -10.445  16.326  67.549  1.00  0.00    -0.302 A  
HETATM   16  C   UNL     1     -12.445  12.615  65.020  1.00  0.00    -0.556 A  
HETATM   17  C   UNL     1     -10.442  16.996  66.305  1.00  0.00    -0.258 A  
HETATM   18  C   UNL     1      -9.883  17.013  68.657  1.00  0.00    -0.290 A  
HETATM   19  C   UNL     1     -12.317  13.381  63.871  1.00  0.00    -0.410 A  
HETATM   20  C   UNL     1      -9.375  18.309  68.547  1.00  0.00    -0.334 A  
HETATM   21  C   UNL     1      -9.454  18.970  67.333  1.00  0.00    -0.347 A  
HETATM   22  C   UNL     1     -11.789  14.668  63.962  1.00  0.00    -0.135 A  
HETATM   23  C   UNL     1     -11.380  15.209  65.175  1.00  0.00    -0.357 A  
HETATM   24  N   UNL     1     -10.891  16.454  65.167  1.00  0.00    -0.555 NA 
ENDBRANCH   9  11
ENDBRANCH   4   9
BRANCH   6  25
HETATM   25  N   UNL     1     -11.485   8.907  70.241  1.00  0.00    -0.438 N  
HETATM   26  H   UNL     1     -12.125   8.574  70.961  1.00  0.00     0.000 HD 
BRANCH  25  27
HETATM   27  S   UNL     1     -10.524   7.838  69.351  1.00  0.00    -0.207 S  
HETATM   28  C   UNL     1     -11.162   6.261  69.899  1.00  0.00    -0.429 C  
HETATM   29  O   UNL     1      -9.189   7.981  69.888  1.00  0.00    -0.151 OA 
HETATM   30  O   UNL     1     -10.782   7.982  67.937  1.00  0.00    -0.174 OA 
ENDBRANCH  25  27
ENDBRANCH   6  25
ENDBRANCH   2   3
TORSDOF 5
ENDMDL
MODEL       68
REMARK 921   NORMALIZED FREE ENERGY PREDICTED BY IDOCK:   -6.33 KCAL/MOL
REMARK 922        TOTAL FREE ENERGY PREDICTED BY IDOCK:   -8.71 KCAL/MOL
REMARK 923 INTER-LIGAND FREE ENERGY PREDICTED BY IDOCK:   -7.81 KCAL/MOL
REMARK 924 INTRA-LIGAND FREE ENERGY PREDICTED BY IDOCK:   -0.90 KCAL/MOL
REMARK 927      BINDING AFFINITY PREDICTED BY RF-SCORE:    0.00 PKD
ROOT
HETATM    1  C   UNL     1      -6.819  10.423  69.847  1.00  0.00    -0.143 C  
HETATM    2  O   UNL     1      -7.825  10.271  68.840  1.00  0.00    -0.090 OA 
ENDROOT
BRANCH   2   3
HETATM    3  C   UNL     1      -9.114  10.265  69.330  1.00  0.00    -0.187 A  
HETATM    4  C   UNL     1     -10.054  11.117  68.703  1.00  0.00    -0.200 A  
HETATM    5  C   UNL     1     -11.391  11.054  69.117  1.00  0.00    -0.348 A  
HETATM    6  C   UNL     1     -10.811   9.474  70.855  1.00  0.00    -0.337 A  
HETATM    7  C   UNL     1     -11.770  10.233  70.187  1.00  0.00    -0.364 A  
HETATM    8  C   UNL     1      -9.486   9.487  70.430  1.00  0.00    -0.317 A  
BRANCH   4   9
HETATM    9  N   UNL     1      -9.626  12.026  67.715  1.00  0.00    -0.187 NA 
HETATM   10  H   UNL     1      -8.678  11.835  67.390  1.00  0.00     0.000 HD 
BRANCH   9  11
HETATM   11  C   UNL     1     -10.214  13.152  67.063  1.00  0.00    -0.250 A  
HETATM   12  C   UNL     1     -11.821  14.254  63.924  1.00  0.00    -0.153 A  
HETATM   13  C   UNL     1      -9.879  14.442  67.582  1.00  0.00    -0.224 A  
HETATM   14  C   UNL     1      -9.210  14.654  68.813  1.00  0.00    -0.184 A  
HETATM   15  C   UNL     1     -10.959  13.063  65.849  1.00  0.00    -0.292 A  
HETATM   16  C   UNL     1      -8.927  15.938  69.280  1.00  0.00    -0.251 A  
HETATM   17  C   UNL     1     -11.209  14.276  65.171  1.00  0.00    -0.345 A  
HETATM   18  C   UNL     1     -11.435  11.870  65.243  1.00  0.00    -0.313 A  
HETATM   19  C   UNL     1      -9.299  17.038  68.522  1.00  0.00    -0.265 A  
HETATM   20  C   UNL     1     -12.095  11.876  64.012  1.00  0.00    -0.444 A  
HETATM   21  C   UNL     1     -12.260  13.071  63.334  1.00  0.00    -0.552 A  
HETATM   22  C   UNL     1      -9.949  16.841  67.304  1.00  0.00    -0.272 A  
HETATM   23  C   UNL     1     -10.244  15.570  66.826  1.00  0.00    -0.280 A  
HETATM   24  N   UNL     1     -10.865  15.479  65.646  1.00  0.00    -0.346 NA 
ENDBRANCH   9  11
ENDBRANCH   4   9
BRANCH   6  25
HETATM   25  N   UNL     1     -11.133   8.713  72.020  1.00  0.00    -0.345 N  
HETATM   26  H   UNL     1     -11.030   9.104  72.956  1.00  0.00     0.000 HD 
BRANCH  25  27
HETATM   27  S   UNL     1     -11.694   7.136  71.779  1.00  0.00    -0.305 S  
HETATM   28  C   UNL     1     -13.446   7.421  71.575  1.00  0.00    -0.372 C  
HETATM   29  O   UNL     1     -11.504   6.462  73.044  1.00  0.00    -0.147 OA 
HETATM   30  O   UNL     1     -11.161   6.592  70.552  1.00  0.00    -0.292 OA 
ENDBRANCH  25  27
ENDBRANCH   6  25
ENDBRANCH   2   3
TORSDOF 5
ENDMDL
MODEL       69
REMARK 921   NORMALIZED FREE ENERGY PREDICTED BY IDOCK:   -6.30 KCAL/MOL
REMARK 922        TOTAL FREE ENERGY PREDICTED BY IDOCK:   -8.68 KCAL/MOL
REMARK 923 INTER-LIGAND FREE ENERGY PREDICTED BY IDOCK:   -8.03 KCAL/MOL
REMARK 924 INTRA-LIGAND FREE ENERGY PREDICTED BY IDOCK:   -0.65 KCAL/MOL
REMARK 927      BINDING AFFINITY PREDICTED BY RF-SCORE:    0.00 PKD
ROOT
HETATM    1  C   UNL     1     -10.991   6.821  67.432  1.00  0.00    -0.337 C  
HETATM    2  O   UNL     1      -9.677   7.378  67.547  1.00  0.00    -0.138 OA 
ENDROOT
BRANCH   2   3
HETATM    3  C   UNL     1      -9.620   8.735  67.308  1.00  0.00    -0.165 A  
HETATM    4  C   UNL     1      -9.221   9.570  68.379  1.00  0.00    -0.130 A  
HETATM    5  C   UNL     1      -9.058  10.939  68.133  1.00  0.00    -0.155 A  
HETATM    6  C   UNL     1      -9.852  10.657  65.865  1.00  0.00    -0.243 A  
HETATM    7  C   UNL     1      -9.369  11.482  66.879  1.00  0.00    -0.189 A  
HETATM    8  C   UNL     1      -9.978   9.287  66.075  1.00  0.00    -0.325 A  
BRANCH   4   9
HETATM    9  N   UNL     1      -9.036   9.021  69.664  1.00  0.00    -0.147 NA 
HETATM   10  H   UNL     1      -8.065   9.068  69.975  1.00  0.00     0.000 HD 
BRANCH   9  11
HETATM   11  C   UNL     1      -9.894   8.413  70.630  1.00  0.00    -0.181 A  
HETATM   12  C   UNL     1     -10.788   5.183  72.185  1.00  0.00    -0.218 A  
HETATM   13  C   UNL     1     -11.065   9.146  71.001  1.00  0.00    -0.374 A  
HETATM   14  C   UNL     1     -11.295  10.502  70.659  1.00  0.00    -0.363 A  
HETATM   15  C   UNL     1      -9.735   7.074  71.098  1.00  0.00    -0.173 A  
HETATM   16  C   UNL     1     -12.447  11.174  71.066  1.00  0.00    -0.506 A  
HETATM   17  C   UNL     1     -10.824   6.519  71.806  1.00  0.00    -0.238 A  
HETATM   18  C   UNL     1      -8.605   6.241  70.885  1.00  0.00    -0.135 A  
HETATM   19  C   UNL     1     -13.400  10.503  71.818  1.00  0.00    -0.446 A  
HETATM   20  C   UNL     1      -8.569   4.914  71.322  1.00  0.00    -0.132 A  
HETATM   21  C   UNL     1      -9.680   4.373  71.947  1.00  0.00    -0.233 A  
HETATM   22  C   UNL     1     -13.189   9.166  72.153  1.00  0.00    -0.524 A  
HETATM   23  C   UNL     1     -12.044   8.482  71.760  1.00  0.00    -0.333 A  
HETATM   24  N   UNL     1     -11.931   7.200  72.123  1.00  0.00    -0.286 NA 
ENDBRANCH   9  11
ENDBRANCH   4   9
BRANCH   6  25
HETATM   25  N   UNL     1     -10.289  11.184  64.612  1.00  0.00    -0.309 N  
HETATM   26  H   UNL     1      -9.898  10.854  63.730  1.00  0.00     0.000 HD 
BRANCH  25  27
HETATM   27  S   UNL     1     -11.481  12.382  64.654  1.00  0.00    -0.347 S  
HETATM   28  C   UNL     1     -12.442  11.965  63.207  1.00  0.00    -0.384 C  
HETATM   29  O   UNL     1     -10.792  13.623  64.380  1.00  0.00    -0.396 OA 
HETATM   30  O   UNL     1     -12.311  12.229  65.828  1.00  0.00    -0.622 OA 
ENDBRANCH  25  27
ENDBRANCH   6  25
ENDBRANCH   2   3
TORSDOF 5
ENDMDL
MODEL       70
REMARK 921   NORMALIZED FREE ENERGY PREDICTED BY IDOCK:   -6.30 KCAL/MOL
REMARK 922        TOTAL FREE ENERGY PREDICTED BY IDOCK:   -8.67 KCAL/MOL
REMARK 923 INTER-LIGAND FREE ENERGY PREDICTED BY IDOCK:   -9.01 KCAL/MOL
REMARK 924 INTRA-LIGAND FREE ENERGY PREDICTED BY IDOCK:    0.34 KCAL/MOL
REMARK 927      BINDING AFFINITY PREDICTED BY RF-SCORE:    0.00 PKD
ROOT
HETATM    1  C   UNL     1     -12.136  10.794  70.724  1.00  0.00    -0.372 C  
HETATM    2  O   UNL     1     -11.703  11.351  69.480  1.00  0.00    -0.286 OA 
ENDROOT
BRANCH   2   3
HETATM    3  C   UNL     1     -11.739  12.729  69.438  1.00  0.00    -0.319 A  
HETATM    4  C   UNL     1     -10.793  13.382  68.612  1.00  0.00    -0.263 A  
HETATM    5  C   UNL     1     -10.875  14.773  68.475  1.00  0.00    -0.255 A  
HETATM    6  C   UNL     1     -12.674  14.857  70.091  1.00  0.00    -0.219 A  
HETATM    7  C   UNL     1     -11.814  15.510  69.209  1.00  0.00    -0.372 A  
HETATM    8  C   UNL     1     -12.640  13.472  70.207  1.00  0.00    -0.221 A  
BRANCH   4   9
HETATM    9  N   UNL     1      -9.778  12.633  67.983  1.00  0.00    -0.210 NA 
HETATM   10  H   UNL     1      -8.860  12.787  68.401  1.00  0.00     0.000 HD 
BRANCH   9  11
HETATM   11  C   UNL     1      -9.739  11.710  66.894  1.00  0.00    -0.195 A  
HETATM   12  C   UNL     1      -7.745   8.989  65.387  1.00  0.00    -0.095 A  
HETATM   13  C   UNL     1     -10.544  12.024  65.755  1.00  0.00    -0.301 A  
HETATM   14  C   UNL     1     -11.533  13.040  65.737  1.00  0.00    -0.367 A  
HETATM   15  C   UNL     1      -8.828  10.613  66.821  1.00  0.00    -0.146 A  
HETATM   16  C   UNL     1     -12.305  13.289  64.602  1.00  0.00    -0.447 A  
HETATM   17  C   UNL     1      -8.700   9.983  65.563  1.00  0.00    -0.155 A  
HETATM   18  C   UNL     1      -8.016  10.125  67.879  1.00  0.00    -0.101 A  
HETATM   19  C   UNL     1     -12.100  12.534  63.457  1.00  0.00    -0.653 A  
HETATM   20  C   UNL     1      -7.099   9.088  67.692  1.00  0.00    -0.076 A  
HETATM   21  C   UNL     1      -6.940   8.539  66.431  1.00  0.00    -0.078 A  
HETATM   22  C   UNL     1     -11.124  11.537  63.461  1.00  0.00    -0.434 A  
HETATM   23  C   UNL     1     -10.350  11.272  64.584  1.00  0.00    -0.315 A  
HETATM   24  N   UNL     1      -9.434  10.302  64.492  1.00  0.00    -0.274 NA 
ENDBRANCH   9  11
ENDBRANCH   4   9
BRANCH   6  25
HETATM   25  N   UNL     1     -13.566  15.579  70.940  1.00  0.00    -0.818 N  
HETATM   26  H   UNL     1     -14.245  16.239  70.562  1.00  0.00     0.000 HD 
BRANCH  25  27
HETATM   27  S   UNL     1     -13.449  15.290  72.602  1.00  0.00    -0.541 S  
HETATM   28  C   UNL     1     -11.691  15.476  72.862  1.00  0.00    -0.413 C  
HETATM   29  O   UNL     1     -13.772  13.892  72.775  1.00  0.00    -0.686 OA 
HETATM   30  O   UNL     1     -14.144  16.318  73.344  1.00  0.00    -0.404 OA 
ENDBRANCH  25  27
ENDBRANCH   6  25
ENDBRANCH   2   3
TORSDOF 5
ENDMDL
MODEL       71
REMARK 921   NORMALIZED FREE ENERGY PREDICTED BY IDOCK:   -6.30 KCAL/MOL
REMARK 922        TOTAL FREE ENERGY PREDICTED BY IDOCK:   -8.67 KCAL/MOL
REMARK 923 INTER-LIGAND FREE ENERGY PREDICTED BY IDOCK:   -8.27 KCAL/MOL
REMARK 924 INTRA-LIGAND FREE ENERGY PREDICTED BY IDOCK:   -0.40 KCAL/MOL
REMARK 927      BINDING AFFINITY PREDICTED BY RF-SCORE:    0.00 PKD
ROOT
HETATM    1  C   UNL     1     -12.188   9.529  71.496  1.00  0.00    -0.386 C  
HETATM    2  O   UNL     1     -11.268  10.349  70.767  1.00  0.00    -0.326 OA 
ENDROOT
BRANCH   2   3
HETATM    3  C   UNL     1     -10.882   9.818  69.554  1.00  0.00    -0.240 A  
HETATM    4  C   UNL     1     -11.244  10.532  68.386  1.00  0.00    -0.279 A  
HETATM    5  C   UNL     1     -10.778  10.067  67.150  1.00  0.00    -0.279 A  
HETATM    6  C   UNL     1      -9.783   8.136  68.216  1.00  0.00    -0.161 A  
HETATM    7  C   UNL     1     -10.047   8.875  67.064  1.00  0.00    -0.331 A  
HETATM    8  C   UNL     1     -10.198   8.604  69.458  1.00  0.00    -0.209 A  
BRANCH   4   9
HETATM    9  N   UNL     1     -12.086  11.658  68.486  1.00  0.00    -0.499 NA 
HETATM   10  H   UNL     1     -13.058  11.407  68.670  1.00  0.00     0.000 HD 
BRANCH   9  11
HETATM   11  C   UNL     1     -11.892  13.069  68.387  1.00  0.00    -0.334 A  
HETATM   12  C   UNL     1     -10.471  15.722  66.244  1.00  0.00    -0.315 A  
HETATM   13  C   UNL     1     -11.975  13.816  69.604  1.00  0.00    -0.399 A  
HETATM   14  C   UNL     1     -12.461  13.290  70.827  1.00  0.00    -0.403 A  
HETATM   15  C   UNL     1     -11.459  13.726  67.197  1.00  0.00    -0.365 A  
HETATM   16  C   UNL     1     -12.540  14.072  71.979  1.00  0.00    -0.314 A  
HETATM   17  C   UNL     1     -11.019  15.061  67.336  1.00  0.00    -0.315 A  
HETATM   18  C   UNL     1     -11.393  13.152  65.899  1.00  0.00    -0.338 A  
HETATM   19  C   UNL     1     -12.126  15.395  71.937  1.00  0.00    -0.463 A  
HETATM   20  C   UNL     1     -10.886  13.854  64.803  1.00  0.00    -0.430 A  
HETATM   21  C   UNL     1     -10.392  15.135  64.984  1.00  0.00    -0.377 A  
HETATM   22  C   UNL     1     -11.638  15.921  70.741  1.00  0.00    -0.441 A  
HETATM   23  C   UNL     1     -11.557  15.158  69.583  1.00  0.00    -0.311 A  
HETATM   24  N   UNL     1     -11.070  15.745  68.484  1.00  0.00    -0.315 NA 
ENDBRANCH   9  11
ENDBRANCH   4   9
BRANCH   6  25
HETATM   25  N   UNL     1      -9.143   6.861  68.160  1.00  0.00    -0.126 N  
HETATM   26  H   UNL     1      -9.624   6.039  67.796  1.00  0.00     0.000 HD 
BRANCH  25  27
HETATM   27  S   UNL     1      -7.550   6.774  68.722  1.00  0.00    -0.107 S  
HETATM   28  C   UNL     1      -7.633   5.327  69.768  1.00  0.00    -0.069 C  
HETATM   29  O   UNL     1      -7.380   7.925  69.580  1.00  0.00    -0.082 OA 
HETATM   30  O   UNL     1      -6.642   6.512  67.630  1.00  0.00    -0.056 OA 
ENDBRANCH  25  27
ENDBRANCH   6  25
ENDBRANCH   2   3
TORSDOF 5
ENDMDL
MODEL       72
REMARK 921   NORMALIZED FREE ENERGY PREDICTED BY IDOCK:   -6.25 KCAL/MOL
REMARK 922        TOTAL FREE ENERGY PREDICTED BY IDOCK:   -8.61 KCAL/MOL
REMARK 923 INTER-LIGAND FREE ENERGY PREDICTED BY IDOCK:   -7.97 KCAL/MOL
REMARK 924 INTRA-LIGAND FREE ENERGY PREDICTED BY IDOCK:   -0.64 KCAL/MOL
REMARK 927      BINDING AFFINITY PREDICTED BY RF-SCORE:    0.00 PKD
ROOT
HETATM    1  C   UNL     1      -6.663  14.651  69.667  1.00  0.00    -0.163 C  
HETATM    2  O   UNL     1      -7.810  14.242  68.915  1.00  0.00    -0.137 OA 
ENDROOT
BRANCH   2   3
HETATM    3  C   UNL     1      -8.740  15.242  68.720  1.00  0.00    -0.195 A  
HETATM    4  C   UNL     1     -10.077  14.849  68.471  1.00  0.00    -0.232 A  
HETATM    5  C   UNL     1     -11.056  15.845  68.370  1.00  0.00    -0.345 A  
HETATM    6  C   UNL     1      -9.369  17.568  68.573  1.00  0.00    -0.286 A  
HETATM    7  C   UNL     1     -10.706  17.201  68.424  1.00  0.00    -0.347 A  
HETATM    8  C   UNL     1      -8.387  16.594  68.721  1.00  0.00    -0.252 A  
BRANCH   4   9
HETATM    9  N   UNL     1     -10.385  13.485  68.295  1.00  0.00    -0.246 NA 
HETATM   10  H   UNL     1     -10.754  13.053  69.143  1.00  0.00     0.000 HD 
BRANCH   9  11
HETATM   11  C   UNL     1     -10.300  12.569  67.203  1.00  0.00    -0.220 A  
HETATM   12  C   UNL     1     -11.628  11.845  63.832  1.00  0.00    -0.515 A  
HETATM   13  C   UNL     1      -9.763  11.275  67.490  1.00  0.00    -0.192 A  
HETATM   14  C   UNL     1      -9.107  10.938  68.700  1.00  0.00    -0.175 A  
HETATM   15  C   UNL     1     -10.871  12.816  65.918  1.00  0.00    -0.295 A  
HETATM   16  C   UNL     1      -8.583   9.663  68.917  1.00  0.00    -0.127 A  
HETATM   17  C   UNL     1     -10.974  11.707  65.050  1.00  0.00    -0.273 A  
HETATM   18  C   UNL     1     -11.376  14.057  65.449  1.00  0.00    -0.315 A  
HETATM   19  C   UNL     1      -8.710   8.695  67.933  1.00  0.00    -0.137 A  
HETATM   20  C   UNL     1     -11.983  14.186  64.198  1.00  0.00    -0.421 A  
HETATM   21  C   UNL     1     -12.139  13.067  63.399  1.00  0.00    -0.591 A  
HETATM   22  C   UNL     1      -9.361   9.013  66.741  1.00  0.00    -0.213 A  
HETATM   23  C   UNL     1      -9.885  10.279  66.506  1.00  0.00    -0.212 A  
HETATM   24  N   UNL     1     -10.497  10.490  65.336  1.00  0.00    -0.206 NA 
ENDBRANCH   9  11
ENDBRANCH   4   9
BRANCH   6  25
HETATM   25  N   UNL     1      -8.956  18.933  68.518  1.00  0.00    -0.342 N  
HETATM   26  H   UNL     1      -8.862  19.496  69.363  1.00  0.00     0.000 HD 
BRANCH  25  27
HETATM   27  S   UNL     1      -8.627  19.578  66.989  1.00  0.00    -0.316 S  
HETATM   28  C   UNL     1     -10.262  20.074  66.465  1.00  0.00    -0.474 C  
HETATM   29  O   UNL     1      -8.228  18.452  66.174  1.00  0.00    -0.424 OA 
HETATM   30  O   UNL     1      -7.794  20.753  67.104  1.00  0.00    -0.320 OA 
ENDBRANCH  25  27
ENDBRANCH   6  25
ENDBRANCH   2   3
TORSDOF 5
ENDMDL
MODEL       73
REMARK 921   NORMALIZED FREE ENERGY PREDICTED BY IDOCK:   -6.24 KCAL/MOL
REMARK 922        TOTAL FREE ENERGY PREDICTED BY IDOCK:   -8.60 KCAL/MOL
REMARK 923 INTER-LIGAND FREE ENERGY PREDICTED BY IDOCK:   -8.10 KCAL/MOL
REMARK 924 INTRA-LIGAND FREE ENERGY PREDICTED BY IDOCK:   -0.49 KCAL/MOL
REMARK 927      BINDING AFFINITY PREDICTED BY RF-SCORE:    0.00 PKD
ROOT
HETATM    1  C   UNL     1     -12.212  13.317  69.526  1.00  0.00    -0.178 C  
HETATM    2  O   UNL     1     -11.817  12.253  68.654  1.00  0.00    -0.310 OA 
ENDROOT
BRANCH   2   3
HETATM    3  C   UNL     1     -11.112  11.247  69.279  1.00  0.00    -0.255 A  
HETATM    4  C   UNL     1      -9.821  10.948  68.781  1.00  0.00    -0.196 A  
HETATM    5  C   UNL     1      -9.046  10.001  69.461  1.00  0.00    -0.236 A  
HETATM    6  C   UNL     1     -10.880   9.540  70.971  1.00  0.00    -0.353 A  
HETATM    7  C   UNL     1      -9.571   9.300  70.555  1.00  0.00    -0.317 A  
HETATM    8  C   UNL     1     -11.650  10.509  70.338  1.00  0.00    -0.430 A  
BRANCH   4   9
HETATM    9  N   UNL     1      -9.362  11.575  67.604  1.00  0.00    -0.168 NA 
HETATM   10  H   UNL     1      -8.753  10.972  67.050  1.00  0.00     0.000 HD 
BRANCH   9  11
HETATM   11  C   UNL     1      -9.554  12.859  67.009  1.00  0.00    -0.231 A  
HETATM   12  C   UNL     1      -9.304  16.489  67.649  1.00  0.00    -0.212 A  
HETATM   13  C   UNL     1     -10.406  12.914  65.862  1.00  0.00    -0.297 A  
HETATM   14  C   UNL     1     -10.866  11.774  65.157  1.00  0.00    -0.351 A  
HETATM   15  C   UNL     1      -9.091  14.076  67.591  1.00  0.00    -0.192 A  
HETATM   16  C   UNL     1     -11.679  11.889  64.030  1.00  0.00    -0.469 A  
HETATM   17  C   UNL     1      -9.616  15.272  67.054  1.00  0.00    -0.224 A  
HETATM   18  C   UNL     1      -8.185  14.195  68.678  1.00  0.00    -0.116 A  
HETATM   19  C   UNL     1     -12.059  13.147  63.587  1.00  0.00    -0.583 A  
HETATM   20  C   UNL     1      -7.844  15.433  69.228  1.00  0.00    -0.225 A  
HETATM   21  C   UNL     1      -8.432  16.583  68.731  1.00  0.00    -0.248 A  
HETATM   22  C   UNL     1     -11.620  14.277  64.277  1.00  0.00    -0.299 A  
HETATM   23  C   UNL     1     -10.805  14.180  65.399  1.00  0.00    -0.337 A  
HETATM   24  N   UNL     1     -10.438  15.318  66.000  1.00  0.00    -0.300 NA 
ENDBRANCH   9  11
ENDBRANCH   4   9
BRANCH   6  25
HETATM   25  N   UNL     1     -11.491   8.769  72.005  1.00  0.00    -0.361 N  
HETATM   26  H   UNL     1     -11.526   9.103  72.968  1.00  0.00     0.000 HD 
BRANCH  25  27
HETATM   27  S   UNL     1     -12.156   7.278  71.564  1.00  0.00    -0.350 S  
HETATM   28  C   UNL     1     -13.904   7.638  71.661  1.00  0.00    -0.389 C  
HETATM   29  O   UNL     1     -11.834   6.376  72.647  1.00  0.00    -0.176 OA 
HETATM   30  O   UNL     1     -11.819   6.959  70.196  1.00  0.00    -0.299 OA 
ENDBRANCH  25  27
ENDBRANCH   6  25
ENDBRANCH   2   3
TORSDOF 5
ENDMDL
MODEL       74
REMARK 921   NORMALIZED FREE ENERGY PREDICTED BY IDOCK:   -6.22 KCAL/MOL
REMARK 922        TOTAL FREE ENERGY PREDICTED BY IDOCK:   -8.58 KCAL/MOL
REMARK 923 INTER-LIGAND FREE ENERGY PREDICTED BY IDOCK:   -7.99 KCAL/MOL
REMARK 924 INTRA-LIGAND FREE ENERGY PREDICTED BY IDOCK:   -0.59 KCAL/MOL
REMARK 927      BINDING AFFINITY PREDICTED BY RF-SCORE:    0.00 PKD
ROOT
HETATM    1  C   UNL     1     -11.947  13.566  69.587  1.00  0.00    -0.337 C  
HETATM    2  O   UNL     1     -12.031  12.315  68.897  1.00  0.00    -0.308 OA 
ENDROOT
BRANCH   2   3
HETATM    3  C   UNL     1     -11.303  11.300  69.481  1.00  0.00    -0.294 A  
HETATM    4  C   UNL     1     -10.000  11.061  68.983  1.00  0.00    -0.167 A  
HETATM    5  C   UNL     1      -9.205  10.105  69.626  1.00  0.00    -0.206 A  
HETATM    6  C   UNL     1     -11.037   9.523  71.095  1.00  0.00    -0.379 A  
HETATM    7  C   UNL     1      -9.719   9.340  70.681  1.00  0.00    -0.334 A  
HETATM    8  C   UNL     1     -11.829  10.500  70.500  1.00  0.00    -0.442 A  
BRANCH   4   9
HETATM    9  N   UNL     1      -9.549  11.754  67.841  1.00  0.00    -0.181 NA 
HETATM   10  H   UNL     1      -9.017  12.592  68.075  1.00  0.00     0.000 HD 
BRANCH   9  11
HETATM   11  C   UNL     1      -9.667  11.552  66.432  1.00  0.00    -0.207 A  
HETATM   12  C   UNL     1     -11.808  12.259  63.505  1.00  0.00    -0.601 A  
HETATM   13  C   UNL     1      -8.907  10.478  65.871  1.00  0.00    -0.180 A  
HETATM   14  C   UNL     1      -7.891   9.776  66.566  1.00  0.00    -0.109 A  
HETATM   15  C   UNL     1     -10.611  12.238  65.611  1.00  0.00    -0.295 A  
HETATM   16  C   UNL     1      -7.166   8.749  65.961  1.00  0.00    -0.088 A  
HETATM   17  C   UNL     1     -10.817  11.717  64.315  1.00  0.00    -0.349 A  
HETATM   18  C   UNL     1     -11.386  13.367  65.989  1.00  0.00    -0.329 A  
HETATM   19  C   UNL     1      -7.446   8.396  64.650  1.00  0.00    -0.098 A  
HETATM   20  C   UNL     1     -12.341  13.929  65.138  1.00  0.00    -0.471 A  
HETATM   21  C   UNL     1     -12.575  13.352  63.902  1.00  0.00    -0.186 A  
HETATM   22  C   UNL     1      -8.450   9.075  63.958  1.00  0.00    -0.175 A  
HETATM   23  C   UNL     1      -9.178  10.103  64.544  1.00  0.00    -0.257 A  
HETATM   24  N   UNL     1     -10.125  10.692  63.806  1.00  0.00    -0.319 NA 
ENDBRANCH   9  11
ENDBRANCH   4   9
BRANCH   6  25
HETATM   25  N   UNL     1     -11.636   8.688  72.086  1.00  0.00    -0.364 N  
HETATM   26  H   UNL     1     -11.744   9.001  73.051  1.00  0.00     0.000 HD 
BRANCH  25  27
HETATM   27  S   UNL     1     -12.158   7.158  71.592  1.00  0.00    -0.355 S  
HETATM   28  C   UNL     1     -13.932   7.363  71.653  1.00  0.00    -0.403 C  
HETATM   29  O   UNL     1     -11.783   6.258  72.660  1.00  0.00    -0.228 OA 
HETATM   30  O   UNL     1     -11.762   6.906  70.225  1.00  0.00    -0.330 OA 
ENDBRANCH  25  27
ENDBRANCH   6  25
ENDBRANCH   2   3
TORSDOF 5
ENDMDL
MODEL       75
REMARK 921   NORMALIZED FREE ENERGY PREDICTED BY IDOCK:   -6.21 KCAL/MOL
REMARK 922        TOTAL FREE ENERGY PREDICTED BY IDOCK:   -8.56 KCAL/MOL
REMARK 923 INTER-LIGAND FREE ENERGY PREDICTED BY IDOCK:   -7.98 KCAL/MOL
REMARK 924 INTRA-LIGAND FREE ENERGY PREDICTED BY IDOCK:   -0.58 KCAL/MOL
REMARK 927      BINDING AFFINITY PREDICTED BY RF-SCORE:    0.00 PKD
ROOT
HETATM    1  C   UNL     1      -7.588  12.207  67.915  1.00  0.00    -0.123 C  
HETATM    2  O   UNL     1      -8.958  12.602  67.789  1.00  0.00    -0.171 OA 
ENDROOT
BRANCH   2   3
HETATM    3  C   UNL     1      -9.826  11.886  68.586  1.00  0.00    -0.131 A  
HETATM    4  C   UNL     1     -11.047  12.506  68.943  1.00  0.00    -0.260 A  
HETATM    5  C   UNL     1     -11.986  11.762  69.668  1.00  0.00    -0.378 A  
HETATM    6  C   UNL     1     -10.440   9.907  69.826  1.00  0.00    -0.261 A  
HETATM    7  C   UNL     1     -11.687  10.465  70.105  1.00  0.00    -0.394 A  
HETATM    8  C   UNL     1      -9.511  10.612  69.069  1.00  0.00    -0.202 A  
BRANCH   4   9
HETATM    9  N   UNL     1     -11.274  13.854  68.600  1.00  0.00    -0.255 NA 
HETATM   10  H   UNL     1     -11.411  14.450  69.417  1.00  0.00     0.000 HD 
BRANCH   9  11
HETATM   11  C   UNL     1     -11.357  14.578  67.372  1.00  0.00    -0.356 A  
HETATM   12  C   UNL     1     -11.592  14.179  63.706  1.00  0.00     0.142 A  
HETATM   13  C   UNL     1     -10.924  15.941  67.398  1.00  0.00    -0.257 A  
HETATM   14  C   UNL     1     -10.652  16.665  68.586  1.00  0.00    -0.337 A  
HETATM   15  C   UNL     1     -11.676  13.975  66.119  1.00  0.00    -0.395 A  
HETATM   16  C   UNL     1     -10.253  18.001  68.553  1.00  0.00    -0.392 A  
HETATM   17  C   UNL     1     -11.420  14.745  64.963  1.00  0.00    -0.389 A  
HETATM   18  C   UNL     1     -12.189  12.664  65.925  1.00  0.00    -0.375 A  
HETATM   19  C   UNL     1     -10.108  18.641  67.331  1.00  0.00    -0.397 A  
HETATM   20  C   UNL     1     -12.404  12.132  64.652  1.00  0.00    -0.356 A  
HETATM   21  C   UNL     1     -12.073  12.882  63.536  1.00  0.00    -0.633 A  
HETATM   22  C   UNL     1     -10.364  17.936  66.155  1.00  0.00    -0.352 A  
HETATM   23  C   UNL     1     -10.768  16.606  66.170  1.00  0.00    -0.132 A  
HETATM   24  N   UNL     1     -10.985  16.010  64.993  1.00  0.00    -0.466 NA 
ENDBRANCH   9  11
ENDBRANCH   4   9
BRANCH   6  25
HETATM   25  N   UNL     1     -10.052   8.637  70.349  1.00  0.00    -0.183 N  
HETATM   26  H   UNL     1      -9.444   8.560  71.164  1.00  0.00     0.000 HD 
BRANCH  25  27
HETATM   27  S   UNL     1     -10.646   7.264  69.560  1.00  0.00    -0.230 S  
HETATM   28  C   UNL     1      -9.350   6.082  69.901  1.00  0.00    -0.148 C  
HETATM   29  O   UNL     1     -10.594   7.578  68.149  1.00  0.00    -0.198 OA 
HETATM   30  O   UNL     1     -11.869   6.812  70.183  1.00  0.00    -0.349 OA 
ENDBRANCH  25  27
ENDBRANCH   6  25
ENDBRANCH   2   3
TORSDOF 5
ENDMDL
MODEL       76
REMARK 921   NORMALIZED FREE ENERGY PREDICTED BY IDOCK:   -6.19 KCAL/MOL
REMARK 922        TOTAL FREE ENERGY PREDICTED BY IDOCK:   -8.54 KCAL/MOL
REMARK 923 INTER-LIGAND FREE ENERGY PREDICTED BY IDOCK:   -7.65 KCAL/MOL
REMARK 924 INTRA-LIGAND FREE ENERGY PREDICTED BY IDOCK:   -0.89 KCAL/MOL
REMARK 927      BINDING AFFINITY PREDICTED BY RF-SCORE:    0.00 PKD
ROOT
HETATM    1  C   UNL     1      -6.716   9.730  69.336  1.00  0.00    -0.055 C  
HETATM    2  O   UNL     1      -7.739  10.701  69.091  1.00  0.00    -0.117 OA 
ENDROOT
BRANCH   2   3
HETATM    3  C   UNL     1      -8.775  10.240  68.307  1.00  0.00    -0.126 A  
HETATM    4  C   UNL     1      -9.927  11.055  68.202  1.00  0.00    -0.177 A  
HETATM    5  C   UNL     1     -10.950  10.657  67.332  1.00  0.00    -0.361 A  
HETATM    6  C   UNL     1      -9.773   8.600  66.843  1.00  0.00    -0.214 A  
HETATM    7  C   UNL     1     -10.873   9.434  66.651  1.00  0.00     0.050 A  
HETATM    8  C   UNL     1      -8.726   8.998  67.666  1.00  0.00    -0.124 A  
BRANCH   4   9
HETATM    9  N   UNL     1     -10.037  12.217  68.992  1.00  0.00    -0.422 NA 
HETATM   10  H   UNL     1      -9.500  12.156  69.858  1.00  0.00     0.000 HD 
BRANCH   9  11
HETATM   11  C   UNL     1     -10.727  13.461  68.860  1.00  0.00    -0.190 A  
HETATM   12  C   UNL     1     -10.537  16.804  67.298  1.00  0.00    -0.275 A  
HETATM   13  C   UNL     1     -11.712  13.758  69.853  1.00  0.00    -0.353 A  
HETATM   14  C   UNL     1     -12.200  12.818  70.794  1.00  0.00    -0.338 A  
HETATM   15  C   UNL     1     -10.368  14.467  67.914  1.00  0.00    -0.232 A  
HETATM   16  C   UNL     1     -13.179  13.158  71.729  1.00  0.00    -0.494 A  
HETATM   17  C   UNL     1     -10.934  15.746  68.107  1.00  0.00    -0.330 A  
HETATM   18  C   UNL     1      -9.470  14.312  66.825  1.00  0.00    -0.287 A  
HETATM   19  C   UNL     1     -13.685  14.449  71.748  1.00  0.00    -0.504 A  
HETATM   20  C   UNL     1      -9.124  15.377  65.991  1.00  0.00    -0.284 A  
HETATM   21  C   UNL     1      -9.635  16.637  66.249  1.00  0.00    -0.325 A  
HETATM   22  C   UNL     1     -13.206  15.385  70.832  1.00  0.00    -0.512 A  
HETATM   23  C   UNL     1     -12.235  15.062  69.892  1.00  0.00    -0.309 A  
HETATM   24  N   UNL     1     -11.832  16.027  69.058  1.00  0.00    -0.329 NA 
ENDBRANCH   9  11
ENDBRANCH   4   9
BRANCH   6  25
HETATM   25  N   UNL     1      -9.709   7.298  66.259  1.00  0.00    -0.413 N  
HETATM   26  H   UNL     1      -9.263   7.141  65.356  1.00  0.00     0.000 HD 
BRANCH  25  27
HETATM   27  S   UNL     1     -10.405   6.028  67.132  1.00  0.00    -0.264 S  
HETATM   28  C   UNL     1      -8.962   5.303  67.896  1.00  0.00    -0.109 C  
HETATM   29  O   UNL     1     -10.889   5.096  66.138  1.00  0.00    -0.282 OA 
HETATM   30  O   UNL     1     -11.275   6.541  68.166  1.00  0.00    -0.275 OA 
ENDBRANCH  25  27
ENDBRANCH   6  25
ENDBRANCH   2   3
TORSDOF 5
ENDMDL
MODEL       77
REMARK 921   NORMALIZED FREE ENERGY PREDICTED BY IDOCK:   -6.12 KCAL/MOL
REMARK 922        TOTAL FREE ENERGY PREDICTED BY IDOCK:   -8.44 KCAL/MOL
REMARK 923 INTER-LIGAND FREE ENERGY PREDICTED BY IDOCK:   -7.78 KCAL/MOL
REMARK 924 INTRA-LIGAND FREE ENERGY PREDICTED BY IDOCK:   -0.66 KCAL/MOL
REMARK 927      BINDING AFFINITY PREDICTED BY RF-SCORE:    0.00 PKD
ROOT
HETATM    1  C   UNL     1     -12.257  12.282  70.468  1.00  0.00    -0.300 C  
HETATM    2  O   UNL     1     -12.354  11.069  69.713  1.00  0.00    -0.321 OA 
ENDROOT
BRANCH   2   3
HETATM    3  C   UNL     1     -11.643  11.083  68.532  1.00  0.00    -0.310 A  
HETATM    4  C   UNL     1     -11.089   9.858  68.090  1.00  0.00    -0.156 A  
HETATM    5  C   UNL     1     -10.449   9.826  66.845  1.00  0.00    -0.281 A  
HETATM    6  C   UNL     1     -10.750  12.214  66.595  1.00  0.00    -0.246 A  
HETATM    7  C   UNL     1     -10.282  10.999  66.097  1.00  0.00    -0.298 A  
HETATM    8  C   UNL     1     -11.429  12.259  67.808  1.00  0.00    -0.392 A  
BRANCH   4   9
HETATM    9  N   UNL     1     -11.159   8.718  68.916  1.00  0.00    -0.426 NA 
HETATM   10  H   UNL     1     -12.025   8.675  69.454  1.00  0.00     0.000 HD 
BRANCH   9  11
HETATM   11  C   UNL     1     -10.296   7.610  69.174  1.00  0.00    -0.213 A  
HETATM   12  C   UNL     1      -9.471   4.179  68.079  1.00  0.00    -0.215 A  
HETATM   13  C   UNL     1      -9.674   7.566  70.461  1.00  0.00    -0.179 A  
HETATM   14  C   UNL     1      -9.671   8.645  71.380  1.00  0.00    -0.314 A  
HETATM   15  C   UNL     1     -10.168   6.489  68.301  1.00  0.00    -0.195 A  
HETATM   16  C   UNL     1      -9.029   8.553  72.614  1.00  0.00    -0.243 A  
HETATM   17  C   UNL     1      -9.525   5.347  68.829  1.00  0.00    -0.130 A  
HETATM   18  C   UNL     1     -10.657   6.401  66.971  1.00  0.00    -0.396 A  
HETATM   19  C   UNL     1      -8.381   7.377  72.962  1.00  0.00    -0.147 A  
HETATM   20  C   UNL     1     -10.546   5.232  66.215  1.00  0.00    -0.308 A  
HETATM   21  C   UNL     1      -9.979   4.105  66.784  1.00  0.00    -0.140 A  
HETATM   22  C   UNL     1      -8.385   6.305  72.070  1.00  0.00    -0.110 A  
HETATM   23  C   UNL     1      -9.015   6.381  70.834  1.00  0.00    -0.144 A  
HETATM   24  N   UNL     1      -8.971   5.301  70.046  1.00  0.00    -0.125 NA 
ENDBRANCH   9  11
ENDBRANCH   4   9
BRANCH   6  25
HETATM   25  N   UNL     1     -10.500  13.448  65.921  1.00  0.00    -0.282 N  
HETATM   26  H   UNL     1      -9.620  13.949  66.037  1.00  0.00     0.000 HD 
BRANCH  25  27
HETATM   27  S   UNL     1     -11.728  14.041  64.921  1.00  0.00    -0.403 S  
HETATM   28  C   UNL     1     -11.579  12.956  63.510  1.00  0.00    -0.468 C  
HETATM   29  O   UNL     1     -11.289  15.357  64.511  1.00  0.00    -0.385 OA 
HETATM   30  O   UNL     1     -13.021  13.839  65.534  1.00  0.00    -0.651 OA 
ENDBRANCH  25  27
ENDBRANCH   6  25
ENDBRANCH   2   3
TORSDOF 5
ENDMDL
MODEL       78
REMARK 921   NORMALIZED FREE ENERGY PREDICTED BY IDOCK:   -6.08 KCAL/MOL
REMARK 922        TOTAL FREE ENERGY PREDICTED BY IDOCK:   -8.39 KCAL/MOL
REMARK 923 INTER-LIGAND FREE ENERGY PREDICTED BY IDOCK:   -7.86 KCAL/MOL
REMARK 924 INTRA-LIGAND FREE ENERGY PREDICTED BY IDOCK:   -0.53 KCAL/MOL
REMARK 927      BINDING AFFINITY PREDICTED BY RF-SCORE:    0.00 PKD
ROOT
HETATM    1  C   UNL     1     -13.040  14.280  72.171  1.00  0.00    -0.382 C  
HETATM    2  O   UNL     1     -12.502  13.402  71.177  1.00  0.00    -0.362 OA 
ENDROOT
BRANCH   2   3
HETATM    3  C   UNL     1     -12.161  14.030  69.997  1.00  0.00    -0.352 A  
HETATM    4  C   UNL     1     -11.990  13.218  68.851  1.00  0.00    -0.297 A  
HETATM    5  C   UNL     1     -11.743  13.842  67.622  1.00  0.00    -0.402 A  
HETATM    6  C   UNL     1     -11.657  16.005  68.702  1.00  0.00    -0.343 A  
HETATM    7  C   UNL     1     -11.580  15.231  67.545  1.00  0.00    -0.223 A  
HETATM    8  C   UNL     1     -11.947  15.410  69.925  1.00  0.00    -0.384 A  
BRANCH   4   9
HETATM    9  N   UNL     1     -12.033  11.814  68.975  1.00  0.00    -0.304 NA 
HETATM   10  H   UNL     1     -12.864  11.407  68.545  1.00  0.00     0.000 HD 
BRANCH   9  11
HETATM   11  C   UNL     1     -11.180  10.831  69.563  1.00  0.00    -0.281 A  
HETATM   12  C   UNL     1      -8.000   9.009  69.103  1.00  0.00    -0.101 A  
HETATM   13  C   UNL     1     -11.777   9.956  70.525  1.00  0.00    -0.373 A  
HETATM   14  C   UNL     1     -13.061  10.154  71.090  1.00  0.00    -0.480 A  
HETATM   15  C   UNL     1      -9.848  10.575  69.123  1.00  0.00    -0.233 A  
HETATM   16  C   UNL     1     -13.584   9.278  72.042  1.00  0.00    -0.519 A  
HETATM   17  C   UNL     1      -9.247   9.383  69.586  1.00  0.00    -0.185 A  
HETATM   18  C   UNL     1      -9.088  11.383  68.236  1.00  0.00    -0.179 A  
HETATM   19  C   UNL     1     -12.838   8.181  72.444  1.00  0.00    -0.199 A  
HETATM   20  C   UNL     1      -7.812  11.012  67.803  1.00  0.00    -0.110 A  
HETATM   21  C   UNL     1      -7.279   9.803  68.214  1.00  0.00    -0.078 A  
HETATM   22  C   UNL     1     -11.576   7.971  71.888  1.00  0.00    -0.348 A  
HETATM   23  C   UNL     1     -11.037   8.836  70.943  1.00  0.00    -0.268 A  
HETATM   24  N   UNL     1      -9.822   8.552  70.462  1.00  0.00    -0.176 NA 
ENDBRANCH   9  11
ENDBRANCH   4   9
BRANCH   6  25
HETATM   25  N   UNL     1     -11.385  17.406  68.687  1.00  0.00     0.047 N  
HETATM   26  H   UNL     1     -12.083  18.088  68.984  1.00  0.00     0.000 HD 
BRANCH  25  27
HETATM   27  S   UNL     1      -9.854  17.888  68.154  1.00  0.00    -0.354 S  
HETATM   28  C   UNL     1     -10.171  18.192  66.422  1.00  0.00    -0.399 C  
HETATM   29  O   UNL     1      -9.024  16.707  68.247  1.00  0.00    -0.202 OA 
HETATM   30  O   UNL     1      -9.466  19.129  68.785  1.00  0.00    -0.374 OA 
ENDBRANCH  25  27
ENDBRANCH   6  25
ENDBRANCH   2   3
TORSDOF 5
ENDMDL
MODEL       79
REMARK 921   NORMALIZED FREE ENERGY PREDICTED BY IDOCK:   -6.07 KCAL/MOL
REMARK 922        TOTAL FREE ENERGY PREDICTED BY IDOCK:   -8.38 KCAL/MOL
REMARK 923 INTER-LIGAND FREE ENERGY PREDICTED BY IDOCK:   -7.68 KCAL/MOL
REMARK 924 INTRA-LIGAND FREE ENERGY PREDICTED BY IDOCK:   -0.70 KCAL/MOL
REMARK 927      BINDING AFFINITY PREDICTED BY RF-SCORE:    0.00 PKD
ROOT
HETATM    1  C   UNL     1      -6.614   8.920  69.311  1.00  0.00    -0.049 C  
HETATM    2  O   UNL     1      -7.508   9.836  68.670  1.00  0.00    -0.074 OA 
ENDROOT
BRANCH   2   3
HETATM    3  C   UNL     1      -8.780   9.845  69.202  1.00  0.00    -0.159 A  
HETATM    4  C   UNL     1      -9.798  10.477  68.448  1.00  0.00    -0.161 A  
HETATM    5  C   UNL     1     -11.115  10.412  68.919  1.00  0.00    -0.296 A  
HETATM    6  C   UNL     1     -10.373   9.282  70.926  1.00  0.00    -0.296 A  
HETATM    7  C   UNL     1     -11.404   9.814  70.153  1.00  0.00    -0.305 A  
HETATM    8  C   UNL     1      -9.065   9.295  70.455  1.00  0.00    -0.288 A  
BRANCH   4   9
HETATM    9  N   UNL     1      -9.464  11.182  67.273  1.00  0.00    -0.164 NA 
HETATM   10  H   UNL     1      -8.724  11.868  67.423  1.00  0.00     0.000 HD 
BRANCH   9  11
HETATM   11  C   UNL     1      -9.925  11.156  65.922  1.00  0.00    -0.239 A  
HETATM   12  C   UNL     1      -9.174   9.820  62.560  1.00  0.00    -0.281 A  
HETATM   13  C   UNL     1     -10.822  12.199  65.528  1.00  0.00    -0.324 A  
HETATM   14  C   UNL     1     -11.451  13.089  66.434  1.00  0.00    -0.384 A  
HETATM   15  C   UNL     1      -9.411  10.270  64.929  1.00  0.00    -0.337 A  
HETATM   16  C   UNL     1     -12.335  14.075  65.995  1.00  0.00    -0.504 A  
HETATM   17  C   UNL     1      -9.737  10.567  63.587  1.00  0.00    -0.318 A  
HETATM   18  C   UNL     1      -8.576   9.144  65.160  1.00  0.00    -0.200 A  
HETATM   19  C   UNL     1     -12.603  14.198  64.640  1.00  0.00    -0.285 A  
HETATM   20  C   UNL     1      -8.062   8.374  64.114  1.00  0.00    -0.145 A  
HETATM   21  C   UNL     1      -8.337   8.734  62.806  1.00  0.00    -0.192 A  
HETATM   22  C   UNL     1     -11.983  13.333  63.739  1.00  0.00    -0.551 A  
HETATM   23  C   UNL     1     -11.104  12.342  64.159  1.00  0.00    -0.372 A  
HETATM   24  N   UNL     1     -10.552  11.563  63.222  1.00  0.00    -0.364 NA 
ENDBRANCH   9  11
ENDBRANCH   4   9
BRANCH   6  25
HETATM   25  N   UNL     1     -10.608   8.767  72.237  1.00  0.00    -0.313 N  
HETATM   26  H   UNL     1     -10.399   9.317  73.070  1.00  0.00     0.000 HD 
BRANCH  25  27
HETATM   27  S   UNL     1     -11.248   7.206  72.348  1.00  0.00    -0.282 S  
HETATM   28  C   UNL     1     -10.473   6.414  70.947  1.00  0.00    -0.228 C  
HETATM   29  O   UNL     1     -12.656   7.344  72.050  1.00  0.00    -0.293 OA 
HETATM   30  O   UNL     1     -10.798   6.560  73.560  1.00  0.00    -0.272 OA 
ENDBRANCH  25  27
ENDBRANCH   6  25
ENDBRANCH   2   3
TORSDOF 5
ENDMDL
MODEL       80
REMARK 921   NORMALIZED FREE ENERGY PREDICTED BY IDOCK:   -6.07 KCAL/MOL
REMARK 922        TOTAL FREE ENERGY PREDICTED BY IDOCK:   -8.37 KCAL/MOL
REMARK 923 INTER-LIGAND FREE ENERGY PREDICTED BY IDOCK:   -7.45 KCAL/MOL
REMARK 924 INTRA-LIGAND FREE ENERGY PREDICTED BY IDOCK:   -0.92 KCAL/MOL
REMARK 927      BINDING AFFINITY PREDICTED BY RF-SCORE:    0.00 PKD
ROOT
HETATM    1  C   UNL     1      -8.513   7.523  66.411  1.00  0.00    -0.131 C  
HETATM    2  O   UNL     1      -8.361   8.897  66.784  1.00  0.00    -0.110 OA 
ENDROOT
BRANCH   2   3
HETATM    3  C   UNL     1      -9.024   9.242  67.942  1.00  0.00    -0.127 A  
HETATM    4  C   UNL     1      -9.496  10.572  68.052  1.00  0.00    -0.148 A  
HETATM    5  C   UNL     1     -10.259  10.918  69.174  1.00  0.00    -0.215 A  
HETATM    6  C   UNL     1      -9.920   8.718  70.122  1.00  0.00    -0.184 A  
HETATM    7  C   UNL     1     -10.474   9.994  70.205  1.00  0.00    -0.331 A  
HETATM    8  C   UNL     1      -9.197   8.340  68.996  1.00  0.00    -0.147 A  
BRANCH   4   9
HETATM    9  N   UNL     1      -9.160  11.518  67.063  1.00  0.00    -0.170 NA 
HETATM   10  H   UNL     1      -8.340  11.245  66.520  1.00  0.00     0.000 HD 
BRANCH   9  11
HETATM   11  C   UNL     1      -9.703  12.771  66.646  1.00  0.00    -0.252 A  
HETATM   12  C   UNL     1     -10.417  16.215  67.777  1.00  0.00    -0.295 A  
HETATM   13  C   UNL     1     -10.569  12.750  65.507  1.00  0.00    -0.303 A  
HETATM   14  C   UNL     1     -10.724  11.633  64.649  1.00  0.00    -0.371 A  
HETATM   15  C   UNL     1      -9.568  13.979  67.393  1.00  0.00    -0.227 A  
HETATM   16  C   UNL     1     -11.568  11.676  63.539  1.00  0.00    -0.408 A  
HETATM   17  C   UNL     1     -10.407  15.051  67.019  1.00  0.00    -0.269 A  
HETATM   18  C   UNL     1      -8.699  14.189  68.497  1.00  0.00    -0.166 A  
HETATM   19  C   UNL     1     -12.281  12.834  63.267  1.00  0.00    -0.500 A  
HETATM   20  C   UNL     1      -8.687  15.388  69.214  1.00  0.00    -0.252 A  
HETATM   21  C   UNL     1      -9.574  16.394  68.872  1.00  0.00    -0.252 A  
HETATM   22  C   UNL     1     -12.143  13.936  64.110  1.00  0.00    -0.464 A  
HETATM   23  C   UNL     1     -11.303  13.912  65.217  1.00  0.00    -0.314 A  
HETATM   24  N   UNL     1     -11.239  15.015  65.971  1.00  0.00    -0.336 NA 
ENDBRANCH   9  11
ENDBRANCH   4   9
BRANCH   6  25
HETATM   25  N   UNL     1     -10.018   7.786  71.200  1.00  0.00    -0.176 N  
HETATM   26  H   UNL     1      -9.190   7.454  71.694  1.00  0.00     0.000 HD 
BRANCH  25  27
HETATM   27  S   UNL     1     -11.567   7.256  71.621  1.00  0.00    -0.288 S  
HETATM   28  C   UNL     1     -11.182   5.894  72.712  1.00  0.00    -0.276 C  
HETATM   29  O   UNL     1     -12.129   6.702  70.409  1.00  0.00    -0.374 OA 
HETATM   30  O   UNL     1     -12.264   8.276  72.372  1.00  0.00    -0.361 OA 
ENDBRANCH  25  27
ENDBRANCH   6  25
ENDBRANCH   2   3
TORSDOF 5
ENDMDL
MODEL       81
REMARK 921   NORMALIZED FREE ENERGY PREDICTED BY IDOCK:   -5.99 KCAL/MOL
REMARK 922        TOTAL FREE ENERGY PREDICTED BY IDOCK:   -8.28 KCAL/MOL
REMARK 923 INTER-LIGAND FREE ENERGY PREDICTED BY IDOCK:   -7.95 KCAL/MOL
REMARK 924 INTRA-LIGAND FREE ENERGY PREDICTED BY IDOCK:   -0.33 KCAL/MOL
REMARK 927      BINDING AFFINITY PREDICTED BY RF-SCORE:    0.00 PKD
ROOT
HETATM    1  C   UNL     1      -7.387  14.080  68.811  1.00  0.00    -0.127 C  
HETATM    2  O   UNL     1      -8.063  13.684  67.613  1.00  0.00    -0.149 OA 
ENDROOT
BRANCH   2   3
HETATM    3  C   UNL     1      -8.821  14.682  67.039  1.00  0.00    -0.241 A  
HETATM    4  C   UNL     1     -10.091  14.325  66.527  1.00  0.00    -0.278 A  
HETATM    5  C   UNL     1     -10.919  15.339  66.030  1.00  0.00    -0.317 A  
HETATM    6  C   UNL     1      -9.174  16.978  66.380  1.00  0.00    -0.271 A  
HETATM    7  C   UNL     1     -10.465  16.663  65.960  1.00  0.00    -0.306 A  
HETATM    8  C   UNL     1      -8.352  15.994  66.919  1.00  0.00    -0.278 A  
BRANCH   4   9
HETATM    9  N   UNL     1     -10.477  12.969  66.493  1.00  0.00    -0.274 NA 
HETATM   10  H   UNL     1     -10.677  12.642  65.548  1.00  0.00     0.000 HD 
BRANCH   9  11
HETATM   11  C   UNL     1     -10.652  11.950  67.477  1.00  0.00    -0.219 A  
HETATM   12  C   UNL     1     -10.724   8.289  67.972  1.00  0.00    -0.111 A  
HETATM   13  C   UNL     1     -11.319  12.329  68.684  1.00  0.00    -0.339 A  
HETATM   14  C   UNL     1     -11.594  13.670  69.052  1.00  0.00    -0.356 A  
HETATM   15  C   UNL     1     -10.358  10.572  67.249  1.00  0.00    -0.275 A  
HETATM   16  C   UNL     1     -12.229  13.983  70.254  1.00  0.00    -0.430 A  
HETATM   17  C   UNL     1     -10.866   9.653  68.193  1.00  0.00    -0.190 A  
HETATM   18  C   UNL     1      -9.640  10.039  66.145  1.00  0.00    -0.265 A  
HETATM   19  C   UNL     1     -12.611  12.962  71.111  1.00  0.00    -0.373 A  
HETATM   20  C   UNL     1      -9.463   8.665  65.969  1.00  0.00    -0.278 A  
HETATM   21  C   UNL     1     -10.036   7.784  66.870  1.00  0.00    -0.356 A  
HETATM   22  C   UNL     1     -12.353  11.638  70.755  1.00  0.00    -0.454 A  
HETATM   23  C   UNL     1     -11.717  11.309  69.565  1.00  0.00    -0.345 A  
HETATM   24  N   UNL     1     -11.517  10.012  69.306  1.00  0.00    -0.118 NA 
ENDBRANCH   9  11
ENDBRANCH   4   9
BRANCH   6  25
HETATM   25  N   UNL     1      -8.632  18.289  66.219  1.00  0.00    -0.231 N  
HETATM   26  H   UNL     1      -7.894  18.481  65.543  1.00  0.00     0.000 HD 
BRANCH  25  27
HETATM   27  S   UNL     1      -9.268  19.511  67.200  1.00  0.00    -0.331 S  
HETATM   28  C   UNL     1      -7.817  20.513  67.488  1.00  0.00    -0.276 C  
HETATM   29  O   UNL     1      -9.611  18.866  68.448  1.00  0.00    -0.329 OA 
HETATM   30  O   UNL     1     -10.240  20.292  66.468  1.00  0.00    -0.430 OA 
ENDBRANCH  25  27
ENDBRANCH   6  25
ENDBRANCH   2   3
TORSDOF 5
ENDMDL
MODEL       82
REMARK 921   NORMALIZED FREE ENERGY PREDICTED BY IDOCK:   -5.93 KCAL/MOL
REMARK 922        TOTAL FREE ENERGY PREDICTED BY IDOCK:   -8.20 KCAL/MOL
REMARK 923 INTER-LIGAND FREE ENERGY PREDICTED BY IDOCK:   -7.67 KCAL/MOL
REMARK 924 INTRA-LIGAND FREE ENERGY PREDICTED BY IDOCK:   -0.53 KCAL/MOL
REMARK 927      BINDING AFFINITY PREDICTED BY RF-SCORE:    0.00 PKD
ROOT
HETATM    1  C   UNL     1      -7.711   9.348  70.287  1.00  0.00    -0.144 C  
HETATM    2  O   UNL     1      -7.690  10.354  69.269  1.00  0.00    -0.115 OA 
ENDROOT
BRANCH   2   3
HETATM    3  C   UNL     1      -8.516  10.087  68.198  1.00  0.00    -0.114 A  
HETATM    4  C   UNL     1      -9.748  10.782  68.136  1.00  0.00    -0.159 A  
HETATM    5  C   UNL     1     -10.558  10.603  67.008  1.00  0.00    -0.317 A  
HETATM    6  C   UNL     1      -9.029   8.944  66.135  1.00  0.00    -0.178 A  
HETATM    7  C   UNL     1     -10.200   9.690  66.008  1.00  0.00    -0.255 A  
HETATM    8  C   UNL     1      -8.188   9.140  67.224  1.00  0.00    -0.114 A  
BRANCH   4   9
HETATM    9  N   UNL     1     -10.146  11.600  69.213  1.00  0.00    -0.409 NA 
HETATM   10  H   UNL     1      -9.401  12.219  69.533  1.00  0.00     0.000 HD 
BRANCH   9  11
HETATM   11  C   UNL     1     -11.353  11.760  69.960  1.00  0.00    -0.045 A  
HETATM   12  C   UNL     1     -13.556  14.278  71.527  1.00  0.00    -0.431 A  
HETATM   13  C   UNL     1     -11.834  10.608  70.658  1.00  0.00    -0.463 A  
HETATM   14  C   UNL     1     -11.334   9.296  70.466  1.00  0.00    -0.306 A  
HETATM   15  C   UNL     1     -11.986  13.020  70.177  1.00  0.00    -0.374 A  
HETATM   16  C   UNL     1     -11.857   8.205  71.161  1.00  0.00    -0.303 A  
HETATM   17  C   UNL     1     -12.983  13.062  71.177  1.00  0.00    -0.181 A  
HETATM   18  C   UNL     1     -11.682  14.237  69.512  1.00  0.00    -0.366 A  
HETATM   19  C   UNL     1     -12.886   8.403  72.069  1.00  0.00    -0.389 A  
HETATM   20  C   UNL     1     -12.309  15.441  69.843  1.00  0.00    -0.324 A  
HETATM   21  C   UNL     1     -13.227  15.467  70.879  1.00  0.00    -0.512 A  
HETATM   22  C   UNL     1     -13.381   9.692  72.272  1.00  0.00    -0.498 A  
HETATM   23  C   UNL     1     -12.875  10.789  71.585  1.00  0.00    -0.457 A  
HETATM   24  N   UNL     1     -13.408  11.987  71.850  1.00  0.00    -0.408 NA 
ENDBRANCH   9  11
ENDBRANCH   4   9
BRANCH   6  25
HETATM   25  N   UNL     1      -8.686   7.922  65.198  1.00  0.00    -0.376 N  
HETATM   26  H   UNL     1      -8.394   8.147  64.247  1.00  0.00     0.000 HD 
BRANCH  25  27
HETATM   27  S   UNL     1      -8.782   6.321  65.735  1.00  0.00    -0.105 S  
HETATM   28  C   UNL     1      -7.192   6.126  66.527  1.00  0.00    -0.073 C  
HETATM   29  O   UNL     1      -8.778   5.512  64.537  1.00  0.00    -0.101 OA 
HETATM   30  O   UNL     1      -9.821   6.183  66.730  1.00  0.00    -0.150 OA 
ENDBRANCH  25  27
ENDBRANCH   6  25
ENDBRANCH   2   3
TORSDOF 5
ENDMDL
MODEL       83
REMARK 921   NORMALIZED FREE ENERGY PREDICTED BY IDOCK:   -5.90 KCAL/MOL
REMARK 922        TOTAL FREE ENERGY PREDICTED BY IDOCK:   -8.15 KCAL/MOL
REMARK 923 INTER-LIGAND FREE ENERGY PREDICTED BY IDOCK:   -6.99 KCAL/MOL
REMARK 924 INTRA-LIGAND FREE ENERGY PREDICTED BY IDOCK:   -1.16 KCAL/MOL
REMARK 927      BINDING AFFINITY PREDICTED BY RF-SCORE:    0.00 PKD
ROOT
HETATM    1  C   UNL     1      -6.040   9.991  68.555  1.00  0.00    -0.045 C  
HETATM    2  O   UNL     1      -7.240  10.343  69.252  1.00  0.00    -0.077 OA 
ENDROOT
BRANCH   2   3
HETATM    3  C   UNL     1      -8.295  10.668  68.426  1.00  0.00    -0.127 A  
HETATM    4  C   UNL     1      -9.602  10.533  68.952  1.00  0.00    -0.193 A  
HETATM    5  C   UNL     1     -10.684  10.952  68.168  1.00  0.00    -0.256 A  
HETATM    6  C   UNL     1      -9.196  11.445  66.324  1.00  0.00    -0.208 A  
HETATM    7  C   UNL     1     -10.483  11.410  66.859  1.00  0.00    -0.278 A  
HETATM    8  C   UNL     1      -8.104  11.076  67.103  1.00  0.00    -0.134 A  
BRANCH   4   9
HETATM    9  N   UNL     1      -9.789   9.952  70.223  1.00  0.00    -0.365 NA 
HETATM   10  H   UNL     1      -9.431  10.536  70.979  1.00  0.00     0.000 HD 
BRANCH   9  11
HETATM   11  C   UNL     1     -10.363   8.733  70.696  1.00  0.00    -0.209 A  
HETATM   12  C   UNL     1     -10.058   5.054  70.536  1.00  0.00    -0.323 A  
HETATM   13  C   UNL     1     -11.706   8.802  71.184  1.00  0.00    -0.344 A  
HETATM   14  C   UNL     1     -12.395  10.013  71.444  1.00  0.00    -0.512 A  
HETATM   15  C   UNL     1      -9.744   7.457  70.545  1.00  0.00    -0.175 A  
HETATM   16  C   UNL     1     -13.698  10.021  71.941  1.00  0.00    -0.245 A  
HETATM   17  C   UNL     1     -10.559   6.327  70.780  1.00  0.00    -0.243 A  
HETATM   18  C   UNL     1      -8.401   7.217  70.147  1.00  0.00    -0.137 A  
HETATM   19  C   UNL     1     -14.345   8.818  72.182  1.00  0.00    -0.481 A  
HETATM   20  C   UNL     1      -7.902   5.927  69.958  1.00  0.00    -0.100 A  
HETATM   21  C   UNL     1      -8.745   4.841  70.122  1.00  0.00    -0.121 A  
HETATM   22  C   UNL     1     -13.679   7.620  71.922  1.00  0.00    -0.337 A  
HETATM   23  C   UNL     1     -12.380   7.594  71.432  1.00  0.00    -0.333 A  
HETATM   24  N   UNL     1     -11.824   6.398  71.207  1.00  0.00    -0.316 NA 
ENDBRANCH   9  11
ENDBRANCH   4   9
BRANCH   6  25
HETATM   25  N   UNL     1      -8.959  11.795  64.961  1.00  0.00    -0.376 N  
HETATM   26  H   UNL     1      -8.484  12.661  64.708  1.00  0.00     0.000 HD 
BRANCH  25  27
HETATM   27  S   UNL     1      -9.501  10.710  63.782  1.00  0.00    -0.315 S  
HETATM   28  C   UNL     1      -8.450  11.145  62.404  1.00  0.00    -0.216 C  
HETATM   29  O   UNL     1     -10.845  11.132  63.458  1.00  0.00    -0.352 OA 
HETATM   30  O   UNL     1      -9.216   9.350  64.177  1.00  0.00    -0.176 OA 
ENDBRANCH  25  27
ENDBRANCH   6  25
ENDBRANCH   2   3
TORSDOF 5
ENDMDL
MODEL       84
REMARK 921   NORMALIZED FREE ENERGY PREDICTED BY IDOCK:   -5.88 KCAL/MOL
REMARK 922        TOTAL FREE ENERGY PREDICTED BY IDOCK:   -8.14 KCAL/MOL
REMARK 923 INTER-LIGAND FREE ENERGY PREDICTED BY IDOCK:   -7.97 KCAL/MOL
REMARK 924 INTRA-LIGAND FREE ENERGY PREDICTED BY IDOCK:   -0.16 KCAL/MOL
REMARK 927      BINDING AFFINITY PREDICTED BY RF-SCORE:    0.00 PKD
ROOT
HETATM    1  C   UNL     1      -6.100  16.612  70.062  1.00  0.00    -0.148 C  
HETATM    2  O   UNL     1      -6.714  16.121  68.865  1.00  0.00    -0.130 OA 
ENDROOT
BRANCH   2   3
HETATM    3  C   UNL     1      -7.671  16.963  68.338  1.00  0.00    -0.219 A  
HETATM    4  C   UNL     1      -9.017  16.734  68.711  1.00  0.00    -0.254 A  
HETATM    5  C   UNL     1      -9.993  17.636  68.269  1.00  0.00    -0.339 A  
HETATM    6  C   UNL     1      -8.341  18.838  66.973  1.00  0.00    -0.272 A  
HETATM    7  C   UNL     1      -9.657  18.687  67.405  1.00  0.00    -0.317 A  
HETATM    8  C   UNL     1      -7.348  17.981  67.436  1.00  0.00    -0.215 A  
BRANCH   4   9
HETATM    9  N   UNL     1      -9.349  15.598  69.476  1.00  0.00    -0.274 NA 
HETATM   10  H   UNL     1      -8.567  15.260  70.038  1.00  0.00     0.000 HD 
BRANCH   9  11
HETATM   11  C   UNL     1     -10.528  14.812  69.647  1.00  0.00    -0.111 A  
HETATM   12  C   UNL     1     -13.286  14.076  71.993  1.00  0.00    -0.514 A  
HETATM   13  C   UNL     1     -10.652  13.651  68.821  1.00  0.00    -0.247 A  
HETATM   14  C   UNL     1      -9.817  13.374  67.709  1.00  0.00    -0.234 A  
HETATM   15  C   UNL     1     -11.476  15.025  70.693  1.00  0.00    -0.338 A  
HETATM   16  C   UNL     1      -9.998  12.235  66.924  1.00  0.00    -0.223 A  
HETATM   17  C   UNL     1     -12.413  13.992  70.916  1.00  0.00    -0.369 A  
HETATM   18  C   UNL     1     -11.540  16.156  71.549  1.00  0.00    -0.502 A  
HETATM   19  C   UNL     1     -11.012  11.343  67.238  1.00  0.00    -0.336 A  
HETATM   20  C   UNL     1     -12.461  16.244  72.594  1.00  0.00    -0.447 A  
HETATM   21  C   UNL     1     -13.318  15.184  72.838  1.00  0.00    -0.603 A  
HETATM   22  C   UNL     1     -11.834  11.600  68.335  1.00  0.00    -0.346 A  
HETATM   23  C   UNL     1     -11.672  12.732  69.124  1.00  0.00    -0.322 A  
HETATM   24  N   UNL     1     -12.504  12.893  70.159  1.00  0.00    -0.143 NA 
ENDBRANCH   9  11
ENDBRANCH   4   9
BRANCH   6  25
HETATM   25  N   UNL     1      -7.977  19.823  66.005  1.00  0.00    -0.343 N  
HETATM   26  H   UNL     1      -8.641  20.529  65.689  1.00  0.00     0.000 HD 
BRANCH  25  27
HETATM   27  S   UNL     1      -6.397  19.768  65.407  1.00  0.00    -0.268 S  
HETATM   28  C   UNL     1      -6.579  20.656  63.867  1.00  0.00    -0.045 C  
HETATM   29  O   UNL     1      -6.153  18.379  65.087  1.00  0.00    -0.243 OA 
HETATM   30  O   UNL     1      -5.503  20.506  66.271  1.00  0.00    -0.170 OA 
ENDBRANCH  25  27
ENDBRANCH   6  25
ENDBRANCH   2   3
TORSDOF 5
ENDMDL
MODEL       85
REMARK 921   NORMALIZED FREE ENERGY PREDICTED BY IDOCK:   -5.88 KCAL/MOL
REMARK 922        TOTAL FREE ENERGY PREDICTED BY IDOCK:   -8.13 KCAL/MOL
REMARK 923 INTER-LIGAND FREE ENERGY PREDICTED BY IDOCK:   -7.33 KCAL/MOL
REMARK 924 INTRA-LIGAND FREE ENERGY PREDICTED BY IDOCK:   -0.80 KCAL/MOL
REMARK 927      BINDING AFFINITY PREDICTED BY RF-SCORE:    0.00 PKD
ROOT
HETATM    1  C   UNL     1      -8.039   9.726  70.180  1.00  0.00    -0.182 C  
HETATM    2  O   UNL     1      -9.177   9.433  70.997  1.00  0.00    -0.229 OA 
ENDROOT
BRANCH   2   3
HETATM    3  C   UNL     1      -9.718   8.184  70.779  1.00  0.00    -0.170 A  
HETATM    4  C   UNL     1     -11.061   8.123  70.338  1.00  0.00    -0.239 A  
HETATM    5  C   UNL     1     -11.601   6.872  70.014  1.00  0.00    -0.299 A  
HETATM    6  C   UNL     1      -9.569   5.774  70.734  1.00  0.00    -0.171 A  
HETATM    7  C   UNL     1     -10.857   5.701  70.207  1.00  0.00    -0.336 A  
HETATM    8  C   UNL     1      -8.998   7.010  71.020  1.00  0.00    -0.151 A  
BRANCH   4   9
HETATM    9  N   UNL     1     -11.831   9.302  70.271  1.00  0.00    -0.469 NA 
HETATM   10  H   UNL     1     -12.622   9.293  70.915  1.00  0.00     0.000 HD 
BRANCH   9  11
HETATM   11  C   UNL     1     -11.758  10.507  69.508  1.00  0.00    -0.241 A  
HETATM   12  C   UNL     1     -10.155  12.058  66.563  1.00  0.00    -0.224 A  
HETATM   13  C   UNL     1     -12.187  11.707  70.159  1.00  0.00    -0.367 A  
HETATM   14  C   UNL     1     -12.883  11.736  71.393  1.00  0.00    -0.440 A  
HETATM   15  C   UNL     1     -11.133  10.596  68.229  1.00  0.00    -0.334 A  
HETATM   16  C   UNL     1     -13.297  12.936  71.971  1.00  0.00    -0.579 A  
HETATM   17  C   UNL     1     -10.869  11.896  67.743  1.00  0.00    -0.211 A  
HETATM   18  C   UNL     1     -10.719   9.504  67.420  1.00  0.00    -0.297 A  
HETATM   19  C   UNL     1     -13.015  14.135  71.333  1.00  0.00    -0.422 A  
HETATM   20  C   UNL     1     -10.049   9.690  66.209  1.00  0.00    -0.322 A  
HETATM   21  C   UNL     1      -9.736  10.974  65.794  1.00  0.00    -0.268 A  
HETATM   22  C   UNL     1     -12.322  14.119  70.123  1.00  0.00    -0.413 A  
HETATM   23  C   UNL     1     -11.908  12.933  69.530  1.00  0.00    -0.320 A  
HETATM   24  N   UNL     1     -11.245  13.016  68.372  1.00  0.00    -0.251 NA 
ENDBRANCH   9  11
ENDBRANCH   4   9
BRANCH   6  25
HETATM   25  N   UNL     1      -8.821   4.601  71.054  1.00  0.00    -0.114 N  
HETATM   26  H   UNL     1      -8.765   4.249  72.010  1.00  0.00     0.000 HD 
BRANCH  25  27
HETATM   27  S   UNL     1      -8.032   3.819  69.779  1.00  0.00    -0.050 S  
HETATM   28  C   UNL     1      -9.146   2.456  69.468  1.00  0.00    -0.117 C  
HETATM   29  O   UNL     1      -6.822   3.273  70.351  1.00  0.00    -0.033 OA 
HETATM   30  O   UNL     1      -7.993   4.668  68.611  1.00  0.00    -0.079 OA 
ENDBRANCH  25  27
ENDBRANCH   6  25
ENDBRANCH   2   3
TORSDOF 5
ENDMDL
MODEL       86
REMARK 921   NORMALIZED FREE ENERGY PREDICTED BY IDOCK:   -5.86 KCAL/MOL
REMARK 922        TOTAL FREE ENERGY PREDICTED BY IDOCK:   -8.10 KCAL/MOL
REMARK 923 INTER-LIGAND FREE ENERGY PREDICTED BY IDOCK:   -7.69 KCAL/MOL
REMARK 924 INTRA-LIGAND FREE ENERGY PREDICTED BY IDOCK:   -0.41 KCAL/MOL
REMARK 927      BINDING AFFINITY PREDICTED BY RF-SCORE:    0.00 PKD
ROOT
HETATM    1  C   UNL     1     -12.585  13.880  71.240  1.00  0.00    -0.371 C  
HETATM    2  O   UNL     1     -11.967  14.438  70.076  1.00  0.00    -0.293 OA 
ENDROOT
BRANCH   2   3
HETATM    3  C   UNL     1     -11.440  13.498  69.215  1.00  0.00    -0.291 A  
HETATM    4  C   UNL     1     -10.570  13.961  68.199  1.00  0.00    -0.252 A  
HETATM    5  C   UNL     1      -9.944  13.016  67.376  1.00  0.00    -0.228 A  
HETATM    6  C   UNL     1     -11.175  11.226  68.442  1.00  0.00    -0.262 A  
HETATM    7  C   UNL     1     -10.242  11.652  67.498  1.00  0.00    -0.216 A  
HETATM    8  C   UNL     1     -11.774  12.143  69.299  1.00  0.00    -0.386 A  
BRANCH   4   9
HETATM    9  N   UNL     1     -10.383  15.346  68.013  1.00  0.00    -0.245 NA 
HETATM   10  H   UNL     1     -11.228  15.816  67.689  1.00  0.00     0.000 HD 
BRANCH   9  11
HETATM   11  C   UNL     1      -9.282  16.241  68.175  1.00  0.00    -0.199 A  
HETATM   12  C   UNL     1      -5.974  16.612  69.778  1.00  0.00    -0.222 A  
HETATM   13  C   UNL     1      -9.535  17.624  67.912  1.00  0.00    -0.276 A  
HETATM   14  C   UNL     1     -10.710  18.112  67.288  1.00  0.00    -0.336 A  
HETATM   15  C   UNL     1      -8.028  15.858  68.738  1.00  0.00    -0.188 A  
HETATM   16  C   UNL     1     -10.893  19.472  67.036  1.00  0.00    -0.542 A  
HETATM   17  C   UNL     1      -7.159  16.906  69.114  1.00  0.00    -0.224 A  
HETATM   18  C   UNL     1      -7.592  14.530  68.989  1.00  0.00    -0.124 A  
HETATM   19  C   UNL     1      -9.910  20.375  67.411  1.00  0.00    -0.587 A  
HETATM   20  C   UNL     1      -6.372  14.255  69.612  1.00  0.00    -0.136 A  
HETATM   21  C   UNL     1      -5.574  15.303  70.038  1.00  0.00    -0.126 A  
HETATM   22  C   UNL     1      -8.753  19.907  68.033  1.00  0.00    -0.322 A  
HETATM   23  C   UNL     1      -8.551  18.556  68.287  1.00  0.00    -0.318 A  
HETATM   24  N   UNL     1      -7.414  18.200  68.894  1.00  0.00    -0.267 NA 
ENDBRANCH   9  11
ENDBRANCH   4   9
BRANCH   6  25
HETATM   25  N   UNL     1     -11.593   9.863  68.522  1.00  0.00    -0.462 N  
HETATM   26  H   UNL     1     -12.354   9.505  67.947  1.00  0.00     0.000 HD 
BRANCH  25  27
HETATM   27  S   UNL     1     -10.768   8.869  69.613  1.00  0.00    -0.182 S  
HETATM   28  C   UNL     1     -10.431   7.442  68.592  1.00  0.00    -0.189 C  
HETATM   29  O   UNL     1     -11.752   8.479  70.599  1.00  0.00    -0.249 OA 
HETATM   30  O   UNL     1      -9.515   9.474  70.002  1.00  0.00    -0.200 OA 
ENDBRANCH  25  27
ENDBRANCH   6  25
ENDBRANCH   2   3
TORSDOF 5
ENDMDL
MODEL       87
REMARK 921   NORMALIZED FREE ENERGY PREDICTED BY IDOCK:   -5.85 KCAL/MOL
REMARK 922        TOTAL FREE ENERGY PREDICTED BY IDOCK:   -8.09 KCAL/MOL
REMARK 923 INTER-LIGAND FREE ENERGY PREDICTED BY IDOCK:   -7.85 KCAL/MOL
REMARK 924 INTRA-LIGAND FREE ENERGY PREDICTED BY IDOCK:   -0.24 KCAL/MOL
REMARK 927      BINDING AFFINITY PREDICTED BY RF-SCORE:    0.00 PKD
ROOT
HETATM    1  C   UNL     1      -8.403   9.669  66.288  1.00  0.00    -0.116 C  
HETATM    2  O   UNL     1      -8.191  10.477  67.450  1.00  0.00    -0.117 OA 
ENDROOT
BRANCH   2   3
HETATM    3  C   UNL     1      -9.276  10.538  68.298  1.00  0.00    -0.152 A  
HETATM    4  C   UNL     1      -9.897  11.798  68.474  1.00  0.00    -0.189 A  
HETATM    5  C   UNL     1     -11.060  11.866  69.250  1.00  0.00    -0.264 A  
HETATM    6  C   UNL     1     -10.865   9.518  69.803  1.00  0.00    -0.243 A  
HETATM    7  C   UNL     1     -11.546  10.730  69.911  1.00  0.00    -0.410 A  
HETATM    8  C   UNL     1      -9.734   9.419  69.000  1.00  0.00    -0.166 A  
BRANCH   4   9
HETATM    9  N   UNL     1      -9.319  12.950  67.902  1.00  0.00    -0.201 NA 
HETATM   10  H   UNL     1      -8.400  13.163  68.292  1.00  0.00     0.000 HD 
BRANCH   9  11
HETATM   11  C   UNL     1      -9.723  13.887  66.904  1.00  0.00    -0.268 A  
HETATM   12  C   UNL     1     -10.245  17.486  66.255  1.00  0.00    -0.356 A  
HETATM   13  C   UNL     1     -10.492  13.372  65.813  1.00  0.00    -0.291 A  
HETATM   14  C   UNL     1     -10.667  11.991  65.546  1.00  0.00    -0.318 A  
HETATM   15  C   UNL     1      -9.551  15.298  67.028  1.00  0.00    -0.233 A  
HETATM   16  C   UNL     1     -11.411  11.545  64.454  1.00  0.00    -0.283 A  
HETATM   17  C   UNL     1     -10.269  16.104  66.117  1.00  0.00    -0.336 A  
HETATM   18  C   UNL     1      -8.761  15.964  68.002  1.00  0.00    -0.169 A  
HETATM   19  C   UNL     1     -12.004  12.471  63.608  1.00  0.00    -0.621 A  
HETATM   20  C   UNL     1      -8.711  17.357  68.091  1.00  0.00    -0.256 A  
HETATM   21  C   UNL     1      -9.483  18.121  67.233  1.00  0.00    -0.260 A  
HETATM   22  C   UNL     1     -11.845  13.832  63.865  1.00  0.00    -0.368 A  
HETATM   23  C   UNL     1     -11.104  14.293  64.946  1.00  0.00    -0.390 A  
HETATM   24  N   UNL     1     -11.012  15.617  65.117  1.00  0.00    -0.400 NA 
ENDBRANCH   9  11
ENDBRANCH   4   9
BRANCH   6  25
HETATM   25  N   UNL     1     -11.259   8.367  70.549  1.00  0.00    -0.275 N  
HETATM   26  H   UNL     1     -12.032   7.774  70.246  1.00  0.00     0.000 HD 
BRANCH  25  27
HETATM   27  S   UNL     1     -10.389   8.028  71.959  1.00  0.00    -0.258 S  
HETATM   28  C   UNL     1      -9.602   6.486  71.517  1.00  0.00    -0.161 C  
HETATM   29  O   UNL     1     -11.385   7.739  72.967  1.00  0.00    -0.399 OA 
HETATM   30  O   UNL     1      -9.370   9.028  72.178  1.00  0.00    -0.356 OA 
ENDBRANCH  25  27
ENDBRANCH   6  25
ENDBRANCH   2   3
TORSDOF 5
ENDMDL
MODEL       88
REMARK 921   NORMALIZED FREE ENERGY PREDICTED BY IDOCK:   -5.81 KCAL/MOL
REMARK 922        TOTAL FREE ENERGY PREDICTED BY IDOCK:   -8.04 KCAL/MOL
REMARK 923 INTER-LIGAND FREE ENERGY PREDICTED BY IDOCK:   -7.34 KCAL/MOL
REMARK 924 INTRA-LIGAND FREE ENERGY PREDICTED BY IDOCK:   -0.70 KCAL/MOL
REMARK 927      BINDING AFFINITY PREDICTED BY RF-SCORE:    0.00 PKD
ROOT
HETATM    1  C   UNL     1      -7.748  11.610  67.545  1.00  0.00    -0.136 C  
HETATM    2  O   UNL     1      -8.616  10.830  68.373  1.00  0.00    -0.128 OA 
ENDROOT
BRANCH   2   3
HETATM    3  C   UNL     1      -8.969   9.613  67.829  1.00  0.00    -0.118 A  
HETATM    4  C   UNL     1     -10.350   9.319  67.728  1.00  0.00    -0.237 A  
HETATM    5  C   UNL     1     -10.735   8.135  67.088  1.00  0.00    -0.264 A  
HETATM    6  C   UNL     1      -8.418   7.484  66.832  1.00  0.00    -0.122 A  
HETATM    7  C   UNL     1      -9.773   7.221  66.638  1.00  0.00    -0.249 A  
HETATM    8  C   UNL     1      -8.014   8.676  67.425  1.00  0.00    -0.102 A  
BRANCH   4   9
HETATM    9  N   UNL     1     -11.296  10.194  68.301  1.00  0.00    -0.522 NA 
HETATM   10  H   UNL     1     -11.892   9.732  68.988  1.00  0.00     0.000 HD 
BRANCH   9  11
HETATM   11  C   UNL     1     -11.611  11.577  68.141  1.00  0.00    -0.308 A  
HETATM   12  C   UNL     1     -11.098  14.497  65.937  1.00  0.00    -0.327 A  
HETATM   13  C   UNL     1     -12.030  12.281  69.313  1.00  0.00    -0.308 A  
HETATM   14  C   UNL     1     -12.372  11.653  70.537  1.00  0.00    -0.410 A  
HETATM   15  C   UNL     1     -11.367  12.309  66.941  1.00  0.00    -0.392 A  
HETATM   16  C   UNL     1     -12.795  12.389  71.644  1.00  0.00    -0.375 A  
HETATM   17  C   UNL     1     -11.441  13.717  67.033  1.00  0.00    -0.343 A  
HETATM   18  C   UNL     1     -11.021  11.759  65.678  1.00  0.00    -0.348 A  
HETATM   19  C   UNL     1     -12.878  13.771  71.554  1.00  0.00    -0.445 A  
HETATM   20  C   UNL     1     -10.730  12.562  64.573  1.00  0.00    -0.360 A  
HETATM   21  C   UNL     1     -10.737  13.939  64.712  1.00  0.00    -0.437 A  
HETATM   22  C   UNL     1     -12.535  14.400  70.358  1.00  0.00    -0.420 A  
HETATM   23  C   UNL     1     -12.117  13.682  69.244  1.00  0.00    -0.314 A  
HETATM   24  N   UNL     1     -11.804  14.372  68.142  1.00  0.00    -0.336 NA 
ENDBRANCH   9  11
ENDBRANCH   4   9
BRANCH   6  25
HETATM   25  N   UNL     1      -7.412   6.530  66.493  1.00  0.00    -0.084 N  
HETATM   26  H   UNL     1      -6.851   6.069  67.210  1.00  0.00     0.000 HD 
BRANCH  25  27
HETATM   27  S   UNL     1      -7.190   6.195  64.850  1.00  0.00    -0.066 S  
HETATM   28  C   UNL     1      -5.441   5.833  64.805  1.00  0.00    -0.016 C  
HETATM   29  O   UNL     1      -7.395   7.454  64.169  1.00  0.00    -0.077 OA 
HETATM   30  O   UNL     1      -7.924   5.010  64.472  1.00  0.00    -0.095 OA 
ENDBRANCH  25  27
ENDBRANCH   6  25
ENDBRANCH   2   3
TORSDOF 5
ENDMDL
MODEL       89
REMARK 921   NORMALIZED FREE ENERGY PREDICTED BY IDOCK:   -5.81 KCAL/MOL
REMARK 922        TOTAL FREE ENERGY PREDICTED BY IDOCK:   -8.04 KCAL/MOL
REMARK 923 INTER-LIGAND FREE ENERGY PREDICTED BY IDOCK:   -7.12 KCAL/MOL
REMARK 924 INTRA-LIGAND FREE ENERGY PREDICTED BY IDOCK:   -0.93 KCAL/MOL
REMARK 927      BINDING AFFINITY PREDICTED BY RF-SCORE:    0.00 PKD
ROOT
HETATM    1  C   UNL     1      -6.463   8.649  66.635  1.00  0.00    -0.060 C  
HETATM    2  O   UNL     1      -6.940   9.842  67.267  1.00  0.00    -0.082 OA 
ENDROOT
BRANCH   2   3
HETATM    3  C   UNL     1      -8.097   9.668  67.996  1.00  0.00    -0.105 A  
HETATM    4  C   UNL     1      -9.107  10.650  67.859  1.00  0.00    -0.145 A  
HETATM    5  C   UNL     1     -10.330  10.444  68.511  1.00  0.00    -0.197 A  
HETATM    6  C   UNL     1      -9.474   8.432  69.547  1.00  0.00    -0.166 A  
HETATM    7  C   UNL     1     -10.515   9.337  69.350  1.00  0.00    -0.229 A  
HETATM    8  C   UNL     1      -8.268   8.594  68.874  1.00  0.00    -0.123 A  
BRANCH   4   9
HETATM    9  N   UNL     1      -8.853  11.818  67.112  1.00  0.00    -0.167 NA 
HETATM   10  H   UNL     1      -7.899  11.854  66.752  1.00  0.00     0.000 HD 
BRANCH   9  11
HETATM   11  C   UNL     1      -9.624  12.961  66.742  1.00  0.00    -0.246 A  
HETATM   12  C   UNL     1     -10.969  16.163  68.002  1.00  0.00    -0.338 A  
HETATM   13  C   UNL     1     -10.475  12.821  65.600  1.00  0.00    -0.297 A  
HETATM   14  C   UNL     1     -10.421  11.729  64.699  1.00  0.00    -0.347 A  
HETATM   15  C   UNL     1      -9.716  14.143  67.535  1.00  0.00    -0.234 A  
HETATM   16  C   UNL     1     -11.262  11.654  63.588  1.00  0.00    -0.497 A  
HETATM   17  C   UNL     1     -10.744  15.052  67.200  1.00  0.00    -0.303 A  
HETATM   18  C   UNL     1      -8.898  14.471  68.649  1.00  0.00    -0.180 A  
HETATM   19  C   UNL     1     -12.182  12.667  63.359  1.00  0.00    -0.610 A  
HETATM   20  C   UNL     1      -9.109  15.622  69.412  1.00  0.00    -0.278 A  
HETATM   21  C   UNL     1     -10.171  16.455  69.106  1.00  0.00    -0.280 A  
HETATM   22  C   UNL     1     -12.250  13.742  64.244  1.00  0.00    -0.444 A  
HETATM   23  C   UNL     1     -11.416  13.835  65.352  1.00  0.00    -0.311 A  
HETATM   24  N   UNL     1     -11.558  14.900  66.149  1.00  0.00    -0.284 NA 
ENDBRANCH   9  11
ENDBRANCH   4   9
BRANCH   6  25
HETATM   25  N   UNL     1      -9.581   7.357  70.480  1.00  0.00    -0.172 N  
HETATM   26  H   UNL     1      -9.601   6.385  70.173  1.00  0.00     0.000 HD 
BRANCH  25  27
HETATM   27  S   UNL     1      -9.673   7.765  72.119  1.00  0.00    -0.200 S  
HETATM   28  C   UNL     1      -9.383   6.178  72.887  1.00  0.00    -0.143 C  
HETATM   29  O   UNL     1     -11.055   8.120  72.351  1.00  0.00    -0.315 OA 
HETATM   30  O   UNL     1      -8.598   8.662  72.478  1.00  0.00    -0.364 OA 
ENDBRANCH  25  27
ENDBRANCH   6  25
ENDBRANCH   2   3
TORSDOF 5
ENDMDL
MODEL       90
REMARK 921   NORMALIZED FREE ENERGY PREDICTED BY IDOCK:   -5.78 KCAL/MOL
REMARK 922        TOTAL FREE ENERGY PREDICTED BY IDOCK:   -8.00 KCAL/MOL
REMARK 923 INTER-LIGAND FREE ENERGY PREDICTED BY IDOCK:   -7.38 KCAL/MOL
REMARK 924 INTRA-LIGAND FREE ENERGY PREDICTED BY IDOCK:   -0.62 KCAL/MOL
REMARK 927      BINDING AFFINITY PREDICTED BY RF-SCORE:    0.00 PKD
ROOT
HETATM    1  C   UNL     1     -12.279  12.558  70.410  1.00  0.00    -0.286 C  
HETATM    2  O   UNL     1     -11.644  11.987  69.261  1.00  0.00    -0.276 OA 
ENDROOT
BRANCH   2   3
HETATM    3  C   UNL     1     -10.855  10.891  69.541  1.00  0.00    -0.238 A  
HETATM    4  C   UNL     1      -9.686  10.713  68.763  1.00  0.00    -0.189 A  
HETATM    5  C   UNL     1      -8.817   9.666  69.095  1.00  0.00    -0.157 A  
HETATM    6  C   UNL     1     -10.346   8.898  70.806  1.00  0.00    -0.226 A  
HETATM    7  C   UNL     1      -9.143   8.762  70.115  1.00  0.00    -0.176 A  
HETATM    8  C   UNL     1     -11.201   9.958  70.523  1.00  0.00    -0.399 A  
BRANCH   4   9
HETATM    9  N   UNL     1      -9.442  11.559  67.662  1.00  0.00    -0.165 NA 
HETATM   10  H   UNL     1      -8.926  12.400  67.919  1.00  0.00     0.000 HD 
BRANCH   9  11
HETATM   11  C   UNL     1      -9.751  11.507  66.269  1.00  0.00    -0.215 A  
HETATM   12  C   UNL     1      -8.590  10.181  63.022  1.00  0.00    -0.192 A  
HETATM   13  C   UNL     1     -10.639  12.512  65.770  1.00  0.00    -0.299 A  
HETATM   14  C   UNL     1     -11.396  13.383  66.593  1.00  0.00    -0.350 A  
HETATM   15  C   UNL     1      -9.100  10.635  65.346  1.00  0.00    -0.214 A  
HETATM   16  C   UNL     1     -12.263  14.332  66.051  1.00  0.00    -0.422 A  
HETATM   17  C   UNL     1      -9.289  10.912  63.974  1.00  0.00    -0.237 A  
HETATM   18  C   UNL     1      -8.253   9.544  65.678  1.00  0.00    -0.120 A  
HETATM   19  C   UNL     1     -12.387  14.437  64.674  1.00  0.00    -0.435 A  
HETATM   20  C   UNL     1      -7.600   8.788  64.702  1.00  0.00    -0.109 A  
HETATM   21  C   UNL     1      -7.744   9.129  63.368  1.00  0.00    -0.120 A  
HETATM   22  C   UNL     1     -11.640  13.591  63.854  1.00  0.00    -0.350 A  
HETATM   23  C   UNL     1     -10.775  12.637  64.376  1.00  0.00    -0.359 A  
HETATM   24  N   UNL     1     -10.096  11.874  63.513  1.00  0.00    -0.421 NA 
ENDBRANCH   9  11
ENDBRANCH   4   9
BRANCH   6  25
HETATM   25  N   UNL     1     -10.769   7.936  71.771  1.00  0.00    -0.225 N  
HETATM   26  H   UNL     1     -10.388   7.927  72.717  1.00  0.00     0.000 HD 
BRANCH  25  27
HETATM   27  S   UNL     1     -11.931   6.810  71.279  1.00  0.00    -0.368 S  
HETATM   28  C   UNL     1     -13.438   7.624  71.790  1.00  0.00    -0.321 C  
HETATM   29  O   UNL     1     -11.742   5.660  72.135  1.00  0.00    -0.215 OA 
HETATM   30  O   UNL     1     -11.933   6.682  69.840  1.00  0.00    -0.301 OA 
ENDBRANCH  25  27
ENDBRANCH   6  25
ENDBRANCH   2   3
TORSDOF 5
ENDMDL
MODEL       91
REMARK 921   NORMALIZED FREE ENERGY PREDICTED BY IDOCK:   -5.77 KCAL/MOL
REMARK 922        TOTAL FREE ENERGY PREDICTED BY IDOCK:   -8.00 KCAL/MOL
REMARK 923 INTER-LIGAND FREE ENERGY PREDICTED BY IDOCK:   -7.39 KCAL/MOL
REMARK 924 INTRA-LIGAND FREE ENERGY PREDICTED BY IDOCK:   -0.60 KCAL/MOL
REMARK 927      BINDING AFFINITY PREDICTED BY RF-SCORE:    0.00 PKD
ROOT
HETATM    1  C   UNL     1     -11.115   6.930  66.945  1.00  0.00    -0.149 C  
HETATM    2  O   UNL     1      -9.756   7.327  66.730  1.00  0.00    -0.180 OA 
ENDROOT
BRANCH   2   3
HETATM    3  C   UNL     1      -9.537   8.680  66.873  1.00  0.00    -0.194 A  
HETATM    4  C   UNL     1      -9.099   9.141  68.137  1.00  0.00    -0.132 A  
HETATM    5  C   UNL     1      -8.773  10.496  68.278  1.00  0.00    -0.135 A  
HETATM    6  C   UNL     1      -9.486  10.934  66.008  1.00  0.00    -0.203 A  
HETATM    7  C   UNL     1      -8.963  11.390  67.217  1.00  0.00    -0.159 A  
HETATM    8  C   UNL     1      -9.773   9.585  65.833  1.00  0.00    -0.352 A  
BRANCH   4   9
HETATM    9  N   UNL     1      -9.037   8.246  69.225  1.00  0.00    -0.150 NA 
HETATM   10  H   UNL     1      -8.080   7.980  69.461  1.00  0.00     0.000 HD 
BRANCH   9  11
HETATM   11  C   UNL     1     -10.004   7.627  70.073  1.00  0.00    -0.190 A  
HETATM   12  C   UNL     1     -12.678   8.329  72.524  1.00  0.00    -0.225 A  
HETATM   13  C   UNL     1      -9.784   6.253  70.403  1.00  0.00    -0.189 A  
HETATM   14  C   UNL     1      -8.825   5.427  69.766  1.00  0.00    -0.124 A  
HETATM   15  C   UNL     1     -11.052   8.340  70.729  1.00  0.00    -0.280 A  
HETATM   16  C   UNL     1      -8.669   4.085  70.114  1.00  0.00    -0.117 A  
HETATM   17  C   UNL     1     -11.730   7.657  71.763  1.00  0.00    -0.283 A  
HETATM   18  C   UNL     1     -11.449   9.678  70.465  1.00  0.00    -0.352 A  
HETATM   19  C   UNL     1      -9.462   3.541  71.113  1.00  0.00    -0.229 A  
HETATM   20  C   UNL     1     -12.442  10.318  71.210  1.00  0.00    -0.514 A  
HETATM   21  C   UNL     1     -13.037   9.650  72.266  1.00  0.00    -0.468 A  
HETATM   22  C   UNL     1     -10.403   4.347  71.753  1.00  0.00    -0.141 A  
HETATM   23  C   UNL     1     -10.576   5.684  71.416  1.00  0.00    -0.253 A  
HETATM   24  N   UNL     1     -11.499   6.380  72.088  1.00  0.00    -0.287 NA 
ENDBRANCH   9  11
ENDBRANCH   4   9
BRANCH   6  25
HETATM   25  N   UNL     1      -9.802  11.830  64.941  1.00  0.00    -0.309 N  
HETATM   26  H   UNL     1      -9.104  12.100  64.249  1.00  0.00     0.000 HD 
BRANCH  25  27
HETATM   27  S   UNL     1     -11.384  12.423  64.876  1.00  0.00    -0.327 S  
HETATM   28  C   UNL     1     -11.088  14.175  64.686  1.00  0.00    -0.371 C  
HETATM   29  O   UNL     1     -11.930  12.211  66.198  1.00  0.00    -0.593 OA 
HETATM   30  O   UNL     1     -12.060  11.931  63.698  1.00  0.00    -0.483 OA 
ENDBRANCH  25  27
ENDBRANCH   6  25
ENDBRANCH   2   3
TORSDOF 5
ENDMDL
MODEL       92
REMARK 921   NORMALIZED FREE ENERGY PREDICTED BY IDOCK:   -5.75 KCAL/MOL
REMARK 922        TOTAL FREE ENERGY PREDICTED BY IDOCK:   -7.97 KCAL/MOL
REMARK 923 INTER-LIGAND FREE ENERGY PREDICTED BY IDOCK:   -7.47 KCAL/MOL
REMARK 924 INTRA-LIGAND FREE ENERGY PREDICTED BY IDOCK:   -0.50 KCAL/MOL
REMARK 927      BINDING AFFINITY PREDICTED BY RF-SCORE:    0.00 PKD
ROOT
HETATM    1  C   UNL     1     -12.136  12.165  70.302  1.00  0.00    -0.302 C  
HETATM    2  O   UNL     1     -12.189  11.003  69.468  1.00  0.00    -0.336 OA 
ENDROOT
BRANCH   2   3
HETATM    3  C   UNL     1     -11.512  11.137  68.274  1.00  0.00    -0.303 A  
HETATM    4  C   UNL     1     -10.687  10.061  67.867  1.00  0.00    -0.272 A  
HETATM    5  C   UNL     1     -10.070  10.131  66.612  1.00  0.00    -0.283 A  
HETATM    6  C   UNL     1     -10.934  12.367  66.278  1.00  0.00    -0.286 A  
HETATM    7  C   UNL     1     -10.194  11.278  65.817  1.00  0.00    -0.301 A  
HETATM    8  C   UNL     1     -11.592  12.299  67.501  1.00  0.00    -0.422 A  
BRANCH   4   9
HETATM    9  N   UNL     1     -10.476   8.973  68.738  1.00  0.00    -0.241 NA 
HETATM   10  H   UNL     1     -10.940   8.121  68.422  1.00  0.00     0.000 HD 
BRANCH   9  11
HETATM   11  C   UNL     1      -9.760   8.788  69.960  1.00  0.00    -0.173 A  
HETATM   12  C   UNL     1      -6.465   9.257  71.565  1.00  0.00    -0.007 A  
HETATM   13  C   UNL     1     -10.303   7.843  70.886  1.00  0.00    -0.215 A  
HETATM   14  C   UNL     1     -11.595   7.273  70.774  1.00  0.00    -0.334 A  
HETATM   15  C   UNL     1      -8.476   9.355  70.217  1.00  0.00    -0.237 A  
HETATM   16  C   UNL     1     -12.082   6.371  71.720  1.00  0.00    -0.351 A  
HETATM   17  C   UNL     1      -7.769   8.839  71.326  1.00  0.00    -0.120 A  
HETATM   18  C   UNL     1      -7.831  10.356  69.443  1.00  0.00    -0.163 A  
HETATM   19  C   UNL     1     -11.283   6.012  72.795  1.00  0.00    -0.299 A  
HETATM   20  C   UNL     1      -6.538  10.799  69.733  1.00  0.00    -0.128 A  
HETATM   21  C   UNL     1      -5.840  10.223  70.780  1.00  0.00    -0.094 A  
HETATM   22  C   UNL     1     -10.006   6.559  72.911  1.00  0.00    -0.188 A  
HETATM   23  C   UNL     1      -9.507   7.463  71.981  1.00  0.00    -0.136 A  
HETATM   24  N   UNL     1      -8.269   7.932  72.171  1.00  0.00    -0.115 NA 
ENDBRANCH   9  11
ENDBRANCH   4   9
BRANCH   6  25
HETATM   25  N   UNL     1     -10.992  13.595  65.553  1.00  0.00    -0.289 N  
HETATM   26  H   UNL     1     -10.220  14.262  65.572  1.00  0.00     0.000 HD 
BRANCH  25  27
HETATM   27  S   UNL     1     -12.395  13.896  64.659  1.00  0.00    -0.358 S  
HETATM   28  C   UNL     1     -12.533  12.387  63.712  1.00  0.00    -0.492 C  
HETATM   29  O   UNL     1     -12.048  14.960  63.742  1.00  0.00    -0.427 OA 
HETATM   30  O   UNL     1     -13.539  14.005  65.535  1.00  0.00    -0.596 OA 
ENDBRANCH  25  27
ENDBRANCH   6  25
ENDBRANCH   2   3
TORSDOF 5
ENDMDL
MODEL       93
REMARK 921   NORMALIZED FREE ENERGY PREDICTED BY IDOCK:   -5.74 KCAL/MOL
REMARK 922        TOTAL FREE ENERGY PREDICTED BY IDOCK:   -7.95 KCAL/MOL
REMARK 923 INTER-LIGAND FREE ENERGY PREDICTED BY IDOCK:   -7.02 KCAL/MOL
REMARK 924 INTRA-LIGAND FREE ENERGY PREDICTED BY IDOCK:   -0.93 KCAL/MOL
REMARK 927      BINDING AFFINITY PREDICTED BY RF-SCORE:    0.00 PKD
ROOT
HETATM    1  C   UNL     1     -12.529  12.310  70.924  1.00  0.00    -0.276 C  
HETATM    2  O   UNL     1     -11.912  11.090  70.497  1.00  0.00    -0.326 OA 
ENDROOT
BRANCH   2   3
HETATM    3  C   UNL     1     -11.232  11.192  69.302  1.00  0.00    -0.267 A  
HETATM    4  C   UNL     1     -10.963   9.993  68.600  1.00  0.00    -0.204 A  
HETATM    5  C   UNL     1     -10.363  10.079  67.338  1.00  0.00    -0.292 A  
HETATM    6  C   UNL     1     -10.145  12.478  67.571  1.00  0.00    -0.207 A  
HETATM    7  C   UNL     1      -9.958  11.317  66.822  1.00  0.00    -0.238 A  
HETATM    8  C   UNL     1     -10.780  12.419  68.807  1.00  0.00    -0.242 A  
BRANCH   4   9
HETATM    9  N   UNL     1     -11.265   8.751  69.195  1.00  0.00    -0.413 NA 
HETATM   10  H   UNL     1     -12.265   8.621  69.348  1.00  0.00     0.000 HD 
BRANCH   9  11
HETATM   11  C   UNL     1     -10.492   7.632  69.631  1.00  0.00    -0.235 A  
HETATM   12  C   UNL     1      -8.067   6.523  72.188  1.00  0.00    -0.106 A  
HETATM   13  C   UNL     1     -10.263   6.596  68.673  1.00  0.00    -0.184 A  
HETATM   14  C   UNL     1     -10.935   6.501  67.429  1.00  0.00    -0.458 A  
HETATM   15  C   UNL     1      -9.813   7.582  70.885  1.00  0.00    -0.177 A  
HETATM   16  C   UNL     1     -10.686   5.455  66.540  1.00  0.00    -0.309 A  
HETATM   17  C   UNL     1      -8.852   6.559  71.042  1.00  0.00    -0.139 A  
HETATM   18  C   UNL     1      -9.984   8.484  71.968  1.00  0.00    -0.383 A  
HETATM   19  C   UNL     1      -9.752   4.485  66.872  1.00  0.00    -0.226 A  
HETATM   20  C   UNL     1      -9.219   8.398  73.134  1.00  0.00    -0.222 A  
HETATM   21  C   UNL     1      -8.233   7.431  73.231  1.00  0.00    -0.146 A  
HETATM   22  C   UNL     1      -9.078   4.572  68.089  1.00  0.00    -0.155 A  
HETATM   23  C   UNL     1      -9.317   5.605  68.988  1.00  0.00    -0.124 A  
HETATM   24  N   UNL     1      -8.619   5.610  70.129  1.00  0.00    -0.125 NA 
ENDBRANCH   9  11
ENDBRANCH   4   9
BRANCH   6  25
HETATM   25  N   UNL     1      -9.646  13.742  67.134  1.00  0.00    -0.236 N  
HETATM   26  H   UNL     1      -8.668  14.001  67.262  1.00  0.00     0.000 HD 
BRANCH  25  27
HETATM   27  S   UNL     1     -10.746  14.791  66.394  1.00  0.00    -0.320 S  
HETATM   28  C   UNL     1     -11.064  15.948  67.717  1.00  0.00    -0.288 C  
HETATM   29  O   UNL     1     -11.948  14.012  66.194  1.00  0.00    -0.380 OA 
HETATM   30  O   UNL     1     -10.117  15.493  65.298  1.00  0.00    -0.348 OA 
ENDBRANCH  25  27
ENDBRANCH   6  25
ENDBRANCH   2   3
TORSDOF 5
ENDMDL
MODEL       94
REMARK 921   NORMALIZED FREE ENERGY PREDICTED BY IDOCK:   -5.74 KCAL/MOL
REMARK 922        TOTAL FREE ENERGY PREDICTED BY IDOCK:   -7.95 KCAL/MOL
REMARK 923 INTER-LIGAND FREE ENERGY PREDICTED BY IDOCK:   -7.51 KCAL/MOL
REMARK 924 INTRA-LIGAND FREE ENERGY PREDICTED BY IDOCK:   -0.44 KCAL/MOL
REMARK 927      BINDING AFFINITY PREDICTED BY RF-SCORE:    0.00 PKD
ROOT
HETATM    1  C   UNL     1     -11.926  13.898  64.348  1.00  0.00    -0.450 C  
HETATM    2  O   UNL     1     -10.548  13.657  64.650  1.00  0.00    -0.398 OA 
ENDROOT
BRANCH   2   3
HETATM    3  C   UNL     1     -10.340  13.010  65.850  1.00  0.00    -0.288 A  
HETATM    4  C   UNL     1      -9.541  13.667  66.816  1.00  0.00    -0.275 A  
HETATM    5  C   UNL     1      -9.399  13.076  68.077  1.00  0.00    -0.213 A  
HETATM    6  C   UNL     1     -10.663  11.146  67.351  1.00  0.00    -0.250 A  
HETATM    7  C   UNL     1      -9.960  11.821  68.347  1.00  0.00    -0.202 A  
HETATM    8  C   UNL     1     -10.855  11.735  66.106  1.00  0.00    -0.336 A  
BRANCH   4   9
HETATM    9  N   UNL     1      -8.882  14.868  66.480  1.00  0.00    -0.414 NA 
HETATM   10  H   UNL     1      -8.541  14.873  65.519  1.00  0.00     0.000 HD 
BRANCH   9  11
HETATM   11  C   UNL     1      -8.583  16.078  67.177  1.00  0.00    -0.194 A  
HETATM   12  C   UNL     1      -9.017  19.745  67.068  1.00  0.00    -0.408 A  
HETATM   13  C   UNL     1      -7.502  16.030  68.112  1.00  0.00    -0.132 A  
HETATM   14  C   UNL     1      -6.884  14.833  68.552  1.00  0.00    -0.107 A  
HETATM   15  C   UNL     1      -9.179  17.336  66.867  1.00  0.00    -0.265 A  
HETATM   16  C   UNL     1      -5.845  14.846  69.483  1.00  0.00    -0.103 A  
HETATM   17  C   UNL     1      -8.566  18.480  67.424  1.00  0.00    -0.258 A  
HETATM   18  C   UNL     1     -10.302  17.547  66.023  1.00  0.00    -0.309 A  
HETATM   19  C   UNL     1      -5.396  16.056  69.989  1.00  0.00    -0.147 A  
HETATM   20  C   UNL     1     -10.772  18.827  65.720  1.00  0.00    -0.263 A  
HETATM   21  C   UNL     1     -10.106  19.933  66.219  1.00  0.00    -0.613 A  
HETATM   22  C   UNL     1      -5.991  17.241  69.557  1.00  0.00    -0.241 A  
HETATM   23  C   UNL     1      -7.029  17.247  68.634  1.00  0.00    -0.220 A  
HETATM   24  N   UNL     1      -7.534  18.432  68.274  1.00  0.00    -0.270 NA 
ENDBRANCH   9  11
ENDBRANCH   4   9
BRANCH   6  25
HETATM   25  N   UNL     1     -11.152   9.819  67.546  1.00  0.00    -0.414 N  
HETATM   26  H   UNL     1     -12.151   9.624  67.614  1.00  0.00     0.000 HD 
BRANCH  25  27
HETATM   27  S   UNL     1     -10.003   8.583  67.658  1.00  0.00    -0.214 S  
HETATM   28  C   UNL     1     -10.920   7.198  66.999  1.00  0.00    -0.234 C  
HETATM   29  O   UNL     1      -9.820   8.354  69.074  1.00  0.00    -0.174 OA 
HETATM   30  O   UNL     1      -8.880   8.857  66.792  1.00  0.00    -0.120 OA 
ENDBRANCH  25  27
ENDBRANCH   6  25
ENDBRANCH   2   3
TORSDOF 5
ENDMDL
MODEL       95
REMARK 921   NORMALIZED FREE ENERGY PREDICTED BY IDOCK:   -5.73 KCAL/MOL
REMARK 922        TOTAL FREE ENERGY PREDICTED BY IDOCK:   -7.94 KCAL/MOL
REMARK 923 INTER-LIGAND FREE ENERGY PREDICTED BY IDOCK:   -7.31 KCAL/MOL
REMARK 924 INTRA-LIGAND FREE ENERGY PREDICTED BY IDOCK:   -0.63 KCAL/MOL
REMARK 927      BINDING AFFINITY PREDICTED BY RF-SCORE:    0.00 PKD
ROOT
HETATM    1  C   UNL     1     -12.201  12.617  70.334  1.00  0.00    -0.288 C  
HETATM    2  O   UNL     1     -11.401  12.154  69.240  1.00  0.00    -0.256 OA 
ENDROOT
BRANCH   2   3
HETATM    3  C   UNL     1     -10.505  11.162  69.580  1.00  0.00    -0.037 A  
HETATM    4  C   UNL     1      -9.188  11.272  69.074  1.00  0.00     0.021 A  
HETATM    5  C   UNL     1      -8.235  10.332  69.486  1.00  0.00    -0.165 A  
HETATM    6  C   UNL     1      -9.924   9.113  70.717  1.00  0.00    -0.269 A  
HETATM    7  C   UNL     1      -8.599   9.257  70.307  1.00  0.00    -0.234 A  
HETATM    8  C   UNL     1     -10.876  10.061  70.357  1.00  0.00    -0.380 A  
BRANCH   4   9
HETATM    9  N   UNL     1      -8.875  12.288  68.148  1.00  0.00    -0.184 NA 
HETATM   10  H   UNL     1      -7.930  12.653  68.270  1.00  0.00     0.000 HD 
BRANCH   9  11
HETATM   11  C   UNL     1      -9.577  12.925  67.080  1.00  0.00    -0.225 A  
HETATM   12  C   UNL     1     -10.539  12.559  63.532  1.00  0.00    -0.394 A  
HETATM   13  C   UNL     1      -9.795  14.333  67.204  1.00  0.00    -0.252 A  
HETATM   14  C   UNL     1      -9.576  15.070  68.394  1.00  0.00    -0.212 A  
HETATM   15  C   UNL     1      -9.907  12.276  65.853  1.00  0.00    -0.266 A  
HETATM   16  C   UNL     1      -9.826  16.440  68.463  1.00  0.00    -0.231 A  
HETATM   17  C   UNL     1     -10.318  13.108  64.789  1.00  0.00    -0.350 A  
HETATM   18  C   UNL     1      -9.823  10.882  65.593  1.00  0.00    -0.292 A  
HETATM   19  C   UNL     1     -10.293  17.107  67.341  1.00  0.00    -0.333 A  
HETATM   20  C   UNL     1     -10.100  10.344  64.334  1.00  0.00    -0.342 A  
HETATM   21  C   UNL     1     -10.428  11.191  63.290  1.00  0.00    -0.323 A  
HETATM   22  C   UNL     1     -10.504  16.394  66.161  1.00  0.00    -0.321 A  
HETATM   23  C   UNL     1     -10.265  15.028  66.076  1.00  0.00    -0.301 A  
HETATM   24  N   UNL     1     -10.491  14.430  64.901  1.00  0.00    -0.434 NA 
ENDBRANCH   9  11
ENDBRANCH   4   9
BRANCH   6  25
HETATM   25  N   UNL     1     -10.361   7.974  71.458  1.00  0.00    -0.204 N  
HETATM   26  H   UNL     1     -10.180   7.887  72.458  1.00  0.00     0.000 HD 
BRANCH  25  27
HETATM   27  S   UNL     1     -11.191   6.773  70.606  1.00  0.00    -0.335 S  
HETATM   28  C   UNL     1     -12.869   7.060  71.150  1.00  0.00    -0.270 C  
HETATM   29  O   UNL     1     -10.753   5.520  71.179  1.00  0.00    -0.247 OA 
HETATM   30  O   UNL     1     -11.112   7.015  69.183  1.00  0.00    -0.188 OA 
ENDBRANCH  25  27
ENDBRANCH   6  25
ENDBRANCH   2   3
TORSDOF 5
ENDMDL
MODEL       96
REMARK 921   NORMALIZED FREE ENERGY PREDICTED BY IDOCK:   -5.70 KCAL/MOL
REMARK 922        TOTAL FREE ENERGY PREDICTED BY IDOCK:   -7.90 KCAL/MOL
REMARK 923 INTER-LIGAND FREE ENERGY PREDICTED BY IDOCK:   -6.88 KCAL/MOL
REMARK 924 INTRA-LIGAND FREE ENERGY PREDICTED BY IDOCK:   -1.03 KCAL/MOL
REMARK 927      BINDING AFFINITY PREDICTED BY RF-SCORE:    0.00 PKD
ROOT
HETATM    1  C   UNL     1      -9.405  10.778  65.176  1.00  0.00    -0.217 C  
HETATM    2  O   UNL     1     -10.328  10.045  65.989  1.00  0.00    -0.231 OA 
ENDROOT
BRANCH   2   3
HETATM    3  C   UNL     1     -10.868  10.777  67.025  1.00  0.00    -0.252 A  
HETATM    4  C   UNL     1     -11.109  10.101  68.245  1.00  0.00    -0.227 A  
HETATM    5  C   UNL     1     -11.563  10.844  69.342  1.00  0.00    -0.387 A  
HETATM    6  C   UNL     1     -11.705  12.834  67.973  1.00  0.00    -0.356 A  
HETATM    7  C   UNL     1     -11.857  12.208  69.208  1.00  0.00    -0.370 A  
HETATM    8  C   UNL     1     -11.212  12.124  66.883  1.00  0.00    -0.375 A  
BRANCH   4   9
HETATM    9  N   UNL     1     -10.926   8.705  68.321  1.00  0.00    -0.450 NA 
HETATM   10  H   UNL     1     -11.573   8.191  67.722  1.00  0.00     0.000 HD 
BRANCH   9  11
HETATM   11  C   UNL     1     -10.043   7.845  69.042  1.00  0.00    -0.200 A  
HETATM   12  C   UNL     1      -6.859   5.987  68.799  1.00  0.00    -0.066 A  
HETATM   13  C   UNL     1     -10.597   7.150  70.163  1.00  0.00    -0.247 A  
HETATM   14  C   UNL     1     -11.864   7.437  70.729  1.00  0.00    -0.288 A  
HETATM   15  C   UNL     1      -8.723   7.523  68.607  1.00  0.00    -0.128 A  
HETATM   16  C   UNL     1     -12.345   6.739  71.837  1.00  0.00    -0.369 A  
HETATM   17  C   UNL     1      -8.094   6.435  69.251  1.00  0.00    -0.111 A  
HETATM   18  C   UNL     1      -8.002   8.166  67.566  1.00  0.00    -0.122 A  
HETATM   19  C   UNL     1     -11.573   5.733  72.399  1.00  0.00    -0.320 A  
HETATM   20  C   UNL     1      -6.738   7.733  67.161  1.00  0.00    -0.068 A  
HETATM   21  C   UNL     1      -6.177   6.617  67.759  1.00  0.00    -0.035 A  
HETATM   22  C   UNL     1     -10.328   5.437  71.845  1.00  0.00    -0.270 A  
HETATM   23  C   UNL     1      -9.831   6.125  70.745  1.00  0.00    -0.186 A  
HETATM   24  N   UNL     1      -8.630   5.767  70.279  1.00  0.00    -0.130 NA 
ENDBRANCH   9  11
ENDBRANCH   4   9
BRANCH   6  25
HETATM   25  N   UNL     1     -12.101  14.190  67.765  1.00  0.00    -0.545 N  
HETATM   26  H   UNL     1     -13.074  14.440  67.589  1.00  0.00     0.000 HD 
BRANCH  25  27
HETATM   27  S   UNL     1     -10.886  15.365  67.823  1.00  0.00    -0.310 S  
HETATM   28  C   UNL     1     -11.504  16.437  69.113  1.00  0.00    -0.188 C  
HETATM   29  O   UNL     1     -10.984  16.083  66.572  1.00  0.00    -0.226 OA 
HETATM   30  O   UNL     1      -9.638  14.781  68.257  1.00  0.00    -0.203 OA 
ENDBRANCH  25  27
ENDBRANCH   6  25
ENDBRANCH   2   3
TORSDOF 5
ENDMDL
MODEL       97
REMARK 921   NORMALIZED FREE ENERGY PREDICTED BY IDOCK:   -5.68 KCAL/MOL
REMARK 922        TOTAL FREE ENERGY PREDICTED BY IDOCK:   -7.88 KCAL/MOL
REMARK 923 INTER-LIGAND FREE ENERGY PREDICTED BY IDOCK:   -7.63 KCAL/MOL
REMARK 924 INTRA-LIGAND FREE ENERGY PREDICTED BY IDOCK:   -0.25 KCAL/MOL
REMARK 927      BINDING AFFINITY PREDICTED BY RF-SCORE:    0.00 PKD
ROOT
HETATM    1  C   UNL     1      -7.270  11.271  68.305  1.00  0.00    -0.080 C  
HETATM    2  O   UNL     1      -8.314  10.656  69.066  1.00  0.00    -0.144 OA 
ENDROOT
BRANCH   2   3
HETATM    3  C   UNL     1      -9.540  11.276  68.944  1.00  0.00    -0.105 A  
HETATM    4  C   UNL     1     -10.585  10.828  69.787  1.00  0.00    -0.140 A  
HETATM    5  C   UNL     1     -11.808  11.509  69.753  1.00  0.00    -0.429 A  
HETATM    6  C   UNL     1     -11.010  12.915  67.953  1.00  0.00    -0.241 A  
HETATM    7  C   UNL     1     -12.020  12.552  68.841  1.00  0.00    -0.282 A  
HETATM    8  C   UNL     1      -9.772  12.282  68.002  1.00  0.00    -0.205 A  
BRANCH   4   9
HETATM    9  N   UNL     1     -10.389   9.697  70.605  1.00  0.00    -0.296 NA 
HETATM   10  H   UNL     1     -10.263   9.939  71.588  1.00  0.00     0.000 HD 
BRANCH   9  11
HETATM   11  C   UNL     1     -10.325   8.289  70.374  1.00  0.00    -0.205 A  
HETATM   12  C   UNL     1     -10.734   5.690  67.780  1.00  0.00    -0.250 A  
HETATM   13  C   UNL     1     -10.426   7.444  71.523  1.00  0.00    -0.219 A  
HETATM   14  C   UNL     1     -10.346   7.908  72.860  1.00  0.00    -0.413 A  
HETATM   15  C   UNL     1     -10.342   7.700  69.074  1.00  0.00    -0.220 A  
HETATM   16  C   UNL     1     -10.430   7.034  73.944  1.00  0.00    -0.332 A  
HETATM   17  C   UNL     1     -10.584   6.309  69.014  1.00  0.00    -0.267 A  
HETATM   18  C   UNL     1     -10.177   8.384  67.841  1.00  0.00    -0.273 A  
HETATM   19  C   UNL     1     -10.605   5.677  73.716  1.00  0.00    -0.303 A  
HETATM   20  C   UNL     1     -10.280   7.731  66.611  1.00  0.00    -0.288 A  
HETATM   21  C   UNL     1     -10.593   6.383  66.580  1.00  0.00    -0.151 A  
HETATM   22  C   UNL     1     -10.693   5.210  72.405  1.00  0.00    -0.276 A  
HETATM   23  C   UNL     1     -10.607   6.066  71.313  1.00  0.00    -0.246 A  
HETATM   24  N   UNL     1     -10.709   5.528  70.093  1.00  0.00    -0.304 NA 
ENDBRANCH   9  11
ENDBRANCH   4   9
BRANCH   6  25
HETATM   25  N   UNL     1     -11.222  13.893  66.934  1.00  0.00    -0.304 N  
HETATM   26  H   UNL     1     -11.240  14.890  67.148  1.00  0.00     0.000 HD 
BRANCH  25  27
HETATM   27  S   UNL     1     -11.443  13.325  65.357  1.00  0.00    -0.313 S  
HETATM   28  C   UNL     1     -12.175  14.755  64.574  1.00  0.00    -0.428 C  
HETATM   29  O   UNL     1     -12.465  12.306  65.453  1.00  0.00    -0.596 OA 
HETATM   30  O   UNL     1     -10.168  13.051  64.734  1.00  0.00    -0.321 OA 
ENDBRANCH  25  27
ENDBRANCH   6  25
ENDBRANCH   2   3
TORSDOF 5
ENDMDL
MODEL       98
REMARK 921   NORMALIZED FREE ENERGY PREDICTED BY IDOCK:   -5.68 KCAL/MOL
REMARK 922        TOTAL FREE ENERGY PREDICTED BY IDOCK:   -7.87 KCAL/MOL
REMARK 923 INTER-LIGAND FREE ENERGY PREDICTED BY IDOCK:   -6.91 KCAL/MOL
REMARK 924 INTRA-LIGAND FREE ENERGY PREDICTED BY IDOCK:   -0.96 KCAL/MOL
REMARK 927      BINDING AFFINITY PREDICTED BY RF-SCORE:    0.00 PKD
ROOT
HETATM    1  C   UNL     1      -5.955   9.098  68.728  1.00  0.00    -0.044 C  
HETATM    2  O   UNL     1      -6.747  10.275  68.918  1.00  0.00    -0.055 OA 
ENDROOT
BRANCH   2   3
HETATM    3  C   UNL     1      -8.052  10.020  69.285  1.00  0.00    -0.141 A  
HETATM    4  C   UNL     1      -9.071  10.422  68.389  1.00  0.00    -0.147 A  
HETATM    5  C   UNL     1     -10.396  10.085  68.693  1.00  0.00    -0.211 A  
HETATM    6  C   UNL     1      -9.704   9.144  70.812  1.00  0.00    -0.273 A  
HETATM    7  C   UNL     1     -10.713   9.445  69.898  1.00  0.00    -0.258 A  
HETATM    8  C   UNL     1      -8.377   9.429  70.509  1.00  0.00    -0.233 A  
BRANCH   4   9
HETATM    9  N   UNL     1      -8.742  11.175  67.244  1.00  0.00    -0.137 NA 
HETATM   10  H   UNL     1      -7.832  11.631  67.322  1.00  0.00     0.000 HD 
BRANCH   9  11
HETATM   11  C   UNL     1      -9.388  11.447  66.001  1.00  0.00    -0.217 A  
HETATM   12  C   UNL     1     -12.427  12.918  64.500  1.00  0.00    -0.468 A  
HETATM   13  C   UNL     1      -8.952  10.687  64.870  1.00  0.00    -0.218 A  
HETATM   14  C   UNL     1      -7.790   9.877  64.858  1.00  0.00    -0.136 A  
HETATM   15  C   UNL     1     -10.532  12.290  65.873  1.00  0.00    -0.288 A  
HETATM   16  C   UNL     1      -7.401   9.173  63.718  1.00  0.00    -0.100 A  
HETATM   17  C   UNL     1     -11.236  12.218  64.650  1.00  0.00    -0.315 A  
HETATM   18  C   UNL     1     -11.048  13.162  66.869  1.00  0.00    -0.308 A  
HETATM   19  C   UNL     1      -8.170   9.258  62.567  1.00  0.00    -0.158 A  
HETATM   20  C   UNL     1     -12.219  13.897  66.677  1.00  0.00    -0.465 A  
HETATM   21  C   UNL     1     -12.930  13.750  65.498  1.00  0.00    -0.363 A  
HETATM   22  C   UNL     1      -9.321  10.045  62.570  1.00  0.00    -0.297 A  
HETATM   23  C   UNL     1      -9.721  10.757  63.695  1.00  0.00    -0.327 A  
HETATM   24  N   UNL     1     -10.841  11.481  63.606  1.00  0.00    -0.402 NA 
ENDBRANCH   9  11
ENDBRANCH   4   9
BRANCH   6  25
HETATM   25  N   UNL     1      -9.995   8.598  72.098  1.00  0.00    -0.318 N  
HETATM   26  H   UNL     1      -9.793   9.114  72.954  1.00  0.00     0.000 HD 
BRANCH  25  27
HETATM   27  S   UNL     1     -10.690   7.057  72.142  1.00  0.00    -0.224 S  
HETATM   28  C   UNL     1     -10.365   6.578  73.832  1.00  0.00    -0.335 C  
HETATM   29  O   UNL     1      -9.863   6.236  71.286  1.00  0.00    -0.174 OA 
HETATM   30  O   UNL     1     -12.120   7.141  71.945  1.00  0.00    -0.300 OA 
ENDBRANCH  25  27
ENDBRANCH   6  25
ENDBRANCH   2   3
TORSDOF 5
ENDMDL
MODEL       99
REMARK 921   NORMALIZED FREE ENERGY PREDICTED BY IDOCK:   -5.67 KCAL/MOL
REMARK 922        TOTAL FREE ENERGY PREDICTED BY IDOCK:   -7.86 KCAL/MOL
REMARK 923 INTER-LIGAND FREE ENERGY PREDICTED BY IDOCK:   -7.39 KCAL/MOL
REMARK 924 INTRA-LIGAND FREE ENERGY PREDICTED BY IDOCK:   -0.47 KCAL/MOL
REMARK 927      BINDING AFFINITY PREDICTED BY RF-SCORE:    0.00 PKD
ROOT
HETATM    1  C   UNL     1      -7.088  11.107  67.758  1.00  0.00    -0.086 C  
HETATM    2  O   UNL     1      -8.147  12.053  67.942  1.00  0.00    -0.131 OA 
ENDROOT
BRANCH   2   3
HETATM    3  C   UNL     1      -9.309  11.505  68.442  1.00  0.00    -0.194 A  
HETATM    4  C   UNL     1     -10.318  12.398  68.876  1.00  0.00    -0.049 A  
HETATM    5  C   UNL     1     -11.545  11.867  69.294  1.00  0.00    -0.376 A  
HETATM    6  C   UNL     1     -10.697   9.616  69.025  1.00  0.00    -0.211 A  
HETATM    7  C   UNL     1     -11.736  10.481  69.365  1.00  0.00    -0.295 A  
HETATM    8  C   UNL     1      -9.486  10.123  68.564  1.00  0.00    -0.159 A  
BRANCH   4   9
HETATM    9  N   UNL     1     -10.058  13.783  68.914  1.00  0.00    -0.408 NA 
HETATM   10  H   UNL     1      -9.868  14.121  69.857  1.00  0.00     0.000 HD 
BRANCH   9  11
HETATM   11  C   UNL     1      -9.999  14.821  67.935  1.00  0.00    -0.213 A  
HETATM   12  C   UNL     1     -11.087  15.748  64.528  1.00  0.00    -0.293 A  
HETATM   13  C   UNL     1      -8.949  15.782  68.080  1.00  0.00    -0.178 A  
HETATM   14  C   UNL     1      -8.135  15.901  69.233  1.00  0.00    -0.228 A  
HETATM   15  C   UNL     1     -10.806  14.845  66.759  1.00  0.00    -0.320 A  
HETATM   16  C   UNL     1      -7.138  16.872  69.328  1.00  0.00    -0.192 A  
HETATM   17  C   UNL     1     -10.423  15.755  65.748  1.00  0.00    -0.367 A  
HETATM   18  C   UNL     1     -11.928  14.016  66.495  1.00  0.00    -0.470 A  
HETATM   19  C   UNL     1      -6.927  17.740  68.267  1.00  0.00    -0.223 A  
HETATM   20  C   UNL     1     -12.615  14.062  65.279  1.00  0.00    -0.495 A  
HETATM   21  C   UNL     1     -12.172  14.910  64.279  1.00  0.00    -0.365 A  
HETATM   22  C   UNL     1      -7.716  17.626  67.123  1.00  0.00    -0.228 A  
HETATM   23  C   UNL     1      -8.717  16.668  67.014  1.00  0.00    -0.200 A  
HETATM   24  N   UNL     1      -9.420  16.630  65.876  1.00  0.00    -0.501 NA 
ENDBRANCH   9  11
ENDBRANCH   4   9
BRANCH   6  25
HETATM   25  N   UNL     1     -10.811   8.203  69.193  1.00  0.00    -0.412 N  
HETATM   26  H   UNL     1     -11.254   7.617  68.486  1.00  0.00     0.000 HD 
BRANCH  25  27
HETATM   27  S   UNL     1     -10.178   7.543  70.615  1.00  0.00    -0.203 S  
HETATM   28  C   UNL     1     -11.619   7.550  71.671  1.00  0.00    -0.268 C  
HETATM   29  O   UNL     1      -9.256   8.534  71.124  1.00  0.00    -0.164 OA 
HETATM   30  O   UNL     1      -9.763   6.176  70.397  1.00  0.00    -0.165 OA 
ENDBRANCH  25  27
ENDBRANCH   6  25
ENDBRANCH   2   3
TORSDOF 5
ENDMDL
MODEL      100
REMARK 921   NORMALIZED FREE ENERGY PREDICTED BY IDOCK:   -5.67 KCAL/MOL
REMARK 922        TOTAL FREE ENERGY PREDICTED BY IDOCK:   -7.85 KCAL/MOL
REMARK 923 INTER-LIGAND FREE ENERGY PREDICTED BY IDOCK:   -7.34 KCAL/MOL
REMARK 924 INTRA-LIGAND FREE ENERGY PREDICTED BY IDOCK:   -0.51 KCAL/MOL
REMARK 927      BINDING AFFINITY PREDICTED BY RF-SCORE:    0.00 PKD
ROOT
HETATM    1  C   UNL     1      -9.283   9.648  64.700  1.00  0.00    -0.234 C  
HETATM    2  O   UNL     1     -10.470  10.200  65.279  1.00  0.00    -0.193 OA 
ENDROOT
BRANCH   2   3
HETATM    3  C   UNL     1     -10.238  11.250  66.143  1.00  0.00    -0.245 A  
HETATM    4  C   UNL     1     -10.404  11.004  67.527  1.00  0.00    -0.198 A  
HETATM    5  C   UNL     1     -10.077  12.024  68.429  1.00  0.00    -0.211 A  
HETATM    6  C   UNL     1      -9.618  13.538  66.599  1.00  0.00    -0.278 A  
HETATM    7  C   UNL     1      -9.682  13.287  67.968  1.00  0.00    -0.223 A  
HETATM    8  C   UNL     1      -9.894  12.525  65.686  1.00  0.00    -0.227 A  
BRANCH   4   9
HETATM    9  N   UNL     1     -10.923   9.767  67.961  1.00  0.00    -0.458 NA 
HETATM   10  H   UNL     1     -11.670   9.421  67.359  1.00  0.00     0.000 HD 
BRANCH   9  11
HETATM   11  C   UNL     1     -10.642   8.888  69.051  1.00  0.00    -0.183 A  
HETATM   12  C   UNL     1      -9.018   5.689  69.935  1.00  0.00    -0.142 A  
HETATM   13  C   UNL     1     -11.459   9.028  70.217  1.00  0.00    -0.147 A  
HETATM   14  C   UNL     1     -12.343  10.113  70.441  1.00  0.00    -0.268 A  
HETATM   15  C   UNL     1      -9.731   7.793  68.968  1.00  0.00    -0.157 A  
HETATM   16  C   UNL     1     -13.101  10.209  71.609  1.00  0.00    -0.550 A  
HETATM   17  C   UNL     1      -9.790   6.842  70.011  1.00  0.00    -0.169 A  
HETATM   18  C   UNL     1      -8.802   7.552  67.922  1.00  0.00    -0.126 A  
HETATM   19  C   UNL     1     -12.998   9.218  72.574  1.00  0.00    -0.384 A  
HETATM   20  C   UNL     1      -7.997   6.411  67.892  1.00  0.00    -0.111 A  
HETATM   21  C   UNL     1      -8.130   5.459  68.888  1.00  0.00    -0.094 A  
HETATM   22  C   UNL     1     -12.137   8.142  72.360  1.00  0.00    -0.406 A  
HETATM   23  C   UNL     1     -11.371   8.033  71.205  1.00  0.00    -0.264 A  
HETATM   24  N   UNL     1     -10.579   6.962  71.085  1.00  0.00    -0.220 NA 
ENDBRANCH   9  11
ENDBRANCH   4   9
BRANCH   6  25
HETATM   25  N   UNL     1      -9.333  14.840  66.087  1.00  0.00    -0.438 N  
HETATM   26  H   UNL     1      -8.393  15.101  65.791  1.00  0.00     0.000 HD 
BRANCH  25  27
HETATM   27  S   UNL     1     -10.621  15.931  65.995  1.00  0.00    -0.303 S  
HETATM   28  C   UNL     1     -12.016  14.838  66.220  1.00  0.00    -0.159 C  
HETATM   29  O   UNL     1     -10.640  16.391  64.624  1.00  0.00    -0.639 OA 
HETATM   30  O   UNL     1     -10.574  16.864  67.098  1.00  0.00    -0.313 OA 
ENDBRANCH  25  27
ENDBRANCH   6  25
ENDBRANCH   2   3
TORSDOF 5
ENDMDL
MODEL      101
REMARK 921   NORMALIZED FREE ENERGY PREDICTED BY IDOCK:   -5.65 KCAL/MOL
REMARK 922        TOTAL FREE ENERGY PREDICTED BY IDOCK:   -7.83 KCAL/MOL
REMARK 923 INTER-LIGAND FREE ENERGY PREDICTED BY IDOCK:   -6.90 KCAL/MOL
REMARK 924 INTRA-LIGAND FREE ENERGY PREDICTED BY IDOCK:   -0.93 KCAL/MOL
REMARK 927      BINDING AFFINITY PREDICTED BY RF-SCORE:    0.00 PKD
ROOT
HETATM    1  C   UNL     1      -7.793   7.640  70.722  1.00  0.00    -0.096 C  
HETATM    2  O   UNL     1      -7.533   7.912  69.341  1.00  0.00    -0.086 OA 
ENDROOT
BRANCH   2   3
HETATM    3  C   UNL     1      -8.541   7.513  68.490  1.00  0.00    -0.129 A  
HETATM    4  C   UNL     1      -9.458   8.501  68.058  1.00  0.00    -0.140 A  
HETATM    5  C   UNL     1     -10.430   8.142  67.115  1.00  0.00    -0.396 A  
HETATM    6  C   UNL     1      -9.695   5.837  67.190  1.00  0.00    -0.136 A  
HETATM    7  C   UNL     1     -10.547   6.815  66.679  1.00  0.00    -0.208 A  
HETATM    8  C   UNL     1      -8.694   6.182  68.092  1.00  0.00    -0.114 A  
BRANCH   4   9
HETATM    9  N   UNL     1      -9.401   9.799  68.605  1.00  0.00    -0.144 NA 
HETATM   10  H   UNL     1      -8.468  10.208  68.547  1.00  0.00     0.000 HD 
BRANCH   9  11
HETATM   11  C   UNL     1     -10.347  10.671  69.222  1.00  0.00    -0.218 A  
HETATM   12  C   UNL     1     -13.134  10.784  71.646  1.00  0.00    -0.551 A  
HETATM   13  C   UNL     1     -10.610  11.909  68.556  1.00  0.00    -0.245 A  
HETATM   14  C   UNL     1      -9.835  12.413  67.482  1.00  0.00    -0.194 A  
HETATM   15  C   UNL     1     -11.148  10.302  70.344  1.00  0.00    -0.391 A  
HETATM   16  C   UNL     1     -10.125  13.639  66.883  1.00  0.00    -0.260 A  
HETATM   17  C   UNL     1     -12.241  11.145  70.644  1.00  0.00    -0.397 A  
HETATM   18  C   UNL     1     -10.973   9.152  71.158  1.00  0.00    -0.390 A  
HETATM   19  C   UNL     1     -11.201  14.385  67.338  1.00  0.00    -0.337 A  
HETATM   20  C   UNL     1     -11.854   8.834  72.194  1.00  0.00    -0.436 A  
HETATM   21  C   UNL     1     -12.958   9.638  72.418  1.00  0.00    -0.358 A  
HETATM   22  C   UNL     1     -11.976  13.895  68.389  1.00  0.00    -0.391 A  
HETATM   23  C   UNL     1     -11.699  12.679  69.001  1.00  0.00    -0.318 A  
HETATM   24  N   UNL     1     -12.501  12.287  69.997  1.00  0.00    -0.049 NA 
ENDBRANCH   9  11
ENDBRANCH   4   9
BRANCH   6  25
HETATM   25  N   UNL     1      -9.854   4.457  66.861  1.00  0.00    -0.213 N  
HETATM   26  H   UNL     1     -10.103   3.766  67.568  1.00  0.00     0.000 HD 
BRANCH  25  27
HETATM   27  S   UNL     1      -9.611   4.018  65.246  1.00  0.00    -0.196 S  
HETATM   28  C   UNL     1      -9.138   2.304  65.422  1.00  0.00    -0.106 C  
HETATM   29  O   UNL     1      -8.442   4.754  64.818  1.00  0.00    -0.128 OA 
HETATM   30  O   UNL     1     -10.853   4.088  64.510  1.00  0.00    -0.273 OA 
ENDBRANCH  25  27
ENDBRANCH   6  25
ENDBRANCH   2   3
TORSDOF 5
ENDMDL
MODEL      102
REMARK 921   NORMALIZED FREE ENERGY PREDICTED BY IDOCK:   -5.63 KCAL/MOL
REMARK 922        TOTAL FREE ENERGY PREDICTED BY IDOCK:   -7.81 KCAL/MOL
REMARK 923 INTER-LIGAND FREE ENERGY PREDICTED BY IDOCK:   -7.53 KCAL/MOL
REMARK 924 INTRA-LIGAND FREE ENERGY PREDICTED BY IDOCK:   -0.27 KCAL/MOL
REMARK 927      BINDING AFFINITY PREDICTED BY RF-SCORE:    0.00 PKD
ROOT
HETATM    1  C   UNL     1     -12.521  12.958  65.120  1.00  0.00    -0.501 C  
HETATM    2  O   UNL     1     -11.232  12.821  64.511  1.00  0.00    -0.305 OA 
ENDROOT
BRANCH   2   3
HETATM    3  C   UNL     1     -10.375  11.983  65.192  1.00  0.00    -0.276 A  
HETATM    4  C   UNL     1      -9.518  12.569  66.155  1.00  0.00    -0.184 A  
HETATM    5  C   UNL     1      -8.711  11.726  66.930  1.00  0.00    -0.189 A  
HETATM    6  C   UNL     1      -9.466   9.799  65.677  1.00  0.00    -0.246 A  
HETATM    7  C   UNL     1      -8.687  10.345  66.695  1.00  0.00    -0.141 A  
HETATM    8  C   UNL     1     -10.309  10.612  64.927  1.00  0.00    -0.347 A  
BRANCH   4   9
HETATM    9  N   UNL     1      -9.468  13.971  66.287  1.00  0.00    -0.430 NA 
HETATM   10  H   UNL     1      -9.236  14.440  65.410  1.00  0.00     0.000 HD 
BRANCH   9  11
HETATM   11  C   UNL     1      -9.665  14.887  67.364  1.00  0.00    -0.217 A  
HETATM   12  C   UNL     1     -11.760  15.563  70.331  1.00  0.00    -0.363 A  
HETATM   13  C   UNL     1      -9.113  16.197  67.205  1.00  0.00    -0.218 A  
HETATM   14  C   UNL     1      -8.204  16.556  66.179  1.00  0.00    -0.279 A  
HETATM   15  C   UNL     1     -10.511  14.620  68.482  1.00  0.00    -0.247 A  
HETATM   16  C   UNL     1      -7.681  17.845  66.084  1.00  0.00    -0.272 A  
HETATM   17  C   UNL     1     -10.846  15.724  69.298  1.00  0.00    -0.255 A  
HETATM   18  C   UNL     1     -11.076  13.363  68.826  1.00  0.00    -0.297 A  
HETATM   19  C   UNL     1      -8.061  18.807  67.008  1.00  0.00    -0.266 A  
HETATM   20  C   UNL     1     -11.953  13.214  69.902  1.00  0.00    -0.387 A  
HETATM   21  C   UNL     1     -12.323  14.326  70.639  1.00  0.00    -0.431 A  
HETATM   22  C   UNL     1      -8.962  18.467  68.017  1.00  0.00    -0.319 A  
HETATM   23  C   UNL     1      -9.489  17.186  68.129  1.00  0.00    -0.269 A  
HETATM   24  N   UNL     1     -10.351  16.955  69.125  1.00  0.00    -0.315 NA 
ENDBRANCH   9  11
ENDBRANCH   4   9
BRANCH   6  25
HETATM   25  N   UNL     1      -9.385   8.417  65.329  1.00  0.00    -0.381 N  
HETATM   26  H   UNL     1     -10.169   7.782  65.483  1.00  0.00     0.000 HD 
BRANCH  25  27
HETATM   27  S   UNL     1      -7.934   7.877  64.651  1.00  0.00    -0.130 S  
HETATM   28  C   UNL     1      -8.281   8.053  62.907  1.00  0.00    -0.095 C  
HETATM   29  O   UNL     1      -7.872   6.463  64.945  1.00  0.00    -0.100 OA 
HETATM   30  O   UNL     1      -6.849   8.764  65.004  1.00  0.00    -0.071 OA 
ENDBRANCH  25  27
ENDBRANCH   6  25
ENDBRANCH   2   3
TORSDOF 5
ENDMDL
MODEL      103
REMARK 921   NORMALIZED FREE ENERGY PREDICTED BY IDOCK:   -5.63 KCAL/MOL
REMARK 922        TOTAL FREE ENERGY PREDICTED BY IDOCK:   -7.80 KCAL/MOL
REMARK 923 INTER-LIGAND FREE ENERGY PREDICTED BY IDOCK:   -7.16 KCAL/MOL
REMARK 924 INTRA-LIGAND FREE ENERGY PREDICTED BY IDOCK:   -0.64 KCAL/MOL
REMARK 927      BINDING AFFINITY PREDICTED BY RF-SCORE:    0.00 PKD
ROOT
HETATM    1  C   UNL     1     -13.245  12.062  71.756  1.00  0.00    -0.317 C  
HETATM    2  O   UNL     1     -12.591  11.212  70.808  1.00  0.00    -0.347 OA 
ENDROOT
BRANCH   2   3
HETATM    3  C   UNL     1     -12.201  11.856  69.652  1.00  0.00    -0.153 A  
HETATM    4  C   UNL     1     -11.721  11.054  68.589  1.00  0.00    -0.296 A  
HETATM    5  C   UNL     1     -11.414  11.674  67.372  1.00  0.00    -0.357 A  
HETATM    6  C   UNL     1     -11.879  13.848  68.327  1.00  0.00    -0.376 A  
HETATM    7  C   UNL     1     -11.496  13.067  67.238  1.00  0.00    -0.380 A  
HETATM    8  C   UNL     1     -12.232  13.248  69.531  1.00  0.00    -0.233 A  
BRANCH   4   9
HETATM    9  N   UNL     1     -11.527   9.672  68.787  1.00  0.00    -0.434 NA 
HETATM   10  H   UNL     1     -12.336   9.117  68.503  1.00  0.00     0.000 HD 
BRANCH   9  11
HETATM   11  C   UNL     1     -10.460   8.869  69.292  1.00  0.00    -0.224 A  
HETATM   12  C   UNL     1      -9.046   7.423  72.383  1.00  0.00    -0.164 A  
HETATM   13  C   UNL     1      -9.300   8.747  68.463  1.00  0.00    -0.142 A  
HETATM   14  C   UNL     1      -9.243   9.163  67.110  1.00  0.00    -0.162 A  
HETATM   15  C   UNL     1     -10.425   8.343  70.617  1.00  0.00    -0.227 A  
HETATM   16  C   UNL     1      -8.090   9.000  66.342  1.00  0.00    -0.110 A  
HETATM   17  C   UNL     1      -9.184   7.839  71.065  1.00  0.00    -0.151 A  
HETATM   18  C   UNL     1     -11.508   8.315  71.537  1.00  0.00    -0.325 A  
HETATM   19  C   UNL     1      -6.965   8.424  66.913  1.00  0.00    -0.074 A  
HETATM   20  C   UNL     1     -11.359   7.843  72.843  1.00  0.00    -0.399 A  
HETATM   21  C   UNL     1     -10.113   7.425  73.278  1.00  0.00    -0.367 A  
HETATM   22  C   UNL     1      -7.007   8.018  68.247  1.00  0.00    -0.073 A  
HETATM   23  C   UNL     1      -8.148   8.169  69.024  1.00  0.00    -0.115 A  
HETATM   24  N   UNL     1      -8.093   7.756  70.295  1.00  0.00    -0.111 NA 
ENDBRANCH   9  11
ENDBRANCH   4   9
BRANCH   6  25
HETATM   25  N   UNL     1     -11.865  15.275  68.268  1.00  0.00    -0.495 N  
HETATM   26  H   UNL     1     -12.689  15.826  68.508  1.00  0.00     0.000 HD 
BRANCH  25  27
HETATM   27  S   UNL     1     -10.422  16.012  67.784  1.00  0.00    -0.305 S  
HETATM   28  C   UNL     1     -10.533  17.580  68.632  1.00  0.00    -0.338 C  
HETATM   29  O   UNL     1     -10.574  16.266  66.369  1.00  0.00    -0.306 OA 
HETATM   30  O   UNL     1      -9.284  15.282  68.297  1.00  0.00    -0.183 OA 
ENDBRANCH  25  27
ENDBRANCH   6  25
ENDBRANCH   2   3
TORSDOF 5
ENDMDL
MODEL      104
REMARK 921   NORMALIZED FREE ENERGY PREDICTED BY IDOCK:   -5.62 KCAL/MOL
REMARK 922        TOTAL FREE ENERGY PREDICTED BY IDOCK:   -7.80 KCAL/MOL
REMARK 923 INTER-LIGAND FREE ENERGY PREDICTED BY IDOCK:   -7.98 KCAL/MOL
REMARK 924 INTRA-LIGAND FREE ENERGY PREDICTED BY IDOCK:    0.18 KCAL/MOL
REMARK 927      BINDING AFFINITY PREDICTED BY RF-SCORE:    0.00 PKD
ROOT
HETATM    1  C   UNL     1      -8.838  10.331  64.819  1.00  0.00    -0.196 C  
HETATM    2  O   UNL     1     -10.021   9.865  65.476  1.00  0.00    -0.304 OA 
ENDROOT
BRANCH   2   3
HETATM    3  C   UNL     1     -10.665  10.828  66.223  1.00  0.00    -0.138 A  
HETATM    4  C   UNL     1     -10.615  10.703  67.632  1.00  0.00    -0.246 A  
HETATM    5  C   UNL     1     -11.175  11.722  68.412  1.00  0.00    -0.307 A  
HETATM    6  C   UNL     1     -11.970  12.850  66.425  1.00  0.00    -0.395 A  
HETATM    7  C   UNL     1     -11.848  12.795  67.812  1.00  0.00    -0.387 A  
HETATM    8  C   UNL     1     -11.382  11.872  65.630  1.00  0.00    -0.339 A  
BRANCH   4   9
HETATM    9  N   UNL     1     -10.044   9.553  68.213  1.00  0.00    -0.176 NA 
HETATM   10  H   UNL     1      -9.024   9.586  68.229  1.00  0.00     0.000 HD 
BRANCH   9  11
HETATM   11  C   UNL     1     -10.564   8.353  68.785  1.00  0.00    -0.125 A  
HETATM   12  C   UNL     1     -11.945   6.906  71.892  1.00  0.00    -0.363 A  
HETATM   13  C   UNL     1     -10.231   7.129  68.123  1.00  0.00    -0.220 A  
HETATM   14  C   UNL     1      -9.637   7.057  66.839  1.00  0.00    -0.214 A  
HETATM   15  C   UNL     1     -11.232   8.303  70.045  1.00  0.00    -0.081 A  
HETATM   16  C   UNL     1      -9.353   5.833  66.232  1.00  0.00    -0.171 A  
HETATM   17  C   UNL     1     -11.412   7.022  70.614  1.00  0.00    -0.324 A  
HETATM   18  C   UNL     1     -11.697   9.417  70.793  1.00  0.00    -0.349 A  
HETATM   19  C   UNL     1      -9.651   4.654  66.899  1.00  0.00    -0.197 A  
HETATM   20  C   UNL     1     -12.279   9.273  72.054  1.00  0.00    -0.418 A  
HETATM   21  C   UNL     1     -12.373   8.013  72.621  1.00  0.00    -0.165 A  
HETATM   22  C   UNL     1     -10.229   4.713  68.167  1.00  0.00    -0.003 A  
HETATM   23  C   UNL     1     -10.522   5.923  68.785  1.00  0.00    -0.249 A  
HETATM   24  N   UNL     1     -11.070   5.882  70.004  1.00  0.00    -0.364 NA 
ENDBRANCH   9  11
ENDBRANCH   4   9
BRANCH   6  25
HETATM   25  N   UNL     1     -12.744  13.861  65.779  1.00  0.00    -0.499 N  
HETATM   26  H   UNL     1     -13.661  14.136  66.132  1.00  0.00     0.000 HD 
BRANCH  25  27
HETATM   27  S   UNL     1     -12.075  14.583  64.404  1.00  0.00    -0.414 S  
HETATM   28  C   UNL     1     -12.172  13.242  63.228  1.00  0.00    -0.313 C  
HETATM   29  O   UNL     1     -10.679  14.791  64.718  1.00  0.00    -0.407 OA 
HETATM   30  O   UNL     1     -12.911  15.669  63.946  1.00  0.00    -0.619 OA 
ENDBRANCH  25  27
ENDBRANCH   6  25
ENDBRANCH   2   3
TORSDOF 5
ENDMDL
MODEL      105
REMARK 921   NORMALIZED FREE ENERGY PREDICTED BY IDOCK:   -5.60 KCAL/MOL
REMARK 922        TOTAL FREE ENERGY PREDICTED BY IDOCK:   -7.77 KCAL/MOL
REMARK 923 INTER-LIGAND FREE ENERGY PREDICTED BY IDOCK:   -7.07 KCAL/MOL
REMARK 924 INTRA-LIGAND FREE ENERGY PREDICTED BY IDOCK:   -0.70 KCAL/MOL
REMARK 927      BINDING AFFINITY PREDICTED BY RF-SCORE:    0.00 PKD
ROOT
HETATM    1  C   UNL     1      -6.975  12.735  67.329  1.00  0.00    -0.080 C  
HETATM    2  O   UNL     1      -7.689  11.718  68.039  1.00  0.00    -0.108 OA 
ENDROOT
BRANCH   2   3
HETATM    3  C   UNL     1      -9.059  11.791  67.899  1.00  0.00    -0.181 A  
HETATM    4  C   UNL     1      -9.835  10.805  68.554  1.00  0.00    -0.177 A  
HETATM    5  C   UNL     1     -11.231  10.916  68.510  1.00  0.00    -0.335 A  
HETATM    6  C   UNL     1     -11.062  12.832  67.042  1.00  0.00    -0.278 A  
HETATM    7  C   UNL     1     -11.844  11.928  67.759  1.00  0.00    -0.289 A  
HETATM    8  C   UNL     1      -9.674  12.767  67.110  1.00  0.00    -0.216 A  
BRANCH   4   9
HETATM    9  N   UNL     1      -9.197   9.725  69.198  1.00  0.00    -0.165 NA 
HETATM   10  H   UNL     1      -8.370  10.012  69.720  1.00  0.00     0.000 HD 
BRANCH   9  11
HETATM   11  C   UNL     1      -9.444   8.321  69.286  1.00  0.00    -0.155 A  
HETATM   12  C   UNL     1     -10.870   5.694  71.457  1.00  0.00    -0.297 A  
HETATM   13  C   UNL     1      -8.667   7.477  68.432  1.00  0.00    -0.123 A  
HETATM   14  C   UNL     1      -7.863   7.950  67.365  1.00  0.00    -0.121 A  
HETATM   15  C   UNL     1     -10.277   7.726  70.280  1.00  0.00    -0.199 A  
HETATM   16  C   UNL     1      -7.142   7.078  66.550  1.00  0.00    -0.077 A  
HETATM   17  C   UNL     1     -10.179   6.325  70.430  1.00  0.00    -0.200 A  
HETATM   18  C   UNL     1     -11.163   8.413  71.152  1.00  0.00    -0.307 A  
HETATM   19  C   UNL     1      -7.202   5.713  66.788  1.00  0.00    -0.074 A  
HETATM   20  C   UNL     1     -11.888   7.750  72.145  1.00  0.00    -0.370 A  
HETATM   21  C   UNL     1     -11.715   6.388  72.320  1.00  0.00    -0.333 A  
HETATM   22  C   UNL     1      -7.982   5.236  67.841  1.00  0.00    -0.095 A  
HETATM   23  C   UNL     1      -8.711   6.091  68.660  1.00  0.00    -0.110 A  
HETATM   24  N   UNL     1      -9.426   5.543  69.648  1.00  0.00    -0.133 NA 
ENDBRANCH   9  11
ENDBRANCH   4   9
BRANCH   6  25
HETATM   25  N   UNL     1     -11.645  13.805  66.175  1.00  0.00    -0.339 N  
HETATM   26  H   UNL     1     -11.770  14.773  66.469  1.00  0.00     0.000 HD 
BRANCH  25  27
HETATM   27  S   UNL     1     -12.119  13.282  64.638  1.00  0.00    -0.425 S  
HETATM   28  C   UNL     1     -10.587  12.606  64.015  1.00  0.00    -0.427 C  
HETATM   29  O   UNL     1     -12.404  14.486  63.891  1.00  0.00    -0.730 OA 
HETATM   30  O   UNL     1     -13.092  12.218  64.744  1.00  0.00    -0.724 OA 
ENDBRANCH  25  27
ENDBRANCH   6  25
ENDBRANCH   2   3
TORSDOF 5
ENDMDL
MODEL      106
REMARK 921   NORMALIZED FREE ENERGY PREDICTED BY IDOCK:   -5.59 KCAL/MOL
REMARK 922        TOTAL FREE ENERGY PREDICTED BY IDOCK:   -7.76 KCAL/MOL
REMARK 923 INTER-LIGAND FREE ENERGY PREDICTED BY IDOCK:   -6.89 KCAL/MOL
REMARK 924 INTRA-LIGAND FREE ENERGY PREDICTED BY IDOCK:   -0.87 KCAL/MOL
REMARK 927      BINDING AFFINITY PREDICTED BY RF-SCORE:    0.00 PKD
ROOT
HETATM    1  C   UNL     1     -12.414  10.528  70.331  1.00  0.00    -0.310 C  
HETATM    2  O   UNL     1     -11.459  11.550  70.023  1.00  0.00    -0.282 OA 
ENDROOT
BRANCH   2   3
HETATM    3  C   UNL     1     -10.411  11.122  69.236  1.00  0.00    -0.151 A  
HETATM    4  C   UNL     1      -9.821  12.068  68.364  1.00  0.00    -0.204 A  
HETATM    5  C   UNL     1      -8.693  11.684  67.629  1.00  0.00    -0.156 A  
HETATM    6  C   UNL     1      -8.867   9.426  68.480  1.00  0.00    -0.128 A  
HETATM    7  C   UNL     1      -8.214  10.369  67.688  1.00  0.00    -0.110 A  
HETATM    8  C   UNL     1      -9.962   9.798  69.253  1.00  0.00    -0.201 A  
BRANCH   4   9
HETATM    9  N   UNL     1     -10.396  13.347  68.226  1.00  0.00    -0.244 NA 
HETATM   10  H   UNL     1     -10.522  13.820  69.121  1.00  0.00     0.000 HD 
BRANCH   9  11
HETATM   11  C   UNL     1     -10.844  14.134  67.121  1.00  0.00    -0.290 A  
HETATM   12  C   UNL     1     -11.883  13.949  63.581  1.00  0.00    -0.128 A  
HETATM   13  C   UNL     1     -10.572  15.537  67.179  1.00  0.00    -0.300 A  
HETATM   14  C   UNL     1     -10.113  16.210  68.338  1.00  0.00    -0.236 A  
HETATM   15  C   UNL     1     -11.378  13.578  65.921  1.00  0.00    -0.321 A  
HETATM   16  C   UNL     1      -9.884  17.586  68.342  1.00  0.00    -0.325 A  
HETATM   17  C   UNL     1     -11.486  14.449  64.815  1.00  0.00    -0.402 A  
HETATM   18  C   UNL     1     -11.772  12.227  65.724  1.00  0.00    -0.445 A  
HETATM   19  C   UNL     1     -10.100  18.318  67.185  1.00  0.00    -0.367 A  
HETATM   20  C   UNL     1     -12.218  11.757  64.487  1.00  0.00    -0.104 A  
HETATM   21  C   UNL     1     -12.243  12.615  63.401  1.00  0.00    -0.610 A  
HETATM   22  C   UNL     1     -10.544  17.665  66.035  1.00  0.00    -0.220 A  
HETATM   23  C   UNL     1     -10.782  16.296  66.015  1.00  0.00    -0.214 A  
HETATM   24  N   UNL     1     -11.200  15.755  64.865  1.00  0.00    -0.386 NA 
ENDBRANCH   9  11
ENDBRANCH   4   9
BRANCH   6  25
HETATM   25  N   UNL     1      -8.483   8.051  68.481  1.00  0.00    -0.127 N  
HETATM   26  H   UNL     1      -7.884   7.666  69.210  1.00  0.00     0.000 HD 
BRANCH  25  27
HETATM   27  S   UNL     1      -9.066   7.088  67.219  1.00  0.00    -0.128 S  
HETATM   28  C   UNL     1      -9.227   5.507  68.036  1.00  0.00    -0.108 C  
HETATM   29  O   UNL     1      -7.974   6.985  66.276  1.00  0.00    -0.106 OA 
HETATM   30  O   UNL     1     -10.376   7.536  66.804  1.00  0.00    -0.288 OA 
ENDBRANCH  25  27
ENDBRANCH   6  25
ENDBRANCH   2   3
TORSDOF 5
ENDMDL
MODEL      107
REMARK 921   NORMALIZED FREE ENERGY PREDICTED BY IDOCK:   -5.58 KCAL/MOL
REMARK 922        TOTAL FREE ENERGY PREDICTED BY IDOCK:   -7.75 KCAL/MOL
REMARK 923 INTER-LIGAND FREE ENERGY PREDICTED BY IDOCK:   -7.21 KCAL/MOL
REMARK 924 INTRA-LIGAND FREE ENERGY PREDICTED BY IDOCK:   -0.53 KCAL/MOL
REMARK 927      BINDING AFFINITY PREDICTED BY RF-SCORE:    0.00 PKD
ROOT
HETATM    1  C   UNL     1      -7.633  10.530  67.754  1.00  0.00    -0.088 C  
HETATM    2  O   UNL     1      -8.464   9.741  68.613  1.00  0.00    -0.111 OA 
ENDROOT
BRANCH   2   3
HETATM    3  C   UNL     1      -8.956   8.596  68.023  1.00  0.00    -0.141 A  
HETATM    4  C   UNL     1     -10.336   8.564  67.711  1.00  0.00    -0.237 A  
HETATM    5  C   UNL     1     -10.838   7.453  67.021  1.00  0.00    -0.307 A  
HETATM    6  C   UNL     1      -8.676   6.371  67.128  1.00  0.00    -0.110 A  
HETATM    7  C   UNL     1     -10.011   6.361  66.727  1.00  0.00    -0.225 A  
HETATM    8  C   UNL     1      -8.147   7.483  67.773  1.00  0.00    -0.119 A  
BRANCH   4   9
HETATM    9  N   UNL     1     -11.173   9.618  68.128  1.00  0.00    -0.514 NA 
HETATM   10  H   UNL     1     -11.814   9.340  68.872  1.00  0.00     0.000 HD 
BRANCH   9  11
HETATM   11  C   UNL     1     -11.331  10.986  67.749  1.00  0.00    -0.292 A  
HETATM   12  C   UNL     1     -10.474  13.456  65.139  1.00  0.00    -0.358 A  
HETATM   13  C   UNL     1     -11.681  11.904  68.789  1.00  0.00    -0.379 A  
HETATM   14  C   UNL     1     -12.104  11.515  70.084  1.00  0.00    -0.432 A  
HETATM   15  C   UNL     1     -10.995  11.492  66.458  1.00  0.00    -0.346 A  
HETATM   16  C   UNL     1     -12.454  12.455  71.053  1.00  0.00    -0.353 A  
HETATM   17  C   UNL     1     -10.913  12.897  66.333  1.00  0.00    -0.285 A  
HETATM   18  C   UNL     1     -10.699  10.719  65.305  1.00  0.00    -0.153 A  
HETATM   19  C   UNL     1     -12.382  13.807  70.751  1.00  0.00    -0.451 A  
HETATM   20  C   UNL     1     -10.309  11.304  64.099  1.00  0.00    -0.410 A  
HETATM   21  C   UNL     1     -10.164  12.679  64.025  1.00  0.00    -0.363 A  
HETATM   22  C   UNL     1     -11.959  14.202  69.482  1.00  0.00    -0.389 A  
HETATM   23  C   UNL     1     -11.611  13.279  68.503  1.00  0.00    -0.333 A  
HETATM   24  N   UNL     1     -11.212  13.751  67.318  1.00  0.00    -0.301 NA 
ENDBRANCH   9  11
ENDBRANCH   4   9
BRANCH   6  25
HETATM   25  N   UNL     1      -7.831   5.234  66.950  1.00  0.00    -0.100 N  
HETATM   26  H   UNL     1      -7.048   5.250  66.297  1.00  0.00     0.000 HD 
BRANCH  25  27
HETATM   27  S   UNL     1      -8.184   3.861  67.872  1.00  0.00    -0.093 S  
HETATM   28  C   UNL     1      -8.609   4.599  69.443  1.00  0.00    -0.082 C  
HETATM   29  O   UNL     1      -6.922   3.173  68.038  1.00  0.00    -0.048 OA 
HETATM   30  O   UNL     1      -9.344   3.182  67.343  1.00  0.00    -0.193 OA 
ENDBRANCH  25  27
ENDBRANCH   6  25
ENDBRANCH   2   3
TORSDOF 5
ENDMDL
MODEL      108
REMARK 921   NORMALIZED FREE ENERGY PREDICTED BY IDOCK:   -5.57 KCAL/MOL
REMARK 922        TOTAL FREE ENERGY PREDICTED BY IDOCK:   -7.74 KCAL/MOL
REMARK 923 INTER-LIGAND FREE ENERGY PREDICTED BY IDOCK:   -7.07 KCAL/MOL
REMARK 924 INTRA-LIGAND FREE ENERGY PREDICTED BY IDOCK:   -0.66 KCAL/MOL
REMARK 927      BINDING AFFINITY PREDICTED BY RF-SCORE:    0.00 PKD
ROOT
HETATM    1  C   UNL     1      -7.406  12.039  68.681  1.00  0.00    -0.111 C  
HETATM    2  O   UNL     1      -8.335  12.498  67.692  1.00  0.00    -0.149 OA 
ENDROOT
BRANCH   2   3
HETATM    3  C   UNL     1      -9.124  13.550  68.107  1.00  0.00    -0.199 A  
HETATM    4  C   UNL     1     -10.512  13.312  68.240  1.00  0.00    -0.250 A  
HETATM    5  C   UNL     1     -11.318  14.335  68.755  1.00  0.00    -0.303 A  
HETATM    6  C   UNL     1      -9.423  15.838  68.819  1.00  0.00    -0.219 A  
HETATM    7  C   UNL     1     -10.776  15.593  69.047  1.00  0.00    -0.236 A  
HETATM    8  C   UNL     1      -8.597  14.822  68.351  1.00  0.00    -0.166 A  
BRANCH   4   9
HETATM    9  N   UNL     1     -11.055  12.080  67.821  1.00  0.00    -0.234 NA 
HETATM   10  H   UNL     1     -11.476  12.132  66.892  1.00  0.00     0.000 HD 
BRANCH   9  11
HETATM   11  C   UNL     1     -11.152  10.777  68.397  1.00  0.00    -0.266 A  
HETATM   12  C   UNL     1     -12.008   8.965  71.500  1.00  0.00    -0.401 A  
HETATM   13  C   UNL     1     -10.423   9.732  67.748  1.00  0.00    -0.297 A  
HETATM   14  C   UNL     1      -9.823   9.857  66.470  1.00  0.00    -0.274 A  
HETATM   15  C   UNL     1     -11.780  10.512  69.650  1.00  0.00    -0.328 A  
HETATM   16  C   UNL     1      -9.140   8.795  65.875  1.00  0.00    -0.271 A  
HETATM   17  C   UNL     1     -11.529   9.248  70.227  1.00  0.00    -0.162 A  
HETATM   18  C   UNL     1     -12.599  11.410  70.384  1.00  0.00    -0.267 A  
HETATM   19  C   UNL     1      -9.036   7.587  66.549  1.00  0.00    -0.189 A  
HETATM   20  C   UNL     1     -13.114  11.086  71.642  1.00  0.00    -0.543 A  
HETATM   21  C   UNL     1     -12.790   9.869  72.216  1.00  0.00    -0.345 A  
HETATM   22  C   UNL     1      -9.615   7.455  67.810  1.00  0.00    -0.162 A  
HETATM   23  C   UNL     1     -10.303   8.501  68.415  1.00  0.00    -0.202 A  
HETATM   24  N   UNL     1     -10.820   8.284  69.629  1.00  0.00    -0.197 NA 
ENDBRANCH   9  11
ENDBRANCH   4   9
BRANCH   6  25
HETATM   25  N   UNL     1      -8.855  17.136  68.994  1.00  0.00    -0.172 N  
HETATM   26  H   UNL     1      -8.177  17.325  69.732  1.00  0.00     0.000 HD 
BRANCH  25  27
HETATM   27  S   UNL     1      -9.355  18.346  67.925  1.00  0.00    -0.286 S  
HETATM   28  C   UNL     1      -9.232  17.496  66.358  1.00  0.00    -0.245 C  
HETATM   29  O   UNL     1      -8.314  19.349  67.962  1.00  0.00    -0.300 OA 
HETATM   30  O   UNL     1     -10.738  18.692  68.163  1.00  0.00    -0.300 OA 
ENDBRANCH  25  27
ENDBRANCH   6  25
ENDBRANCH   2   3
TORSDOF 5
ENDMDL
MODEL      109
REMARK 921   NORMALIZED FREE ENERGY PREDICTED BY IDOCK:   -5.56 KCAL/MOL
REMARK 922        TOTAL FREE ENERGY PREDICTED BY IDOCK:   -7.72 KCAL/MOL
REMARK 923 INTER-LIGAND FREE ENERGY PREDICTED BY IDOCK:   -7.00 KCAL/MOL
REMARK 924 INTRA-LIGAND FREE ENERGY PREDICTED BY IDOCK:   -0.72 KCAL/MOL
REMARK 927      BINDING AFFINITY PREDICTED BY RF-SCORE:    0.00 PKD
ROOT
HETATM    1  C   UNL     1     -12.257  13.538  70.476  1.00  0.00    -0.361 C  
HETATM    2  O   UNL     1     -12.026  12.498  69.520  1.00  0.00    -0.303 OA 
ENDROOT
BRANCH   2   3
HETATM    3  C   UNL     1     -11.010  12.771  68.628  1.00  0.00    -0.260 A  
HETATM    4  C   UNL     1     -10.627  11.738  67.740  1.00  0.00    -0.200 A  
HETATM    5  C   UNL     1      -9.669  12.023  66.759  1.00  0.00    -0.218 A  
HETATM    6  C   UNL     1      -9.363  14.248  67.660  1.00  0.00    -0.201 A  
HETATM    7  C   UNL     1      -9.040  13.275  66.716  1.00  0.00    -0.216 A  
HETATM    8  C   UNL     1     -10.344  14.001  68.614  1.00  0.00    -0.238 A  
BRANCH   4   9
HETATM    9  N   UNL     1     -11.181  10.450  67.882  1.00  0.00    -0.416 NA 
HETATM   10  H   UNL     1     -12.085  10.358  67.418  1.00  0.00     0.000 HD 
BRANCH   9  11
HETATM   11  C   UNL     1     -10.769   9.245  68.528  1.00  0.00    -0.142 A  
HETATM   12  C   UNL     1     -10.499   7.588  71.819  1.00  0.00    -0.222 A  
HETATM   13  C   UNL     1      -9.862   8.407  67.805  1.00  0.00    -0.218 A  
HETATM   14  C   UNL     1      -9.546   8.575  66.434  1.00  0.00    -0.314 A  
HETATM   15  C   UNL     1     -11.071   8.933  69.887  1.00  0.00    -0.146 A  
HETATM   16  C   UNL     1      -8.670   7.713  65.774  1.00  0.00    -0.151 A  
HETATM   17  C   UNL     1     -10.345   7.869  70.467  1.00  0.00    -0.205 A  
HETATM   18  C   UNL     1     -12.001   9.613  70.717  1.00  0.00    -0.356 A  
HETATM   19  C   UNL     1      -8.083   6.669  66.473  1.00  0.00    -0.111 A  
HETATM   20  C   UNL     1     -12.178   9.280  72.061  1.00  0.00    -0.418 A  
HETATM   21  C   UNL     1     -11.399   8.283  72.623  1.00  0.00    -0.421 A  
HETATM   22  C   UNL     1      -8.380   6.499  67.825  1.00  0.00    -0.119 A  
HETATM   23  C   UNL     1      -9.255   7.345  68.497  1.00  0.00    -0.142 A  
HETATM   24  N   UNL     1      -9.475   7.108  69.795  1.00  0.00    -0.150 NA 
ENDBRANCH   9  11
ENDBRANCH   4   9
BRANCH   6  25
HETATM   25  N   UNL     1      -8.666  15.492  67.723  1.00  0.00    -0.165 N  
HETATM   26  H   UNL     1      -7.853  15.617  68.326  1.00  0.00     0.000 HD 
BRANCH  25  27
HETATM   27  S   UNL     1      -9.248  16.751  66.755  1.00  0.00    -0.256 S  
HETATM   28  C   UNL     1      -7.767  17.725  66.529  1.00  0.00    -0.263 C  
HETATM   29  O   UNL     1     -10.145  17.506  67.601  1.00  0.00    -0.301 OA 
HETATM   30  O   UNL     1      -9.677  16.244  65.471  1.00  0.00    -0.485 OA 
ENDBRANCH  25  27
ENDBRANCH   6  25
ENDBRANCH   2   3
TORSDOF 5
ENDMDL
MODEL      110
REMARK 921   NORMALIZED FREE ENERGY PREDICTED BY IDOCK:   -5.56 KCAL/MOL
REMARK 922        TOTAL FREE ENERGY PREDICTED BY IDOCK:   -7.71 KCAL/MOL
REMARK 923 INTER-LIGAND FREE ENERGY PREDICTED BY IDOCK:   -7.18 KCAL/MOL
REMARK 924 INTRA-LIGAND FREE ENERGY PREDICTED BY IDOCK:   -0.53 KCAL/MOL
REMARK 927      BINDING AFFINITY PREDICTED BY RF-SCORE:    0.00 PKD
ROOT
HETATM    1  C   UNL     1      -9.664  10.461  64.716  1.00  0.00    -0.320 C  
HETATM    2  O   UNL     1     -10.281  10.108  65.959  1.00  0.00    -0.252 OA 
ENDROOT
BRANCH   2   3
HETATM    3  C   UNL     1      -9.672   9.055  66.609  1.00  0.00    -0.230 A  
HETATM    4  C   UNL     1      -9.293   9.254  67.958  1.00  0.00    -0.133 A  
HETATM    5  C   UNL     1      -8.765   8.169  68.670  1.00  0.00    -0.134 A  
HETATM    6  C   UNL     1      -8.825   6.795  66.679  1.00  0.00    -0.137 A  
HETATM    7  C   UNL     1      -8.535   6.942  68.034  1.00  0.00    -0.124 A  
HETATM    8  C   UNL     1      -9.393   7.846  65.966  1.00  0.00    -0.129 A  
BRANCH   4   9
HETATM    9  N   UNL     1      -9.418  10.532  68.540  1.00  0.00    -0.157 NA 
HETATM   10  H   UNL     1      -8.515  10.961  68.743  1.00  0.00     0.000 HD 
BRANCH   9  11
HETATM   11  C   UNL     1     -10.517  11.365  68.910  1.00  0.00    -0.193 A  
HETATM   12  C   UNL     1     -11.818  14.817  68.716  1.00  0.00    -0.330 A  
HETATM   13  C   UNL     1     -11.347  10.897  69.978  1.00  0.00    -0.386 A  
HETATM   14  C   UNL     1     -11.289   9.586  70.513  1.00  0.00    -0.343 A  
HETATM   15  C   UNL     1     -10.718  12.682  68.400  1.00  0.00    -0.260 A  
HETATM   16  C   UNL     1     -12.138   9.177  71.541  1.00  0.00    -0.422 A  
HETATM   17  C   UNL     1     -11.659  13.486  69.081  1.00  0.00    -0.310 A  
HETATM   18  C   UNL     1     -10.037  13.269  67.301  1.00  0.00    -0.234 A  
HETATM   19  C   UNL     1     -13.059  10.073  72.063  1.00  0.00    -0.541 A  
HETATM   20  C   UNL     1     -10.250  14.594  66.918  1.00  0.00    -0.262 A  
HETATM   21  C   UNL     1     -11.122  15.382  67.649  1.00  0.00    -0.316 A  
HETATM   22  C   UNL     1     -13.119  11.368  71.551  1.00  0.00    -0.438 A  
HETATM   23  C   UNL     1     -12.284  11.791  70.523  1.00  0.00    -0.347 A  
HETATM   24  N   UNL     1     -12.410  13.053  70.099  1.00  0.00    -0.249 NA 
ENDBRANCH   9  11
ENDBRANCH   4   9
BRANCH   6  25
HETATM   25  N   UNL     1      -8.500   5.601  65.967  1.00  0.00    -0.127 N  
HETATM   26  H   UNL     1      -7.577   5.461  65.556  1.00  0.00     0.000 HD 
BRANCH  25  27
HETATM   27  S   UNL     1      -9.711   4.429  65.834  1.00  0.00    -0.230 S  
HETATM   28  C   UNL     1      -9.383   3.429  67.278  1.00  0.00    -0.201 C  
HETATM   29  O   UNL     1      -9.365   3.646  64.670  1.00  0.00    -0.134 OA 
HETATM   30  O   UNL     1     -11.017   5.033  65.970  1.00  0.00    -0.243 OA 
ENDBRANCH  25  27
ENDBRANCH   6  25
ENDBRANCH   2   3
TORSDOF 5
ENDMDL
MODEL      111
REMARK 921   NORMALIZED FREE ENERGY PREDICTED BY IDOCK:   -5.55 KCAL/MOL
REMARK 922        TOTAL FREE ENERGY PREDICTED BY IDOCK:   -7.71 KCAL/MOL
REMARK 923 INTER-LIGAND FREE ENERGY PREDICTED BY IDOCK:   -7.17 KCAL/MOL
REMARK 924 INTRA-LIGAND FREE ENERGY PREDICTED BY IDOCK:   -0.54 KCAL/MOL
REMARK 927      BINDING AFFINITY PREDICTED BY RF-SCORE:    0.00 PKD
ROOT
HETATM    1  C   UNL     1     -14.410   8.164  71.911  1.00  0.00    -0.472 C  
HETATM    2  O   UNL     1     -13.322   7.426  71.343  1.00  0.00    -0.370 OA 
ENDROOT
BRANCH   2   3
HETATM    3  C   UNL     1     -12.229   8.200  71.015  1.00  0.00    -0.177 A  
HETATM    4  C   UNL     1     -10.973   7.553  70.935  1.00  0.00    -0.253 A  
HETATM    5  C   UNL     1      -9.866   8.296  70.506  1.00  0.00    -0.197 A  
HETATM    6  C   UNL     1     -11.208  10.307  70.425  1.00  0.00    -0.332 A  
HETATM    7  C   UNL     1      -9.982   9.668  70.248  1.00  0.00    -0.326 A  
HETATM    8  C   UNL     1     -12.330   9.578  70.806  1.00  0.00    -0.233 A  
BRANCH   4   9
HETATM    9  N   UNL     1     -10.855   6.202  71.320  1.00  0.00    -0.255 NA 
HETATM   10  H   UNL     1     -11.410   5.979  72.147  1.00  0.00     0.000 HD 
BRANCH   9  11
HETATM   11  C   UNL     1     -10.137   5.074  70.820  1.00  0.00    -0.237 A  
HETATM   12  C   UNL     1      -9.400   3.154  67.751  1.00  0.00    -0.252 A  
HETATM   13  C   UNL     1      -9.751   4.082  71.776  1.00  0.00    -0.241 A  
HETATM   14  C   UNL     1      -9.824   4.261  73.179  1.00  0.00    -0.174 A  
HETATM   15  C   UNL     1      -9.945   4.812  69.430  1.00  0.00    -0.269 A  
HETATM   16  C   UNL     1      -9.413   3.265  74.066  1.00  0.00    -0.116 A  
HETATM   17  C   UNL     1      -9.493   3.518  69.088  1.00  0.00    -0.154 A  
HETATM   18  C   UNL     1     -10.203   5.713  68.364  1.00  0.00    -0.247 A  
HETATM   19  C   UNL     1      -8.927   2.065  73.568  1.00  0.00    -0.069 A  
HETATM   20  C   UNL     1     -10.053   5.342  67.026  1.00  0.00    -0.243 A  
HETATM   21  C   UNL     1      -9.681   4.045  66.717  1.00  0.00    -0.216 A  
HETATM   22  C   UNL     1      -8.858   1.875  72.188  1.00  0.00    -0.097 A  
HETATM   23  C   UNL     1      -9.259   2.857  71.291  1.00  0.00    -0.124 A  
HETATM   24  N   UNL     1      -9.162   2.583  69.986  1.00  0.00    -0.118 NA 
ENDBRANCH   9  11
ENDBRANCH   4   9
BRANCH   6  25
HETATM   25  N   UNL     1     -11.344  11.721  70.285  1.00  0.00    -0.463 N  
HETATM   26  H   UNL     1     -11.355  12.338  71.097  1.00  0.00     0.000 HD 
BRANCH  25  27
HETATM   27  S   UNL     1     -11.487  12.329  68.713  1.00  0.00    -0.335 S  
HETATM   28  C   UNL     1      -9.770  12.566  68.278  1.00  0.00    -0.220 C  
HETATM   29  O   UNL     1     -12.087  13.637  68.859  1.00  0.00    -0.347 OA 
HETATM   30  O   UNL     1     -12.060  11.334  67.836  1.00  0.00    -0.634 OA 
ENDBRANCH  25  27
ENDBRANCH   6  25
ENDBRANCH   2   3
TORSDOF 5
ENDMDL
MODEL      112
REMARK 921   NORMALIZED FREE ENERGY PREDICTED BY IDOCK:   -5.54 KCAL/MOL
REMARK 922        TOTAL FREE ENERGY PREDICTED BY IDOCK:   -7.69 KCAL/MOL
REMARK 923 INTER-LIGAND FREE ENERGY PREDICTED BY IDOCK:   -7.83 KCAL/MOL
REMARK 924 INTRA-LIGAND FREE ENERGY PREDICTED BY IDOCK:    0.14 KCAL/MOL
REMARK 927      BINDING AFFINITY PREDICTED BY RF-SCORE:    0.00 PKD
ROOT
HETATM    1  C   UNL     1      -9.335  10.338  64.787  1.00  0.00    -0.260 C  
HETATM    2  O   UNL     1     -10.316   9.875  65.720  1.00  0.00    -0.221 OA 
ENDROOT
BRANCH   2   3
HETATM    3  C   UNL     1     -10.911  10.879  66.455  1.00  0.00    -0.145 A  
HETATM    4  C   UNL     1     -10.951  10.722  67.861  1.00  0.00    -0.289 A  
HETATM    5  C   UNL     1     -11.459  11.773  68.635  1.00  0.00    -0.346 A  
HETATM    6  C   UNL     1     -12.036  13.008  66.636  1.00  0.00    -0.387 A  
HETATM    7  C   UNL     1     -11.997  12.914  68.026  1.00  0.00    -0.323 A  
HETATM    8  C   UNL     1     -11.495  11.996  65.850  1.00  0.00    -0.392 A  
BRANCH   4   9
HETATM    9  N   UNL     1     -10.520   9.513  68.444  1.00  0.00    -0.217 NA 
HETATM   10  H   UNL     1     -10.895   8.692  67.968  1.00  0.00     0.000 HD 
BRANCH   9  11
HETATM   11  C   UNL     1      -9.678   9.173  69.546  1.00  0.00    -0.173 A  
HETATM   12  C   UNL     1      -9.714   8.077  73.074  1.00  0.00    -0.348 A  
HETATM   13  C   UNL     1      -8.331   9.651  69.497  1.00  0.00    -0.154 A  
HETATM   14  C   UNL     1      -7.730  10.218  68.346  1.00  0.00    -0.093 A  
HETATM   15  C   UNL     1     -10.152   8.549  70.738  1.00  0.00    -0.237 A  
HETATM   16  C   UNL     1      -6.403  10.648  68.350  1.00  0.00    -0.054 A  
HETATM   17  C   UNL     1      -9.276   8.558  71.846  1.00  0.00    -0.255 A  
HETATM   18  C   UNL     1     -11.429   7.957  70.925  1.00  0.00    -0.294 A  
HETATM   19  C   UNL     1      -5.649  10.528  69.507  1.00  0.00    -0.038 A  
HETATM   20  C   UNL     1     -11.831   7.432  72.155  1.00  0.00    -0.323 A  
HETATM   21  C   UNL     1     -10.981   7.521  73.244  1.00  0.00    -0.362 A  
HETATM   22  C   UNL     1      -6.232   9.979  70.649  1.00  0.00    -0.103 A  
HETATM   23  C   UNL     1      -7.551   9.541  70.662  1.00  0.00    -0.122 A  
HETATM   24  N   UNL     1      -8.026   9.034  71.804  1.00  0.00    -0.349 NA 
ENDBRANCH   9  11
ENDBRANCH   4   9
BRANCH   6  25
HETATM   25  N   UNL     1     -12.677  14.099  65.975  1.00  0.00    -0.478 N  
HETATM   26  H   UNL     1     -13.426  14.627  66.423  1.00  0.00     0.000 HD 
BRANCH  25  27
HETATM   27  S   UNL     1     -12.142  14.477  64.416  1.00  0.00    -0.414 S  
HETATM   28  C   UNL     1     -10.383  14.210  64.581  1.00  0.00    -0.266 C  
HETATM   29  O   UNL     1     -12.358  15.899  64.268  1.00  0.00    -0.491 OA 
HETATM   30  O   UNL     1     -12.671  13.534  63.457  1.00  0.00    -0.697 OA 
ENDBRANCH  25  27
ENDBRANCH   6  25
ENDBRANCH   2   3
TORSDOF 5
ENDMDL
MODEL      113
REMARK 921   NORMALIZED FREE ENERGY PREDICTED BY IDOCK:   -5.54 KCAL/MOL
REMARK 922        TOTAL FREE ENERGY PREDICTED BY IDOCK:   -7.69 KCAL/MOL
REMARK 923 INTER-LIGAND FREE ENERGY PREDICTED BY IDOCK:   -7.41 KCAL/MOL
REMARK 924 INTRA-LIGAND FREE ENERGY PREDICTED BY IDOCK:   -0.28 KCAL/MOL
REMARK 927      BINDING AFFINITY PREDICTED BY RF-SCORE:    0.00 PKD
ROOT
HETATM    1  C   UNL     1     -12.152  12.727  70.060  1.00  0.00    -0.285 C  
HETATM    2  O   UNL     1     -11.932  11.685  69.103  1.00  0.00    -0.323 OA 
ENDROOT
BRANCH   2   3
HETATM    3  C   UNL     1     -11.186  10.630  69.583  1.00  0.00    -0.289 A  
HETATM    4  C   UNL     1      -9.974  10.331  68.917  1.00  0.00    -0.201 A  
HETATM    5  C   UNL     1      -9.151   9.329  69.446  1.00  0.00    -0.152 A  
HETATM    6  C   UNL     1     -10.803   8.825  71.141  1.00  0.00    -0.268 A  
HETATM    7  C   UNL     1      -9.561   8.580  70.557  1.00  0.00    -0.194 A  
HETATM    8  C   UNL     1     -11.615   9.846  70.659  1.00  0.00    -0.413 A  
BRANCH   4   9
HETATM    9  N   UNL     1      -9.641  11.013  67.729  1.00  0.00    -0.167 NA 
HETATM   10  H   UNL     1      -9.361  10.380  66.979  1.00  0.00     0.000 HD 
BRANCH   9  11
HETATM   11  C   UNL     1      -9.606  12.384  67.334  1.00  0.00    -0.184 A  
HETATM   12  C   UNL     1     -11.000  14.809  64.920  1.00  0.00    -0.425 A  
HETATM   13  C   UNL     1      -8.466  13.143  67.746  1.00  0.00    -0.185 A  
HETATM   14  C   UNL     1      -7.516  12.695  68.697  1.00  0.00    -0.094 A  
HETATM   15  C   UNL     1     -10.540  12.970  66.427  1.00  0.00    -0.294 A  
HETATM   16  C   UNL     1      -6.433  13.488  69.078  1.00  0.00    -0.107 A  
HETATM   17  C   UNL     1     -10.199  14.234  65.899  1.00  0.00    -0.324 A  
HETATM   18  C   UNL     1     -11.754  12.384  65.980  1.00  0.00    -0.469 A  
HETATM   19  C   UNL     1      -6.272  14.743  68.511  1.00  0.00    -0.088 A  
HETATM   20  C   UNL     1     -12.572  13.005  65.032  1.00  0.00    -0.515 A  
HETATM   21  C   UNL     1     -12.176  14.209  64.475  1.00  0.00    -0.468 A  
HETATM   22  C   UNL     1      -7.197  15.191  67.568  1.00  0.00    -0.227 A  
HETATM   23  C   UNL     1      -8.284  14.417  67.180  1.00  0.00    -0.178 A  
HETATM   24  N   UNL     1      -9.115  14.927  66.265  1.00  0.00    -0.266 NA 
ENDBRANCH   9  11
ENDBRANCH   4   9
BRANCH   6  25
HETATM   25  N   UNL     1     -11.308   8.010  72.199  1.00  0.00    -0.302 N  
HETATM   26  H   UNL     1     -11.248   8.305  73.173  1.00  0.00     0.000 HD 
BRANCH  25  27
HETATM   27  S   UNL     1     -12.012   6.535  71.767  1.00  0.00    -0.325 S  
HETATM   28  C   UNL     1     -11.011   5.387  72.702  1.00  0.00    -0.268 C  
HETATM   29  O   UNL     1     -11.697   6.352  70.367  1.00  0.00    -0.396 OA 
HETATM   30  O   UNL     1     -13.374   6.465  72.244  1.00  0.00    -0.000 OA 
ENDBRANCH  25  27
ENDBRANCH   6  25
ENDBRANCH   2   3
TORSDOF 5
ENDMDL
MODEL      114
REMARK 921   NORMALIZED FREE ENERGY PREDICTED BY IDOCK:   -5.53 KCAL/MOL
REMARK 922        TOTAL FREE ENERGY PREDICTED BY IDOCK:   -7.68 KCAL/MOL
REMARK 923 INTER-LIGAND FREE ENERGY PREDICTED BY IDOCK:   -7.75 KCAL/MOL
REMARK 924 INTRA-LIGAND FREE ENERGY PREDICTED BY IDOCK:    0.07 KCAL/MOL
REMARK 927      BINDING AFFINITY PREDICTED BY RF-SCORE:    0.00 PKD
ROOT
HETATM    1  C   UNL     1     -12.798  10.868  70.637  1.00  0.00    -0.255 C  
HETATM    2  O   UNL     1     -11.437  10.663  70.243  1.00  0.00    -0.295 OA 
ENDROOT
BRANCH   2   3
HETATM    3  C   UNL     1     -11.204  10.868  68.899  1.00  0.00    -0.267 A  
HETATM    4  C   UNL     1     -10.403   9.916  68.224  1.00  0.00    -0.201 A  
HETATM    5  C   UNL     1     -10.235  10.048  66.839  1.00  0.00    -0.299 A  
HETATM    6  C   UNL     1     -11.480  12.123  66.855  1.00  0.00    -0.351 A  
HETATM    7  C   UNL     1     -10.774  11.146  66.155  1.00  0.00    -0.285 A  
HETATM    8  C   UNL     1     -11.696  11.988  68.222  1.00  0.00    -0.396 A  
BRANCH   4   9
HETATM    9  N   UNL     1      -9.767   8.891  68.953  1.00  0.00    -0.168 NA 
HETATM   10  H   UNL     1      -8.860   9.177  69.323  1.00  0.00     0.000 HD 
BRANCH   9  11
HETATM   11  C   UNL     1     -10.101   7.545  69.293  1.00  0.00    -0.188 A  
HETATM   12  C   UNL     1     -10.767   5.286  72.140  1.00  0.00    -0.271 A  
HETATM   13  C   UNL     1      -9.840   6.548  68.302  1.00  0.00    -0.132 A  
HETATM   14  C   UNL     1      -9.506   6.836  66.955  1.00  0.00    -0.189 A  
HETATM   15  C   UNL     1     -10.506   7.137  70.599  1.00  0.00    -0.226 A  
HETATM   16  C   UNL     1      -9.283   5.821  66.024  1.00  0.00    -0.155 A  
HETATM   17  C   UNL     1     -10.502   5.749  70.857  1.00  0.00    -0.252 A  
HETATM   18  C   UNL     1     -10.873   7.996  71.670  1.00  0.00    -0.288 A  
HETATM   19  C   UNL     1      -9.381   4.496  66.421  1.00  0.00    -0.152 A  
HETATM   20  C   UNL     1     -11.187   7.505  72.939  1.00  0.00    -0.396 A  
HETATM   21  C   UNL     1     -11.102   6.146  73.184  1.00  0.00    -0.214 A  
HETATM   22  C   UNL     1      -9.701   4.201  67.746  1.00  0.00    -0.168 A  
HETATM   23  C   UNL     1      -9.931   5.199  68.685  1.00  0.00    -0.158 A  
HETATM   24  N   UNL     1     -10.227   4.821  69.934  1.00  0.00    -0.235 NA 
ENDBRANCH   9  11
ENDBRANCH   4   9
BRANCH   6  25
HETATM   25  N   UNL     1     -11.946  13.313  66.218  1.00  0.00    -0.403 N  
HETATM   26  H   UNL     1     -12.333  14.088  66.756  1.00  0.00     0.000 HD 
BRANCH  25  27
HETATM   27  S   UNL     1     -11.828  13.381  64.533  1.00  0.00    -0.420 S  
HETATM   28  C   UNL     1     -12.049  15.130  64.242  1.00  0.00    -0.261 C  
HETATM   29  O   UNL     1     -13.004  12.702  64.036  1.00  0.00    -0.712 OA 
HETATM   30  O   UNL     1     -10.503  12.998  64.103  1.00  0.00    -0.413 OA 
ENDBRANCH  25  27
ENDBRANCH   6  25
ENDBRANCH   2   3
TORSDOF 5
ENDMDL
MODEL      115
REMARK 921   NORMALIZED FREE ENERGY PREDICTED BY IDOCK:   -5.52 KCAL/MOL
REMARK 922        TOTAL FREE ENERGY PREDICTED BY IDOCK:   -7.67 KCAL/MOL
REMARK 923 INTER-LIGAND FREE ENERGY PREDICTED BY IDOCK:   -6.99 KCAL/MOL
REMARK 924 INTRA-LIGAND FREE ENERGY PREDICTED BY IDOCK:   -0.68 KCAL/MOL
REMARK 927      BINDING AFFINITY PREDICTED BY RF-SCORE:    0.00 PKD
ROOT
HETATM    1  C   UNL     1      -7.128  12.326  67.078  1.00  0.00    -0.037 C  
HETATM    2  O   UNL     1      -7.906  12.061  68.250  1.00  0.00    -0.130 OA 
ENDROOT
BRANCH   2   3
HETATM    3  C   UNL     1      -9.260  12.256  68.082  1.00  0.00    -0.197 A  
HETATM    4  C   UNL     1     -10.134  11.342  68.718  1.00  0.00    -0.188 A  
HETATM    5  C   UNL     1     -11.513  11.577  68.645  1.00  0.00    -0.354 A  
HETATM    6  C   UNL     1     -11.144  13.472  67.186  1.00  0.00    -0.293 A  
HETATM    7  C   UNL     1     -12.018  12.640  67.885  1.00  0.00    -0.307 A  
HETATM    8  C   UNL     1      -9.770  13.283  67.283  1.00  0.00    -0.231 A  
BRANCH   4   9
HETATM    9  N   UNL     1      -9.609  10.209  69.372  1.00  0.00    -0.223 NA 
HETATM   10  H   UNL     1      -8.970  10.453  70.128  1.00  0.00     0.000 HD 
BRANCH   9  11
HETATM   11  C   UNL     1      -9.766   8.798  69.218  1.00  0.00    -0.172 A  
HETATM   12  C   UNL     1      -9.846   6.080  66.717  1.00  0.00    -0.198 A  
HETATM   13  C   UNL     1     -10.402   8.102  70.293  1.00  0.00    -0.209 A  
HETATM   14  C   UNL     1     -10.662   8.670  71.565  1.00  0.00    -0.352 A  
HETATM   15  C   UNL     1      -9.486   8.099  68.006  1.00  0.00    -0.155 A  
HETATM   16  C   UNL     1     -11.267   7.936  72.585  1.00  0.00    -0.459 A  
HETATM   17  C   UNL     1      -9.976   6.778  67.912  1.00  0.00    -0.141 A  
HETATM   18  C   UNL     1      -8.796   8.619  66.879  1.00  0.00    -0.147 A  
HETATM   19  C   UNL     1     -11.634   6.619  72.354  1.00  0.00    -0.281 A  
HETATM   20  C   UNL     1      -8.631   7.880  65.705  1.00  0.00    -0.159 A  
HETATM   21  C   UNL     1      -9.188   6.616  65.613  1.00  0.00     0.151 A  
HETATM   22  C   UNL     1     -11.392   6.051  71.103  1.00  0.00    -0.300 A  
HETATM   23  C   UNL     1     -10.785   6.766  70.077  1.00  0.00    -0.247 A  
HETATM   24  N   UNL     1     -10.599   6.141  68.910  1.00  0.00    -0.243 NA 
ENDBRANCH   9  11
ENDBRANCH   4   9
BRANCH   6  25
HETATM   25  N   UNL     1     -11.620  14.494  66.310  1.00  0.00    -0.363 N  
HETATM   26  H   UNL     1     -11.870  15.419  66.657  1.00  0.00     0.000 HD 
BRANCH  25  27
HETATM   27  S   UNL     1     -11.752  14.102  64.670  1.00  0.00    -0.428 S  
HETATM   28  C   UNL     1     -12.429  12.451  64.763  1.00  0.00    -0.401 C  
HETATM   29  O   UNL     1     -10.393  13.992  64.189  1.00  0.00    -0.131 OA 
HETATM   30  O   UNL     1     -12.711  14.966  64.019  1.00  0.00    -0.792 OA 
ENDBRANCH  25  27
ENDBRANCH   6  25
ENDBRANCH   2   3
TORSDOF 5
ENDMDL
MODEL      116
REMARK 921   NORMALIZED FREE ENERGY PREDICTED BY IDOCK:   -5.51 KCAL/MOL
REMARK 922        TOTAL FREE ENERGY PREDICTED BY IDOCK:   -7.65 KCAL/MOL
REMARK 923 INTER-LIGAND FREE ENERGY PREDICTED BY IDOCK:   -7.09 KCAL/MOL
REMARK 924 INTRA-LIGAND FREE ENERGY PREDICTED BY IDOCK:   -0.56 KCAL/MOL
REMARK 927      BINDING AFFINITY PREDICTED BY RF-SCORE:    0.00 PKD
ROOT
HETATM    1  C   UNL     1      -7.225   9.601  68.166  1.00  0.00    -0.080 C  
HETATM    2  O   UNL     1      -8.449   9.442  67.441  1.00  0.00    -0.124 OA 
ENDROOT
BRANCH   2   3
HETATM    3  C   UNL     1      -9.378  10.431  67.684  1.00  0.00    -0.148 A  
HETATM    4  C   UNL     1     -10.700  10.024  67.984  1.00  0.00    -0.256 A  
HETATM    5  C   UNL     1     -11.637  11.005  68.332  1.00  0.00    -0.372 A  
HETATM    6  C   UNL     1     -10.016  12.749  67.904  1.00  0.00    -0.229 A  
HETATM    7  C   UNL     1     -11.297  12.364  68.296  1.00  0.00    -0.332 A  
HETATM    8  C   UNL     1      -9.057  11.789  67.599  1.00  0.00    -0.177 A  
BRANCH   4   9
HETATM    9  N   UNL     1     -11.053   8.662  67.891  1.00  0.00    -0.408 NA 
HETATM   10  H   UNL     1     -11.542   8.441  67.023  1.00  0.00     0.000 HD 
BRANCH   9  11
HETATM   11  C   UNL     1     -10.882   7.521  68.732  1.00  0.00    -0.015 A  
HETATM   12  C   UNL     1     -10.407   6.471  72.242  1.00  0.00    -0.212 A  
HETATM   13  C   UNL     1     -10.438   6.317  68.099  1.00  0.00    -0.278 A  
HETATM   14  C   UNL     1     -10.390   6.129  66.696  1.00  0.00    -0.249 A  
HETATM   15  C   UNL     1     -10.962   7.569  70.156  1.00  0.00    -0.267 A  
HETATM   16  C   UNL     1      -9.967   4.924  66.134  1.00  0.00    -0.252 A  
HETATM   17  C   UNL     1     -10.472   6.444  70.854  1.00  0.00    -0.228 A  
HETATM   18  C   UNL     1     -11.451   8.654  70.932  1.00  0.00    -0.315 A  
HETATM   19  C   UNL     1      -9.576   3.883  66.963  1.00  0.00    -0.227 A  
HETATM   20  C   UNL     1     -11.424   8.638  72.328  1.00  0.00    -0.423 A  
HETATM   21  C   UNL     1     -10.869   7.554  72.986  1.00  0.00    -0.445 A  
HETATM   22  C   UNL     1      -9.611   4.060  68.346  1.00  0.00    -0.186 A  
HETATM   23  C   UNL     1     -10.034   5.252  68.923  1.00  0.00    -0.180 A  
HETATM   24  N   UNL     1     -10.029   5.332  70.258  1.00  0.00    -0.219 NA 
ENDBRANCH   9  11
ENDBRANCH   4   9
BRANCH   6  25
HETATM   25  N   UNL     1      -9.662  14.123  67.744  1.00  0.00    -0.219 N  
HETATM   26  H   UNL     1      -8.756  14.479  68.048  1.00  0.00     0.000 HD 
BRANCH  25  27
HETATM   27  S   UNL     1     -10.811  15.135  67.026  1.00  0.00    -0.315 S  
HETATM   28  C   UNL     1      -9.803  16.543  66.585  1.00  0.00    -0.268 C  
HETATM   29  O   UNL     1     -11.689  15.544  68.099  1.00  0.00    -0.342 OA 
HETATM   30  O   UNL     1     -11.331  14.535  65.819  1.00  0.00    -0.328 OA 
ENDBRANCH  25  27
ENDBRANCH   6  25
ENDBRANCH   2   3
TORSDOF 5
ENDMDL
MODEL      117
REMARK 921   NORMALIZED FREE ENERGY PREDICTED BY IDOCK:   -5.48 KCAL/MOL
REMARK 922        TOTAL FREE ENERGY PREDICTED BY IDOCK:   -7.62 KCAL/MOL
REMARK 923 INTER-LIGAND FREE ENERGY PREDICTED BY IDOCK:   -6.72 KCAL/MOL
REMARK 924 INTRA-LIGAND FREE ENERGY PREDICTED BY IDOCK:   -0.90 KCAL/MOL
REMARK 927      BINDING AFFINITY PREDICTED BY RF-SCORE:    0.00 PKD
ROOT
HETATM    1  C   UNL     1     -11.619   9.725  71.348  1.00  0.00    -0.378 C  
HETATM    2  O   UNL     1     -10.731  10.333  70.404  1.00  0.00    -0.292 OA 
ENDROOT
BRANCH   2   3
HETATM    3  C   UNL     1     -10.586   9.622  69.231  1.00  0.00    -0.219 A  
HETATM    4  C   UNL     1     -10.395  10.362  68.040  1.00  0.00    -0.179 A  
HETATM    5  C   UNL     1     -10.145   9.662  66.853  1.00  0.00    -0.290 A  
HETATM    6  C   UNL     1     -10.457   7.552  67.996  1.00  0.00    -0.197 A  
HETATM    7  C   UNL     1     -10.172   8.261  66.830  1.00  0.00    -0.388 A  
HETATM    8  C   UNL     1     -10.663   8.227  69.194  1.00  0.00    -0.117 A  
BRANCH   4   9
HETATM    9  N   UNL     1     -10.497  11.768  68.064  1.00  0.00    -0.193 NA 
HETATM   10  H   UNL     1     -11.192  12.100  68.734  1.00  0.00     0.000 HD 
BRANCH   9  11
HETATM   11  C   UNL     1      -9.853  12.834  67.366  1.00  0.00    -0.210 A  
HETATM   12  C   UNL     1      -6.946  15.112  67.466  1.00  0.00    -0.220 A  
HETATM   13  C   UNL     1     -10.652  13.568  66.434  1.00  0.00    -0.283 A  
HETATM   14  C   UNL     1     -11.939  13.163  65.999  1.00  0.00    -0.488 A  
HETATM   15  C   UNL     1      -8.539  13.298  67.672  1.00  0.00    -0.196 A  
HETATM   16  C   UNL     1     -12.665  13.909  65.071  1.00  0.00    -0.372 A  
HETATM   17  C   UNL     1      -8.163  14.540  67.114  1.00  0.00    -0.188 A  
HETATM   18  C   UNL     1      -7.594  12.650  68.511  1.00  0.00    -0.121 A  
HETATM   19  C   UNL     1     -12.126  15.082  64.564  1.00  0.00    -0.373 A  
HETATM   20  C   UNL     1      -6.354  13.219  68.810  1.00  0.00    -0.094 A  
HETATM   21  C   UNL     1      -6.042  14.471  68.311  1.00  0.00    -0.118 A  
HETATM   22  C   UNL     1     -10.865  15.495  64.992  1.00  0.00    -0.468 A  
HETATM   23  C   UNL     1     -10.125  14.761  65.912  1.00  0.00    -0.321 A  
HETATM   24  N   UNL     1      -8.927  15.239  66.268  1.00  0.00    -0.302 NA 
ENDBRANCH   9  11
ENDBRANCH   4   9
BRANCH   6  25
HETATM   25  N   UNL     1     -10.607   6.132  67.993  1.00  0.00    -0.238 N  
HETATM   26  H   UNL     1     -11.517   5.693  67.855  1.00  0.00     0.000 HD 
BRANCH  25  27
HETATM   27  S   UNL     1      -9.210   5.209  68.228  1.00  0.00    -0.121 S  
HETATM   28  C   UNL     1      -8.589   5.091  66.556  1.00  0.00    -0.110 C  
HETATM   29  O   UNL     1      -9.675   3.896  68.616  1.00  0.00    -0.141 OA 
HETATM   30  O   UNL     1      -8.254   5.934  69.033  1.00  0.00    -0.101 OA 
ENDBRANCH  25  27
ENDBRANCH   6  25
ENDBRANCH   2   3
TORSDOF 5
ENDMDL
MODEL      118
REMARK 921   NORMALIZED FREE ENERGY PREDICTED BY IDOCK:   -5.46 KCAL/MOL
REMARK 922        TOTAL FREE ENERGY PREDICTED BY IDOCK:   -7.59 KCAL/MOL
REMARK 923 INTER-LIGAND FREE ENERGY PREDICTED BY IDOCK:   -6.90 KCAL/MOL
REMARK 924 INTRA-LIGAND FREE ENERGY PREDICTED BY IDOCK:   -0.69 KCAL/MOL
REMARK 927      BINDING AFFINITY PREDICTED BY RF-SCORE:    0.00 PKD
ROOT
HETATM    1  C   UNL     1      -5.276  16.109  70.664  1.00  0.00    -0.178 C  
HETATM    2  O   UNL     1      -6.063  15.732  69.529  1.00  0.00    -0.130 OA 
ENDROOT
BRANCH   2   3
HETATM    3  C   UNL     1      -6.847  16.748  69.026  1.00  0.00    -0.218 A  
HETATM    4  C   UNL     1      -8.250  16.581  69.088  1.00  0.00    -0.159 A  
HETATM    5  C   UNL     1      -9.068  17.641  68.676  1.00  0.00    -0.261 A  
HETATM    6  C   UNL     1      -7.126  18.911  67.989  1.00  0.00    -0.238 A  
HETATM    7  C   UNL     1      -8.509  18.805  68.131  1.00  0.00    -0.335 A  
HETATM    8  C   UNL     1      -6.295  17.889  68.435  1.00  0.00    -0.191 A  
BRANCH   4   9
HETATM    9  N   UNL     1      -8.791  15.354  69.522  1.00  0.00    -0.338 NA 
HETATM   10  H   UNL     1      -8.154  14.836  70.128  1.00  0.00     0.000 HD 
BRANCH   9  11
HETATM   11  C   UNL     1     -10.026  14.668  69.309  1.00  0.00    -0.091 A  
HETATM   12  C   UNL     1     -11.988  12.813  66.788  1.00  0.00    -0.389 A  
HETATM   13  C   UNL     1     -11.093  14.970  70.213  1.00  0.00    -0.261 A  
HETATM   14  C   UNL     1     -10.932  15.703  71.415  1.00  0.00    -0.150 A  
HETATM   15  C   UNL     1     -10.291  13.855  68.167  1.00  0.00    -0.247 A  
HETATM   16  C   UNL     1     -12.006  15.949  72.270  1.00  0.00    -0.617 A  
HETATM   17  C   UNL     1     -11.640  13.500  67.944  1.00  0.00    -0.342 A  
HETATM   18  C   UNL     1      -9.335  13.403  67.219  1.00  0.00    -0.233 A  
HETATM   19  C   UNL     1     -13.267  15.475  71.938  1.00  0.00    -0.553 A  
HETATM   20  C   UNL     1      -9.700  12.667  66.090  1.00  0.00    -0.253 A  
HETATM   21  C   UNL     1     -11.038  12.398  65.856  1.00  0.00    -0.349 A  
HETATM   22  C   UNL     1     -13.438  14.759  70.754  1.00  0.00    -0.233 A  
HETATM   23  C   UNL     1     -12.379  14.501  69.893  1.00  0.00    -0.298 A  
HETATM   24  N   UNL     1     -12.639  13.811  68.776  1.00  0.00     0.259 NA 
ENDBRANCH   9  11
ENDBRANCH   4   9
BRANCH   6  25
HETATM   25  N   UNL     1      -6.523  20.028  67.336  1.00  0.00    -0.201 N  
HETATM   26  H   UNL     1      -6.093  20.786  67.865  1.00  0.00     0.000 HD 
BRANCH  25  27
HETATM   27  S   UNL     1      -6.550  20.038  65.645  1.00  0.00    -0.271 S  
HETATM   28  C   UNL     1      -5.736  18.491  65.277  1.00  0.00    -0.220 C  
HETATM   29  O   UNL     1      -5.660  21.107  65.251  1.00  0.00    -0.223 OA 
HETATM   30  O   UNL     1      -7.911  19.978  65.161  1.00  0.00    -0.181 OA 
ENDBRANCH  25  27
ENDBRANCH   6  25
ENDBRANCH   2   3
TORSDOF 5
ENDMDL
MODEL      119
REMARK 921   NORMALIZED FREE ENERGY PREDICTED BY IDOCK:   -5.41 KCAL/MOL
REMARK 922        TOTAL FREE ENERGY PREDICTED BY IDOCK:   -7.53 KCAL/MOL
REMARK 923 INTER-LIGAND FREE ENERGY PREDICTED BY IDOCK:   -7.34 KCAL/MOL
REMARK 924 INTRA-LIGAND FREE ENERGY PREDICTED BY IDOCK:   -0.18 KCAL/MOL
REMARK 927      BINDING AFFINITY PREDICTED BY RF-SCORE:    0.00 PKD
ROOT
HETATM    1  C   UNL     1      -7.508   9.307  67.788  1.00  0.00    -0.088 C  
HETATM    2  O   UNL     1      -8.601   9.331  66.864  1.00  0.00    -0.125 OA 
ENDROOT
BRANCH   2   3
HETATM    3  C   UNL     1      -9.543  10.301  67.135  1.00  0.00    -0.168 A  
HETATM    4  C   UNL     1     -10.777   9.876  67.683  1.00  0.00    -0.281 A  
HETATM    5  C   UNL     1     -11.711  10.850  68.059  1.00  0.00    -0.205 A  
HETATM    6  C   UNL     1     -10.284  12.598  67.187  1.00  0.00    -0.225 A  
HETATM    7  C   UNL     1     -11.465  12.207  67.816  1.00  0.00    -0.398 A  
HETATM    8  C   UNL     1      -9.324  11.651  66.847  1.00  0.00    -0.195 A  
BRANCH   4   9
HETATM    9  N   UNL     1     -11.054   8.499  67.802  1.00  0.00    -0.399 NA 
HETATM   10  H   UNL     1     -11.746   8.177  67.125  1.00  0.00     0.000 HD 
BRANCH   9  11
HETATM   11  C   UNL     1     -10.587   7.450  68.652  1.00  0.00    -0.154 A  
HETATM   12  C   UNL     1      -9.412   3.948  68.665  1.00  0.00    -0.217 A  
HETATM   13  C   UNL     1     -10.902   7.563  70.042  1.00  0.00    -0.260 A  
HETATM   14  C   UNL     1     -11.423   8.734  70.647  1.00  0.00    -0.263 A  
HETATM   15  C   UNL     1      -9.994   6.246  68.168  1.00  0.00    -0.149 A  
HETATM   16  C   UNL     1     -11.691   8.794  72.015  1.00  0.00    -0.442 A  
HETATM   17  C   UNL     1      -9.869   5.187  69.095  1.00  0.00    -0.187 A  
HETATM   18  C   UNL     1      -9.554   6.002  66.840  1.00  0.00    -0.158 A  
HETATM   19  C   UNL     1     -11.452   7.681  72.807  1.00  0.00    -0.384 A  
HETATM   20  C   UNL     1      -9.049   4.763  66.441  1.00  0.00    -0.119 A  
HETATM   21  C   UNL     1      -9.008   3.720  67.351  1.00  0.00    -0.159 A  
HETATM   22  C   UNL     1     -10.947   6.520  72.222  1.00  0.00    -0.281 A  
HETATM   23  C   UNL     1     -10.670   6.445  70.862  1.00  0.00    -0.250 A  
HETATM   24  N   UNL     1     -10.193   5.288  70.388  1.00  0.00    -0.251 NA 
ENDBRANCH   9  11
ENDBRANCH   4   9
BRANCH   6  25
HETATM   25  N   UNL     1     -10.044  13.957  66.818  1.00  0.00    -0.259 N  
HETATM   26  H   UNL     1      -9.542  14.595  67.434  1.00  0.00     0.000 HD 
BRANCH  25  27
HETATM   27  S   UNL     1     -10.630  14.460  65.314  1.00  0.00    -0.409 S  
HETATM   28  C   UNL     1     -12.394  14.323  65.566  1.00  0.00    -0.408 C  
HETATM   29  O   UNL     1     -10.239  13.427  64.381  1.00  0.00    -0.401 OA 
HETATM   30  O   UNL     1     -10.297  15.847  65.080  1.00  0.00    -0.508 OA 
ENDBRANCH  25  27
ENDBRANCH   6  25
ENDBRANCH   2   3
TORSDOF 5
ENDMDL
MODEL      120
REMARK 921   NORMALIZED FREE ENERGY PREDICTED BY IDOCK:   -5.41 KCAL/MOL
REMARK 922        TOTAL FREE ENERGY PREDICTED BY IDOCK:   -7.52 KCAL/MOL
REMARK 923 INTER-LIGAND FREE ENERGY PREDICTED BY IDOCK:   -6.87 KCAL/MOL
REMARK 924 INTRA-LIGAND FREE ENERGY PREDICTED BY IDOCK:   -0.65 KCAL/MOL
REMARK 927      BINDING AFFINITY PREDICTED BY RF-SCORE:    0.00 PKD
ROOT
HETATM    1  C   UNL     1      -6.202  11.631  68.468  1.00  0.00    -0.051 C  
HETATM    2  O   UNL     1      -7.506  12.133  68.780  1.00  0.00    -0.114 OA 
ENDROOT
BRANCH   2   3
HETATM    3  C   UNL     1      -8.535  11.294  68.409  1.00  0.00    -0.153 A  
HETATM    4  C   UNL     1      -9.561  11.837  67.601  1.00  0.00    -0.183 A  
HETATM    5  C   UNL     1     -10.563  10.980  67.129  1.00  0.00    -0.294 A  
HETATM    6  C   UNL     1      -9.630   9.142  68.397  1.00  0.00    -0.151 A  
HETATM    7  C   UNL     1     -10.597   9.636  67.522  1.00  0.00    -0.339 A  
HETATM    8  C   UNL     1      -8.601   9.965  68.840  1.00  0.00    -0.135 A  
BRANCH   4   9
HETATM    9  N   UNL     1      -9.576  13.219  67.322  1.00  0.00    -0.227 NA 
HETATM   10  H   UNL     1      -9.183  13.439  66.406  1.00  0.00     0.000 HD 
BRANCH   9  11
HETATM   11  C   UNL     1     -10.014  14.381  68.026  1.00  0.00    -0.225 A  
HETATM   12  C   UNL     1     -12.510  15.607  70.459  1.00  0.00    -0.440 A  
HETATM   13  C   UNL     1      -9.620  15.646  67.487  1.00  0.00    -0.224 A  
HETATM   14  C   UNL     1      -8.651  15.807  66.466  1.00  0.00    -0.343 A  
HETATM   15  C   UNL     1     -10.943  14.346  69.108  1.00  0.00    -0.288 A  
HETATM   16  C   UNL     1      -8.289  17.069  65.993  1.00  0.00    -0.180 A  
HETATM   17  C   UNL     1     -11.510  15.581  69.495  1.00  0.00    -0.333 A  
HETATM   18  C   UNL     1     -11.378  13.186  69.803  1.00  0.00    -0.120 A  
HETATM   19  C   UNL     1      -8.895  18.197  66.524  1.00  0.00    -0.286 A  
HETATM   20  C   UNL     1     -12.349  13.242  70.806  1.00  0.00    -0.425 A  
HETATM   21  C   UNL     1     -12.941  14.455  71.113  1.00  0.00    -0.419 A  
HETATM   22  C   UNL     1      -9.857  18.050  67.524  1.00  0.00    -0.309 A  
HETATM   23  C   UNL     1     -10.225  16.802  68.011  1.00  0.00    -0.300 A  
HETATM   24  N   UNL     1     -11.160  16.759  68.966  1.00  0.00    -0.237 NA 
ENDBRANCH   9  11
ENDBRANCH   4   9
BRANCH   6  25
HETATM   25  N   UNL     1      -9.693   7.812  68.912  1.00  0.00    -0.158 N  
HETATM   26  H   UNL     1      -9.394   7.011  68.356  1.00  0.00     0.000 HD 
BRANCH  25  27
HETATM   27  S   UNL     1     -10.285   7.622  70.484  1.00  0.00    -0.203 S  
HETATM   28  C   UNL     1     -11.485   6.319  70.247  1.00  0.00    -0.358 C  
HETATM   29  O   UNL     1     -11.011   8.839  70.773  1.00  0.00    -0.230 OA 
HETATM   30  O   UNL     1      -9.242   7.145  71.363  1.00  0.00    -0.150 OA 
ENDBRANCH  25  27
ENDBRANCH   6  25
ENDBRANCH   2   3
TORSDOF 5
ENDMDL
MODEL      121
REMARK 921   NORMALIZED FREE ENERGY PREDICTED BY IDOCK:   -5.39 KCAL/MOL
REMARK 922        TOTAL FREE ENERGY PREDICTED BY IDOCK:   -7.49 KCAL/MOL
REMARK 923 INTER-LIGAND FREE ENERGY PREDICTED BY IDOCK:   -6.77 KCAL/MOL
REMARK 924 INTRA-LIGAND FREE ENERGY PREDICTED BY IDOCK:   -0.73 KCAL/MOL
REMARK 927      BINDING AFFINITY PREDICTED BY RF-SCORE:    0.00 PKD
ROOT
HETATM    1  C   UNL     1      -6.404   7.615  71.233  1.00  0.00    -0.035 C  
HETATM    2  O   UNL     1      -7.413   7.803  70.235  1.00  0.00    -0.076 OA 
ENDROOT
BRANCH   2   3
HETATM    3  C   UNL     1      -8.350   6.793  70.186  1.00  0.00    -0.135 A  
HETATM    4  C   UNL     1      -9.342   6.872  69.180  1.00  0.00    -0.140 A  
HETATM    5  C   UNL     1     -10.243   5.808  69.046  1.00  0.00    -0.282 A  
HETATM    6  C   UNL     1      -9.296   4.721  70.990  1.00  0.00    -0.148 A  
HETATM    7  C   UNL     1     -10.219   4.734  69.946  1.00  0.00    -0.238 A  
HETATM    8  C   UNL     1      -8.363   5.746  71.112  1.00  0.00    -0.123 A  
BRANCH   4   9
HETATM    9  N   UNL     1      -9.426   8.021  68.367  1.00  0.00    -0.144 NA 
HETATM   10  H   UNL     1      -8.835   7.959  67.538  1.00  0.00     0.000 HD 
BRANCH   9  11
HETATM   11  C   UNL     1     -10.148   9.251  68.439  1.00  0.00    -0.191 A  
HETATM   12  C   UNL     1     -12.730  11.065  70.360  1.00  0.00    -0.297 A  
HETATM   13  C   UNL     1     -10.192  10.040  67.247  1.00  0.00    -0.275 A  
HETATM   14  C   UNL     1      -9.388   9.800  66.105  1.00  0.00    -0.243 A  
HETATM   15  C   UNL     1     -10.948   9.634  69.556  1.00  0.00    -0.233 A  
HETATM   16  C   UNL     1      -9.458  10.617  64.976  1.00  0.00    -0.293 A  
HETATM   17  C   UNL     1     -11.835  10.715  69.357  1.00  0.00    -0.253 A  
HETATM   18  C   UNL     1     -10.964   9.007  70.831  1.00  0.00    -0.332 A  
HETATM   19  C   UNL     1     -10.340  11.687  64.960  1.00  0.00    -0.329 A  
HETATM   20  C   UNL     1     -11.837   9.409  71.844  1.00  0.00    -0.402 A  
HETATM   21  C   UNL     1     -12.747  10.422  71.596  1.00  0.00    -0.560 A  
HETATM   22  C   UNL     1     -11.143  11.927  66.075  1.00  0.00    -0.369 A  
HETATM   23  C   UNL     1     -11.082  11.127  67.210  1.00  0.00    -0.302 A  
HETATM   24  N   UNL     1     -11.895  11.430  68.228  1.00  0.00    -0.567 NA 
ENDBRANCH   9  11
ENDBRANCH   4   9
BRANCH   6  25
HETATM   25  N   UNL     1      -9.311   3.706  71.994  1.00  0.00    -0.114 N  
HETATM   26  H   UNL     1      -8.973   2.763  71.803  1.00  0.00     0.000 HD 
BRANCH  25  27
HETATM   27  S   UNL     1      -9.915   4.135  73.514  1.00  0.00    -0.136 S  
HETATM   28  C   UNL     1     -10.680   2.604  74.026  1.00  0.00    -0.182 C  
HETATM   29  O   UNL     1     -10.972   5.088  73.254  1.00  0.00    -0.264 OA 
HETATM   30  O   UNL     1      -8.833   4.444  74.419  1.00  0.00    -0.104 OA 
ENDBRANCH  25  27
ENDBRANCH   6  25
ENDBRANCH   2   3
TORSDOF 5
ENDMDL
MODEL      122
REMARK 921   NORMALIZED FREE ENERGY PREDICTED BY IDOCK:   -5.38 KCAL/MOL
REMARK 922        TOTAL FREE ENERGY PREDICTED BY IDOCK:   -7.49 KCAL/MOL
REMARK 923 INTER-LIGAND FREE ENERGY PREDICTED BY IDOCK:   -7.40 KCAL/MOL
REMARK 924 INTRA-LIGAND FREE ENERGY PREDICTED BY IDOCK:   -0.08 KCAL/MOL
REMARK 927      BINDING AFFINITY PREDICTED BY RF-SCORE:    0.00 PKD
ROOT
HETATM    1  C   UNL     1     -14.270   8.152  72.058  1.00  0.00    -0.398 C  
HETATM    2  O   UNL     1     -13.142   7.446  71.530  1.00  0.00    -0.359 OA 
ENDROOT
BRANCH   2   3
HETATM    3  C   UNL     1     -12.104   8.262  71.132  1.00  0.00    -0.252 A  
HETATM    4  C   UNL     1     -10.829   7.667  70.979  1.00  0.00    -0.242 A  
HETATM    5  C   UNL     1      -9.782   8.453  70.480  1.00  0.00    -0.192 A  
HETATM    6  C   UNL     1     -11.210  10.406  70.472  1.00  0.00    -0.314 A  
HETATM    7  C   UNL     1      -9.972   9.817  70.224  1.00  0.00    -0.309 A  
HETATM    8  C   UNL     1     -12.275   9.634  70.925  1.00  0.00    -0.368 A  
BRANCH   4   9
HETATM    9  N   UNL     1     -10.631   6.325  71.363  1.00  0.00    -0.229 NA 
HETATM   10  H   UNL     1     -10.860   6.159  72.343  1.00  0.00     0.000 HD 
BRANCH   9  11
HETATM   11  C   UNL     1     -10.183   5.145  70.695  1.00  0.00    -0.256 A  
HETATM   12  C   UNL     1      -8.118   2.110  71.106  1.00  0.00    -0.054 A  
HETATM   13  C   UNL     1     -10.252   5.150  69.266  1.00  0.00    -0.276 A  
HETATM   14  C   UNL     1     -10.939   6.130  68.507  1.00  0.00    -0.404 A  
HETATM   15  C   UNL     1      -9.528   4.063  71.355  1.00  0.00    -0.230 A  
HETATM   16  C   UNL     1     -10.991   6.073  67.114  1.00  0.00    -0.360 A  
HETATM   17  C   UNL     1      -8.877   3.120  70.529  1.00  0.00    -0.085 A  
HETATM   18  C   UNL     1      -9.438   3.869  72.759  1.00  0.00    -0.162 A  
HETATM   19  C   UNL     1     -10.350   5.039  66.448  1.00  0.00    -0.335 A  
HETATM   20  C   UNL     1      -8.712   2.814  73.317  1.00  0.00    -0.079 A  
HETATM   21  C   UNL     1      -8.021   1.949  72.486  1.00  0.00    -0.052 A  
HETATM   22  C   UNL     1      -9.663   4.074  67.184  1.00  0.00    -0.207 A  
HETATM   23  C   UNL     1      -9.605   4.113  68.572  1.00  0.00    -0.125 A  
HETATM   24  N   UNL     1      -8.918   3.147  69.193  1.00  0.00    -0.108 NA 
ENDBRANCH   9  11
ENDBRANCH   4   9
BRANCH   6  25
HETATM   25  N   UNL     1     -11.414  11.812  70.335  1.00  0.00    -0.457 N  
HETATM   26  H   UNL     1     -11.448  12.427  71.147  1.00  0.00     0.000 HD 
BRANCH  25  27
HETATM   27  S   UNL     1     -11.596  12.414  68.765  1.00  0.00    -0.345 S  
HETATM   28  C   UNL     1      -9.896  12.736  68.319  1.00  0.00    -0.224 C  
HETATM   29  O   UNL     1     -12.260  13.690  68.915  1.00  0.00    -0.336 OA 
HETATM   30  O   UNL     1     -12.125  11.392  67.890  1.00  0.00    -0.646 OA 
ENDBRANCH  25  27
ENDBRANCH   6  25
ENDBRANCH   2   3
TORSDOF 5
ENDMDL
MODEL      123
REMARK 921   NORMALIZED FREE ENERGY PREDICTED BY IDOCK:   -5.37 KCAL/MOL
REMARK 922        TOTAL FREE ENERGY PREDICTED BY IDOCK:   -7.47 KCAL/MOL
REMARK 923 INTER-LIGAND FREE ENERGY PREDICTED BY IDOCK:   -7.50 KCAL/MOL
REMARK 924 INTRA-LIGAND FREE ENERGY PREDICTED BY IDOCK:    0.03 KCAL/MOL
REMARK 927      BINDING AFFINITY PREDICTED BY RF-SCORE:    0.00 PKD
ROOT
HETATM    1  C   UNL     1      -9.537   8.351  66.541  1.00  0.00    -0.236 C  
HETATM    2  O   UNL     1     -10.221   9.187  67.480  1.00  0.00    -0.212 OA 
ENDROOT
BRANCH   2   3
HETATM    3  C   UNL     1     -10.117  10.536  67.212  1.00  0.00    -0.201 A  
HETATM    4  C   UNL     1      -9.787  11.391  68.290  1.00  0.00    -0.200 A  
HETATM    5  C   UNL     1      -9.576  12.750  68.024  1.00  0.00    -0.217 A  
HETATM    6  C   UNL     1     -10.196  12.423  65.708  1.00  0.00    -0.260 A  
HETATM    7  C   UNL     1      -9.777  13.265  66.736  1.00  0.00    -0.258 A  
HETATM    8  C   UNL     1     -10.366  11.062  65.941  1.00  0.00    -0.315 A  
BRANCH   4   9
HETATM    9  N   UNL     1      -9.714  10.872  69.599  1.00  0.00    -0.403 NA 
HETATM   10  H   UNL     1      -9.790  11.597  70.314  1.00  0.00     0.000 HD 
BRANCH   9  11
HETATM   11  C   UNL     1      -9.558   9.566  70.155  1.00  0.00    -0.248 A  
HETATM   12  C   UNL     1      -7.408   6.562  70.107  1.00  0.00    -0.089 A  
HETATM   13  C   UNL     1     -10.723   8.971  70.735  1.00  0.00    -0.301 A  
HETATM   14  C   UNL     1     -11.925   9.673  70.998  1.00  0.00    -0.427 A  
HETATM   15  C   UNL     1      -8.376   8.781  70.008  1.00  0.00    -0.127 A  
HETATM   16  C   UNL     1     -13.024   9.046  71.586  1.00  0.00    -0.418 A  
HETATM   17  C   UNL     1      -8.482   7.412  70.340  1.00  0.00    -0.142 A  
HETATM   18  C   UNL     1      -7.121   9.236  69.524  1.00  0.00    -0.060 A  
HETATM   19  C   UNL     1     -12.948   7.701  71.915  1.00  0.00    -0.299 A  
HETATM   20  C   UNL     1      -6.037   8.374  69.347  1.00  0.00    -0.037 A  
HETATM   21  C   UNL     1      -6.192   7.023  69.609  1.00  0.00    -0.034 A  
HETATM   22  C   UNL     1     -11.772   6.998  71.652  1.00  0.00    -0.332 A  
HETATM   23  C   UNL     1     -10.667   7.608  71.073  1.00  0.00    -0.228 A  
HETATM   24  N   UNL     1      -9.585   6.853  70.853  1.00  0.00    -0.164 NA 
ENDBRANCH   9  11
ENDBRANCH   4   9
BRANCH   6  25
HETATM   25  N   UNL     1     -10.521  12.926  64.412  1.00  0.00    -0.384 N  
HETATM   26  H   UNL     1      -9.800  13.104  63.713  1.00  0.00     0.000 HD 
BRANCH  25  27
HETATM   27  S   UNL     1     -12.156  13.213  64.086  1.00  0.00    -0.435 S  
HETATM   28  C   UNL     1     -12.718  13.836  65.663  1.00  0.00    -0.478 C  
HETATM   29  O   UNL     1     -12.746  11.907  63.894  1.00  0.00    -0.461 OA 
HETATM   30  O   UNL     1     -12.298  14.254  63.093  1.00  0.00    -0.531 OA 
ENDBRANCH  25  27
ENDBRANCH   6  25
ENDBRANCH   2   3
TORSDOF 5
ENDMDL
MODEL      124
REMARK 921   NORMALIZED FREE ENERGY PREDICTED BY IDOCK:   -5.34 KCAL/MOL
REMARK 922        TOTAL FREE ENERGY PREDICTED BY IDOCK:   -7.43 KCAL/MOL
REMARK 923 INTER-LIGAND FREE ENERGY PREDICTED BY IDOCK:   -6.51 KCAL/MOL
REMARK 924 INTRA-LIGAND FREE ENERGY PREDICTED BY IDOCK:   -0.92 KCAL/MOL
REMARK 927      BINDING AFFINITY PREDICTED BY RF-SCORE:    0.00 PKD
ROOT
HETATM    1  C   UNL     1      -7.820   5.928  70.840  1.00  0.00    -0.102 C  
HETATM    2  O   UNL     1      -9.206   5.870  70.489  1.00  0.00    -0.149 OA 
ENDROOT
BRANCH   2   3
HETATM    3  C   UNL     1      -9.447   5.939  69.133  1.00  0.00    -0.128 A  
HETATM    4  C   UNL     1      -9.589   7.225  68.561  1.00  0.00    -0.140 A  
HETATM    5  C   UNL     1      -9.734   7.325  67.171  1.00  0.00    -0.218 A  
HETATM    6  C   UNL     1      -9.779   4.914  66.973  1.00  0.00    -0.177 A  
HETATM    7  C   UNL     1      -9.825   6.173  66.378  1.00  0.00    -0.141 A  
HETATM    8  C   UNL     1      -9.590   4.793  68.345  1.00  0.00    -0.210 A  
BRANCH   4   9
HETATM    9  N   UNL     1      -9.621   8.363  69.393  1.00  0.00    -0.169 NA 
HETATM   10  H   UNL     1      -8.843   8.389  70.052  1.00  0.00     0.000 HD 
BRANCH   9  11
HETATM   11  C   UNL     1     -10.492   9.487  69.525  1.00  0.00    -0.220 A  
HETATM   12  C   UNL     1     -10.812  13.091  68.778  1.00  0.00    -0.277 A  
HETATM   13  C   UNL     1     -11.511   9.397  70.524  1.00  0.00    -0.317 A  
HETATM   14  C   UNL     1     -11.850   8.202  71.207  1.00  0.00    -0.317 A  
HETATM   15  C   UNL     1     -10.290  10.726  68.847  1.00  0.00    -0.220 A  
HETATM   16  C   UNL     1     -12.869   8.168  72.159  1.00  0.00    -0.311 A  
HETATM   17  C   UNL     1     -11.044  11.828  69.309  1.00  0.00    -0.218 A  
HETATM   18  C   UNL     1      -9.378  10.963  67.784  1.00  0.00    -0.162 A  
HETATM   19  C   UNL     1     -13.566   9.330  72.456  1.00  0.00    -0.478 A  
HETATM   20  C   UNL     1      -9.198  12.232  67.230  1.00  0.00    -0.185 A  
HETATM   21  C   UNL     1      -9.895  13.308  67.752  1.00  0.00    -0.224 A  
HETATM   22  C   UNL     1     -13.235  10.514  71.797  1.00  0.00    -0.522 A  
HETATM   23  C   UNL     1     -12.226  10.564  70.842  1.00  0.00    -0.388 A  
HETATM   24  N   UNL     1     -11.974  11.745  70.266  1.00  0.00    -0.354 NA 
ENDBRANCH   9  11
ENDBRANCH   4   9
BRANCH   6  25
HETATM   25  N   UNL     1      -9.982   3.719  66.217  1.00  0.00    -0.417 N  
HETATM   26  H   UNL     1     -10.755   3.086  66.421  1.00  0.00     0.000 HD 
BRANCH  25  27
HETATM   27  S   UNL     1      -8.886   3.400  64.970  1.00  0.00    -0.128 S  
HETATM   28  C   UNL     1      -9.170   1.658  64.697  1.00  0.00    -0.129 C  
HETATM   29  O   UNL     1      -7.575   3.543  65.563  1.00  0.00    -0.076 OA 
HETATM   30  O   UNL     1      -9.252   4.127  63.776  1.00  0.00    -0.135 OA 
ENDBRANCH  25  27
ENDBRANCH   6  25
ENDBRANCH   2   3
TORSDOF 5
ENDMDL
MODEL      125
REMARK 921   NORMALIZED FREE ENERGY PREDICTED BY IDOCK:   -5.32 KCAL/MOL
REMARK 922        TOTAL FREE ENERGY PREDICTED BY IDOCK:   -7.40 KCAL/MOL
REMARK 923 INTER-LIGAND FREE ENERGY PREDICTED BY IDOCK:   -6.32 KCAL/MOL
REMARK 924 INTRA-LIGAND FREE ENERGY PREDICTED BY IDOCK:   -1.08 KCAL/MOL
REMARK 927      BINDING AFFINITY PREDICTED BY RF-SCORE:    0.00 PKD
ROOT
HETATM    1  C   UNL     1      -5.489   7.405  67.974  1.00  0.00    -0.026 C  
HETATM    2  O   UNL     1      -6.715   7.393  68.712  1.00  0.00    -0.050 OA 
ENDROOT
BRANCH   2   3
HETATM    3  C   UNL     1      -7.841   7.251  67.929  1.00  0.00    -0.118 A  
HETATM    4  C   UNL     1      -9.034   7.862  68.384  1.00  0.00    -0.133 A  
HETATM    5  C   UNL     1     -10.164   7.817  67.559  1.00  0.00    -0.301 A  
HETATM    6  C   UNL     1      -8.983   6.430  65.966  1.00  0.00    -0.130 A  
HETATM    7  C   UNL     1     -10.139   7.107  66.351  1.00  0.00    -0.051 A  
HETATM    8  C   UNL     1      -7.836   6.501  66.750  1.00  0.00    -0.104 A  
BRANCH   4   9
HETATM    9  N   UNL     1      -9.070   8.463  69.659  1.00  0.00    -0.152 NA 
HETATM   10  H   UNL     1      -8.347   9.172  69.781  1.00  0.00     0.000 HD 
BRANCH   9  11
HETATM   11  C   UNL     1      -9.888   8.308  70.820  1.00  0.00    -0.179 A  
HETATM   12  C   UNL     1     -10.941   5.882  73.400  1.00  0.00    -0.230 A  
HETATM   13  C   UNL     1     -10.941   9.259  70.996  1.00  0.00    -0.390 A  
HETATM   14  C   UNL     1     -11.069  10.452  70.241  1.00  0.00    -0.379 A  
HETATM   15  C   UNL     1      -9.816   7.180  71.692  1.00  0.00    -0.170 A  
HETATM   16  C   UNL     1     -12.106  11.356  70.471  1.00  0.00    -0.487 A  
HETATM   17  C   UNL     1     -10.882   7.020  72.605  1.00  0.00    -0.270 A  
HETATM   18  C   UNL     1      -8.799   6.190  71.700  1.00  0.00    -0.138 A  
HETATM   19  C   UNL     1     -13.044  11.083  71.456  1.00  0.00    -0.500 A  
HETATM   20  C   UNL     1      -8.851   5.079  72.545  1.00  0.00    -0.126 A  
HETATM   21  C   UNL     1      -9.945   4.908  73.377  1.00  0.00    -0.183 A  
HETATM   22  C   UNL     1     -12.933   9.908  72.200  1.00  0.00    -0.471 A  
HETATM   23  C   UNL     1     -11.904   9.000  71.987  1.00  0.00    -0.356 A  
HETATM   24  N   UNL     1     -11.882   7.897  72.744  1.00  0.00    -0.304 NA 
ENDBRANCH   9  11
ENDBRANCH   4   9
BRANCH   6  25
HETATM   25  N   UNL     1      -8.950   5.602  64.804  1.00  0.00    -0.364 N  
HETATM   26  H   UNL     1      -8.636   5.961  63.903  1.00  0.00     0.000 HD 
BRANCH  25  27
HETATM   27  S   UNL     1      -9.455   3.998  64.986  1.00  0.00    -0.182 S  
HETATM   28  C   UNL     1      -8.041   3.116  64.342  1.00  0.00    -0.082 C  
HETATM   29  O   UNL     1     -10.543   3.827  64.050  1.00  0.00    -0.257 OA 
HETATM   30  O   UNL     1      -9.612   3.674  66.386  1.00  0.00    -0.189 OA 
ENDBRANCH  25  27
ENDBRANCH   6  25
ENDBRANCH   2   3
TORSDOF 5
ENDMDL
MODEL      126
REMARK 921   NORMALIZED FREE ENERGY PREDICTED BY IDOCK:   -5.28 KCAL/MOL
REMARK 922        TOTAL FREE ENERGY PREDICTED BY IDOCK:   -7.36 KCAL/MOL
REMARK 923 INTER-LIGAND FREE ENERGY PREDICTED BY IDOCK:   -7.51 KCAL/MOL
REMARK 924 INTRA-LIGAND FREE ENERGY PREDICTED BY IDOCK:    0.15 KCAL/MOL
REMARK 927      BINDING AFFINITY PREDICTED BY RF-SCORE:    0.00 PKD
ROOT
HETATM    1  C   UNL     1     -10.072  14.401  68.174  1.00  0.00    -0.226 C  
HETATM    2  O   UNL     1     -10.642  13.099  68.000  1.00  0.00    -0.224 OA 
ENDROOT
BRANCH   2   3
HETATM    3  C   UNL     1     -11.363  12.651  69.086  1.00  0.00    -0.282 A  
HETATM    4  C   UNL     1     -11.860  11.327  69.038  1.00  0.00    -0.352 A  
HETATM    5  C   UNL     1     -12.509  10.816  70.169  1.00  0.00    -0.357 A  
HETATM    6  C   UNL     1     -12.326  12.958  71.279  1.00  0.00    -0.078 A  
HETATM    7  C   UNL     1     -12.739  11.627  71.288  1.00  0.00    -0.444 A  
HETATM    8  C   UNL     1     -11.640  13.472  70.183  1.00  0.00    -0.190 A  
BRANCH   4   9
HETATM    9  N   UNL     1     -11.728  10.571  67.855  1.00  0.00    -0.714 NA 
HETATM   10  H   UNL     1     -12.547   9.994  67.664  1.00  0.00     0.000 HD 
BRANCH   9  11
HETATM   11  C   UNL     1     -10.711  10.429  66.862  1.00  0.00    -0.207 A  
HETATM   12  C   UNL     1      -7.168   9.511  66.360  1.00  0.00    -0.089 A  
HETATM   13  C   UNL     1     -10.917  11.121  65.628  1.00  0.00    -0.149 A  
HETATM   14  C   UNL     1     -12.142  11.725  65.250  1.00  0.00     0.196 A  
HETATM   15  C   UNL     1      -9.457   9.792  67.102  1.00  0.00    -0.189 A  
HETATM   16  C   UNL     1     -12.292  12.369  64.022  1.00  0.00    -0.579 A  
HETATM   17  C   UNL     1      -8.449   9.999  66.134  1.00  0.00    -0.127 A  
HETATM   18  C   UNL     1      -9.118   9.006  68.235  1.00  0.00    -0.133 A  
HETATM   19  C   UNL     1     -11.218  12.431  63.147  1.00  0.00    -0.191 A  
HETATM   20  C   UNL     1      -7.837   8.480  68.417  1.00  0.00    -0.106 A  
HETATM   21  C   UNL     1      -6.848   8.761  67.490  1.00  0.00    -0.071 A  
HETATM   22  C   UNL     1     -10.005  11.848  63.512  1.00  0.00    -0.422 A  
HETATM   23  C   UNL     1      -9.839  11.198  64.729  1.00  0.00    -0.277 A  
HETATM   24  N   UNL     1      -8.638  10.674  64.995  1.00  0.00    -0.181 NA 
ENDBRANCH   9  11
ENDBRANCH   4   9
BRANCH   6  25
HETATM   25  N   UNL     1     -12.641  13.849  72.349  1.00  0.00    -0.163 N  
HETATM   26  H   UNL     1     -12.836  13.505  73.289  1.00  0.00     0.000 HD 
BRANCH  25  27
HETATM   27  S   UNL     1     -12.677  15.501  71.991  1.00  0.00    -0.447 S  
HETATM   28  C   UNL     1     -12.906  16.203  73.618  1.00  0.00    -0.558 C  
HETATM   29  O   UNL     1     -13.900  15.709  71.248  1.00  0.00    -0.573 OA 
HETATM   30  O   UNL     1     -11.400  15.934  71.470  1.00  0.00    -0.379 OA 
ENDBRANCH  25  27
ENDBRANCH   6  25
ENDBRANCH   2   3
TORSDOF 5
ENDMDL
MODEL      127
REMARK 921   NORMALIZED FREE ENERGY PREDICTED BY IDOCK:   -5.26 KCAL/MOL
REMARK 922        TOTAL FREE ENERGY PREDICTED BY IDOCK:   -7.34 KCAL/MOL
REMARK 923 INTER-LIGAND FREE ENERGY PREDICTED BY IDOCK:   -7.03 KCAL/MOL
REMARK 924 INTRA-LIGAND FREE ENERGY PREDICTED BY IDOCK:   -0.30 KCAL/MOL
REMARK 927      BINDING AFFINITY PREDICTED BY RF-SCORE:    0.00 PKD
ROOT
HETATM    1  C   UNL     1     -11.013  13.280  67.686  1.00  0.00    -0.262 C  
HETATM    2  O   UNL     1     -10.963  11.935  68.173  1.00  0.00    -0.203 OA 
ENDROOT
BRANCH   2   3
HETATM    3  C   UNL     1     -11.618  11.746  69.371  1.00  0.00    -0.322 A  
HETATM    4  C   UNL     1     -11.632  10.437  69.908  1.00  0.00    -0.284 A  
HETATM    5  C   UNL     1     -12.203  10.239  71.171  1.00  0.00    -0.500 A  
HETATM    6  C   UNL     1     -12.885  12.559  71.259  1.00  0.00    -0.241 A  
HETATM    7  C   UNL     1     -12.825  11.297  71.848  1.00  0.00    -0.386 A  
HETATM    8  C   UNL     1     -12.284  12.787  70.026  1.00  0.00    -0.279 A  
BRANCH   4   9
HETATM    9  N   UNL     1     -11.113   9.365  69.154  1.00  0.00    -0.433 NA 
HETATM   10  H   UNL     1     -11.795   8.977  68.501  1.00  0.00     0.000 HD 
BRANCH   9  11
HETATM   11  C   UNL     1      -9.852   8.697  69.093  1.00  0.00    -0.185 A  
HETATM   12  C   UNL     1      -6.854   8.213  66.989  1.00  0.00    -0.070 A  
HETATM   13  C   UNL     1      -9.683   7.564  69.949  1.00  0.00    -0.171 A  
HETATM   14  C   UNL     1     -10.574   7.219  70.995  1.00  0.00    -0.235 A  
HETATM   15  C   UNL     1      -8.848   8.992  68.123  1.00  0.00    -0.133 A  
HETATM   16  C   UNL     1     -10.347   6.112  71.814  1.00  0.00    -0.250 A  
HETATM   17  C   UNL     1      -7.799   8.054  67.995  1.00  0.00    -0.126 A  
HETATM   18  C   UNL     1      -8.826  10.114  67.252  1.00  0.00    -0.137 A  
HETATM   19  C   UNL     1      -9.229   5.321  71.600  1.00  0.00    -0.170 A  
HETATM   20  C   UNL     1      -7.835  10.281  66.282  1.00  0.00    -0.118 A  
HETATM   21  C   UNL     1      -6.862   9.308  66.129  1.00  0.00    -0.085 A  
HETATM   22  C   UNL     1      -8.349   5.647  70.567  1.00  0.00    -0.117 A  
HETATM   23  C   UNL     1      -8.557   6.748  69.746  1.00  0.00    -0.141 A  
HETATM   24  N   UNL     1      -7.663   6.978  68.778  1.00  0.00    -0.108 NA 
ENDBRANCH   9  11
ENDBRANCH   4   9
BRANCH   6  25
HETATM   25  N   UNL     1     -13.607  13.634  71.861  1.00  0.00    -0.416 N  
HETATM   26  H   UNL     1     -14.517  13.486  72.297  1.00  0.00     0.000 HD 
BRANCH  25  27
HETATM   27  S   UNL     1     -12.888  15.164  71.818  1.00  0.00    -0.391 S  
HETATM   28  C   UNL     1     -13.620  15.930  73.257  1.00  0.00    -0.429 C  
HETATM   29  O   UNL     1     -13.435  15.815  70.649  1.00  0.00    -0.453 OA 
HETATM   30  O   UNL     1     -11.461  15.058  72.019  1.00  0.00    -0.389 OA 
ENDBRANCH  25  27
ENDBRANCH   6  25
ENDBRANCH   2   3
TORSDOF 5
ENDMDL
MODEL      128
REMARK 921   NORMALIZED FREE ENERGY PREDICTED BY IDOCK:   -5.24 KCAL/MOL
REMARK 922        TOTAL FREE ENERGY PREDICTED BY IDOCK:   -7.31 KCAL/MOL
REMARK 923 INTER-LIGAND FREE ENERGY PREDICTED BY IDOCK:   -7.22 KCAL/MOL
REMARK 924 INTRA-LIGAND FREE ENERGY PREDICTED BY IDOCK:   -0.09 KCAL/MOL
REMARK 927      BINDING AFFINITY PREDICTED BY RF-SCORE:    0.00 PKD
ROOT
HETATM    1  C   UNL     1      -9.420  10.209  64.469  1.00  0.00    -0.303 C  
HETATM    2  O   UNL     1     -10.321   9.737  65.477  1.00  0.00    -0.178 OA 
ENDROOT
BRANCH   2   3
HETATM    3  C   UNL     1     -10.890  10.737  66.236  1.00  0.00    -0.073 A  
HETATM    4  C   UNL     1     -10.923  10.552  67.639  1.00  0.00    -0.314 A  
HETATM    5  C   UNL     1     -11.405  11.597  68.438  1.00  0.00    -0.339 A  
HETATM    6  C   UNL     1     -11.971  12.884  66.468  1.00  0.00    -0.377 A  
HETATM    7  C   UNL     1     -11.924  12.761  67.856  1.00  0.00    -0.320 A  
HETATM    8  C   UNL     1     -11.456  11.877  65.658  1.00  0.00    -0.314 A  
BRANCH   4   9
HETATM    9  N   UNL     1     -10.513   9.323  68.194  1.00  0.00    -0.223 NA 
HETATM   10  H   UNL     1     -11.004   8.526  67.789  1.00  0.00     0.000 HD 
BRANCH   9  11
HETATM   11  C   UNL     1      -9.568   8.938  69.192  1.00  0.00    -0.162 A  
HETATM   12  C   UNL     1      -6.136   7.663  69.690  1.00  0.00    -0.030 A  
HETATM   13  C   UNL     1     -10.093   8.613  70.483  1.00  0.00    -0.228 A  
HETATM   14  C   UNL     1     -11.426   8.874  70.886  1.00  0.00    -0.339 A  
HETATM   15  C   UNL     1      -8.187   8.700  68.924  1.00  0.00    -0.123 A  
HETATM   16  C   UNL     1     -11.878   8.554  72.167  1.00  0.00    -0.448 A  
HETATM   17  C   UNL     1      -7.453   8.035  69.931  1.00  0.00    -0.078 A  
HETATM   18  C   UNL     1      -7.495   9.033  67.729  1.00  0.00    -0.085 A  
HETATM   19  C   UNL     1     -11.009   7.959  73.069  1.00  0.00    -0.398 A  
HETATM   20  C   UNL     1      -6.155   8.695  67.528  1.00  0.00    -0.052 A  
HETATM   21  C   UNL     1      -5.481   7.977  68.502  1.00  0.00    -0.032 A  
HETATM   22  C   UNL     1      -9.698   7.690  72.680  1.00  0.00    -0.251 A  
HETATM   23  C   UNL     1      -9.229   8.006  71.411  1.00  0.00    -0.144 A  
HETATM   24  N   UNL     1      -7.958   7.705  71.125  1.00  0.00    -0.090 NA 
ENDBRANCH   9  11
ENDBRANCH   4   9
BRANCH   6  25
HETATM   25  N   UNL     1     -12.595  14.000  65.834  1.00  0.00    -0.487 N  
HETATM   26  H   UNL     1     -13.468  14.392  66.184  1.00  0.00     0.000 HD 
BRANCH  25  27
HETATM   27  S   UNL     1     -11.822  14.646  64.475  1.00  0.00    -0.400 S  
HETATM   28  C   UNL     1     -12.033  13.320  63.296  1.00  0.00    -0.310 C  
HETATM   29  O   UNL     1     -10.419  14.705  64.822  1.00  0.00    -0.418 OA 
HETATM   30  O   UNL     1     -12.527  15.814  63.999  1.00  0.00    -0.698 OA 
ENDBRANCH  25  27
ENDBRANCH   6  25
ENDBRANCH   2   3
TORSDOF 5
ENDMDL
MODEL      129
REMARK 921   NORMALIZED FREE ENERGY PREDICTED BY IDOCK:   -5.23 KCAL/MOL
REMARK 922        TOTAL FREE ENERGY PREDICTED BY IDOCK:   -7.29 KCAL/MOL
REMARK 923 INTER-LIGAND FREE ENERGY PREDICTED BY IDOCK:   -7.07 KCAL/MOL
REMARK 924 INTRA-LIGAND FREE ENERGY PREDICTED BY IDOCK:   -0.22 KCAL/MOL
REMARK 927      BINDING AFFINITY PREDICTED BY RF-SCORE:    0.00 PKD
ROOT
HETATM    1  C   UNL     1     -12.656  11.833  70.873  1.00  0.00    -0.289 C  
HETATM    2  O   UNL     1     -12.346  11.039  69.722  1.00  0.00    -0.321 OA 
ENDROOT
BRANCH   2   3
HETATM    3  C   UNL     1     -11.482  11.647  68.836  1.00  0.00    -0.287 A  
HETATM    4  C   UNL     1     -10.118  11.274  68.896  1.00  0.00    -0.170 A  
HETATM    5  C   UNL     1      -9.240  11.803  67.941  1.00  0.00    -0.181 A  
HETATM    6  C   UNL     1     -11.012  13.172  67.025  1.00  0.00    -0.269 A  
HETATM    7  C   UNL     1      -9.685  12.746  67.005  1.00  0.00    -0.224 A  
HETATM    8  C   UNL     1     -11.910  12.626  67.935  1.00  0.00    -0.388 A  
BRANCH   4   9
HETATM    9  N   UNL     1      -9.669  10.421  69.924  1.00  0.00    -0.418 NA 
HETATM   10  H   UNL     1      -9.525  10.911  70.807  1.00  0.00     0.000 HD 
BRANCH   9  11
HETATM   11  C   UNL     1      -9.370   9.028  70.014  1.00  0.00    -0.183 A  
HETATM   12  C   UNL     1     -10.430   5.865  71.602  1.00  0.00    -0.285 A  
HETATM   13  C   UNL     1      -8.052   8.627  69.627  1.00  0.00    -0.112 A  
HETATM   14  C   UNL     1      -7.132   9.468  68.954  1.00  0.00    -0.067 A  
HETATM   15  C   UNL     1     -10.238   8.070  70.617  1.00  0.00    -0.205 A  
HETATM   16  C   UNL     1      -5.865   9.017  68.581  1.00  0.00    -0.041 A  
HETATM   17  C   UNL     1      -9.680   6.805  70.906  1.00  0.00    -0.178 A  
HETATM   18  C   UNL     1     -11.592   8.283  70.988  1.00  0.00    -0.301 A  
HETATM   19  C   UNL     1      -5.488   7.717  68.882  1.00  0.00    -0.022 A  
HETATM   20  C   UNL     1     -12.345   7.304  71.642  1.00  0.00    -0.387 A  
HETATM   21  C   UNL     1     -11.750   6.100  71.979  1.00  0.00    -0.354 A  
HETATM   22  C   UNL     1      -6.382   6.882  69.552  1.00  0.00    -0.039 A  
HETATM   23  C   UNL     1      -7.649   7.314  69.925  1.00  0.00    -0.094 A  
HETATM   24  N   UNL     1      -8.436   6.446  70.570  1.00  0.00    -0.136 NA 
ENDBRANCH   9  11
ENDBRANCH   4   9
BRANCH   6  25
HETATM   25  N   UNL     1     -11.478  14.214  66.166  1.00  0.00    -0.337 N  
HETATM   26  H   UNL     1     -11.643  15.158  66.515  1.00  0.00     0.000 HD 
BRANCH  25  27
HETATM   27  S   UNL     1     -11.745  13.814  64.545  1.00  0.00    -0.420 S  
HETATM   28  C   UNL     1     -12.781  12.368  64.712  1.00  0.00    -0.236 C  
HETATM   29  O   UNL     1     -10.463  13.379  64.039  1.00  0.00    -0.323 OA 
HETATM   30  O   UNL     1     -12.498  14.856  63.885  1.00  0.00    -0.806 OA 
ENDBRANCH  25  27
ENDBRANCH   6  25
ENDBRANCH   2   3
TORSDOF 5
ENDMDL
MODEL      130
REMARK 921   NORMALIZED FREE ENERGY PREDICTED BY IDOCK:   -5.21 KCAL/MOL
REMARK 922        TOTAL FREE ENERGY PREDICTED BY IDOCK:   -7.27 KCAL/MOL
REMARK 923 INTER-LIGAND FREE ENERGY PREDICTED BY IDOCK:   -6.30 KCAL/MOL
REMARK 924 INTRA-LIGAND FREE ENERGY PREDICTED BY IDOCK:   -0.97 KCAL/MOL
REMARK 927      BINDING AFFINITY PREDICTED BY RF-SCORE:    0.00 PKD
ROOT
HETATM    1  C   UNL     1     -11.822  12.531  66.338  1.00  0.00    -0.381 C  
HETATM    2  O   UNL     1     -10.608  11.780  66.226  1.00  0.00    -0.236 OA 
ENDROOT
BRANCH   2   3
HETATM    3  C   UNL     1      -9.539  12.337  66.896  1.00  0.00    -0.213 A  
HETATM    4  C   UNL     1      -8.806  11.496  67.767  1.00  0.00    -0.153 A  
HETATM    5  C   UNL     1      -7.658  12.011  68.382  1.00  0.00    -0.128 A  
HETATM    6  C   UNL     1      -8.083  14.190  67.421  1.00  0.00    -0.189 A  
HETATM    7  C   UNL     1      -7.294  13.352  68.207  1.00  0.00    -0.113 A  
HETATM    8  C   UNL     1      -9.202  13.687  66.766  1.00  0.00    -0.251 A  
BRANCH   4   9
HETATM    9  N   UNL     1      -9.262  10.187  68.026  1.00  0.00    -0.137 NA 
HETATM   10  H   UNL     1      -9.610   9.720  67.188  1.00  0.00     0.000 HD 
BRANCH   9  11
HETATM   11  C   UNL     1      -9.350   9.366  69.191  1.00  0.00    -0.159 A  
HETATM   12  C   UNL     1      -8.189   6.185  70.667  1.00  0.00    -0.121 A  
HETATM   13  C   UNL     1     -10.465   9.595  70.056  1.00  0.00    -0.301 A  
HETATM   14  C   UNL     1     -11.331  10.712  69.958  1.00  0.00    -0.400 A  
HETATM   15  C   UNL     1      -8.500   8.246  69.433  1.00  0.00    -0.123 A  
HETATM   16  C   UNL     1     -12.392  10.896  70.845  1.00  0.00    -0.501 A  
HETATM   17  C   UNL     1      -8.901   7.359  70.457  1.00  0.00    -0.148 A  
HETATM   18  C   UNL     1      -7.316   7.921  68.719  1.00  0.00    -0.086 A  
HETATM   19  C   UNL     1     -12.617   9.961  71.844  1.00  0.00    -0.471 A  
HETATM   20  C   UNL     1      -6.585   6.760  68.983  1.00  0.00    -0.041 A  
HETATM   21  C   UNL     1      -7.042   5.871  69.940  1.00  0.00    -0.068 A  
HETATM   22  C   UNL     1     -11.777   8.852  71.945  1.00  0.00    -0.439 A  
HETATM   23  C   UNL     1     -10.712   8.657  71.074  1.00  0.00    -0.228 A  
HETATM   24  N   UNL     1      -9.963   7.561  71.244  1.00  0.00    -0.186 NA 
ENDBRANCH   9  11
ENDBRANCH   4   9
BRANCH   6  25
HETATM   25  N   UNL     1      -7.814  15.588  67.310  1.00  0.00    -0.186 N  
HETATM   26  H   UNL     1      -7.117  15.946  66.657  1.00  0.00     0.000 HD 
BRANCH  25  27
HETATM   27  S   UNL     1      -8.702  16.625  68.307  1.00  0.00    -0.224 S  
HETATM   28  C   UNL     1      -9.935  17.232  67.165  1.00  0.00    -0.282 C  
HETATM   29  O   UNL     1      -7.811  17.722  68.614  1.00  0.00    -0.278 OA 
HETATM   30  O   UNL     1      -9.361  15.879  69.355  1.00  0.00    -0.255 OA 
ENDBRANCH  25  27
ENDBRANCH   6  25
ENDBRANCH   2   3
TORSDOF 5
ENDMDL
MODEL      131
REMARK 921   NORMALIZED FREE ENERGY PREDICTED BY IDOCK:   -5.21 KCAL/MOL
REMARK 922        TOTAL FREE ENERGY PREDICTED BY IDOCK:   -7.26 KCAL/MOL
REMARK 923 INTER-LIGAND FREE ENERGY PREDICTED BY IDOCK:   -7.11 KCAL/MOL
REMARK 924 INTRA-LIGAND FREE ENERGY PREDICTED BY IDOCK:   -0.15 KCAL/MOL
REMARK 927      BINDING AFFINITY PREDICTED BY RF-SCORE:    0.00 PKD
ROOT
HETATM    1  C   UNL     1      -7.711  11.753  67.773  1.00  0.00    -0.133 C  
HETATM    2  O   UNL     1      -8.959  11.638  68.465  1.00  0.00    -0.172 OA 
ENDROOT
BRANCH   2   3
HETATM    3  C   UNL     1      -9.940  12.487  68.000  1.00  0.00    -0.219 A  
HETATM    4  C   UNL     1     -11.165  11.908  67.592  1.00  0.00    -0.276 A  
HETATM    5  C   UNL     1     -12.211  12.757  67.212  1.00  0.00    -0.042 A  
HETATM    6  C   UNL     1     -10.775  14.688  67.464  1.00  0.00    -0.268 A  
HETATM    7  C   UNL     1     -12.020  14.144  67.150  1.00  0.00    -0.460 A  
HETATM    8  C   UNL     1      -9.737  13.866  67.888  1.00  0.00    -0.231 A  
BRANCH   4   9
HETATM    9  N   UNL     1     -11.294  10.505  67.542  1.00  0.00    -0.485 NA 
HETATM   10  H   UNL     1     -12.148  10.172  67.991  1.00  0.00     0.000 HD 
BRANCH   9  11
HETATM   11  C   UNL     1     -10.505   9.442  67.007  1.00  0.00    -0.231 A  
HETATM   12  C   UNL     1      -8.527   6.463  67.934  1.00  0.00    -0.118 A  
HETATM   13  C   UNL     1      -9.976   9.633  65.692  1.00  0.00    -0.321 A  
HETATM   14  C   UNL     1     -10.375  10.677  64.820  1.00  0.00    -0.353 A  
HETATM   15  C   UNL     1     -10.086   8.309  67.766  1.00  0.00    -0.262 A  
HETATM   16  C   UNL     1      -9.840  10.803  63.537  1.00  0.00    -0.401 A  
HETATM   17  C   UNL     1      -9.068   7.510  67.200  1.00  0.00    -0.127 A  
HETATM   18  C   UNL     1     -10.567   7.934  69.049  1.00  0.00    -0.177 A  
HETATM   19  C   UNL     1      -8.889   9.892  63.101  1.00  0.00    -0.254 A  
HETATM   20  C   UNL     1     -10.044   6.845  69.749  1.00  0.00    -0.196 A  
HETATM   21  C   UNL     1      -8.996   6.125  69.202  1.00  0.00    -0.126 A  
HETATM   22  C   UNL     1      -8.483   8.866  63.954  1.00  0.00    -0.147 A  
HETATM   23  C   UNL     1      -9.009   8.723  65.232  1.00  0.00    -0.133 A  
HETATM   24  N   UNL     1      -8.555   7.712  65.981  1.00  0.00    -0.146 NA 
ENDBRANCH   9  11
ENDBRANCH   4   9
BRANCH   6  25
HETATM   25  N   UNL     1     -10.504  16.081  67.304  1.00  0.00    -0.304 N  
HETATM   26  H   UNL     1     -10.645  16.742  68.068  1.00  0.00     0.000 HD 
BRANCH  25  27
HETATM   27  S   UNL     1      -9.936  16.587  65.794  1.00  0.00    -0.218 S  
HETATM   28  C   UNL     1     -10.675  15.364  64.720  1.00  0.00    -0.314 C  
HETATM   29  O   UNL     1      -8.511  16.347  65.816  1.00  0.00    -0.346 OA 
HETATM   30  O   UNL     1     -10.472  17.887  65.462  1.00  0.00    -0.650 OA 
ENDBRANCH  25  27
ENDBRANCH   6  25
ENDBRANCH   2   3
TORSDOF 5
ENDMDL
MODEL      132
REMARK 921   NORMALIZED FREE ENERGY PREDICTED BY IDOCK:   -5.20 KCAL/MOL
REMARK 922        TOTAL FREE ENERGY PREDICTED BY IDOCK:   -7.26 KCAL/MOL
REMARK 923 INTER-LIGAND FREE ENERGY PREDICTED BY IDOCK:   -6.43 KCAL/MOL
REMARK 924 INTRA-LIGAND FREE ENERGY PREDICTED BY IDOCK:   -0.83 KCAL/MOL
REMARK 927      BINDING AFFINITY PREDICTED BY RF-SCORE:    0.00 PKD
ROOT
HETATM    1  C   UNL     1      -7.631  12.796  68.573  1.00  0.00    -0.120 C  
HETATM    2  O   UNL     1      -8.342  11.575  68.803  1.00  0.00    -0.141 OA 
ENDROOT
BRANCH   2   3
HETATM    3  C   UNL     1      -8.964  11.067  67.683  1.00  0.00    -0.142 A  
HETATM    4  C   UNL     1      -9.108   9.661  67.598  1.00  0.00    -0.131 A  
HETATM    5  C   UNL     1      -9.824   9.128  66.519  1.00  0.00    -0.333 A  
HETATM    6  C   UNL     1     -10.073  11.333  65.555  1.00  0.00    -0.257 A  
HETATM    7  C   UNL     1     -10.309   9.960  65.502  1.00  0.00    -0.060 A  
HETATM    8  C   UNL     1      -9.403  11.887  66.640  1.00  0.00    -0.210 A  
BRANCH   4   9
HETATM    9  N   UNL     1      -8.503   8.835  68.568  1.00  0.00    -0.129 NA 
HETATM   10  H   UNL     1      -7.484   8.855  68.521  1.00  0.00     0.000 HD 
BRANCH   9  11
HETATM   11  C   UNL     1      -8.989   7.977  69.600  1.00  0.00    -0.145 A  
HETATM   12  C   UNL     1     -11.213   7.852  72.548  1.00  0.00    -0.436 A  
HETATM   13  C   UNL     1      -8.214   6.809  69.883  1.00  0.00    -0.127 A  
HETATM   14  C   UNL     1      -7.156   6.340  69.065  1.00  0.00    -0.081 A  
HETATM   15  C   UNL     1     -10.082   8.310  70.455  1.00  0.00    -0.199 A  
HETATM   16  C   UNL     1      -6.447   5.181  69.379  1.00  0.00    -0.035 A  
HETATM   17  C   UNL     1     -10.246   7.513  71.610  1.00  0.00    -0.184 A  
HETATM   18  C   UNL     1     -10.992   9.385  70.273  1.00  0.00    -0.305 A  
HETATM   19  C   UNL     1      -6.774   4.469  70.523  1.00  0.00    -0.036 A  
HETATM   20  C   UNL     1     -11.991   9.677  71.205  1.00  0.00    -0.452 A  
HETATM   21  C   UNL     1     -12.081   8.926  72.364  1.00  0.00    -0.344 A  
HETATM   22  C   UNL     1      -7.807   4.925  71.341  1.00  0.00    -0.104 A  
HETATM   23  C   UNL     1      -8.528   6.075  71.040  1.00  0.00    -0.124 A  
HETATM   24  N   UNL     1      -9.498   6.439  71.886  1.00  0.00    -0.153 NA 
ENDBRANCH   9  11
ENDBRANCH   4   9
BRANCH   6  25
HETATM   25  N   UNL     1     -10.448  12.200  64.484  1.00  0.00    -0.287 N  
HETATM   26  H   UNL     1      -9.758  12.566  63.829  1.00  0.00     0.000 HD 
BRANCH  25  27
HETATM   27  S   UNL     1     -12.087  12.595  64.352  1.00  0.00    -0.444 S  
HETATM   28  C   UNL     1     -11.991  14.326  63.918  1.00  0.00    -0.184 C  
HETATM   29  O   UNL     1     -12.615  12.508  65.695  1.00  0.00    -0.612 OA 
HETATM   30  O   UNL     1     -12.694  11.872  63.258  1.00  0.00    -0.654 OA 
ENDBRANCH  25  27
ENDBRANCH   6  25
ENDBRANCH   2   3
TORSDOF 5
ENDMDL
MODEL      133
REMARK 921   NORMALIZED FREE ENERGY PREDICTED BY IDOCK:   -5.19 KCAL/MOL
REMARK 922        TOTAL FREE ENERGY PREDICTED BY IDOCK:   -7.24 KCAL/MOL
REMARK 923 INTER-LIGAND FREE ENERGY PREDICTED BY IDOCK:   -7.33 KCAL/MOL
REMARK 924 INTRA-LIGAND FREE ENERGY PREDICTED BY IDOCK:    0.09 KCAL/MOL
REMARK 927      BINDING AFFINITY PREDICTED BY RF-SCORE:    0.00 PKD
ROOT
HETATM    1  C   UNL     1      -6.632  11.157  68.367  1.00  0.00    -0.058 C  
HETATM    2  O   UNL     1      -7.911  11.416  68.955  1.00  0.00    -0.115 OA 
ENDROOT
BRANCH   2   3
HETATM    3  C   UNL     1      -8.522  10.300  69.487  1.00  0.00    -0.142 A  
HETATM    4  C   UNL     1      -9.859  10.043  69.101  1.00  0.00    -0.205 A  
HETATM    5  C   UNL     1     -10.467   8.863  69.548  1.00  0.00    -0.229 A  
HETATM    6  C   UNL     1      -8.516   8.323  70.872  1.00  0.00    -0.132 A  
HETATM    7  C   UNL     1      -9.797   8.003  70.428  1.00  0.00    -0.183 A  
HETATM    8  C   UNL     1      -7.877   9.467  70.405  1.00  0.00    -0.179 A  
BRANCH   4   9
HETATM    9  N   UNL     1     -10.556  10.985  68.318  1.00  0.00    -0.177 NA 
HETATM   10  H   UNL     1     -10.706  10.666  67.360  1.00  0.00     0.000 HD 
BRANCH   9  11
HETATM   11  C   UNL     1     -11.101  12.283  68.556  1.00  0.00    -0.249 A  
HETATM   12  C   UNL     1     -10.814  15.840  67.597  1.00  0.00    -0.310 A  
HETATM   13  C   UNL     1     -11.829  12.461  69.774  1.00  0.00    -0.387 A  
HETATM   14  C   UNL     1     -12.234  11.399  70.620  1.00  0.00    -0.484 A  
HETATM   15  C   UNL     1     -10.815  13.422  67.745  1.00  0.00    -0.267 A  
HETATM   16  C   UNL     1     -12.962  11.630  71.788  1.00  0.00    -0.483 A  
HETATM   17  C   UNL     1     -11.171  14.681  68.275  1.00  0.00    -0.285 A  
HETATM   18  C   UNL     1     -10.173  13.409  66.478  1.00  0.00    -0.282 A  
HETATM   19  C   UNL     1     -13.292  12.930  72.141  1.00  0.00    -0.615 A  
HETATM   20  C   UNL     1      -9.870  14.584  65.788  1.00  0.00    -0.343 A  
HETATM   21  C   UNL     1     -10.163  15.808  66.366  1.00  0.00    -0.304 A  
HETATM   22  C   UNL     1     -12.891  13.984  71.321  1.00  0.00    -0.430 A  
HETATM   23  C   UNL     1     -12.171  13.772  70.151  1.00  0.00    -0.356 A  
HETATM   24  N   UNL     1     -11.824  14.844  69.432  1.00  0.00    -0.313 NA 
ENDBRANCH   9  11
ENDBRANCH   4   9
BRANCH   6  25
HETATM   25  N   UNL     1      -7.844   7.536  71.856  1.00  0.00    -0.088 N  
HETATM   26  H   UNL     1      -6.928   7.125  71.675  1.00  0.00     0.000 HD 
BRANCH  25  27
HETATM   27  S   UNL     1      -8.632   7.315  73.336  1.00  0.00    -0.155 S  
HETATM   28  C   UNL     1      -8.772   5.534  73.390  1.00  0.00    -0.114 C  
HETATM   29  O   UNL     1      -9.961   7.854  73.149  1.00  0.00    -0.280 OA 
HETATM   30  O   UNL     1      -7.792   7.752  74.427  1.00  0.00    -0.165 OA 
ENDBRANCH  25  27
ENDBRANCH   6  25
ENDBRANCH   2   3
TORSDOF 5
ENDMDL
MODEL      134
REMARK 921   NORMALIZED FREE ENERGY PREDICTED BY IDOCK:   -5.19 KCAL/MOL
REMARK 922        TOTAL FREE ENERGY PREDICTED BY IDOCK:   -7.24 KCAL/MOL
REMARK 923 INTER-LIGAND FREE ENERGY PREDICTED BY IDOCK:   -6.89 KCAL/MOL
REMARK 924 INTRA-LIGAND FREE ENERGY PREDICTED BY IDOCK:   -0.36 KCAL/MOL
REMARK 927      BINDING AFFINITY PREDICTED BY RF-SCORE:    0.00 PKD
ROOT
HETATM    1  C   UNL     1      -7.281  11.490  66.726  1.00  0.00    -0.111 C  
HETATM    2  O   UNL     1      -7.807  11.947  67.976  1.00  0.00    -0.122 OA 
ENDROOT
BRANCH   2   3
HETATM    3  C   UNL     1      -9.014  12.604  67.871  1.00  0.00    -0.189 A  
HETATM    4  C   UNL     1     -10.165  11.936  68.353  1.00  0.00    -0.204 A  
HETATM    5  C   UNL     1     -11.386  12.623  68.349  1.00  0.00    -0.329 A  
HETATM    6  C   UNL     1     -10.355  14.511  67.243  1.00  0.00    -0.260 A  
HETATM    7  C   UNL     1     -11.482  13.908  67.800  1.00  0.00    -0.354 A  
HETATM    8  C   UNL     1      -9.124  13.865  67.277  1.00  0.00    -0.230 A  
BRANCH   4   9
HETATM    9  N   UNL     1     -10.069  10.598  68.785  1.00  0.00    -0.183 NA 
HETATM   10  H   UNL     1     -10.068   9.934  68.010  1.00  0.00     0.000 HD 
BRANCH   9  11
HETATM   11  C   UNL     1      -9.972   9.957  70.058  1.00  0.00    -0.254 A  
HETATM   12  C   UNL     1      -7.758   7.892  72.175  1.00  0.00    -0.119 A  
HETATM   13  C   UNL     1     -11.200   9.708  70.747  1.00  0.00    -0.403 A  
HETATM   14  C   UNL     1     -12.450  10.256  70.366  1.00  0.00    -0.296 A  
HETATM   15  C   UNL     1      -8.760   9.414  70.579  1.00  0.00    -0.276 A  
HETATM   16  C   UNL     1     -13.614   9.995  71.089  1.00  0.00    -0.198 A  
HETATM   17  C   UNL     1      -8.881   8.552  71.691  1.00  0.00    -0.207 A  
HETATM   18  C   UNL     1      -7.454   9.629  70.062  1.00  0.00    -0.142 A  
HETATM   19  C   UNL     1     -13.556   9.173  72.204  1.00  0.00    -0.534 A  
HETATM   20  C   UNL     1      -6.331   8.995  70.598  1.00  0.00    -0.049 A  
HETATM   21  C   UNL     1      -6.488   8.097  71.640  1.00  0.00    -0.046 A  
HETATM   22  C   UNL     1     -12.332   8.621  72.584  1.00  0.00    -0.282 A  
HETATM   23  C   UNL     1     -11.162   8.875  71.878  1.00  0.00    -0.377 A  
HETATM   24  N   UNL     1     -10.037   8.297  72.313  1.00  0.00    -0.271 NA 
ENDBRANCH   9  11
ENDBRANCH   4   9
BRANCH   6  25
HETATM   25  N   UNL     1     -10.433  15.769  66.571  1.00  0.00    -0.299 N  
HETATM   26  H   UNL     1     -10.855  15.853  65.646  1.00  0.00     0.000 HD 
BRANCH  25  27
HETATM   27  S   UNL     1      -9.795  17.113  67.375  1.00  0.00    -0.271 S  
HETATM   28  C   UNL     1     -10.528  16.926  68.994  1.00  0.00    -0.341 C  
HETATM   29  O   UNL     1     -10.405  18.263  66.747  1.00  0.00    -0.355 OA 
HETATM   30  O   UNL     1      -8.360  16.996  67.495  1.00  0.00    -0.185 OA 
ENDBRANCH  25  27
ENDBRANCH   6  25
ENDBRANCH   2   3
TORSDOF 5
ENDMDL
MODEL      135
REMARK 921   NORMALIZED FREE ENERGY PREDICTED BY IDOCK:   -5.19 KCAL/MOL
REMARK 922        TOTAL FREE ENERGY PREDICTED BY IDOCK:   -7.24 KCAL/MOL
REMARK 923 INTER-LIGAND FREE ENERGY PREDICTED BY IDOCK:   -6.66 KCAL/MOL
REMARK 924 INTRA-LIGAND FREE ENERGY PREDICTED BY IDOCK:   -0.58 KCAL/MOL
REMARK 927      BINDING AFFINITY PREDICTED BY RF-SCORE:    0.00 PKD
ROOT
HETATM    1  C   UNL     1      -6.557  11.106  67.171  1.00  0.00    -0.098 C  
HETATM    2  O   UNL     1      -7.315  11.735  68.210  1.00  0.00    -0.082 OA 
ENDROOT
BRANCH   2   3
HETATM    3  C   UNL     1      -8.415  11.013  68.620  1.00  0.00    -0.157 A  
HETATM    4  C   UNL     1      -9.644  11.704  68.734  1.00  0.00    -0.072 A  
HETATM    5  C   UNL     1     -10.795  10.972  69.051  1.00  0.00    -0.274 A  
HETATM    6  C   UNL     1      -9.479   8.958  69.312  1.00  0.00    -0.161 A  
HETATM    7  C   UNL     1     -10.715   9.602  69.336  1.00  0.00    -0.248 A  
HETATM    8  C   UNL     1      -8.331   9.658  68.955  1.00  0.00    -0.122 A  
BRANCH   4   9
HETATM    9  N   UNL     1      -9.679  13.104  68.566  1.00  0.00    -0.362 NA 
HETATM   10  H   UNL     1      -9.902  13.598  69.430  1.00  0.00     0.000 HD 
BRANCH   9  11
HETATM   11  C   UNL     1      -9.475  13.988  67.464  1.00  0.00    -0.221 A  
HETATM   12  C   UNL     1      -7.535  16.926  66.343  1.00  0.00    -0.323 A  
HETATM   13  C   UNL     1     -10.518  14.052  66.488  1.00  0.00    -0.281 A  
HETATM   14  C   UNL     1     -11.602  13.140  66.423  1.00  0.00    -0.394 A  
HETATM   15  C   UNL     1      -8.391  14.913  67.383  1.00  0.00    -0.213 A  
HETATM   16  C   UNL     1     -12.582  13.238  65.435  1.00  0.00    -0.526 A  
HETATM   17  C   UNL     1      -8.493  15.921  66.399  1.00  0.00    -0.313 A  
HETATM   18  C   UNL     1      -7.245  14.937  68.222  1.00  0.00    -0.114 A  
HETATM   19  C   UNL     1     -12.504  14.253  64.494  1.00  0.00    -0.357 A  
HETATM   20  C   UNL     1      -6.267  15.929  68.114  1.00  0.00    -0.128 A  
HETATM   21  C   UNL     1      -6.430  16.947  67.190  1.00  0.00    -0.223 A  
HETATM   22  C   UNL     1     -11.447  15.161  64.552  1.00  0.00    -0.319 A  
HETATM   23  C   UNL     1     -10.460  15.076  65.527  1.00  0.00    -0.365 A  
HETATM   24  N   UNL     1      -9.488  15.994  65.508  1.00  0.00    -0.393 NA 
ENDBRANCH   9  11
ENDBRANCH   4   9
BRANCH   6  25
HETATM   25  N   UNL     1      -9.336   7.594  69.707  1.00  0.00    -0.151 N  
HETATM   26  H   UNL     1      -8.866   7.337  70.575  1.00  0.00     0.000 HD 
BRANCH  25  27
HETATM   27  S   UNL     1      -9.980   6.421  68.673  1.00  0.00    -0.155 S  
HETATM   28  C   UNL     1      -9.156   4.950  69.264  1.00  0.00    -0.102 C  
HETATM   29  O   UNL     1      -9.447   6.727  67.364  1.00  0.00    -0.130 OA 
HETATM   30  O   UNL     1     -11.401   6.281  68.890  1.00  0.00    -0.373 OA 
ENDBRANCH  25  27
ENDBRANCH   6  25
ENDBRANCH   2   3
TORSDOF 5
ENDMDL
MODEL      136
REMARK 921   NORMALIZED FREE ENERGY PREDICTED BY IDOCK:   -5.19 KCAL/MOL
REMARK 922        TOTAL FREE ENERGY PREDICTED BY IDOCK:   -7.24 KCAL/MOL
REMARK 923 INTER-LIGAND FREE ENERGY PREDICTED BY IDOCK:   -6.32 KCAL/MOL
REMARK 924 INTRA-LIGAND FREE ENERGY PREDICTED BY IDOCK:   -0.92 KCAL/MOL
REMARK 927      BINDING AFFINITY PREDICTED BY RF-SCORE:    0.00 PKD
ROOT
HETATM    1  C   UNL     1      -6.520  10.814  69.935  1.00  0.00    -0.135 C  
HETATM    2  O   UNL     1      -7.033  10.731  68.601  1.00  0.00    -0.064 OA 
ENDROOT
BRANCH   2   3
HETATM    3  C   UNL     1      -8.180   9.974  68.486  1.00  0.00    -0.108 A  
HETATM    4  C   UNL     1      -9.161  10.411  67.565  1.00  0.00    -0.145 A  
HETATM    5  C   UNL     1     -10.288   9.605  67.358  1.00  0.00    -0.306 A  
HETATM    6  C   UNL     1      -9.549   8.076  69.081  1.00  0.00    -0.156 A  
HETATM    7  C   UNL     1     -10.481   8.439  68.110  1.00  0.00    -0.228 A  
HETATM    8  C   UNL     1      -8.401   8.838  69.271  1.00  0.00    -0.120 A  
BRANCH   4   9
HETATM    9  N   UNL     1      -9.006  11.651  66.912  1.00  0.00    -0.184 NA 
HETATM   10  H   UNL     1      -8.061  11.790  66.553  1.00  0.00     0.000 HD 
BRANCH   9  11
HETATM   11  C   UNL     1      -9.868  12.756  66.638  1.00  0.00    -0.250 A  
HETATM   12  C   UNL     1     -12.086  14.218  64.070  1.00  0.00    -0.350 A  
HETATM   13  C   UNL     1      -9.683  13.928  67.436  1.00  0.00    -0.234 A  
HETATM   14  C   UNL     1      -8.885  13.975  68.606  1.00  0.00    -0.104 A  
HETATM   15  C   UNL     1     -10.757  12.806  65.523  1.00  0.00    -0.303 A  
HETATM   16  C   UNL     1      -8.758  15.143  69.359  1.00  0.00    -0.173 A  
HETATM   17  C   UNL     1     -11.308  14.069  65.212  1.00  0.00    -0.321 A  
HETATM   18  C   UNL     1     -11.108  11.719  64.680  1.00  0.00    -0.363 A  
HETATM   19  C   UNL     1      -9.420  16.292  68.953  1.00  0.00    -0.252 A  
HETATM   20  C   UNL     1     -11.935  11.880  63.566  1.00  0.00    -0.567 A  
HETATM   21  C   UNL     1     -12.400  13.143  63.241  1.00  0.00    -0.366 A  
HETATM   22  C   UNL     1     -10.201  16.260  67.798  1.00  0.00    -0.270 A  
HETATM   23  C   UNL     1     -10.343  15.105  67.040  1.00  0.00    -0.271 A  
HETATM   24  N   UNL     1     -11.107  15.170  65.945  1.00  0.00    -0.338 NA 
ENDBRANCH   9  11
ENDBRANCH   4   9
BRANCH   6  25
HETATM   25  N   UNL     1      -9.763   6.961  69.947  1.00  0.00    -0.162 N  
HETATM   26  H   UNL     1     -10.064   7.087  70.913  1.00  0.00     0.000 HD 
BRANCH  25  27
HETATM   27  S   UNL     1      -9.496   5.421  69.301  1.00  0.00    -0.143 S  
HETATM   28  C   UNL     1      -9.788   4.391  70.732  1.00  0.00    -0.203 C  
HETATM   29  O   UNL     1      -8.082   5.368  69.003  1.00  0.00    -0.092 OA 
HETATM   30  O   UNL     1     -10.487   5.117  68.294  1.00  0.00    -0.115 OA 
ENDBRANCH  25  27
ENDBRANCH   6  25
ENDBRANCH   2   3
TORSDOF 5
ENDMDL
MODEL      137
REMARK 921   NORMALIZED FREE ENERGY PREDICTED BY IDOCK:   -5.15 KCAL/MOL
REMARK 922        TOTAL FREE ENERGY PREDICTED BY IDOCK:   -7.19 KCAL/MOL
REMARK 923 INTER-LIGAND FREE ENERGY PREDICTED BY IDOCK:   -6.59 KCAL/MOL
REMARK 924 INTRA-LIGAND FREE ENERGY PREDICTED BY IDOCK:   -0.60 KCAL/MOL
REMARK 927      BINDING AFFINITY PREDICTED BY RF-SCORE:    0.00 PKD
ROOT
HETATM    1  C   UNL     1     -12.175   9.722  71.398  1.00  0.00    -0.397 C  
HETATM    2  O   UNL     1     -10.944  10.001  70.723  1.00  0.00    -0.313 OA 
ENDROOT
BRANCH   2   3
HETATM    3  C   UNL     1     -10.623   9.089  69.740  1.00  0.00    -0.228 A  
HETATM    4  C   UNL     1     -10.083   9.594  68.533  1.00  0.00    -0.175 A  
HETATM    5  C   UNL     1      -9.657   8.682  67.559  1.00  0.00    -0.196 A  
HETATM    6  C   UNL     1     -10.467   6.833  68.893  1.00  0.00    -0.207 A  
HETATM    7  C   UNL     1      -9.844   7.306  67.739  1.00  0.00    -0.181 A  
HETATM    8  C   UNL     1     -10.856   7.719  69.892  1.00  0.00    -0.228 A  
BRANCH   4   9
HETATM    9  N   UNL     1     -10.019  10.987  68.323  1.00  0.00    -0.173 NA 
HETATM   10  H   UNL     1      -9.255  11.427  68.834  1.00  0.00     0.000 HD 
BRANCH   9  11
HETATM   11  C   UNL     1     -10.780  11.923  67.558  1.00  0.00    -0.225 A  
HETATM   12  C   UNL     1     -11.339  13.191  64.133  1.00  0.00    -0.440 A  
HETATM   13  C   UNL     1     -11.367  13.012  68.275  1.00  0.00    -0.323 A  
HETATM   14  C   UNL     1     -11.439  13.086  69.688  1.00  0.00    -0.253 A  
HETATM   15  C   UNL     1     -10.834  11.919  66.132  1.00  0.00    -0.334 A  
HETATM   16  C   UNL     1     -12.044  14.164  70.335  1.00  0.00    -0.417 A  
HETATM   17  C   UNL     1     -11.367  13.074  65.518  1.00  0.00    -0.300 A  
HETATM   18  C   UNL     1     -10.370  10.884  65.278  1.00  0.00    -0.334 A  
HETATM   19  C   UNL     1     -12.582  15.198  69.582  1.00  0.00    -0.094 A  
HETATM   20  C   UNL     1     -10.400  11.002  63.886  1.00  0.00    -0.436 A  
HETATM   21  C   UNL     1     -10.857  12.175  63.312  1.00  0.00    -0.381 A  
HETATM   22  C   UNL     1     -12.509  15.140  68.190  1.00  0.00     0.561 A  
HETATM   23  C   UNL     1     -11.915  14.071  67.530  1.00  0.00    -0.395 A  
HETATM   24  N   UNL     1     -11.887  14.105  66.194  1.00  0.00    -0.391 NA 
ENDBRANCH   9  11
ENDBRANCH   4   9
BRANCH   6  25
HETATM   25  N   UNL     1     -10.781   5.451  69.065  1.00  0.00    -0.155 N  
HETATM   26  H   UNL     1     -11.730   5.101  68.937  1.00  0.00     0.000 HD 
BRANCH  25  27
HETATM   27  S   UNL     1      -9.509   4.419  69.487  1.00  0.00    -0.196 S  
HETATM   28  C   UNL     1      -9.488   3.306  68.089  1.00  0.00    -0.155 C  
HETATM   29  O   UNL     1      -9.981   3.675  70.633  1.00  0.00    -0.125 OA 
HETATM   30  O   UNL     1      -8.261   5.145  69.527  1.00  0.00    -0.091 OA 
ENDBRANCH  25  27
ENDBRANCH   6  25
ENDBRANCH   2   3
TORSDOF 5
ENDMDL
MODEL      138
REMARK 921   NORMALIZED FREE ENERGY PREDICTED BY IDOCK:   -5.14 KCAL/MOL
REMARK 922        TOTAL FREE ENERGY PREDICTED BY IDOCK:   -7.17 KCAL/MOL
REMARK 923 INTER-LIGAND FREE ENERGY PREDICTED BY IDOCK:   -6.50 KCAL/MOL
REMARK 924 INTRA-LIGAND FREE ENERGY PREDICTED BY IDOCK:   -0.67 KCAL/MOL
REMARK 927      BINDING AFFINITY PREDICTED BY RF-SCORE:    0.00 PKD
ROOT
HETATM    1  C   UNL     1      -6.507  11.359  66.756  1.00  0.00    -0.140 C  
HETATM    2  O   UNL     1      -7.188  11.719  67.963  1.00  0.00    -0.075 OA 
ENDROOT
BRANCH   2   3
HETATM    3  C   UNL     1      -8.340  10.998  68.194  1.00  0.00    -0.130 A  
HETATM    4  C   UNL     1      -9.533  11.727  68.416  1.00  0.00    -0.188 A  
HETATM    5  C   UNL     1     -10.732  11.018  68.554  1.00  0.00    -0.236 A  
HETATM    6  C   UNL     1      -9.539   8.916  68.438  1.00  0.00    -0.146 A  
HETATM    7  C   UNL     1     -10.738   9.617  68.562  1.00  0.00    -0.239 A  
HETATM    8  C   UNL     1      -8.342   9.601  68.255  1.00  0.00    -0.117 A  
BRANCH   4   9
HETATM    9  N   UNL     1      -9.485  13.131  68.530  1.00  0.00    -0.374 NA 
HETATM   10  H   UNL     1      -9.382  13.444  69.495  1.00  0.00     0.000 HD 
BRANCH   9  11
HETATM   11  C   UNL     1      -9.546  14.217  67.604  1.00  0.00    -0.216 A  
HETATM   12  C   UNL     1     -11.140  15.353  64.470  1.00  0.00    -0.272 A  
HETATM   13  C   UNL     1      -8.450  15.135  67.617  1.00  0.00    -0.171 A  
HETATM   14  C   UNL     1      -7.454  15.169  68.625  1.00  0.00    -0.124 A  
HETATM   15  C   UNL     1     -10.533  14.327  66.579  1.00  0.00    -0.287 A  
HETATM   16  C   UNL     1      -6.417  16.103  68.598  1.00  0.00    -0.120 A  
HETATM   17  C   UNL     1     -10.285  15.276  65.563  1.00  0.00    -0.388 A  
HETATM   18  C   UNL     1     -11.715  13.548  66.466  1.00  0.00    -0.408 A  
HETATM   19  C   UNL     1      -6.349  17.018  67.558  1.00  0.00    -0.172 A  
HETATM   20  C   UNL     1     -12.589  13.679  65.385  1.00  0.00    -0.533 A  
HETATM   21  C   UNL     1     -12.283  14.563  64.365  1.00  0.00    -0.480 A  
HETATM   22  C   UNL     1      -7.319  16.988  66.556  1.00  0.00    -0.320 A  
HETATM   23  C   UNL     1      -8.360  16.069  66.570  1.00  0.00    -0.313 A  
HETATM   24  N   UNL     1      -9.240  16.112  65.564  1.00  0.00    -0.325 NA 
ENDBRANCH   9  11
ENDBRANCH   4   9
BRANCH   6  25
HETATM   25  N   UNL     1      -9.485   7.494  68.556  1.00  0.00    -0.145 N  
HETATM   26  H   UNL     1      -9.528   7.033  69.465  1.00  0.00     0.000 HD 
BRANCH  25  27
HETATM   27  S   UNL     1      -9.346   6.607  67.123  1.00  0.00    -0.139 S  
HETATM   28  C   UNL     1      -7.769   5.803  67.366  1.00  0.00    -0.097 C  
HETATM   29  O   UNL     1      -9.182   7.590  66.076  1.00  0.00    -0.143 OA 
HETATM   30  O   UNL     1     -10.380   5.599  67.051  1.00  0.00    -0.199 OA 
ENDBRANCH  25  27
ENDBRANCH   6  25
ENDBRANCH   2   3
TORSDOF 5
ENDMDL
MODEL      139
REMARK 921   NORMALIZED FREE ENERGY PREDICTED BY IDOCK:   -5.13 KCAL/MOL
REMARK 922        TOTAL FREE ENERGY PREDICTED BY IDOCK:   -7.17 KCAL/MOL
REMARK 923 INTER-LIGAND FREE ENERGY PREDICTED BY IDOCK:   -7.09 KCAL/MOL
REMARK 924 INTRA-LIGAND FREE ENERGY PREDICTED BY IDOCK:   -0.08 KCAL/MOL
REMARK 927      BINDING AFFINITY PREDICTED BY RF-SCORE:    0.00 PKD
ROOT
HETATM    1  C   UNL     1      -9.083   8.017  66.100  1.00  0.00    -0.176 C  
HETATM    2  O   UNL     1      -9.363   9.410  66.276  1.00  0.00    -0.168 OA 
ENDROOT
BRANCH   2   3
HETATM    3  C   UNL     1      -9.919   9.720  67.499  1.00  0.00    -0.184 A  
HETATM    4  C   UNL     1      -9.852  11.069  67.923  1.00  0.00    -0.171 A  
HETATM    5  C   UNL     1     -10.498  11.428  69.113  1.00  0.00    -0.159 A  
HETATM    6  C   UNL     1     -11.090   9.118  69.523  1.00  0.00    -0.051 A  
HETATM    7  C   UNL     1     -11.118  10.457  69.910  1.00  0.00    -0.367 A  
HETATM    8  C   UNL     1     -10.494   8.748  68.322  1.00  0.00    -0.236 A  
BRANCH   4   9
HETATM    9  N   UNL     1      -9.115  12.005  67.168  1.00  0.00    -0.180 NA 
HETATM   10  H   UNL     1      -8.253  11.612  66.789  1.00  0.00     0.000 HD 
BRANCH   9  11
HETATM   11  C   UNL     1      -9.297  13.376  66.814  1.00  0.00    -0.256 A  
HETATM   12  C   UNL     1      -8.582  16.836  67.893  1.00  0.00    -0.202 A  
HETATM   13  C   UNL     1     -10.349  13.666  65.890  1.00  0.00    -0.304 A  
HETATM   14  C   UNL     1     -11.045  12.683  65.143  1.00  0.00    -0.329 A  
HETATM   15  C   UNL     1      -8.614  14.454  67.452  1.00  0.00    -0.213 A  
HETATM   16  C   UNL     1     -12.050  13.027  64.238  1.00  0.00    -0.480 A  
HETATM   17  C   UNL     1      -9.119  15.751  67.211  1.00  0.00    -0.207 A  
HETATM   18  C   UNL     1      -7.505  14.342  68.331  1.00  0.00    -0.122 A  
HETATM   19  C   UNL     1     -12.387  14.361  64.066  1.00  0.00    -0.243 A  
HETATM   20  C   UNL     1      -6.946  15.453  68.967  1.00  0.00    -0.138 A  
HETATM   21  C   UNL     1      -7.508  16.703  68.771  1.00  0.00    -0.224 A  
HETATM   22  C   UNL     1     -11.715  15.336  64.802  1.00  0.00    -0.276 A  
HETATM   23  C   UNL     1     -10.709  15.013  65.704  1.00  0.00    -0.354 A  
HETATM   24  N   UNL     1     -10.124  16.015  66.369  1.00  0.00    -0.284 NA 
ENDBRANCH   9  11
ENDBRANCH   4   9
BRANCH   6  25
HETATM   25  N   UNL     1     -11.608   8.084  70.360  1.00  0.00    -0.459 N  
HETATM   26  H   UNL     1     -11.411   7.100  70.176  1.00  0.00     0.000 HD 
BRANCH  25  27
HETATM   27  S   UNL     1     -12.564   8.561  71.671  1.00  0.00    -0.343 S  
HETATM   28  C   UNL     1     -13.798   7.269  71.687  1.00  0.00    -0.349 C  
HETATM   29  O   UNL     1     -13.213   9.783  71.252  1.00  0.00    -0.372 OA 
HETATM   30  O   UNL     1     -11.804   8.498  72.899  1.00  0.00    -0.238 OA 
ENDBRANCH  25  27
ENDBRANCH   6  25
ENDBRANCH   2   3
TORSDOF 5
ENDMDL
MODEL      140
REMARK 921   NORMALIZED FREE ENERGY PREDICTED BY IDOCK:   -5.12 KCAL/MOL
REMARK 922        TOTAL FREE ENERGY PREDICTED BY IDOCK:   -7.15 KCAL/MOL
REMARK 923 INTER-LIGAND FREE ENERGY PREDICTED BY IDOCK:   -6.42 KCAL/MOL
REMARK 924 INTRA-LIGAND FREE ENERGY PREDICTED BY IDOCK:   -0.73 KCAL/MOL
REMARK 927      BINDING AFFINITY PREDICTED BY RF-SCORE:    0.00 PKD
ROOT
HETATM    1  C   UNL     1      -7.005   7.660  70.642  1.00  0.00    -0.047 C  
HETATM    2  O   UNL     1      -6.963   8.117  69.286  1.00  0.00    -0.053 OA 
ENDROOT
BRANCH   2   3
HETATM    3  C   UNL     1      -7.985   7.631  68.498  1.00  0.00    -0.123 A  
HETATM    4  C   UNL     1      -9.073   8.497  68.235  1.00  0.00    -0.138 A  
HETATM    5  C   UNL     1     -10.074   8.063  67.357  1.00  0.00    -0.294 A  
HETATM    6  C   UNL     1      -9.012   5.897  67.169  1.00  0.00    -0.113 A  
HETATM    7  C   UNL     1     -10.043   6.769  66.822  1.00  0.00    -0.250 A  
HETATM    8  C   UNL     1      -7.985   6.324  68.003  1.00  0.00    -0.108 A  
BRANCH   4   9
HETATM    9  N   UNL     1      -9.147   9.747  68.884  1.00  0.00    -0.142 NA 
HETATM   10  H   UNL     1      -8.240  10.209  68.949  1.00  0.00     0.000 HD 
BRANCH   9  11
HETATM   11  C   UNL     1     -10.199  10.513  69.470  1.00  0.00    -0.200 A  
HETATM   12  C   UNL     1     -13.144  10.292  71.691  1.00  0.00    -0.553 A  
HETATM   13  C   UNL     1     -10.513  11.760  68.843  1.00  0.00    -0.182 A  
HETATM   14  C   UNL     1      -9.709  12.374  67.851  1.00  0.00    -0.204 A  
HETATM   15  C   UNL     1     -11.043  10.029  70.514  1.00  0.00    -0.400 A  
HETATM   16  C   UNL     1     -10.053  13.603  67.289  1.00  0.00    -0.239 A  
HETATM   17  C   UNL     1     -12.217  10.770  70.773  1.00  0.00    -0.381 A  
HETATM   18  C   UNL     1     -10.832   8.855  71.286  1.00  0.00    -0.360 A  
HETATM   19  C   UNL     1     -11.214  14.242  67.699  1.00  0.00    -0.321 A  
HETATM   20  C   UNL     1     -11.754   8.420  72.241  1.00  0.00    -0.453 A  
HETATM   21  C   UNL     1     -12.931   9.126  72.422  1.00  0.00    -0.468 A  
HETATM   22  C   UNL     1     -12.017  13.642  68.669  1.00  0.00    -0.395 A  
HETATM   23  C   UNL     1     -11.687  12.421  69.244  1.00  0.00    -0.329 A  
HETATM   24  N   UNL     1     -12.521  11.920  70.161  1.00  0.00    -0.136 NA 
ENDBRANCH   9  11
ENDBRANCH   4   9
BRANCH   6  25
HETATM   25  N   UNL     1      -9.004   4.536  66.739  1.00  0.00    -0.112 N  
HETATM   26  H   UNL     1      -9.194   4.282  65.769  1.00  0.00     0.000 HD 
BRANCH  25  27
HETATM   27  S   UNL     1      -8.663   3.361  67.906  1.00  0.00    -0.121 S  
HETATM   28  C   UNL     1      -9.087   1.865  67.025  1.00  0.00    -0.084 C  
HETATM   29  O   UNL     1      -9.651   3.552  68.945  1.00  0.00    -0.165 OA 
HETATM   30  O   UNL     1      -7.250   3.343  68.209  1.00  0.00    -0.050 OA 
ENDBRANCH  25  27
ENDBRANCH   6  25
ENDBRANCH   2   3
TORSDOF 5
ENDMDL
MODEL      141
REMARK 921   NORMALIZED FREE ENERGY PREDICTED BY IDOCK:   -5.11 KCAL/MOL
REMARK 922        TOTAL FREE ENERGY PREDICTED BY IDOCK:   -7.14 KCAL/MOL
REMARK 923 INTER-LIGAND FREE ENERGY PREDICTED BY IDOCK:   -6.63 KCAL/MOL
REMARK 924 INTRA-LIGAND FREE ENERGY PREDICTED BY IDOCK:   -0.51 KCAL/MOL
REMARK 927      BINDING AFFINITY PREDICTED BY RF-SCORE:    0.00 PKD
ROOT
HETATM    1  C   UNL     1      -7.027  11.124  69.002  1.00  0.00    -0.101 C  
HETATM    2  O   UNL     1      -7.052   9.694  68.934  1.00  0.00    -0.065 OA 
ENDROOT
BRANCH   2   3
HETATM    3  C   UNL     1      -8.038   9.188  68.114  1.00  0.00    -0.104 A  
HETATM    4  C   UNL     1      -9.145   8.561  68.735  1.00  0.00    -0.143 A  
HETATM    5  C   UNL     1     -10.206   8.129  67.929  1.00  0.00    -0.274 A  
HETATM    6  C   UNL     1      -8.991   8.767  65.936  1.00  0.00    -0.195 A  
HETATM    7  C   UNL     1     -10.132   8.234  66.533  1.00  0.00    -0.303 A  
HETATM    8  C   UNL     1      -7.946   9.243  66.720  1.00  0.00    -0.108 A  
BRANCH   4   9
HETATM    9  N   UNL     1      -9.141   8.353  70.129  1.00  0.00    -0.148 NA 
HETATM   10  H   UNL     1      -8.217   8.477  70.542  1.00  0.00     0.000 HD 
BRANCH   9  11
HETATM   11  C   UNL     1     -10.134   8.008  71.096  1.00  0.00    -0.188 A  
HETATM   12  C   UNL     1     -11.588   5.176  72.970  1.00  0.00    -0.301 A  
HETATM   13  C   UNL     1     -11.201   8.942  71.283  1.00  0.00    -0.368 A  
HETATM   14  C   UNL     1     -11.206  10.259  70.758  1.00  0.00    -0.373 A  
HETATM   15  C   UNL     1     -10.204   6.736  71.738  1.00  0.00    -0.206 A  
HETATM   16  C   UNL     1     -12.266  11.135  70.990  1.00  0.00    -0.438 A  
HETATM   17  C   UNL     1     -11.402   6.440  72.425  1.00  0.00    -0.287 A  
HETATM   18  C   UNL     1      -9.201   5.730  71.717  1.00  0.00    -0.157 A  
HETATM   19  C   UNL     1     -13.349  10.712  71.746  1.00  0.00    -0.437 A  
HETATM   20  C   UNL     1      -9.389   4.483  72.317  1.00  0.00    -0.165 A  
HETATM   21  C   UNL     1     -10.602   4.193  72.919  1.00  0.00    -0.245 A  
HETATM   22  C   UNL     1     -13.359   9.416  72.260  1.00  0.00    -0.539 A  
HETATM   23  C   UNL     1     -12.310   8.531  72.043  1.00  0.00    -0.365 A  
HETATM   24  N   UNL     1     -12.410   7.307  72.571  1.00  0.00     0.002 NA 
ENDBRANCH   9  11
ENDBRANCH   4   9
BRANCH   6  25
HETATM   25  N   UNL     1      -8.826   8.786  64.518  1.00  0.00    -0.407 N  
HETATM   26  H   UNL     1      -8.700   7.926  63.984  1.00  0.00     0.000 HD 
BRANCH  25  27
HETATM   27  S   UNL     1      -8.850  10.298  63.760  1.00  0.00    -0.241 S  
HETATM   28  C   UNL     1      -7.152  10.441  63.222  1.00  0.00    -0.043 C  
HETATM   29  O   UNL     1      -9.056  11.258  64.822  1.00  0.00    -0.142 OA 
HETATM   30  O   UNL     1      -9.709  10.268  62.599  1.00  0.00    -0.288 OA 
ENDBRANCH  25  27
ENDBRANCH   6  25
ENDBRANCH   2   3
TORSDOF 5
ENDMDL
MODEL      142
REMARK 921   NORMALIZED FREE ENERGY PREDICTED BY IDOCK:   -5.10 KCAL/MOL
REMARK 922        TOTAL FREE ENERGY PREDICTED BY IDOCK:   -7.12 KCAL/MOL
REMARK 923 INTER-LIGAND FREE ENERGY PREDICTED BY IDOCK:   -6.58 KCAL/MOL
REMARK 924 INTRA-LIGAND FREE ENERGY PREDICTED BY IDOCK:   -0.54 KCAL/MOL
REMARK 927      BINDING AFFINITY PREDICTED BY RF-SCORE:    0.00 PKD
ROOT
HETATM    1  C   UNL     1      -7.775  12.847  68.410  1.00  0.00    -0.133 C  
HETATM    2  O   UNL     1      -8.265  12.570  67.093  1.00  0.00    -0.180 OA 
ENDROOT
BRANCH   2   3
HETATM    3  C   UNL     1      -9.406  13.269  66.760  1.00  0.00    -0.252 A  
HETATM    4  C   UNL     1     -10.608  12.534  66.633  1.00  0.00    -0.237 A  
HETATM    5  C   UNL     1     -11.797  13.234  66.393  1.00  0.00    -0.446 A  
HETATM    6  C   UNL     1     -10.573  15.315  66.229  1.00  0.00    -0.309 A  
HETATM    7  C   UNL     1     -11.782  14.621  66.195  1.00  0.00    -0.316 A  
HETATM    8  C   UNL     1      -9.388  14.645  66.511  1.00  0.00    -0.313 A  
BRANCH   4   9
HETATM    9  N   UNL     1     -10.580  11.126  66.710  1.00  0.00    -0.252 NA 
HETATM   10  H   UNL     1     -11.443  10.737  67.091  1.00  0.00     0.000 HD 
BRANCH   9  11
HETATM   11  C   UNL     1      -9.622  10.121  66.378  1.00  0.00    -0.191 A  
HETATM   12  C   UNL     1      -8.168   8.227  63.559  1.00  0.00    -0.084 A  
HETATM   13  C   UNL     1      -9.205   9.256  67.438  1.00  0.00    -0.145 A  
HETATM   14  C   UNL     1      -9.494   9.480  68.807  1.00  0.00    -0.147 A  
HETATM   15  C   UNL     1      -9.205   9.836  65.044  1.00  0.00    -0.307 A  
HETATM   16  C   UNL     1      -9.043   8.613  69.802  1.00  0.00    -0.150 A  
HETATM   17  C   UNL     1      -8.499   8.629  64.847  1.00  0.00    -0.161 A  
HETATM   18  C   UNL     1      -9.467  10.630  63.896  1.00  0.00    -0.325 A  
HETATM   19  C   UNL     1      -8.300   7.496  69.449  1.00  0.00    -0.132 A  
HETATM   20  C   UNL     1      -9.079  10.233  62.614  1.00  0.00    -0.299 A  
HETATM   21  C   UNL     1      -8.455   9.009  62.441  1.00  0.00    -0.213 A  
HETATM   22  C   UNL     1      -8.016   7.260  68.104  1.00  0.00    -0.123 A  
HETATM   23  C   UNL     1      -8.453   8.117  67.101  1.00  0.00    -0.124 A  
HETATM   24  N   UNL     1      -8.139   7.807  65.839  1.00  0.00    -0.114 NA 
ENDBRANCH   9  11
ENDBRANCH   4   9
BRANCH   6  25
HETATM   25  N   UNL     1     -10.499  16.707  65.920  1.00  0.00    -0.340 N  
HETATM   26  H   UNL     1     -10.903  17.085  65.063  1.00  0.00     0.000 HD 
BRANCH  25  27
HETATM   27  S   UNL     1      -9.710  17.703  67.036  1.00  0.00    -0.305 S  
HETATM   28  C   UNL     1     -10.535  19.262  66.751  1.00  0.00    -0.448 C  
HETATM   29  O   UNL     1      -8.354  17.829  66.551  1.00  0.00    -0.247 OA 
HETATM   30  O   UNL     1      -9.986  17.267  68.386  1.00  0.00    -0.285 OA 
ENDBRANCH  25  27
ENDBRANCH   6  25
ENDBRANCH   2   3
TORSDOF 5
ENDMDL
MODEL      143
REMARK 921   NORMALIZED FREE ENERGY PREDICTED BY IDOCK:   -5.09 KCAL/MOL
REMARK 922        TOTAL FREE ENERGY PREDICTED BY IDOCK:   -7.12 KCAL/MOL
REMARK 923 INTER-LIGAND FREE ENERGY PREDICTED BY IDOCK:   -7.66 KCAL/MOL
REMARK 924 INTRA-LIGAND FREE ENERGY PREDICTED BY IDOCK:    0.54 KCAL/MOL
REMARK 927      BINDING AFFINITY PREDICTED BY RF-SCORE:    0.00 PKD
ROOT
HETATM    1  C   UNL     1     -10.705  11.638  68.108  1.00  0.00    -0.213 C  
HETATM    2  O   UNL     1     -10.553  10.573  69.053  1.00  0.00    -0.194 OA 
ENDROOT
BRANCH   2   3
HETATM    3  C   UNL     1     -11.485  10.586  70.069  1.00  0.00    -0.316 A  
HETATM    4  C   UNL     1     -11.904   9.337  70.586  1.00  0.00    -0.192 A  
HETATM    5  C   UNL     1     -12.773   9.327  71.684  1.00  0.00    -0.442 A  
HETATM    6  C   UNL     1     -12.936  11.740  71.617  1.00  0.00    -0.362 A  
HETATM    7  C   UNL     1     -13.286  10.524  72.201  1.00  0.00    -0.398 A  
HETATM    8  C   UNL     1     -12.039  11.775  70.554  1.00  0.00    -0.439 A  
BRANCH   4   9
HETATM    9  N   UNL     1     -11.474   8.144  69.970  1.00  0.00    -0.465 NA 
HETATM   10  H   UNL     1     -12.186   7.738  69.361  1.00  0.00     0.000 HD 
BRANCH   9  11
HETATM   11  C   UNL     1     -10.273   7.373  70.002  1.00  0.00    -0.209 A  
HETATM   12  C   UNL     1      -6.999   7.057  71.684  1.00  0.00    -0.069 A  
HETATM   13  C   UNL     1      -9.978   6.594  68.839  1.00  0.00    -0.160 A  
HETATM   14  C   UNL     1     -10.897   6.359  67.786  1.00  0.00    -0.418 A  
HETATM   15  C   UNL     1      -9.295   7.477  71.035  1.00  0.00    -0.157 A  
HETATM   16  C   UNL     1     -10.562   5.572  66.685  1.00  0.00    -0.365 A  
HETATM   17  C   UNL     1      -8.036   6.891  70.775  1.00  0.00    -0.114 A  
HETATM   18  C   UNL     1      -9.456   8.145  72.279  1.00  0.00    -0.312 A  
HETATM   19  C   UNL     1      -9.297   5.008  66.607  1.00  0.00    -0.138 A  
HETATM   20  C   UNL     1      -8.413   8.255  73.202  1.00  0.00    -0.265 A  
HETATM   21  C   UNL     1      -7.169   7.736  72.888  1.00  0.00    -0.102 A  
HETATM   22  C   UNL     1      -8.381   5.240  67.633  1.00  0.00    -0.106 A  
HETATM   23  C   UNL     1      -8.700   6.017  68.740  1.00  0.00    -0.111 A  
HETATM   24  N   UNL     1      -7.756   6.189  69.671  1.00  0.00    -0.096 NA 
ENDBRANCH   9  11
ENDBRANCH   4   9
BRANCH   6  25
HETATM   25  N   UNL     1     -13.523  12.971  72.038  1.00  0.00    -0.506 N  
HETATM   26  H   UNL     1     -14.173  13.011  72.823  1.00  0.00     0.000 HD 
BRANCH  25  27
HETATM   27  S   UNL     1     -13.094  14.363  71.178  1.00  0.00    -0.344 S  
HETATM   28  C   UNL     1     -11.832  15.050  72.240  1.00  0.00    -0.350 C  
HETATM   29  O   UNL     1     -14.248  15.232  71.249  1.00  0.00    -0.482 OA 
HETATM   30  O   UNL     1     -12.499  14.010  69.909  1.00  0.00    -0.333 OA 
ENDBRANCH  25  27
ENDBRANCH   6  25
ENDBRANCH   2   3
TORSDOF 5
ENDMDL
MODEL      144
REMARK 921   NORMALIZED FREE ENERGY PREDICTED BY IDOCK:   -5.08 KCAL/MOL
REMARK 922        TOTAL FREE ENERGY PREDICTED BY IDOCK:   -7.10 KCAL/MOL
REMARK 923 INTER-LIGAND FREE ENERGY PREDICTED BY IDOCK:   -6.42 KCAL/MOL
REMARK 924 INTRA-LIGAND FREE ENERGY PREDICTED BY IDOCK:   -0.68 KCAL/MOL
REMARK 927      BINDING AFFINITY PREDICTED BY RF-SCORE:    0.00 PKD
ROOT
HETATM    1  C   UNL     1     -10.888   9.770  69.672  1.00  0.00    -0.250 C  
HETATM    2  O   UNL     1      -9.866  10.657  69.204  1.00  0.00    -0.207 OA 
ENDROOT
BRANCH   2   3
HETATM    3  C   UNL     1      -9.343  10.313  67.975  1.00  0.00    -0.138 A  
HETATM    4  C   UNL     1      -8.770  11.348  67.198  1.00  0.00    -0.155 A  
HETATM    5  C   UNL     1      -8.144  11.008  65.992  1.00  0.00    -0.110 A  
HETATM    6  C   UNL     1      -8.817   8.699  66.259  1.00  0.00    -0.157 A  
HETATM    7  C   UNL     1      -8.163   9.687  65.524  1.00  0.00    -0.126 A  
HETATM    8  C   UNL     1      -9.405   9.007  67.481  1.00  0.00    -0.159 A  
BRANCH   4   9
HETATM    9  N   UNL     1      -8.874  12.686  67.628  1.00  0.00    -0.174 NA 
HETATM   10  H   UNL     1      -8.607  12.807  68.605  1.00  0.00     0.000 HD 
BRANCH   9  11
HETATM   11  C   UNL     1      -9.266  13.913  67.010  1.00  0.00    -0.250 A  
HETATM   12  C   UNL     1     -11.601  15.376  64.549  1.00  0.00    -0.296 A  
HETATM   13  C   UNL     1      -8.322  14.986  67.056  1.00  0.00    -0.254 A  
HETATM   14  C   UNL     1      -7.156  14.985  67.860  1.00  0.00    -0.165 A  
HETATM   15  C   UNL     1     -10.446  14.058  66.221  1.00  0.00    -0.286 A  
HETATM   16  C   UNL     1      -6.280  16.071  67.882  1.00  0.00    -0.147 A  
HETATM   17  C   UNL     1     -10.539  15.225  65.432  1.00  0.00    -0.394 A  
HETATM   18  C   UNL     1     -11.513  13.124  66.127  1.00  0.00    -0.366 A  
HETATM   19  C   UNL     1      -6.547  17.179  67.092  1.00  0.00    -0.210 A  
HETATM   20  C   UNL     1     -12.598  13.321  65.271  1.00  0.00    -0.528 A  
HETATM   21  C   UNL     1     -12.626  14.438  64.453  1.00  0.00    -0.196 A  
HETATM   22  C   UNL     1      -7.688  17.188  66.289  1.00  0.00    -0.350 A  
HETATM   23  C   UNL     1      -8.573  16.117  66.260  1.00  0.00    -0.338 A  
HETATM   24  N   UNL     1      -9.637  16.213  65.455  1.00  0.00    -0.444 NA 
ENDBRANCH   9  11
ENDBRANCH   4   9
BRANCH   6  25
HETATM   25  N   UNL     1      -8.959   7.367  65.764  1.00  0.00    -0.354 N  
HETATM   26  H   UNL     1      -9.649   7.135  65.050  1.00  0.00     0.000 HD 
BRANCH  25  27
HETATM   27  S   UNL     1      -7.932   6.191  66.414  1.00  0.00    -0.108 S  
HETATM   28  C   UNL     1      -6.370   6.651  65.679  1.00  0.00    -0.046 C  
HETATM   29  O   UNL     1      -8.348   4.942  65.814  1.00  0.00    -0.111 OA 
HETATM   30  O   UNL     1      -7.837   6.338  67.848  1.00  0.00    -0.101 OA 
ENDBRANCH  25  27
ENDBRANCH   6  25
ENDBRANCH   2   3
TORSDOF 5
ENDMDL
MODEL      145
REMARK 921   NORMALIZED FREE ENERGY PREDICTED BY IDOCK:   -5.06 KCAL/MOL
REMARK 922        TOTAL FREE ENERGY PREDICTED BY IDOCK:   -7.07 KCAL/MOL
REMARK 923 INTER-LIGAND FREE ENERGY PREDICTED BY IDOCK:   -6.29 KCAL/MOL
REMARK 924 INTRA-LIGAND FREE ENERGY PREDICTED BY IDOCK:   -0.78 KCAL/MOL
REMARK 927      BINDING AFFINITY PREDICTED BY RF-SCORE:    0.00 PKD
ROOT
HETATM    1  C   UNL     1      -9.609   9.343  71.060  1.00  0.00    -0.202 C  
HETATM    2  O   UNL     1     -10.759   9.268  70.211  1.00  0.00    -0.215 OA 
ENDROOT
BRANCH   2   3
HETATM    3  C   UNL     1     -10.480   9.435  68.871  1.00  0.00    -0.216 A  
HETATM    4  C   UNL     1     -10.633   8.309  68.027  1.00  0.00    -0.127 A  
HETATM    5  C   UNL     1     -10.453   8.479  66.649  1.00  0.00    -0.235 A  
HETATM    6  C   UNL     1      -9.805  10.785  66.986  1.00  0.00    -0.187 A  
HETATM    7  C   UNL     1     -10.043   9.713  66.128  1.00  0.00    -0.328 A  
HETATM    8  C   UNL     1     -10.022  10.650  68.354  1.00  0.00    -0.176 A  
BRANCH   4   9
HETATM    9  N   UNL     1     -10.922   7.048  68.587  1.00  0.00    -0.442 NA 
HETATM   10  H   UNL     1     -11.915   6.817  68.544  1.00  0.00     0.000 HD 
BRANCH   9  11
HETATM   11  C   UNL     1     -10.145   6.020  69.202  1.00  0.00    -0.181 A  
HETATM   12  C   UNL     1      -7.810   3.246  68.494  1.00  0.00    -0.059 A  
HETATM   13  C   UNL     1     -10.526   5.630  70.524  1.00  0.00    -0.347 A  
HETATM   14  C   UNL     1     -11.448   6.345  71.329  1.00  0.00    -0.371 A  
HETATM   15  C   UNL     1      -9.148   5.265  68.515  1.00  0.00    -0.127 A  
HETATM   16  C   UNL     1     -11.766   5.929  72.622  1.00  0.00    -0.247 A  
HETATM   17  C   UNL     1      -8.689   4.093  69.156  1.00  0.00    -0.086 A  
HETATM   18  C   UNL     1      -8.606   5.561  67.236  1.00  0.00    -0.108 A  
HETATM   19  C   UNL     1     -11.177   4.784  73.136  1.00  0.00    -0.390 A  
HETATM   20  C   UNL     1      -7.682   4.721  66.610  1.00  0.00    -0.095 A  
HETATM   21  C   UNL     1      -7.306   3.541  67.229  1.00  0.00    -0.063 A  
HETATM   22  C   UNL     1     -10.275   4.067  72.350  1.00  0.00    -0.232 A  
HETATM   23  C   UNL     1      -9.943   4.470  71.062  1.00  0.00    -0.187 A  
HETATM   24  N   UNL     1      -9.073   3.716  70.381  1.00  0.00    -0.113 NA 
ENDBRANCH   9  11
ENDBRANCH   4   9
BRANCH   6  25
HETATM   25  N   UNL     1      -9.277  12.024  66.511  1.00  0.00    -0.214 N  
HETATM   26  H   UNL     1      -8.280  12.232  66.561  1.00  0.00     0.000 HD 
BRANCH  25  27
HETATM   27  S   UNL     1     -10.378  13.131  65.862  1.00  0.00    -0.293 S  
HETATM   28  C   UNL     1     -10.304  12.714  64.126  1.00  0.00    -0.387 C  
HETATM   29  O   UNL     1      -9.763  14.429  66.027  1.00  0.00    -0.300 OA 
HETATM   30  O   UNL     1     -11.711  12.865  66.351  1.00  0.00    -0.355 OA 
ENDBRANCH  25  27
ENDBRANCH   6  25
ENDBRANCH   2   3
TORSDOF 5
ENDMDL
MODEL      146
REMARK 921   NORMALIZED FREE ENERGY PREDICTED BY IDOCK:   -5.03 KCAL/MOL
REMARK 922        TOTAL FREE ENERGY PREDICTED BY IDOCK:   -7.04 KCAL/MOL
REMARK 923 INTER-LIGAND FREE ENERGY PREDICTED BY IDOCK:   -6.59 KCAL/MOL
REMARK 924 INTRA-LIGAND FREE ENERGY PREDICTED BY IDOCK:   -0.44 KCAL/MOL
REMARK 927      BINDING AFFINITY PREDICTED BY RF-SCORE:    0.00 PKD
ROOT
HETATM    1  C   UNL     1      -9.480   9.898  69.736  1.00  0.00    -0.226 C  
HETATM    2  O   UNL     1      -9.345  10.673  68.541  1.00  0.00    -0.155 OA 
ENDROOT
BRANCH   2   3
HETATM    3  C   UNL     1      -8.437  10.160  67.638  1.00  0.00    -0.118 A  
HETATM    4  C   UNL     1      -7.814  11.070  66.751  1.00  0.00    -0.149 A  
HETATM    5  C   UNL     1      -6.816  10.589  65.894  1.00  0.00    -0.132 A  
HETATM    6  C   UNL     1      -7.200   8.329  66.667  1.00  0.00    -0.081 A  
HETATM    7  C   UNL     1      -6.506   9.223  65.853  1.00  0.00    -0.071 A  
HETATM    8  C   UNL     1      -8.162   8.792  67.557  1.00  0.00    -0.110 A  
BRANCH   4   9
HETATM    9  N   UNL     1      -8.230  12.417  66.722  1.00  0.00    -0.380 NA 
HETATM   10  H   UNL     1      -7.447  13.071  66.748  1.00  0.00     0.000 HD 
BRANCH   9  11
HETATM   11  C   UNL     1      -9.495  13.076  66.664  1.00  0.00    -0.256 A  
HETATM   12  C   UNL     1     -11.867  15.117  68.630  1.00  0.00    -0.329 A  
HETATM   13  C   UNL     1     -10.400  12.642  65.644  1.00  0.00    -0.293 A  
HETATM   14  C   UNL     1     -10.037  11.792  64.570  1.00  0.00    -0.312 A  
HETATM   15  C   UNL     1      -9.953  13.996  67.654  1.00  0.00    -0.237 A  
HETATM   16  C   UNL     1     -10.957  11.419  63.591  1.00  0.00    -0.443 A  
HETATM   17  C   UNL     1     -11.327  14.323  67.625  1.00  0.00    -0.324 A  
HETATM   18  C   UNL     1      -9.168  14.580  68.684  1.00  0.00    -0.192 A  
HETATM   19  C   UNL     1     -12.263  11.880  63.668  1.00  0.00    -0.586 A  
HETATM   20  C   UNL     1      -9.722  15.417  69.654  1.00  0.00    -0.251 A  
HETATM   21  C   UNL     1     -11.084  15.661  69.646  1.00  0.00    -0.299 A  
HETATM   22  C   UNL     1     -12.633  12.710  64.726  1.00  0.00    -0.530 A  
HETATM   23  C   UNL     1     -11.729  13.096  65.707  1.00  0.00    -0.374 A  
HETATM   24  N   UNL     1     -12.176  13.890  66.686  1.00  0.00    -0.440 NA 
ENDBRANCH   9  11
ENDBRANCH   4   9
BRANCH   6  25
HETATM   25  N   UNL     1      -6.997   6.918  66.574  1.00  0.00    -0.064 N  
HETATM   26  H   UNL     1      -6.427   6.417  67.255  1.00  0.00     0.000 HD 
BRANCH  25  27
HETATM   27  S   UNL     1      -7.743   6.116  65.286  1.00  0.00    -0.101 S  
HETATM   28  C   UNL     1      -6.335   5.739  64.252  1.00  0.00    -0.029 C  
HETATM   29  O   UNL     1      -8.529   7.122  64.608  1.00  0.00    -0.000 OA 
HETATM   30  O   UNL     1      -8.337   4.878  65.738  1.00  0.00    -0.111 OA 
ENDBRANCH  25  27
ENDBRANCH   6  25
ENDBRANCH   2   3
TORSDOF 5
ENDMDL
MODEL      147
REMARK 921   NORMALIZED FREE ENERGY PREDICTED BY IDOCK:   -4.99 KCAL/MOL
REMARK 922        TOTAL FREE ENERGY PREDICTED BY IDOCK:   -6.98 KCAL/MOL
REMARK 923 INTER-LIGAND FREE ENERGY PREDICTED BY IDOCK:   -6.34 KCAL/MOL
REMARK 924 INTRA-LIGAND FREE ENERGY PREDICTED BY IDOCK:   -0.64 KCAL/MOL
REMARK 927      BINDING AFFINITY PREDICTED BY RF-SCORE:    0.00 PKD
ROOT
HETATM    1  C   UNL     1      -9.466   9.879  69.752  1.00  0.00    -0.226 C  
HETATM    2  O   UNL     1      -9.299  10.655  68.560  1.00  0.00    -0.155 OA 
ENDROOT
BRANCH   2   3
HETATM    3  C   UNL     1      -8.311  10.189  67.719  1.00  0.00    -0.114 A  
HETATM    4  C   UNL     1      -7.704  11.122  66.846  1.00  0.00    -0.148 A  
HETATM    5  C   UNL     1      -6.630  10.694  66.054  1.00  0.00    -0.128 A  
HETATM    6  C   UNL     1      -6.900   8.428  66.859  1.00  0.00    -0.069 A  
HETATM    7  C   UNL     1      -6.226   9.353  66.062  1.00  0.00    -0.067 A  
HETATM    8  C   UNL     1      -7.939   8.841  67.686  1.00  0.00    -0.106 A  
BRANCH   4   9
HETATM    9  N   UNL     1      -8.209  12.435  66.763  1.00  0.00    -0.380 NA 
HETATM   10  H   UNL     1      -7.475  13.143  66.817  1.00  0.00     0.000 HD 
BRANCH   9  11
HETATM   11  C   UNL     1      -9.511  13.004  66.620  1.00  0.00    -0.256 A  
HETATM   12  C   UNL     1     -12.348  13.363  64.280  1.00  0.00    -0.396 A  
HETATM   13  C   UNL     1      -9.847  14.072  67.510  1.00  0.00    -0.236 A  
HETATM   14  C   UNL     1      -9.081  14.429  68.647  1.00  0.00    -0.178 A  
HETATM   15  C   UNL     1     -10.400  12.684  65.551  1.00  0.00    -0.305 A  
HETATM   16  C   UNL     1      -9.468  15.469  69.493  1.00  0.00    -0.269 A  
HETATM   17  C   UNL     1     -11.508  13.541  65.373  1.00  0.00    -0.302 A  
HETATM   18  C   UNL     1     -10.254  11.612  64.630  1.00  0.00    -0.327 A  
HETATM   19  C   UNL     1     -10.627  16.179  69.216  1.00  0.00    -0.280 A  
HETATM   20  C   UNL     1     -11.140  11.420  63.568  1.00  0.00    -0.373 A  
HETATM   21  C   UNL     1     -12.174  12.320  63.373  1.00  0.00    -0.630 A  
HETATM   22  C   UNL     1     -11.384  15.842  68.095  1.00  0.00    -0.337 A  
HETATM   23  C   UNL     1     -11.016  14.807  67.244  1.00  0.00    -0.318 A  
HETATM   24  N   UNL     1     -11.801  14.559  66.190  1.00  0.00    -0.363 NA 
ENDBRANCH   9  11
ENDBRANCH   4   9
BRANCH   6  25
HETATM   25  N   UNL     1      -6.597   7.034  66.810  1.00  0.00    -0.053 N  
HETATM   26  H   UNL     1      -5.924   6.613  67.451  1.00  0.00     0.000 HD 
BRANCH  25  27
HETATM   27  S   UNL     1      -7.402   6.110  65.645  1.00  0.00    -0.082 S  
HETATM   28  C   UNL     1      -6.080   5.787  64.487  1.00  0.00    -0.025 C  
HETATM   29  O   UNL     1      -8.331   7.017  65.008  1.00  0.00    -0.125 OA 
HETATM   30  O   UNL     1      -7.846   4.857  66.211  1.00  0.00    -0.094 OA 
ENDBRANCH  25  27
ENDBRANCH   6  25
ENDBRANCH   2   3
TORSDOF 5
ENDMDL
MODEL      148
REMARK 921   NORMALIZED FREE ENERGY PREDICTED BY IDOCK:   -4.98 KCAL/MOL
REMARK 922        TOTAL FREE ENERGY PREDICTED BY IDOCK:   -6.97 KCAL/MOL
REMARK 923 INTER-LIGAND FREE ENERGY PREDICTED BY IDOCK:   -6.55 KCAL/MOL
REMARK 924 INTRA-LIGAND FREE ENERGY PREDICTED BY IDOCK:   -0.42 KCAL/MOL
REMARK 927      BINDING AFFINITY PREDICTED BY RF-SCORE:    0.00 PKD
ROOT
HETATM    1  C   UNL     1     -11.073   6.326  68.507  1.00  0.00    -0.308 C  
HETATM    2  O   UNL     1      -9.985   7.199  68.826  1.00  0.00    -0.156 OA 
ENDROOT
BRANCH   2   3
HETATM    3  C   UNL     1      -9.408   7.802  67.728  1.00  0.00    -0.143 A  
HETATM    4  C   UNL     1      -9.096   9.179  67.829  1.00  0.00    -0.126 A  
HETATM    5  C   UNL     1      -8.418   9.788  66.766  1.00  0.00    -0.125 A  
HETATM    6  C   UNL     1      -8.538   7.744  65.477  1.00  0.00    -0.105 A  
HETATM    7  C   UNL     1      -8.136   9.074  65.594  1.00  0.00    -0.115 A  
HETATM    8  C   UNL     1      -9.171   7.107  66.539  1.00  0.00    -0.199 A  
BRANCH   4   9
HETATM    9  N   UNL     1      -9.501   9.908  68.965  1.00  0.00    -0.174 NA 
HETATM   10  H   UNL     1      -8.911   9.729  69.778  1.00  0.00     0.000 HD 
BRANCH   9  11
HETATM   11  C   UNL     1     -10.548  10.840  69.240  1.00  0.00    -0.229 A  
HETATM   12  C   UNL     1     -11.548  14.374  68.846  1.00  0.00    -0.340 A  
HETATM   13  C   UNL     1     -11.471  10.483  70.272  1.00  0.00    -0.416 A  
HETATM   14  C   UNL     1     -11.551   9.194  70.856  1.00  0.00    -0.350 A  
HETATM   15  C   UNL     1     -10.611  12.147  68.672  1.00  0.00    -0.248 A  
HETATM   16  C   UNL     1     -12.488   8.896  71.846  1.00  0.00    -0.445 A  
HETATM   17  C   UNL     1     -11.519  13.051  69.267  1.00  0.00    -0.289 A  
HETATM   18  C   UNL     1      -9.823  12.633  67.595  1.00  0.00    -0.210 A  
HETATM   19  C   UNL     1     -13.360   9.883  72.281  1.00  0.00    -0.429 A  
HETATM   20  C   UNL     1      -9.905  13.955  67.153  1.00  0.00    -0.241 A  
HETATM   21  C   UNL     1     -10.749  14.839  67.803  1.00  0.00    -0.268 A  
HETATM   22  C   UNL     1     -13.285  11.157  71.719  1.00  0.00    -0.486 A  
HETATM   23  C   UNL     1     -12.362  11.470  70.729  1.00  0.00    -0.375 A  
HETATM   24  N   UNL     1     -12.359  12.720  70.254  1.00  0.00    -0.253 NA 
ENDBRANCH   9  11
ENDBRANCH   4   9
BRANCH   6  25
HETATM   25  N   UNL     1      -8.373   7.015  64.260  1.00  0.00    -0.341 N  
HETATM   26  H   UNL     1      -9.172   6.756  63.682  1.00  0.00     0.000 HD 
BRANCH  25  27
HETATM   27  S   UNL     1      -6.794   6.599  63.819  1.00  0.00    -0.055 S  
HETATM   28  C   UNL     1      -6.094   6.170  65.406  1.00  0.00    -0.030 C  
HETATM   29  O   UNL     1      -6.177   7.833  63.387  1.00  0.00    -0.061 OA 
HETATM   30  O   UNL     1      -6.797   5.426  62.975  1.00  0.00    -0.035 OA 
ENDBRANCH  25  27
ENDBRANCH   6  25
ENDBRANCH   2   3
TORSDOF 5
ENDMDL
MODEL      149
REMARK 921   NORMALIZED FREE ENERGY PREDICTED BY IDOCK:   -4.98 KCAL/MOL
REMARK 922        TOTAL FREE ENERGY PREDICTED BY IDOCK:   -6.97 KCAL/MOL
REMARK 923 INTER-LIGAND FREE ENERGY PREDICTED BY IDOCK:   -6.50 KCAL/MOL
REMARK 924 INTRA-LIGAND FREE ENERGY PREDICTED BY IDOCK:   -0.47 KCAL/MOL
REMARK 927      BINDING AFFINITY PREDICTED BY RF-SCORE:    0.00 PKD
ROOT
HETATM    1  C   UNL     1     -11.982  15.550  70.203  1.00  0.00    -0.366 C  
HETATM    2  O   UNL     1     -11.663  14.502  69.282  1.00  0.00    -0.275 OA 
ENDROOT
BRANCH   2   3
HETATM    3  C   UNL     1     -11.013  14.932  68.144  1.00  0.00    -0.272 A  
HETATM    4  C   UNL     1     -10.355  13.955  67.360  1.00  0.00    -0.252 A  
HETATM    5  C   UNL     1      -9.775  14.352  66.149  1.00  0.00    -0.335 A  
HETATM    6  C   UNL     1     -10.338  16.661  66.601  1.00  0.00    -0.296 A  
HETATM    7  C   UNL     1      -9.769  15.700  65.767  1.00  0.00    -0.380 A  
HETATM    8  C   UNL     1     -10.960  16.282  67.785  1.00  0.00    -0.281 A  
BRANCH   4   9
HETATM    9  N   UNL     1     -10.265  12.627  67.825  1.00  0.00    -0.217 NA 
HETATM   10  H   UNL     1     -11.175  12.231  68.062  1.00  0.00     0.000 HD 
BRANCH   9  11
HETATM   11  C   UNL     1      -9.193  11.709  68.041  1.00  0.00    -0.178 A  
HETATM   12  C   UNL     1      -8.371   8.115  68.274  1.00  0.00    -0.126 A  
HETATM   13  C   UNL     1      -8.024  12.225  68.684  1.00  0.00    -0.050 A  
HETATM   14  C   UNL     1      -7.779  13.604  68.897  1.00  0.00     0.005 A  
HETATM   15  C   UNL     1      -9.297  10.305  67.810  1.00  0.00    -0.156 A  
HETATM   16  C   UNL     1      -6.609  14.052  69.512  1.00  0.00    -0.115 A  
HETATM   17  C   UNL     1      -8.273   9.498  68.354  1.00  0.00    -0.113 A  
HETATM   18  C   UNL     1     -10.348   9.643  67.122  1.00  0.00    -0.319 A  
HETATM   19  C   UNL     1      -5.664  13.131  69.936  1.00  0.00    -0.121 A  
HETATM   20  C   UNL     1     -10.400   8.252  67.008  1.00  0.00    -0.393 A  
HETATM   21  C   UNL     1      -9.423   7.482  67.615  1.00  0.00    -0.159 A  
HETATM   22  C   UNL     1      -5.899  11.770  69.739  1.00  0.00    -0.114 A  
HETATM   23  C   UNL     1      -7.055  11.307  69.123  1.00  0.00    -0.122 A  
HETATM   24  N   UNL     1      -7.197   9.984  68.983  1.00  0.00    -0.072 NA 
ENDBRANCH   9  11
ENDBRANCH   4   9
BRANCH   6  25
HETATM   25  N   UNL     1     -10.252  18.055  66.306  1.00  0.00    -0.380 N  
HETATM   26  H   UNL     1     -10.990  18.537  65.792  1.00  0.00     0.000 HD 
BRANCH  25  27
HETATM   27  S   UNL     1      -8.874  18.873  66.845  1.00  0.00    -0.308 S  
HETATM   28  C   UNL     1      -9.578  20.432  67.362  1.00  0.00    -0.444 C  
HETATM   29  O   UNL     1      -8.084  19.121  65.660  1.00  0.00    -0.413 OA 
HETATM   30  O   UNL     1      -8.310  18.209  67.998  1.00  0.00    -0.248 OA 
ENDBRANCH  25  27
ENDBRANCH   6  25
ENDBRANCH   2   3
TORSDOF 5
ENDMDL
MODEL      150
REMARK 921   NORMALIZED FREE ENERGY PREDICTED BY IDOCK:   -4.97 KCAL/MOL
REMARK 922        TOTAL FREE ENERGY PREDICTED BY IDOCK:   -6.96 KCAL/MOL
REMARK 923 INTER-LIGAND FREE ENERGY PREDICTED BY IDOCK:   -6.23 KCAL/MOL
REMARK 924 INTRA-LIGAND FREE ENERGY PREDICTED BY IDOCK:   -0.73 KCAL/MOL
REMARK 927      BINDING AFFINITY PREDICTED BY RF-SCORE:    0.00 PKD
ROOT
HETATM    1  C   UNL     1     -12.111  13.357  69.819  1.00  0.00    -0.310 C  
HETATM    2  O   UNL     1     -11.152  12.847  68.886  1.00  0.00    -0.246 OA 
ENDROOT
BRANCH   2   3
HETATM    3  C   UNL     1     -10.863  13.709  67.849  1.00  0.00    -0.250 A  
HETATM    4  C   UNL     1     -10.497  13.136  66.608  1.00  0.00    -0.277 A  
HETATM    5  C   UNL     1     -10.297  13.987  65.514  1.00  0.00    -0.354 A  
HETATM    6  C   UNL     1     -10.635  15.926  66.922  1.00  0.00    -0.309 A  
HETATM    7  C   UNL     1     -10.368  15.378  65.668  1.00  0.00    -0.395 A  
HETATM    8  C   UNL     1     -10.882  15.097  68.011  1.00  0.00    -0.284 A  
BRANCH   4   9
HETATM    9  N   UNL     1     -10.308  11.743  66.507  1.00  0.00    -0.218 NA 
HETATM   10  H   UNL     1     -11.182  11.221  66.579  1.00  0.00     0.000 HD 
BRANCH   9  11
HETATM   11  C   UNL     1      -9.174  10.894  66.328  1.00  0.00    -0.177 A  
HETATM   12  C   UNL     1      -6.210   9.506  68.043  1.00  0.00    -0.056 A  
HETATM   13  C   UNL     1      -8.760  10.650  64.981  1.00  0.00    -0.186 A  
HETATM   14  C   UNL     1      -9.526  10.995  63.840  1.00  0.00    -0.280 A  
HETATM   15  C   UNL     1      -8.355  10.432  67.401  1.00  0.00    -0.121 A  
HETATM   16  C   UNL     1      -9.081  10.714  62.548  1.00  0.00    -0.326 A  
HETATM   17  C   UNL     1      -7.110   9.866  67.048  1.00  0.00    -0.089 A  
HETATM   18  C   UNL     1      -8.656  10.525  68.786  1.00  0.00    -0.146 A  
HETATM   19  C   UNL     1      -7.855  10.090  62.368  1.00  0.00    -0.140 A  
HETATM   20  C   UNL     1      -7.757  10.109  69.771  1.00  0.00    -0.176 A  
HETATM   21  C   UNL     1      -6.514   9.627  69.397  1.00  0.00    -0.044 A  
HETATM   22  C   UNL     1      -7.089   9.754  63.483  1.00  0.00    -0.115 A  
HETATM   23  C   UNL     1      -7.519  10.022  64.777  1.00  0.00    -0.143 A  
HETATM   24  N   UNL     1      -6.714   9.669  65.785  1.00  0.00    -0.085 NA 
ENDBRANCH   9  11
ENDBRANCH   4   9
BRANCH   6  25
HETATM   25  N   UNL     1     -10.604  17.336  67.146  1.00  0.00    -0.298 N  
HETATM   26  H   UNL     1     -11.461  17.877  67.252  1.00  0.00     0.000 HD 
BRANCH  25  27
HETATM   27  S   UNL     1      -9.082  18.069  67.231  1.00  0.00    -0.259 S  
HETATM   28  C   UNL     1      -8.500  17.475  68.812  1.00  0.00    -0.213 C  
HETATM   29  O   UNL     1      -9.343  19.485  67.363  1.00  0.00    -0.303 OA 
HETATM   30  O   UNL     1      -8.217  17.559  66.192  1.00  0.00    -0.426 OA 
ENDBRANCH  25  27
ENDBRANCH   6  25
ENDBRANCH   2   3
TORSDOF 5
ENDMDL
MODEL      151
REMARK 921   NORMALIZED FREE ENERGY PREDICTED BY IDOCK:   -4.95 KCAL/MOL
REMARK 922        TOTAL FREE ENERGY PREDICTED BY IDOCK:   -6.93 KCAL/MOL
REMARK 923 INTER-LIGAND FREE ENERGY PREDICTED BY IDOCK:   -7.03 KCAL/MOL
REMARK 924 INTRA-LIGAND FREE ENERGY PREDICTED BY IDOCK:    0.10 KCAL/MOL
REMARK 927      BINDING AFFINITY PREDICTED BY RF-SCORE:    0.00 PKD
ROOT
HETATM    1  C   UNL     1      -6.013  14.949  70.425  1.00  0.00    -0.150 C  
HETATM    2  O   UNL     1      -6.907  14.493  69.404  1.00  0.00    -0.132 OA 
ENDROOT
BRANCH   2   3
HETATM    3  C   UNL     1      -7.910  15.387  69.095  1.00  0.00    -0.212 A  
HETATM    4  C   UNL     1      -9.230  14.884  69.017  1.00  0.00    -0.176 A  
HETATM    5  C   UNL     1     -10.278  15.790  68.804  1.00  0.00    -0.217 A  
HETATM    6  C   UNL     1      -8.699  17.608  68.569  1.00  0.00    -0.285 A  
HETATM    7  C   UNL     1     -10.015  17.148  68.584  1.00  0.00    -0.313 A  
HETATM    8  C   UNL     1      -7.648  16.733  68.824  1.00  0.00    -0.240 A  
BRANCH   4   9
HETATM    9  N   UNL     1      -9.459  13.497  69.116  1.00  0.00    -0.254 NA 
HETATM   10  H   UNL     1      -9.536  13.179  70.083  1.00  0.00     0.000 HD 
BRANCH   9  11
HETATM   11  C   UNL     1      -9.607  12.434  68.174  1.00  0.00    -0.218 A  
HETATM   12  C   UNL     1      -8.068   9.293  66.984  1.00  0.00    -0.112 A  
HETATM   13  C   UNL     1     -10.444  12.689  67.043  1.00  0.00    -0.244 A  
HETATM   14  C   UNL     1     -11.300  13.812  66.926  1.00  0.00    -0.345 A  
HETATM   15  C   UNL     1      -8.845  11.228  68.217  1.00  0.00    -0.158 A  
HETATM   16  C   UNL     1     -12.112  14.000  65.807  1.00  0.00    -0.445 A  
HETATM   17  C   UNL     1      -8.880  10.418  67.061  1.00  0.00    -0.136 A  
HETATM   18  C   UNL     1      -8.028  10.790  69.293  1.00  0.00    -0.110 A  
HETATM   19  C   UNL     1     -12.080  13.073  64.777  1.00  0.00    -0.465 A  
HETATM   20  C   UNL     1      -7.259   9.626  69.214  1.00  0.00    -0.069 A  
HETATM   21  C   UNL     1      -7.255   8.891  68.041  1.00  0.00    -0.083 A  
HETATM   22  C   UNL     1     -11.235  11.968  64.877  1.00  0.00    -0.374 A  
HETATM   23  C   UNL     1     -10.423  11.763  65.986  1.00  0.00    -0.246 A  
HETATM   24  N   UNL     1      -9.641  10.678  65.992  1.00  0.00    -0.189 NA 
ENDBRANCH   9  11
ENDBRANCH   4   9
BRANCH   6  25
HETATM   25  N   UNL     1      -8.380  18.959  68.236  1.00  0.00    -0.318 N  
HETATM   26  H   UNL     1      -8.175  19.651  68.957  1.00  0.00     0.000 HD 
BRANCH  25  27
HETATM   27  S   UNL     1      -8.357  19.363  66.594  1.00  0.00    -0.326 S  
HETATM   28  C   UNL     1     -10.090  19.671  66.290  1.00  0.00    -0.480 C  
HETATM   29  O   UNL     1      -8.000  18.144  65.902  1.00  0.00    -0.513 OA 
HETATM   30  O   UNL     1      -7.619  20.587  66.385  1.00  0.00    -0.219 OA 
ENDBRANCH  25  27
ENDBRANCH   6  25
ENDBRANCH   2   3
TORSDOF 5
ENDMDL
MODEL      152
REMARK 921   NORMALIZED FREE ENERGY PREDICTED BY IDOCK:   -4.95 KCAL/MOL
REMARK 922        TOTAL FREE ENERGY PREDICTED BY IDOCK:   -6.93 KCAL/MOL
REMARK 923 INTER-LIGAND FREE ENERGY PREDICTED BY IDOCK:   -6.43 KCAL/MOL
REMARK 924 INTRA-LIGAND FREE ENERGY PREDICTED BY IDOCK:   -0.49 KCAL/MOL
REMARK 927      BINDING AFFINITY PREDICTED BY RF-SCORE:    0.00 PKD
ROOT
HETATM    1  C   UNL     1     -12.435  12.200  70.685  1.00  0.00    -0.242 C  
HETATM    2  O   UNL     1     -11.807  11.307  69.759  1.00  0.00    -0.301 OA 
ENDROOT
BRANCH   2   3
HETATM    3  C   UNL     1     -10.907  11.918  68.912  1.00  0.00    -0.221 A  
HETATM    4  C   UNL     1      -9.698  11.233  68.640  1.00  0.00    -0.195 A  
HETATM    5  C   UNL     1      -8.813  11.786  67.706  1.00  0.00    -0.163 A  
HETATM    6  C   UNL     1     -10.228  13.735  67.474  1.00  0.00    -0.241 A  
HETATM    7  C   UNL     1      -9.078  13.031  67.121  1.00  0.00    -0.225 A  
HETATM    8  C   UNL     1     -11.141  13.183  68.365  1.00  0.00    -0.298 A  
BRANCH   4   9
HETATM    9  N   UNL     1      -9.395  10.044  69.335  1.00  0.00    -0.211 NA 
HETATM   10  H   UNL     1      -8.758  10.198  70.117  1.00  0.00     0.000 HD 
BRANCH   9  11
HETATM   11  C   UNL     1      -9.775   8.675  69.196  1.00  0.00    -0.173 A  
HETATM   12  C   UNL     1     -10.058   5.911  66.760  1.00  0.00    -0.235 A  
HETATM   13  C   UNL     1     -10.630   8.138  70.210  1.00  0.00    -0.228 A  
HETATM   14  C   UNL     1     -10.919   8.793  71.433  1.00  0.00    -0.360 A  
HETATM   15  C   UNL     1      -9.493   7.891  68.037  1.00  0.00    -0.159 A  
HETATM   16  C   UNL     1     -11.744   8.212  72.396  1.00  0.00    -0.461 A  
HETATM   17  C   UNL     1     -10.190   6.668  67.918  1.00  0.00    -0.171 A  
HETATM   18  C   UNL     1      -8.612   8.242  66.981  1.00  0.00    -0.124 A  
HETATM   19  C   UNL     1     -12.305   6.967  72.154  1.00  0.00    -0.227 A  
HETATM   20  C   UNL     1      -8.454   7.440  65.849  1.00  0.00    -0.155 A  
HETATM   21  C   UNL     1      -9.206   6.284  65.723  1.00  0.00     0.013 A  
HETATM   22  C   UNL     1     -12.034   6.317  70.950  1.00  0.00    -0.122 A  
HETATM   23  C   UNL     1     -11.211   6.879  69.982  1.00  0.00    -0.299 A  
HETATM   24  N   UNL     1     -11.013   6.185  68.855  1.00  0.00    -0.342 NA 
ENDBRANCH   9  11
ENDBRANCH   4   9
BRANCH   6  25
HETATM   25  N   UNL     1     -10.478  15.055  66.990  1.00  0.00    -0.273 N  
HETATM   26  H   UNL     1     -10.865  15.217  66.061  1.00  0.00     0.000 HD 
BRANCH  25  27
HETATM   27  S   UNL     1     -10.103  16.338  68.025  1.00  0.00    -0.252 S  
HETATM   28  C   UNL     1     -11.462  16.256  69.183  1.00  0.00    -0.257 C  
HETATM   29  O   UNL     1     -10.274  17.536  67.233  1.00  0.00    -0.313 OA 
HETATM   30  O   UNL     1      -8.870  16.076  68.731  1.00  0.00    -0.200 OA 
ENDBRANCH  25  27
ENDBRANCH   6  25
ENDBRANCH   2   3
TORSDOF 5
ENDMDL
MODEL      153
REMARK 921   NORMALIZED FREE ENERGY PREDICTED BY IDOCK:   -4.92 KCAL/MOL
REMARK 922        TOTAL FREE ENERGY PREDICTED BY IDOCK:   -6.90 KCAL/MOL
REMARK 923 INTER-LIGAND FREE ENERGY PREDICTED BY IDOCK:   -6.13 KCAL/MOL
REMARK 924 INTRA-LIGAND FREE ENERGY PREDICTED BY IDOCK:   -0.76 KCAL/MOL
REMARK 927      BINDING AFFINITY PREDICTED BY RF-SCORE:    0.00 PKD
ROOT
HETATM    1  C   UNL     1      -8.563  10.380  64.808  1.00  0.00    -0.182 C  
HETATM    2  O   UNL     1      -9.860  10.220  65.393  1.00  0.00    -0.255 OA 
ENDROOT
BRANCH   2   3
HETATM    3  C   UNL     1      -9.847   9.614  66.631  1.00  0.00    -0.224 A  
HETATM    4  C   UNL     1     -10.321  10.367  67.731  1.00  0.00    -0.206 A  
HETATM    5  C   UNL     1     -10.412   9.740  68.980  1.00  0.00    -0.229 A  
HETATM    6  C   UNL     1      -9.406   7.732  68.079  1.00  0.00    -0.141 A  
HETATM    7  C   UNL     1      -9.959   8.426  69.154  1.00  0.00    -0.197 A  
HETATM    8  C   UNL     1      -9.349   8.322  66.820  1.00  0.00    -0.232 A  
BRANCH   4   9
HETATM    9  N   UNL     1     -10.652  11.727  67.559  1.00  0.00    -0.208 NA 
HETATM   10  H   UNL     1     -11.590  11.948  67.896  1.00  0.00     0.000 HD 
BRANCH   9  11
HETATM   11  C   UNL     1      -9.978  12.865  67.021  1.00  0.00    -0.244 A  
HETATM   12  C   UNL     1      -7.142  15.166  67.579  1.00  0.00    -0.225 A  
HETATM   13  C   UNL     1     -10.716  13.673  66.100  1.00  0.00    -0.286 A  
HETATM   14  C   UNL     1     -11.952  13.292  65.522  1.00  0.00    -0.445 A  
HETATM   15  C   UNL     1      -8.704  13.318  67.478  1.00  0.00    -0.202 A  
HETATM   16  C   UNL     1     -12.618  14.113  64.612  1.00  0.00    -0.285 A  
HETATM   17  C   UNL     1      -8.313  14.613  67.075  1.00  0.00    -0.185 A  
HETATM   18  C   UNL     1      -7.817  12.606  68.328  1.00  0.00    -0.144 A  
HETATM   19  C   UNL     1     -12.066  15.337  64.265  1.00  0.00    -0.222 A  
HETATM   20  C   UNL     1      -6.619  13.162  68.783  1.00  0.00    -0.096 A  
HETATM   21  C   UNL     1      -6.296  14.461  68.432  1.00  0.00    -0.101 A  
HETATM   22  C   UNL     1     -10.854  15.727  64.834  1.00  0.00    -0.433 A  
HETATM   23  C   UNL     1     -10.175  14.919  65.739  1.00  0.00    -0.336 A  
HETATM   24  N   UNL     1      -9.022  15.378  66.237  1.00  0.00    -0.313 NA 
ENDBRANCH   9  11
ENDBRANCH   4   9
BRANCH   6  25
HETATM   25  N   UNL     1      -8.829   6.436  68.238  1.00  0.00    -0.116 N  
HETATM   26  H   UNL     1      -7.824   6.312  68.356  1.00  0.00     0.000 HD 
BRANCH  25  27
HETATM   27  S   UNL     1      -9.885   5.116  68.223  1.00  0.00    -0.147 S  
HETATM   28  C   UNL     1      -8.872   3.872  67.437  1.00  0.00    -0.122 C  
HETATM   29  O   UNL     1     -10.937   5.474  67.298  1.00  0.00    -0.153 OA 
HETATM   30  O   UNL     1     -10.185   4.693  69.572  1.00  0.00    -0.203 OA 
ENDBRANCH  25  27
ENDBRANCH   6  25
ENDBRANCH   2   3
TORSDOF 5
ENDMDL
MODEL      154
REMARK 921   NORMALIZED FREE ENERGY PREDICTED BY IDOCK:   -4.90 KCAL/MOL
REMARK 922        TOTAL FREE ENERGY PREDICTED BY IDOCK:   -6.87 KCAL/MOL
REMARK 923 INTER-LIGAND FREE ENERGY PREDICTED BY IDOCK:   -5.94 KCAL/MOL
REMARK 924 INTRA-LIGAND FREE ENERGY PREDICTED BY IDOCK:   -0.93 KCAL/MOL
REMARK 927      BINDING AFFINITY PREDICTED BY RF-SCORE:    0.00 PKD
ROOT
HETATM    1  C   UNL     1      -5.429   7.143  68.425  1.00  0.00    -0.021 C  
HETATM    2  O   UNL     1      -6.783   7.173  68.890  1.00  0.00    -0.055 OA 
ENDROOT
BRANCH   2   3
HETATM    3  C   UNL     1      -7.716   7.364  67.892  1.00  0.00    -0.116 A  
HETATM    4  C   UNL     1      -8.926   8.007  68.245  1.00  0.00    -0.132 A  
HETATM    5  C   UNL     1      -9.845   8.303  67.231  1.00  0.00    -0.258 A  
HETATM    6  C   UNL     1      -8.457   7.175  65.602  1.00  0.00    -0.134 A  
HETATM    7  C   UNL     1      -9.611   7.892  65.912  1.00  0.00     0.087 A  
HETATM    8  C   UNL     1      -7.510   6.911  66.586  1.00  0.00    -0.082 A  
BRANCH   4   9
HETATM    9  N   UNL     1      -9.195   8.299  69.598  1.00  0.00    -0.157 NA 
HETATM   10  H   UNL     1      -8.411   8.755  70.066  1.00  0.00     0.000 HD 
BRANCH   9  11
HETATM   11  C   UNL     1     -10.314   8.103  70.464  1.00  0.00    -0.202 A  
HETATM   12  C   UNL     1     -12.995   9.873  72.288  1.00  0.00    -0.387 A  
HETATM   13  C   UNL     1     -10.358   6.870  71.187  1.00  0.00    -0.222 A  
HETATM   14  C   UNL     1      -9.513   5.763  70.923  1.00  0.00    -0.196 A  
HETATM   15  C   UNL     1     -11.267   9.121  70.766  1.00  0.00    -0.336 A  
HETATM   16  C   UNL     1      -9.616   4.575  71.647  1.00  0.00    -0.222 A  
HETATM   17  C   UNL     1     -12.125   8.877  71.862  1.00  0.00    -0.373 A  
HETATM   18  C   UNL     1     -11.407  10.365  70.095  1.00  0.00    -0.397 A  
HETATM   19  C   UNL     1     -10.560   4.470  72.657  1.00  0.00    -0.247 A  
HETATM   20  C   UNL     1     -12.326  11.332  70.510  1.00  0.00    -0.446 A  
HETATM   21  C   UNL     1     -13.101  11.097  71.632  1.00  0.00    -0.529 A  
HETATM   22  C   UNL     1     -11.392   5.556  72.932  1.00  0.00    -0.348 A  
HETATM   23  C   UNL     1     -11.307   6.744  72.217  1.00  0.00    -0.273 A  
HETATM   24  N   UNL     1     -12.141   7.733  72.555  1.00  0.00    -0.252 NA 
ENDBRANCH   9  11
ENDBRANCH   4   9
BRANCH   6  25
HETATM   25  N   UNL     1      -8.234   6.639  64.298  1.00  0.00    -0.306 N  
HETATM   26  H   UNL     1      -7.989   7.238  63.510  1.00  0.00     0.000 HD 
BRANCH  25  27
HETATM   27  S   UNL     1      -8.394   4.965  64.115  1.00  0.00    -0.134 S  
HETATM   28  C   UNL     1      -8.210   4.791  62.346  1.00  0.00    -0.083 C  
HETATM   29  O   UNL     1      -9.772   4.671  64.444  1.00  0.00    -0.048 OA 
HETATM   30  O   UNL     1      -7.305   4.278  64.770  1.00  0.00    -0.069 OA 
ENDBRANCH  25  27
ENDBRANCH   6  25
ENDBRANCH   2   3
TORSDOF 5
ENDMDL
MODEL      155
REMARK 921   NORMALIZED FREE ENERGY PREDICTED BY IDOCK:   -4.90 KCAL/MOL
REMARK 922        TOTAL FREE ENERGY PREDICTED BY IDOCK:   -6.87 KCAL/MOL
REMARK 923 INTER-LIGAND FREE ENERGY PREDICTED BY IDOCK:   -6.22 KCAL/MOL
REMARK 924 INTRA-LIGAND FREE ENERGY PREDICTED BY IDOCK:   -0.65 KCAL/MOL
REMARK 927      BINDING AFFINITY PREDICTED BY RF-SCORE:    0.00 PKD
ROOT
HETATM    1  C   UNL     1     -11.239  10.006  69.738  1.00  0.00    -0.258 C  
HETATM    2  O   UNL     1     -10.422  10.538  68.691  1.00  0.00    -0.171 OA 
ENDROOT
BRANCH   2   3
HETATM    3  C   UNL     1      -9.068  10.460  68.940  1.00  0.00    -0.173 A  
HETATM    4  C   UNL     1      -8.199  11.122  68.040  1.00  0.00    -0.125 A  
HETATM    5  C   UNL     1      -6.829  11.142  68.327  1.00  0.00    -0.068 A  
HETATM    6  C   UNL     1      -7.181   9.719  70.252  1.00  0.00    -0.149 A  
HETATM    7  C   UNL     1      -6.320  10.446  69.432  1.00  0.00    -0.053 A  
HETATM    8  C   UNL     1      -8.551   9.724  70.010  1.00  0.00    -0.229 A  
BRANCH   4   9
HETATM    9  N   UNL     1      -8.719  11.709  66.868  1.00  0.00    -0.179 NA 
HETATM   10  H   UNL     1      -8.532  11.152  66.034  1.00  0.00     0.000 HD 
BRANCH   9  11
HETATM   11  C   UNL     1      -9.448  12.903  66.580  1.00  0.00    -0.255 A  
HETATM   12  C   UNL     1     -10.504  16.145  68.002  1.00  0.00    -0.281 A  
HETATM   13  C   UNL     1     -10.389  12.838  65.505  1.00  0.00    -0.301 A  
HETATM   14  C   UNL     1     -10.466  11.767  64.581  1.00  0.00    -0.347 A  
HETATM   15  C   UNL     1      -9.410  14.069  67.402  1.00  0.00    -0.220 A  
HETATM   16  C   UNL     1     -11.391  11.767  63.536  1.00  0.00    -0.496 A  
HETATM   17  C   UNL     1     -10.406  15.042  67.163  1.00  0.00    -0.257 A  
HETATM   18  C   UNL     1      -8.493  14.323  68.456  1.00  0.00    -0.164 A  
HETATM   19  C   UNL     1     -12.265  12.835  63.398  1.00  0.00    -0.594 A  
HETATM   20  C   UNL     1      -8.578  15.465  69.255  1.00  0.00    -0.252 A  
HETATM   21  C   UNL     1      -9.610  16.365  69.047  1.00  0.00    -0.264 A  
HETATM   22  C   UNL     1     -12.203  13.891  64.306  1.00  0.00    -0.447 A  
HETATM   23  C   UNL     1     -11.285  13.910  65.349  1.00  0.00    -0.306 A  
HETATM   24  N   UNL     1     -11.303  14.962  66.175  1.00  0.00    -0.335 NA 
ENDBRANCH   9  11
ENDBRANCH   4   9
BRANCH   6  25
HETATM   25  N   UNL     1      -6.693   8.904  71.318  1.00  0.00    -0.078 N  
HETATM   26  H   UNL     1      -6.473   9.298  72.232  1.00  0.00     0.000 HD 
BRANCH  25  27
HETATM   27  S   UNL     1      -6.494   7.255  70.998  1.00  0.00    -0.043 S  
HETATM   28  C   UNL     1      -7.864   6.559  71.910  1.00  0.00    -0.103 C  
HETATM   29  O   UNL     1      -5.276   6.874  71.678  1.00  0.00    -0.027 OA 
HETATM   30  O   UNL     1      -6.683   6.987  69.591  1.00  0.00    -0.046 OA 
ENDBRANCH  25  27
ENDBRANCH   6  25
ENDBRANCH   2   3
TORSDOF 5
ENDMDL
MODEL      156
REMARK 921   NORMALIZED FREE ENERGY PREDICTED BY IDOCK:   -4.88 KCAL/MOL
REMARK 922        TOTAL FREE ENERGY PREDICTED BY IDOCK:   -6.83 KCAL/MOL
REMARK 923 INTER-LIGAND FREE ENERGY PREDICTED BY IDOCK:   -6.47 KCAL/MOL
REMARK 924 INTRA-LIGAND FREE ENERGY PREDICTED BY IDOCK:   -0.37 KCAL/MOL
REMARK 927      BINDING AFFINITY PREDICTED BY RF-SCORE:    0.00 PKD
ROOT
HETATM    1  C   UNL     1      -9.452   5.983  66.294  1.00  0.00    -0.127 C  
HETATM    2  O   UNL     1     -10.173   6.175  67.515  1.00  0.00    -0.141 OA 
ENDROOT
BRANCH   2   3
HETATM    3  C   UNL     1      -9.407   6.022  68.651  1.00  0.00    -0.117 A  
HETATM    4  C   UNL     1      -8.834   7.187  69.214  1.00  0.00    -0.136 A  
HETATM    5  C   UNL     1      -8.136   7.070  70.423  1.00  0.00    -0.119 A  
HETATM    6  C   UNL     1      -8.425   4.668  70.393  1.00  0.00    -0.079 A  
HETATM    7  C   UNL     1      -7.934   5.816  71.013  1.00  0.00    -0.115 A  
HETATM    8  C   UNL     1      -9.160   4.767  69.216  1.00  0.00    -0.152 A  
BRANCH   4   9
HETATM    9  N   UNL     1      -8.943   8.418  68.537  1.00  0.00    -0.136 NA 
HETATM   10  H   UNL     1      -8.046   8.752  68.182  1.00  0.00     0.000 HD 
BRANCH   9  11
HETATM   11  C   UNL     1     -10.019   9.306  68.233  1.00  0.00    -0.173 A  
HETATM   12  C   UNL     1     -11.234  11.745  65.738  1.00  0.00    -0.337 A  
HETATM   13  C   UNL     1     -10.854   9.702  69.325  1.00  0.00    -0.227 A  
HETATM   14  C   UNL     1     -10.826   9.097  70.606  1.00  0.00    -0.321 A  
HETATM   15  C   UNL     1     -10.190   9.935  66.964  1.00  0.00    -0.294 A  
HETATM   16  C   UNL     1     -11.679   9.510  71.629  1.00  0.00    -0.460 A  
HETATM   17  C   UNL     1     -11.106  11.009  66.909  1.00  0.00    -0.213 A  
HETATM   18  C   UNL     1      -9.500   9.609  65.766  1.00  0.00    -0.308 A  
HETATM   19  C   UNL     1     -12.574  10.543  71.396  1.00  0.00    -0.539 A  
HETATM   20  C   UNL     1      -9.683  10.331  64.584  1.00  0.00    -0.398 A  
HETATM   21  C   UNL     1     -10.530  11.425  64.579  1.00  0.00    -0.381 A  
HETATM   22  C   UNL     1     -12.605  11.152  70.142  1.00  0.00    -0.249 A  
HETATM   23  C   UNL     1     -11.766  10.749  69.110  1.00  0.00    -0.296 A  
HETATM   24  N   UNL     1     -11.863  11.395  67.943  1.00  0.00    -0.632 NA 
ENDBRANCH   9  11
ENDBRANCH   4   9
BRANCH   6  25
HETATM   25  N   UNL     1      -8.143   3.363  70.899  1.00  0.00    -0.060 N  
HETATM   26  H   UNL     1      -7.246   2.909  70.731  1.00  0.00     0.000 HD 
BRANCH  25  27
HETATM   27  S   UNL     1      -9.364   2.602  71.789  1.00  0.00    -0.127 S  
HETATM   28  C   UNL     1      -8.428   1.933  73.156  1.00  0.00    -0.061 C  
HETATM   29  O   UNL     1      -9.802   1.492  70.972  1.00  0.00    -0.125 OA 
HETATM   30  O   UNL     1     -10.303   3.577  72.295  1.00  0.00    -0.147 OA 
ENDBRANCH  25  27
ENDBRANCH   6  25
ENDBRANCH   2   3
TORSDOF 5
ENDMDL
MODEL      157
REMARK 921   NORMALIZED FREE ENERGY PREDICTED BY IDOCK:   -4.87 KCAL/MOL
REMARK 922        TOTAL FREE ENERGY PREDICTED BY IDOCK:   -6.82 KCAL/MOL
REMARK 923 INTER-LIGAND FREE ENERGY PREDICTED BY IDOCK:   -6.17 KCAL/MOL
REMARK 924 INTRA-LIGAND FREE ENERGY PREDICTED BY IDOCK:   -0.65 KCAL/MOL
REMARK 927      BINDING AFFINITY PREDICTED BY RF-SCORE:    0.00 PKD
ROOT
HETATM    1  C   UNL     1      -5.610   7.804  67.399  1.00  0.00    -0.036 C  
HETATM    2  O   UNL     1      -6.838   8.262  66.824  1.00  0.00    -0.066 OA 
ENDROOT
BRANCH   2   3
HETATM    3  C   UNL     1      -7.801   7.283  66.702  1.00  0.00    -0.102 A  
HETATM    4  C   UNL     1      -9.073   7.544  67.265  1.00  0.00    -0.124 A  
HETATM    5  C   UNL     1     -10.096   6.608  67.067  1.00  0.00    -0.247 A  
HETATM    6  C   UNL     1      -8.557   5.120  65.940  1.00  0.00    -0.128 A  
HETATM    7  C   UNL     1      -9.841   5.401  66.404  1.00  0.00    -0.196 A  
HETATM    8  C   UNL     1      -7.539   6.055  66.086  1.00  0.00    -0.087 A  
BRANCH   4   9
HETATM    9  N   UNL     1      -9.271   8.707  68.037  1.00  0.00    -0.140 NA 
HETATM   10  H   UNL     1      -8.439   8.979  68.560  1.00  0.00     0.000 HD 
BRANCH   9  11
HETATM   11  C   UNL     1     -10.370   9.593  68.254  1.00  0.00    -0.204 A  
HETATM   12  C   UNL     1     -12.010  12.649  66.982  1.00  0.00    -0.330 A  
HETATM   13  C   UNL     1     -10.965   9.572  69.555  1.00  0.00    -0.217 A  
HETATM   14  C   UNL     1     -10.695   8.586  70.536  1.00  0.00    -0.246 A  
HETATM   15  C   UNL     1     -10.777  10.591  67.320  1.00  0.00    -0.333 A  
HETATM   16  C   UNL     1     -11.321   8.603  71.783  1.00  0.00    -0.393 A  
HETATM   17  C   UNL     1     -11.667  11.579  67.798  1.00  0.00    -0.227 A  
HETATM   18  C   UNL     1     -10.344  10.705  65.972  1.00  0.00    -0.290 A  
HETATM   19  C   UNL     1     -12.226   9.611  72.079  1.00  0.00    -0.330 A  
HETATM   20  C   UNL     1     -10.744  11.762  65.151  1.00  0.00    -0.343 A  
HETATM   21  C   UNL     1     -11.556  12.757  65.669  1.00  0.00    -0.410 A  
HETATM   22  C   UNL     1     -12.493  10.592  71.124  1.00  0.00    -0.523 A  
HETATM   23  C   UNL     1     -11.882  10.588  69.876  1.00  0.00    -0.282 A  
HETATM   24  N   UNL     1     -12.196  11.572  69.027  1.00  0.00    -0.387 NA 
ENDBRANCH   9  11
ENDBRANCH   4   9
BRANCH   6  25
HETATM   25  N   UNL     1      -8.228   3.856  65.362  1.00  0.00    -0.101 N  
HETATM   26  H   UNL     1      -7.747   3.135  65.898  1.00  0.00     0.000 HD 
BRANCH  25  27
HETATM   27  S   UNL     1      -8.671   3.609  63.748  1.00  0.00    -0.098 S  
HETATM   28  C   UNL     1      -8.077   5.115  62.992  1.00  0.00    -0.100 C  
HETATM   29  O   UNL     1     -10.116   3.651  63.734  1.00  0.00    -0.169 OA 
HETATM   30  O   UNL     1      -7.947   2.488  63.192  1.00  0.00    -0.066 OA 
ENDBRANCH  25  27
ENDBRANCH   6  25
ENDBRANCH   2   3
TORSDOF 5
ENDMDL
MODEL      158
REMARK 921   NORMALIZED FREE ENERGY PREDICTED BY IDOCK:   -4.86 KCAL/MOL
REMARK 922        TOTAL FREE ENERGY PREDICTED BY IDOCK:   -6.82 KCAL/MOL
REMARK 923 INTER-LIGAND FREE ENERGY PREDICTED BY IDOCK:   -6.25 KCAL/MOL
REMARK 924 INTRA-LIGAND FREE ENERGY PREDICTED BY IDOCK:   -0.57 KCAL/MOL
REMARK 927      BINDING AFFINITY PREDICTED BY RF-SCORE:    0.00 PKD
ROOT
HETATM    1  C   UNL     1     -11.046   6.354  68.373  1.00  0.00    -0.285 C  
HETATM    2  O   UNL     1      -9.854   7.054  68.744  1.00  0.00    -0.148 OA 
ENDROOT
BRANCH   2   3
HETATM    3  C   UNL     1      -9.303   7.804  67.726  1.00  0.00    -0.143 A  
HETATM    4  C   UNL     1      -8.876   9.116  68.040  1.00  0.00    -0.129 A  
HETATM    5  C   UNL     1      -8.224   9.861  67.049  1.00  0.00    -0.117 A  
HETATM    6  C   UNL     1      -8.590   8.093  65.437  1.00  0.00    -0.129 A  
HETATM    7  C   UNL     1      -8.077   9.351  65.752  1.00  0.00    -0.114 A  
HETATM    8  C   UNL     1      -9.201   7.320  66.418  1.00  0.00    -0.201 A  
BRANCH   4   9
HETATM    9  N   UNL     1      -9.147   9.655  69.314  1.00  0.00    -0.161 NA 
HETATM   10  H   UNL     1      -8.367   9.543  69.962  1.00  0.00     0.000 HD 
BRANCH   9  11
HETATM   11  C   UNL     1     -10.262  10.322  69.906  1.00  0.00    -0.202 A  
HETATM   12  C   UNL     1     -13.263   9.795  71.996  1.00  0.00    -0.557 A  
HETATM   13  C   UNL     1     -10.627  11.586  69.345  1.00  0.00    -0.056 A  
HETATM   14  C   UNL     1      -9.828  12.307  68.423  1.00  0.00    -0.199 A  
HETATM   15  C   UNL     1     -11.111   9.726  70.886  1.00  0.00    -0.428 A  
HETATM   16  C   UNL     1     -10.225  13.548  67.924  1.00  0.00    -0.247 A  
HETATM   17  C   UNL     1     -12.335  10.382  71.145  1.00  0.00    -0.400 A  
HETATM   18  C   UNL     1     -10.858   8.520  71.592  1.00  0.00    -0.356 A  
HETATM   19  C   UNL     1     -11.434  14.092  68.329  1.00  0.00    -0.337 A  
HETATM   20  C   UNL     1     -11.784   7.974  72.483  1.00  0.00    -0.446 A  
HETATM   21  C   UNL     1     -13.007   8.598  72.662  1.00  0.00    -0.261 A  
HETATM   22  C   UNL     1     -12.233  13.388  69.229  1.00  0.00    -0.222 A  
HETATM   23  C   UNL     1     -11.851  12.153  69.740  1.00  0.00    -0.327 A  
HETATM   24  N   UNL     1     -12.685  11.549  70.594  1.00  0.00    -0.222 NA 
ENDBRANCH   9  11
ENDBRANCH   4   9
BRANCH   6  25
HETATM   25  N   UNL     1      -8.564   7.585  64.103  1.00  0.00    -0.308 N  
HETATM   26  H   UNL     1      -9.422   7.343  63.609  1.00  0.00     0.000 HD 
BRANCH  25  27
HETATM   27  S   UNL     1      -7.047   7.402  63.378  1.00  0.00    -0.075 S  
HETATM   28  C   UNL     1      -7.282   5.883  62.466  1.00  0.00    -0.050 C  
HETATM   29  O   UNL     1      -6.132   7.125  64.463  1.00  0.00    -0.036 OA 
HETATM   30  O   UNL     1      -6.800   8.477  62.444  1.00  0.00    -0.095 OA 
ENDBRANCH  25  27
ENDBRANCH   6  25
ENDBRANCH   2   3
TORSDOF 5
ENDMDL
MODEL      159
REMARK 921   NORMALIZED FREE ENERGY PREDICTED BY IDOCK:   -4.84 KCAL/MOL
REMARK 922        TOTAL FREE ENERGY PREDICTED BY IDOCK:   -6.79 KCAL/MOL
REMARK 923 INTER-LIGAND FREE ENERGY PREDICTED BY IDOCK:   -6.28 KCAL/MOL
REMARK 924 INTRA-LIGAND FREE ENERGY PREDICTED BY IDOCK:   -0.50 KCAL/MOL
REMARK 927      BINDING AFFINITY PREDICTED BY RF-SCORE:    0.00 PKD
ROOT
HETATM    1  C   UNL     1      -8.224   8.380  71.629  1.00  0.00    -0.152 C  
HETATM    2  O   UNL     1      -9.451   9.102  71.486  1.00  0.00    -0.267 OA 
ENDROOT
BRANCH   2   3
HETATM    3  C   UNL     1      -9.704   9.530  70.200  1.00  0.00    -0.246 A  
HETATM    4  C   UNL     1     -10.686   8.830  69.460  1.00  0.00    -0.188 A  
HETATM    5  C   UNL     1     -11.032   9.308  68.190  1.00  0.00    -0.060 A  
HETATM    6  C   UNL     1      -9.327  11.018  68.336  1.00  0.00    -0.179 A  
HETATM    7  C   UNL     1     -10.357  10.400  67.629  1.00  0.00    -0.260 A  
HETATM    8  C   UNL     1      -8.999  10.587  69.617  1.00  0.00     0.035 A  
BRANCH   4   9
HETATM    9  N   UNL     1     -11.261   7.658  69.993  1.00  0.00    -0.421 NA 
HETATM   10  H   UNL     1     -12.179   7.824  70.407  1.00  0.00     0.000 HD 
BRANCH   9  11
HETATM   11  C   UNL     1     -10.855   6.292  70.087  1.00  0.00    -0.313 A  
HETATM   12  C   UNL     1      -9.527   3.748  72.413  1.00  0.00    -0.183 A  
HETATM   13  C   UNL     1     -10.528   5.634  68.860  1.00  0.00    -0.310 A  
HETATM   14  C   UNL     1     -10.805   6.164  67.575  1.00  0.00    -0.422 A  
HETATM   15  C   UNL     1     -10.599   5.627  71.323  1.00  0.00    -0.321 A  
HETATM   16  C   UNL     1     -10.483   5.466  66.411  1.00  0.00    -0.324 A  
HETATM   17  C   UNL     1      -9.917   4.393  71.246  1.00  0.00    -0.175 A  
HETATM   18  C   UNL     1     -10.931   6.106  72.618  1.00  0.00    -0.291 A  
HETATM   19  C   UNL     1      -9.868   4.227  66.505  1.00  0.00    -0.238 A  
HETATM   20  C   UNL     1     -10.575   5.415  73.778  1.00  0.00    -0.325 A  
HETATM   21  C   UNL     1      -9.841   4.246  73.676  1.00  0.00    -0.156 A  
HETATM   22  C   UNL     1      -9.584   3.699  67.764  1.00  0.00    -0.189 A  
HETATM   23  C   UNL     1      -9.902   4.377  68.934  1.00  0.00    -0.093 A  
HETATM   24  N   UNL     1      -9.585   3.795  70.096  1.00  0.00    -0.193 NA 
ENDBRANCH   9  11
ENDBRANCH   4   9
BRANCH   6  25
HETATM   25  N   UNL     1      -8.539  12.058  67.757  1.00  0.00    -0.149 N  
HETATM   26  H   UNL     1      -7.589  11.887  67.427  1.00  0.00     0.000 HD 
BRANCH  25  27
HETATM   27  S   UNL     1      -9.249  13.589  67.641  1.00  0.00    -0.226 S  
HETATM   28  C   UNL     1      -7.985  14.613  68.380  1.00  0.00    -0.137 C  
HETATM   29  O   UNL     1     -10.376  13.561  68.547  1.00  0.00    -0.240 OA 
HETATM   30  O   UNL     1      -9.409  13.968  66.256  1.00  0.00    -0.256 OA 
ENDBRANCH  25  27
ENDBRANCH   6  25
ENDBRANCH   2   3
TORSDOF 5
ENDMDL
MODEL      160
REMARK 921   NORMALIZED FREE ENERGY PREDICTED BY IDOCK:   -4.83 KCAL/MOL
REMARK 922        TOTAL FREE ENERGY PREDICTED BY IDOCK:   -6.77 KCAL/MOL
REMARK 923 INTER-LIGAND FREE ENERGY PREDICTED BY IDOCK:   -6.19 KCAL/MOL
REMARK 924 INTRA-LIGAND FREE ENERGY PREDICTED BY IDOCK:   -0.58 KCAL/MOL
REMARK 927      BINDING AFFINITY PREDICTED BY RF-SCORE:    0.00 PKD
ROOT
HETATM    1  C   UNL     1      -7.592  10.833  69.193  1.00  0.00    -0.133 C  
HETATM    2  O   UNL     1      -7.174   9.486  68.949  1.00  0.00    -0.070 OA 
ENDROOT
BRANCH   2   3
HETATM    3  C   UNL     1      -7.947   8.816  68.024  1.00  0.00    -0.106 A  
HETATM    4  C   UNL     1      -8.993   8.000  68.517  1.00  0.00    -0.133 A  
HETATM    5  C   UNL     1      -9.854   7.390  67.596  1.00  0.00    -0.194 A  
HETATM    6  C   UNL     1      -8.538   8.244  65.754  1.00  0.00    -0.161 A  
HETATM    7  C   UNL     1      -9.630   7.513  66.219  1.00  0.00    -0.134 A  
HETATM    8  C   UNL     1      -7.698   8.895  66.651  1.00  0.00    -0.100 A  
BRANCH   4   9
HETATM    9  N   UNL     1      -9.122   7.788  69.905  1.00  0.00    -0.147 NA 
HETATM   10  H   UNL     1      -8.222   7.785  70.387  1.00  0.00     0.000 HD 
BRANCH   9  11
HETATM   11  C   UNL     1     -10.221   7.576  70.791  1.00  0.00    -0.194 A  
HETATM   12  C   UNL     1     -12.971   9.291  72.565  1.00  0.00    -0.384 A  
HETATM   13  C   UNL     1     -10.199   6.375  71.568  1.00  0.00    -0.221 A  
HETATM   14  C   UNL     1      -9.303   5.301  71.343  1.00  0.00    -0.184 A  
HETATM   15  C   UNL     1     -11.221   8.558  71.059  1.00  0.00    -0.312 A  
HETATM   16  C   UNL     1      -9.340   4.142  72.119  1.00  0.00    -0.178 A  
HETATM   17  C   UNL     1     -12.056   8.322  72.173  1.00  0.00    -0.367 A  
HETATM   18  C   UNL     1     -11.428   9.763  70.336  1.00  0.00    -0.347 A  
HETATM   19  C   UNL     1     -10.270   4.036  73.143  1.00  0.00    -0.220 A  
HETATM   20  C   UNL     1     -12.389  10.701  70.717  1.00  0.00    -0.472 A  
HETATM   21  C   UNL     1     -13.143  10.479  71.857  1.00  0.00    -0.567 A  
HETATM   22  C   UNL     1     -11.151   5.090  73.379  1.00  0.00    -0.404 A  
HETATM   23  C   UNL     1     -11.131   6.249  72.612  1.00  0.00    -0.263 A  
HETATM   24  N   UNL     1     -12.010   7.210  72.915  1.00  0.00     0.118 NA 
ENDBRANCH   9  11
ENDBRANCH   4   9
BRANCH   6  25
HETATM   25  N   UNL     1      -8.208   8.300  64.366  1.00  0.00    -0.271 N  
HETATM   26  H   UNL     1      -7.914   7.469  63.855  1.00  0.00     0.000 HD 
BRANCH  25  27
HETATM   27  S   UNL     1      -8.328   9.806  63.607  1.00  0.00    -0.186 S  
HETATM   28  C   UNL     1      -6.607  10.170  63.288  1.00  0.00    -0.134 C  
HETATM   29  O   UNL     1      -8.786  10.719  64.630  1.00  0.00    -0.190 OA 
HETATM   30  O   UNL     1      -9.022   9.683  62.345  1.00  0.00    -0.235 OA 
ENDBRANCH  25  27
ENDBRANCH   6  25
ENDBRANCH   2   3
TORSDOF 5
ENDMDL
MODEL      161
REMARK 921   NORMALIZED FREE ENERGY PREDICTED BY IDOCK:   -4.82 KCAL/MOL
REMARK 922        TOTAL FREE ENERGY PREDICTED BY IDOCK:   -6.77 KCAL/MOL
REMARK 923 INTER-LIGAND FREE ENERGY PREDICTED BY IDOCK:   -6.35 KCAL/MOL
REMARK 924 INTRA-LIGAND FREE ENERGY PREDICTED BY IDOCK:   -0.42 KCAL/MOL
REMARK 927      BINDING AFFINITY PREDICTED BY RF-SCORE:    0.00 PKD
ROOT
HETATM    1  C   UNL     1     -12.406  11.318  69.860  1.00  0.00    -0.233 C  
HETATM    2  O   UNL     1     -12.387  11.338  68.429  1.00  0.00    -0.545 OA 
ENDROOT
BRANCH   2   3
HETATM    3  C   UNL     1     -11.499  12.246  67.892  1.00  0.00    -0.330 A  
HETATM    4  C   UNL     1     -10.383  11.730  67.191  1.00  0.00    -0.215 A  
HETATM    5  C   UNL     1      -9.522  12.631  66.552  1.00  0.00    -0.247 A  
HETATM    6  C   UNL     1     -10.761  14.503  67.453  1.00  0.00    -0.282 A  
HETATM    7  C   UNL     1      -9.711  14.013  66.678  1.00  0.00    -0.296 A  
HETATM    8  C   UNL     1     -11.654  13.625  68.059  1.00  0.00    -0.368 A  
BRANCH   4   9
HETATM    9  N   UNL     1     -10.142  10.341  67.183  1.00  0.00    -0.200 NA 
HETATM   10  H   UNL     1     -10.835   9.819  67.719  1.00  0.00     0.000 HD 
BRANCH   9  11
HETATM   11  C   UNL     1      -9.151   9.497  66.596  1.00  0.00    -0.148 A  
HETATM   12  C   UNL     1      -8.018   8.037  63.396  1.00  0.00    -0.133 A  
HETATM   13  C   UNL     1      -8.457   8.611  67.478  1.00  0.00    -0.124 A  
HETATM   14  C   UNL     1      -8.521   8.686  68.892  1.00  0.00    -0.129 A  
HETATM   15  C   UNL     1      -8.949   9.375  65.189  1.00  0.00    -0.258 A  
HETATM   16  C   UNL     1      -7.805   7.807  69.705  1.00  0.00    -0.107 A  
HETATM   17  C   UNL     1      -8.158   8.288  64.756  1.00  0.00    -0.151 A  
HETATM   18  C   UNL     1      -9.499  10.218  64.187  1.00  0.00    -0.358 A  
HETATM   19  C   UNL     1      -7.016   6.827  69.122  1.00  0.00    -0.078 A  
HETATM   20  C   UNL     1      -9.303   9.977  62.825  1.00  0.00    -0.290 A  
HETATM   21  C   UNL     1      -8.585   8.862  62.427  1.00  0.00    -0.208 A  
HETATM   22  C   UNL     1      -6.951   6.738  67.732  1.00  0.00    -0.083 A  
HETATM   23  C   UNL     1      -7.654   7.608  66.907  1.00  0.00    -0.102 A  
HETATM   24  N   UNL     1      -7.536   7.443  65.585  1.00  0.00    -0.081 NA 
ENDBRANCH   9  11
ENDBRANCH   4   9
BRANCH   6  25
HETATM   25  N   UNL     1     -10.922  15.900  67.702  1.00  0.00    -0.318 N  
HETATM   26  H   UNL     1     -11.744  16.407  67.378  1.00  0.00     0.000 HD 
BRANCH  25  27
HETATM   27  S   UNL     1      -9.688  16.676  68.559  1.00  0.00    -0.254 S  
HETATM   28  C   UNL     1      -8.538  17.052  67.244  1.00  0.00    -0.195 C  
HETATM   29  O   UNL     1      -9.089  15.652  69.386  1.00  0.00    -0.260 OA 
HETATM   30  O   UNL     1     -10.169  17.913  69.130  1.00  0.00    -0.354 OA 
ENDBRANCH  25  27
ENDBRANCH   6  25
ENDBRANCH   2   3
TORSDOF 5
ENDMDL
MODEL      162
REMARK 921   NORMALIZED FREE ENERGY PREDICTED BY IDOCK:   -4.82 KCAL/MOL
REMARK 922        TOTAL FREE ENERGY PREDICTED BY IDOCK:   -6.76 KCAL/MOL
REMARK 923 INTER-LIGAND FREE ENERGY PREDICTED BY IDOCK:   -6.16 KCAL/MOL
REMARK 924 INTRA-LIGAND FREE ENERGY PREDICTED BY IDOCK:   -0.59 KCAL/MOL
REMARK 927      BINDING AFFINITY PREDICTED BY RF-SCORE:    0.00 PKD
ROOT
HETATM    1  C   UNL     1     -11.769  11.034  67.375  1.00  0.00     0.158 C  
HETATM    2  O   UNL     1     -11.013  12.028  66.676  1.00  0.00    -0.259 OA 
ENDROOT
BRANCH   2   3
HETATM    3  C   UNL     1      -9.658  11.776  66.632  1.00  0.00    -0.205 A  
HETATM    4  C   UNL     1      -8.876  12.219  67.725  1.00  0.00    -0.174 A  
HETATM    5  C   UNL     1      -7.516  11.886  67.749  1.00  0.00    -0.121 A  
HETATM    6  C   UNL     1      -7.694  10.865  65.563  1.00  0.00     0.057 A  
HETATM    7  C   UNL     1      -6.926  11.208  66.674  1.00  0.00    -0.142 A  
HETATM    8  C   UNL     1      -9.056  11.145  65.539  1.00  0.00    -0.211 A  
BRANCH   4   9
HETATM    9  N   UNL     1      -9.465  13.008  68.733  1.00  0.00    -0.410 NA 
HETATM   10  H   UNL     1      -9.244  12.674  69.672  1.00  0.00     0.000 HD 
BRANCH   9  11
HETATM   11  C   UNL     1     -10.299  14.167  68.744  1.00  0.00    -0.229 A  
HETATM   12  C   UNL     1     -10.447  17.720  67.743  1.00  0.00    -0.402 A  
HETATM   13  C   UNL     1     -11.369  14.180  69.692  1.00  0.00    -0.289 A  
HETATM   14  C   UNL     1     -11.787  13.047  70.434  1.00  0.00    -0.245 A  
HETATM   15  C   UNL     1     -10.017  15.350  67.997  1.00  0.00    -0.221 A  
HETATM   16  C   UNL     1     -12.854  13.112  71.331  1.00  0.00    -0.401 A  
HETATM   17  C   UNL     1     -10.752  16.505  68.343  1.00  0.00    -0.339 A  
HETATM   18  C   UNL     1      -9.044  15.482  66.971  1.00  0.00    -0.250 A  
HETATM   19  C   UNL     1     -13.521  14.315  71.512  1.00  0.00    -0.426 A  
HETATM   20  C   UNL     1      -8.790  16.703  66.343  1.00  0.00    -0.337 A  
HETATM   21  C   UNL     1      -9.472  17.835  66.754  1.00  0.00    -0.289 A  
HETATM   22  C   UNL     1     -13.113  15.438  70.794  1.00  0.00    -0.479 A  
HETATM   23  C   UNL     1     -12.056  15.390  69.893  1.00  0.00    -0.355 A  
HETATM   24  N   UNL     1     -11.732  16.519  69.254  1.00  0.00     0.018 NA 
ENDBRANCH   9  11
ENDBRANCH   4   9
BRANCH   6  25
HETATM   25  N   UNL     1      -7.110  10.277  64.400  1.00  0.00    -0.272 N  
HETATM   26  H   UNL     1      -6.641  10.845  63.695  1.00  0.00     0.000 HD 
BRANCH  25  27
HETATM   27  S   UNL     1      -7.232   8.598  64.242  1.00  0.00    -0.097 S  
HETATM   28  C   UNL     1      -5.978   8.276  63.010  1.00  0.00    -0.077 C  
HETATM   29  O   UNL     1      -8.519   8.360  63.629  1.00  0.00    -0.109 OA 
HETATM   30  O   UNL     1      -6.856   7.945  65.475  1.00  0.00    -0.054 OA 
ENDBRANCH  25  27
ENDBRANCH   6  25
ENDBRANCH   2   3
TORSDOF 5
ENDMDL
MODEL      163
REMARK 921   NORMALIZED FREE ENERGY PREDICTED BY IDOCK:   -4.81 KCAL/MOL
REMARK 922        TOTAL FREE ENERGY PREDICTED BY IDOCK:   -6.75 KCAL/MOL
REMARK 923 INTER-LIGAND FREE ENERGY PREDICTED BY IDOCK:   -6.02 KCAL/MOL
REMARK 924 INTRA-LIGAND FREE ENERGY PREDICTED BY IDOCK:   -0.73 KCAL/MOL
REMARK 927      BINDING AFFINITY PREDICTED BY RF-SCORE:    0.00 PKD
ROOT
HETATM    1  C   UNL     1     -11.148  10.743  69.757  1.00  0.00    -0.281 C  
HETATM    2  O   UNL     1     -10.781  11.554  68.635  1.00  0.00    -0.190 OA 
ENDROOT
BRANCH   2   3
HETATM    3  C   UNL     1      -9.427  11.577  68.378  1.00  0.00    -0.195 A  
HETATM    4  C   UNL     1      -8.823  12.841  68.175  1.00  0.00    -0.194 A  
HETATM    5  C   UNL     1      -7.433  12.898  68.011  1.00  0.00    -0.125 A  
HETATM    6  C   UNL     1      -7.297  10.483  68.066  1.00  0.00    -0.089 A  
HETATM    7  C   UNL     1      -6.671  11.724  67.960  1.00  0.00    -0.069 A  
HETATM    8  C   UNL     1      -8.670  10.406  68.274  1.00  0.00    -0.128 A  
BRANCH   4   9
HETATM    9  N   UNL     1      -9.626  13.998  68.104  1.00  0.00    -0.214 NA 
HETATM   10  H   UNL     1     -10.176  14.147  68.951  1.00  0.00     0.000 HD 
BRANCH   9  11
HETATM   11  C   UNL     1      -9.846  15.009  67.120  1.00  0.00    -0.233 A  
HETATM   12  C   UNL     1      -9.670  18.651  66.523  1.00  0.00    -0.369 A  
HETATM   13  C   UNL     1     -10.703  14.667  66.028  1.00  0.00    -0.313 A  
HETATM   14  C   UNL     1     -11.141  13.349  65.744  1.00  0.00    -0.295 A  
HETATM   15  C   UNL     1      -9.406  16.359  67.263  1.00  0.00    -0.227 A  
HETATM   16  C   UNL     1     -11.961  13.070  64.650  1.00  0.00    -0.445 A  
HETATM   17  C   UNL     1      -9.959  17.301  66.366  1.00  0.00    -0.311 A  
HETATM   18  C   UNL     1      -8.500  16.847  68.241  1.00  0.00    -0.229 A  
HETATM   19  C   UNL     1     -12.368  14.104  63.821  1.00  0.00    -0.121 A  
HETATM   20  C   UNL     1      -8.182  18.203  68.347  1.00  0.00    -0.314 A  
HETATM   21  C   UNL     1      -8.796  19.114  67.504  1.00  0.00    -0.329 A  
HETATM   22  C   UNL     1     -11.950  15.406  64.095  1.00  0.00    -0.111 A  
HETATM   23  C   UNL     1     -11.130  15.701  65.177  1.00  0.00    -0.348 A  
HETATM   24  N   UNL     1     -10.785  16.980  65.365  1.00  0.00    -0.548 NA 
ENDBRANCH   9  11
ENDBRANCH   4   9
BRANCH   6  25
HETATM   25  N   UNL     1      -6.575   9.262  67.904  1.00  0.00    -0.063 N  
HETATM   26  H   UNL     1      -5.987   8.889  68.649  1.00  0.00     0.000 HD 
BRANCH  25  27
HETATM   27  S   UNL     1      -6.737   8.461  66.424  1.00  0.00    -0.067 S  
HETATM   28  C   UNL     1      -7.250   6.837  66.965  1.00  0.00    -0.081 C  
HETATM   29  O   UNL     1      -5.395   8.345  65.899  1.00  0.00    -0.031 OA 
HETATM   30  O   UNL     1      -7.800   9.052  65.643  1.00  0.00    -0.098 OA 
ENDBRANCH  25  27
ENDBRANCH   6  25
ENDBRANCH   2   3
TORSDOF 5
ENDMDL
MODEL      164
REMARK 921   NORMALIZED FREE ENERGY PREDICTED BY IDOCK:   -4.79 KCAL/MOL
REMARK 922        TOTAL FREE ENERGY PREDICTED BY IDOCK:   -6.73 KCAL/MOL
REMARK 923 INTER-LIGAND FREE ENERGY PREDICTED BY IDOCK:   -5.85 KCAL/MOL
REMARK 924 INTRA-LIGAND FREE ENERGY PREDICTED BY IDOCK:   -0.88 KCAL/MOL
REMARK 927      BINDING AFFINITY PREDICTED BY RF-SCORE:    0.00 PKD
ROOT
HETATM    1  C   UNL     1      -6.814   9.356  66.505  1.00  0.00    -0.083 C  
HETATM    2  O   UNL     1      -8.172   9.511  66.929  1.00  0.00    -0.112 OA 
ENDROOT
BRANCH   2   3
HETATM    3  C   UNL     1      -8.906   8.344  66.902  1.00  0.00    -0.142 A  
HETATM    4  C   UNL     1      -9.773   8.093  67.991  1.00  0.00    -0.161 A  
HETATM    5  C   UNL     1     -10.602   6.966  67.938  1.00  0.00    -0.286 A  
HETATM    6  C   UNL     1      -9.581   6.275  65.856  1.00  0.00     0.155 A  
HETATM    7  C   UNL     1     -10.510   6.060  66.873  1.00  0.00    -0.344 A  
HETATM    8  C   UNL     1      -8.781   7.412  65.867  1.00  0.00    -0.161 A  
BRANCH   4   9
HETATM    9  N   UNL     1      -9.758   8.950  69.111  1.00  0.00    -0.165 NA 
HETATM   10  H   UNL     1      -8.829   9.042  69.523  1.00  0.00     0.000 HD 
BRANCH   9  11
HETATM   11  C   UNL     1     -10.744   9.719  69.800  1.00  0.00    -0.256 A  
HETATM   12  C   UNL     1     -13.908   9.471  71.691  1.00  0.00    -0.287 A  
HETATM   13  C   UNL     1     -10.804  11.114  69.489  1.00  0.00    -0.241 A  
HETATM   14  C   UNL     1      -9.819  11.804  68.740  1.00  0.00    -0.100 A  
HETATM   15  C   UNL     1     -11.755   9.148  70.629  1.00  0.00    -0.256 A  
HETATM   16  C   UNL     1      -9.919  13.172  68.484  1.00  0.00    -0.182 A  
HETATM   17  C   UNL     1     -12.829   9.992  70.988  1.00  0.00    -0.365 A  
HETATM   18  C   UNL     1     -11.800   7.806  71.092  1.00  0.00    -0.311 A  
HETATM   19  C   UNL     1     -11.011  13.878  68.964  1.00  0.00    -0.281 A  
HETATM   20  C   UNL     1     -12.871   7.316  71.843  1.00  0.00    -0.299 A  
HETATM   21  C   UNL     1     -13.946   8.144  72.116  1.00  0.00    -0.345 A  
HETATM   22  C   UNL     1     -11.992  13.208  69.695  1.00  0.00    -0.370 A  
HETATM   23  C   UNL     1     -11.905  11.847  69.964  1.00  0.00    -0.328 A  
HETATM   24  N   UNL     1     -12.896  11.289  70.668  1.00  0.00    -0.198 NA 
ENDBRANCH   9  11
ENDBRANCH   4   9
BRANCH   6  25
HETATM   25  N   UNL     1      -9.375   5.321  64.814  1.00  0.00    -0.357 N  
HETATM   26  H   UNL     1      -9.864   5.392  63.923  1.00  0.00     0.000 HD 
BRANCH  25  27
HETATM   27  S   UNL     1      -8.284   4.067  65.124  1.00  0.00    -0.102 S  
HETATM   28  C   UNL     1      -7.247   4.145  63.670  1.00  0.00    -0.050 C  
HETATM   29  O   UNL     1      -9.061   2.850  65.043  1.00  0.00    -0.137 OA 
HETATM   30  O   UNL     1      -7.483   4.369  66.288  1.00  0.00    -0.083 OA 
ENDBRANCH  25  27
ENDBRANCH   6  25
ENDBRANCH   2   3
TORSDOF 5
ENDMDL
MODEL      165
REMARK 921   NORMALIZED FREE ENERGY PREDICTED BY IDOCK:   -4.77 KCAL/MOL
REMARK 922        TOTAL FREE ENERGY PREDICTED BY IDOCK:   -6.69 KCAL/MOL
REMARK 923 INTER-LIGAND FREE ENERGY PREDICTED BY IDOCK:   -6.49 KCAL/MOL
REMARK 924 INTRA-LIGAND FREE ENERGY PREDICTED BY IDOCK:   -0.20 KCAL/MOL
REMARK 927      BINDING AFFINITY PREDICTED BY RF-SCORE:    0.00 PKD
ROOT
HETATM    1  C   UNL     1     -11.878  11.456  68.471  1.00  0.00    -0.294 C  
HETATM    2  O   UNL     1     -11.768  12.583  67.595  1.00  0.00    -0.340 OA 
ENDROOT
BRANCH   2   3
HETATM    3  C   UNL     1     -11.737  13.799  68.244  1.00  0.00    -0.359 A  
HETATM    4  C   UNL     1     -10.708  14.703  67.889  1.00  0.00    -0.250 A  
HETATM    5  C   UNL     1     -10.715  15.981  68.462  1.00  0.00    -0.287 A  
HETATM    6  C   UNL     1     -12.616  15.388  69.836  1.00  0.00    -0.168 A  
HETATM    7  C   UNL     1     -11.667  16.325  69.430  1.00  0.00    -0.109 A  
HETATM    8  C   UNL     1     -12.654  14.129  69.248  1.00  0.00     0.139 A  
BRANCH   4   9
HETATM    9  N   UNL     1      -9.687  14.291  67.008  1.00  0.00    -0.246 NA 
HETATM   10  H   UNL     1      -9.500  14.977  66.276  1.00  0.00     0.000 HD 
BRANCH   9  11
HETATM   11  C   UNL     1      -8.855  13.135  66.904  1.00  0.00    -0.179 A  
HETATM   12  C   UNL     1      -8.695   9.715  65.517  1.00  0.00    -0.176 A  
HETATM   13  C   UNL     1      -7.803  13.012  67.865  1.00  0.00    -0.149 A  
HETATM   14  C   UNL     1      -7.397  14.054  68.736  1.00  0.00    -0.127 A  
HETATM   15  C   UNL     1      -9.125  12.044  66.026  1.00  0.00    -0.092 A  
HETATM   16  C   UNL     1      -6.347  13.885  69.639  1.00  0.00    -0.123 A  
HETATM   17  C   UNL     1      -8.399  10.854  66.254  1.00  0.00    -0.164 A  
HETATM   18  C   UNL     1     -10.078  12.030  64.973  1.00  0.00    -0.293 A  
HETATM   19  C   UNL     1      -5.686  12.667  69.698  1.00  0.00    -0.105 A  
HETATM   20  C   UNL     1     -10.324  10.887  64.208  1.00  0.00    -0.436 A  
HETATM   21  C   UNL     1      -9.651   9.714  64.503  1.00  0.00    -0.094 A  
HETATM   22  C   UNL     1      -6.082  11.632  68.851  1.00  0.00    -0.053 A  
HETATM   23  C   UNL     1      -7.122  11.785  67.942  1.00  0.00    -0.087 A  
HETATM   24  N   UNL     1      -7.436  10.735  67.175  1.00  0.00    -0.098 NA 
ENDBRANCH   9  11
ENDBRANCH   4   9
BRANCH   6  25
HETATM   25  N   UNL     1     -13.530  15.658  70.900  1.00  0.00    -0.769 N  
HETATM   26  H   UNL     1     -14.530  15.756  70.729  1.00  0.00     0.000 HD 
BRANCH  25  27
HETATM   27  S   UNL     1     -12.881  15.807  72.454  1.00  0.00    -0.460 S  
HETATM   28  C   UNL     1     -12.807  14.096  72.963  1.00  0.00    -0.282 C  
HETATM   29  O   UNL     1     -13.907  16.455  73.240  1.00  0.00    -0.447 OA 
HETATM   30  O   UNL     1     -11.537  16.336  72.393  1.00  0.00    -0.442 OA 
ENDBRANCH  25  27
ENDBRANCH   6  25
ENDBRANCH   2   3
TORSDOF 5
ENDMDL
MODEL      166
REMARK 921   NORMALIZED FREE ENERGY PREDICTED BY IDOCK:   -4.77 KCAL/MOL
REMARK 922        TOTAL FREE ENERGY PREDICTED BY IDOCK:   -6.69 KCAL/MOL
REMARK 923 INTER-LIGAND FREE ENERGY PREDICTED BY IDOCK:   -5.92 KCAL/MOL
REMARK 924 INTRA-LIGAND FREE ENERGY PREDICTED BY IDOCK:   -0.78 KCAL/MOL
REMARK 927      BINDING AFFINITY PREDICTED BY RF-SCORE:    0.00 PKD
ROOT
HETATM    1  C   UNL     1     -10.945   6.015  68.272  1.00  0.00    -0.256 C  
HETATM    2  O   UNL     1      -9.522   6.140  68.374  1.00  0.00    -0.119 OA 
ENDROOT
BRANCH   2   3
HETATM    3  C   UNL     1      -8.995   7.177  67.633  1.00  0.00    -0.125 A  
HETATM    4  C   UNL     1      -8.465   8.282  68.342  1.00  0.00    -0.129 A  
HETATM    5  C   UNL     1      -7.834   9.300  67.616  1.00  0.00    -0.096 A  
HETATM    6  C   UNL     1      -8.420   8.219  65.532  1.00  0.00    -0.161 A  
HETATM    7  C   UNL     1      -7.808   9.268  66.215  1.00  0.00    -0.103 A  
HETATM    8  C   UNL     1      -9.012   7.175  66.235  1.00  0.00    -0.181 A  
BRANCH   4   9
HETATM    9  N   UNL     1      -8.615   8.353  69.742  1.00  0.00    -0.130 NA 
HETATM   10  H   UNL     1      -7.723   8.451  70.228  1.00  0.00     0.000 HD 
BRANCH   9  11
HETATM   11  C   UNL     1      -9.728   8.319  70.636  1.00  0.00    -0.171 A  
HETATM   12  C   UNL     1     -12.668  10.241  71.781  1.00  0.00    -0.535 A  
HETATM   13  C   UNL     1      -9.641   7.409  71.736  1.00  0.00    -0.168 A  
HETATM   14  C   UNL     1      -8.656   6.397  71.854  1.00  0.00    -0.127 A  
HETATM   15  C   UNL     1     -10.810   9.247  70.585  1.00  0.00    -0.339 A  
HETATM   16  C   UNL     1      -8.633   5.522  72.940  1.00  0.00    -0.119 A  
HETATM   17  C   UNL     1     -11.667   9.281  71.708  1.00  0.00    -0.386 A  
HETATM   18  C   UNL     1     -11.083  10.161  69.533  1.00  0.00    -0.295 A  
HETATM   19  C   UNL     1      -9.589   5.644  73.936  1.00  0.00    -0.146 A  
HETATM   20  C   UNL     1     -12.129  11.084  69.605  1.00  0.00    -0.411 A  
HETATM   21  C   UNL     1     -12.905  11.146  70.749  1.00  0.00    -0.322 A  
HETATM   22  C   UNL     1     -10.559   6.641  73.835  1.00  0.00    -0.267 A  
HETATM   23  C   UNL     1     -10.600   7.518  72.758  1.00  0.00    -0.313 A  
HETATM   24  N   UNL     1     -11.562   8.447  72.749  1.00  0.00    -0.296 NA 
ENDBRANCH   9  11
ENDBRANCH   4   9
BRANCH   6  25
HETATM   25  N   UNL     1      -8.516   8.206  64.108  1.00  0.00    -0.391 N  
HETATM   26  H   UNL     1      -9.225   8.751  63.617  1.00  0.00     0.000 HD 
BRANCH  25  27
HETATM   27  S   UNL     1      -7.403   7.248  63.269  1.00  0.00    -0.093 S  
HETATM   28  C   UNL     1      -6.516   8.486  62.335  1.00  0.00    -0.095 C  
HETATM   29  O   UNL     1      -8.189   6.473  62.334  1.00  0.00    -0.107 OA 
HETATM   30  O   UNL     1      -6.489   6.611  64.189  1.00  0.00    -0.036 OA 
ENDBRANCH  25  27
ENDBRANCH   6  25
ENDBRANCH   2   3
TORSDOF 5
ENDMDL
MODEL      167
REMARK 921   NORMALIZED FREE ENERGY PREDICTED BY IDOCK:   -4.73 KCAL/MOL
REMARK 922        TOTAL FREE ENERGY PREDICTED BY IDOCK:   -6.64 KCAL/MOL
REMARK 923 INTER-LIGAND FREE ENERGY PREDICTED BY IDOCK:   -6.11 KCAL/MOL
REMARK 924 INTRA-LIGAND FREE ENERGY PREDICTED BY IDOCK:   -0.53 KCAL/MOL
REMARK 927      BINDING AFFINITY PREDICTED BY RF-SCORE:    0.00 PKD
ROOT
HETATM    1  C   UNL     1     -12.222  11.371  69.756  1.00  0.00    -0.265 C  
HETATM    2  O   UNL     1     -12.168  10.992  68.376  1.00  0.00    -0.586 OA 
ENDROOT
BRANCH   2   3
HETATM    3  C   UNL     1     -11.367  11.804  67.601  1.00  0.00    -0.302 A  
HETATM    4  C   UNL     1     -10.165  11.249  67.102  1.00  0.00    -0.201 A  
HETATM    5  C   UNL     1      -9.385  12.021  66.231  1.00  0.00    -0.228 A  
HETATM    6  C   UNL     1     -10.879  13.903  66.512  1.00  0.00    -0.295 A  
HETATM    7  C   UNL     1      -9.742  13.343  65.933  1.00  0.00    -0.197 A  
HETATM    8  C   UNL     1     -11.691  13.139  67.343  1.00  0.00    -0.419 A  
BRANCH   4   9
HETATM    9  N   UNL     1      -9.762   9.963  67.515  1.00  0.00    -0.156 NA 
HETATM   10  H   UNL     1      -9.898   9.257  66.791  1.00  0.00     0.000 HD 
BRANCH   9  11
HETATM   11  C   UNL     1      -9.207   9.421  68.714  1.00  0.00    -0.132 A  
HETATM   12  C   UNL     1      -6.270   9.567  70.950  1.00  0.00    -0.086 A  
HETATM   13  C   UNL     1      -9.737   8.169  69.159  1.00  0.00    -0.163 A  
HETATM   14  C   UNL     1     -10.908   7.570  68.632  1.00  0.00    -0.044 A  
HETATM   15  C   UNL     1      -8.064   9.965  69.372  1.00  0.00    -0.139 A  
HETATM   16  C   UNL     1     -11.392   6.356  69.120  1.00  0.00    -0.366 A  
HETATM   17  C   UNL     1      -7.455   9.154  70.355  1.00  0.00    -0.106 A  
HETATM   18  C   UNL     1      -7.463  11.224  69.106  1.00  0.00    -0.084 A  
HETATM   19  C   UNL     1     -10.710   5.709  70.140  1.00  0.00    -0.376 A  
HETATM   20  C   UNL     1      -6.300  11.643  69.755  1.00  0.00    -0.134 A  
HETATM   21  C   UNL     1      -5.682  10.796  70.658  1.00  0.00    -0.116 A  
HETATM   22  C   UNL     1      -9.552   6.285  70.660  1.00  0.00    -0.189 A  
HETATM   23  C   UNL     1      -9.059   7.496  70.190  1.00  0.00    -0.147 A  
HETATM   24  N   UNL     1      -7.938   7.969  70.745  1.00  0.00    -0.096 NA 
ENDBRANCH   9  11
ENDBRANCH   4   9
BRANCH   6  25
HETATM   25  N   UNL     1     -11.215  15.278  66.327  1.00  0.00    -0.278 N  
HETATM   26  H   UNL     1     -11.645  15.610  65.464  1.00  0.00     0.000 HD 
BRANCH  25  27
HETATM   27  S   UNL     1     -10.868  16.334  67.601  1.00  0.00    -0.250 S  
HETATM   28  C   UNL     1      -9.423  15.558  68.310  1.00  0.00    -0.200 C  
HETATM   29  O   UNL     1     -11.956  16.176  68.540  1.00  0.00    -0.214 OA 
HETATM   30  O   UNL     1     -10.500  17.636  67.094  1.00  0.00    -0.339 OA 
ENDBRANCH  25  27
ENDBRANCH   6  25
ENDBRANCH   2   3
TORSDOF 5
ENDMDL
MODEL      168
REMARK 921   NORMALIZED FREE ENERGY PREDICTED BY IDOCK:   -4.72 KCAL/MOL
REMARK 922        TOTAL FREE ENERGY PREDICTED BY IDOCK:   -6.64 KCAL/MOL
REMARK 923 INTER-LIGAND FREE ENERGY PREDICTED BY IDOCK:   -6.40 KCAL/MOL
REMARK 924 INTRA-LIGAND FREE ENERGY PREDICTED BY IDOCK:   -0.24 KCAL/MOL
REMARK 927      BINDING AFFINITY PREDICTED BY RF-SCORE:    0.00 PKD
ROOT
HETATM    1  C   UNL     1     -13.256   7.811  71.688  1.00  0.00    -0.343 C  
HETATM    2  O   UNL     1     -12.303   8.672  72.321  1.00  0.00    -0.360 OA 
ENDROOT
BRANCH   2   3
HETATM    3  C   UNL     1     -11.865   9.707  71.523  1.00  0.00    -0.407 A  
HETATM    4  C   UNL     1     -10.608   9.555  70.889  1.00  0.00    -0.325 A  
HETATM    5  C   UNL     1     -10.187  10.548  69.996  1.00  0.00    -0.024 A  
HETATM    6  C   UNL     1     -12.139  11.882  70.510  1.00  0.00    -0.331 A  
HETATM    7  C   UNL     1     -10.951  11.707  69.803  1.00  0.00    -0.001 A  
HETATM    8  C   UNL     1     -12.598  10.887  71.367  1.00  0.00    -0.508 A  
BRANCH   4   9
HETATM    9  N   UNL     1      -9.800   8.441  71.195  1.00  0.00    -0.181 NA 
HETATM   10  H   UNL     1      -9.191   8.606  71.997  1.00  0.00     0.000 HD 
BRANCH   9  11
HETATM   11  C   UNL     1      -9.637   7.136  70.639  1.00  0.00    -0.165 A  
HETATM   12  C   UNL     1     -10.516   5.015  67.745  1.00  0.00    -0.053 A  
HETATM   13  C   UNL     1      -9.262   6.094  71.545  1.00  0.00    -0.152 A  
HETATM   14  C   UNL     1      -8.821   6.317  72.874  1.00  0.00    -0.124 A  
HETATM   15  C   UNL     1      -9.990   6.797  69.299  1.00  0.00    -0.168 A  
HETATM   16  C   UNL     1      -8.447   5.263  73.707  1.00  0.00    -0.111 A  
HETATM   17  C   UNL     1     -10.062   5.420  68.994  1.00  0.00    -0.213 A  
HETATM   18  C   UNL     1     -10.311   7.711  68.260  1.00  0.00    -0.238 A  
HETATM   19  C   UNL     1      -8.513   3.961  73.234  1.00  0.00    -0.088 A  
HETATM   20  C   UNL     1     -10.716   7.282  66.994  1.00  0.00    -0.406 A  
HETATM   21  C   UNL     1     -10.851   5.927  66.745  1.00  0.00    -0.347 A  
HETATM   22  C   UNL     1      -8.953   3.729  71.931  1.00  0.00    -0.148 A  
HETATM   23  C   UNL     1      -9.325   4.768  71.085  1.00  0.00    -0.148 A  
HETATM   24  N   UNL     1      -9.740   4.449  69.855  1.00  0.00    -0.209 NA 
ENDBRANCH   9  11
ENDBRANCH   4   9
BRANCH   6  25
HETATM   25  N   UNL     1     -12.888  13.095  70.430  1.00  0.00     0.023 N  
HETATM   26  H   UNL     1     -13.121  13.518  69.532  1.00  0.00     0.000 HD 
BRANCH  25  27
HETATM   27  S   UNL     1     -13.371  13.799  71.890  1.00  0.00    -0.440 S  
HETATM   28  C   UNL     1     -14.209  15.265  71.305  1.00  0.00    -0.402 C  
HETATM   29  O   UNL     1     -12.149  14.221  72.537  1.00  0.00    -0.060 OA 
HETATM   30  O   UNL     1     -14.325  12.952  72.568  1.00  0.00    -0.469 OA 
ENDBRANCH  25  27
ENDBRANCH   6  25
ENDBRANCH   2   3
TORSDOF 5
ENDMDL
MODEL      169
REMARK 921   NORMALIZED FREE ENERGY PREDICTED BY IDOCK:   -4.72 KCAL/MOL
REMARK 922        TOTAL FREE ENERGY PREDICTED BY IDOCK:   -6.63 KCAL/MOL
REMARK 923 INTER-LIGAND FREE ENERGY PREDICTED BY IDOCK:   -5.98 KCAL/MOL
REMARK 924 INTRA-LIGAND FREE ENERGY PREDICTED BY IDOCK:   -0.65 KCAL/MOL
REMARK 927      BINDING AFFINITY PREDICTED BY RF-SCORE:    0.00 PKD
ROOT
HETATM    1  C   UNL     1     -11.635   9.956  70.239  1.00  0.00    -0.250 C  
HETATM    2  O   UNL     1     -10.220  10.156  70.316  1.00  0.00    -0.247 OA 
ENDROOT
BRANCH   2   3
HETATM    3  C   UNL     1      -9.477   9.129  69.772  1.00  0.00    -0.182 A  
HETATM    4  C   UNL     1      -8.668   9.433  68.651  1.00  0.00    -0.131 A  
HETATM    5  C   UNL     1      -7.829   8.432  68.144  1.00  0.00    -0.111 A  
HETATM    6  C   UNL     1      -8.732   6.833  69.719  1.00  0.00    -0.141 A  
HETATM    7  C   UNL     1      -7.857   7.137  68.677  1.00  0.00    -0.122 A  
HETATM    8  C   UNL     1      -9.540   7.824  70.267  1.00  0.00    -0.175 A  
BRANCH   4   9
HETATM    9  N   UNL     1      -8.749  10.706  68.052  1.00  0.00    -0.124 NA 
HETATM   10  H   UNL     1      -8.076  11.367  68.441  1.00  0.00     0.000 HD 
BRANCH   9  11
HETATM   11  C   UNL     1      -9.557  11.284  67.026  1.00  0.00    -0.178 A  
HETATM   12  C   UNL     1      -9.947  11.556  63.362  1.00  0.00    -0.445 A  
HETATM   13  C   UNL     1     -10.365  12.404  67.398  1.00  0.00    -0.217 A  
HETATM   14  C   UNL     1     -10.589  12.811  68.737  1.00  0.00    -0.216 A  
HETATM   15  C   UNL     1      -9.466  10.919  65.650  1.00  0.00    -0.252 A  
HETATM   16  C   UNL     1     -11.406  13.900  69.043  1.00  0.00    -0.324 A  
HETATM   17  C   UNL     1     -10.096  11.781  64.725  1.00  0.00    -0.263 A  
HETATM   18  C   UNL     1      -8.772   9.797  65.123  1.00  0.00    -0.192 A  
HETATM   19  C   UNL     1     -12.010  14.611  68.017  1.00  0.00    -0.292 A  
HETATM   20  C   UNL     1      -8.679   9.560  63.750  1.00  0.00    -0.237 A  
HETATM   21  C   UNL     1      -9.242  10.462  62.864  1.00  0.00    -0.319 A  
HETATM   22  C   UNL     1     -11.790  14.224  66.695  1.00  0.00    -0.442 A  
HETATM   23  C   UNL     1     -10.984  13.139  66.372  1.00  0.00    -0.288 A  
HETATM   24  N   UNL     1     -10.826  12.846  65.077  1.00  0.00    -0.289 NA 
ENDBRANCH   9  11
ENDBRANCH   4   9
BRANCH   6  25
HETATM   25  N   UNL     1      -8.875   5.502  70.215  1.00  0.00    -0.128 N  
HETATM   26  H   UNL     1      -9.252   4.755  69.632  1.00  0.00     0.000 HD 
BRANCH  25  27
HETATM   27  S   UNL     1      -8.392   5.218  71.810  1.00  0.00    -0.119 S  
HETATM   28  C   UNL     1      -7.863   3.514  71.712  1.00  0.00    -0.061 C  
HETATM   29  O   UNL     1      -9.607   5.255  72.594  1.00  0.00    -0.146 OA 
HETATM   30  O   UNL     1      -7.256   6.043  72.149  1.00  0.00    -0.085 OA 
ENDBRANCH  25  27
ENDBRANCH   6  25
ENDBRANCH   2   3
TORSDOF 5
ENDMDL
MODEL      170
REMARK 921   NORMALIZED FREE ENERGY PREDICTED BY IDOCK:   -4.67 KCAL/MOL
REMARK 922        TOTAL FREE ENERGY PREDICTED BY IDOCK:   -6.56 KCAL/MOL
REMARK 923 INTER-LIGAND FREE ENERGY PREDICTED BY IDOCK:   -5.63 KCAL/MOL
REMARK 924 INTRA-LIGAND FREE ENERGY PREDICTED BY IDOCK:   -0.94 KCAL/MOL
REMARK 927      BINDING AFFINITY PREDICTED BY RF-SCORE:    0.00 PKD
ROOT
HETATM    1  C   UNL     1      -5.335   8.385  71.810  1.00  0.00    -0.036 C  
HETATM    2  O   UNL     1      -6.420   8.829  70.987  1.00  0.00    -0.044 OA 
ENDROOT
BRANCH   2   3
HETATM    3  C   UNL     1      -6.930   7.855  70.156  1.00  0.00    -0.049 A  
HETATM    4  C   UNL     1      -7.986   8.225  69.289  1.00  0.00    -0.114 A  
HETATM    5  C   UNL     1      -8.452   7.280  68.366  1.00  0.00    -0.125 A  
HETATM    6  C   UNL     1      -6.975   5.602  69.289  1.00  0.00    -0.063 A  
HETATM    7  C   UNL     1      -7.947   5.974  68.362  1.00  0.00    -0.107 A  
HETATM    8  C   UNL     1      -6.465   6.537  70.184  1.00  0.00    -0.040 A  
BRANCH   4   9
HETATM    9  N   UNL     1      -8.564   9.506  69.396  1.00  0.00    -0.147 NA 
HETATM   10  H   UNL     1      -7.909  10.205  69.746  1.00  0.00     0.000 HD 
BRANCH   9  11
HETATM   11  C   UNL     1      -9.857  10.050  69.127  1.00  0.00    -0.205 A  
HETATM   12  C   UNL     1     -11.660  12.514  67.047  1.00  0.00    -0.437 A  
HETATM   13  C   UNL     1     -10.852   9.874  70.139  1.00  0.00    -0.356 A  
HETATM   14  C   UNL     1     -10.707   9.011  71.253  1.00  0.00    -0.379 A  
HETATM   15  C   UNL     1     -10.144  10.887  68.007  1.00  0.00    -0.197 A  
HETATM   16  C   UNL     1     -11.721   8.862  72.200  1.00  0.00    -0.411 A  
HETATM   17  C   UNL     1     -11.369  11.590  68.042  1.00  0.00    -0.298 A  
HETATM   18  C   UNL     1      -9.301  11.106  66.886  1.00  0.00    -0.189 A  
HETATM   19  C   UNL     1     -12.899   9.579  72.057  1.00  0.00    -0.499 A  
HETATM   20  C   UNL     1      -9.638  12.002  65.868  1.00  0.00    -0.238 A  
HETATM   21  C   UNL     1     -10.809  12.734  65.966  1.00  0.00    -0.301 A  
HETATM   22  C   UNL     1     -13.049  10.438  70.969  1.00  0.00    -0.450 A  
HETATM   23  C   UNL     1     -12.052  10.594  70.014  1.00  0.00    -0.316 A  
HETATM   24  N   UNL     1     -12.283  11.445  69.008  1.00  0.00    -0.424 NA 
ENDBRANCH   9  11
ENDBRANCH   4   9
BRANCH   6  25
HETATM   25  N   UNL     1      -6.516   4.254  69.396  1.00  0.00    -0.032 N  
HETATM   26  H   UNL     1      -5.661   3.944  68.934  1.00  0.00     0.000 HD 
BRANCH  25  27
HETATM   27  S   UNL     1      -7.453   3.193  70.321  1.00  0.00    -0.040 S  
HETATM   28  C   UNL     1      -6.193   2.375  71.289  1.00  0.00    -0.018 C  
HETATM   29  O   UNL     1      -7.982   2.227  69.384  1.00  0.00    -0.042 OA 
HETATM   30  O   UNL     1      -8.322   3.929  71.210  1.00  0.00    -0.070 OA 
ENDBRANCH  25  27
ENDBRANCH   6  25
ENDBRANCH   2   3
TORSDOF 5
ENDMDL
MODEL      171
REMARK 921   NORMALIZED FREE ENERGY PREDICTED BY IDOCK:   -4.67 KCAL/MOL
REMARK 922        TOTAL FREE ENERGY PREDICTED BY IDOCK:   -6.56 KCAL/MOL
REMARK 923 INTER-LIGAND FREE ENERGY PREDICTED BY IDOCK:   -6.33 KCAL/MOL
REMARK 924 INTRA-LIGAND FREE ENERGY PREDICTED BY IDOCK:   -0.24 KCAL/MOL
REMARK 927      BINDING AFFINITY PREDICTED BY RF-SCORE:    0.00 PKD
ROOT
HETATM    1  C   UNL     1      -7.599   7.253  67.974  1.00  0.00    -0.115 C  
HETATM    2  O   UNL     1      -8.170   7.727  66.750  1.00  0.00    -0.115 OA 
ENDROOT
BRANCH   2   3
HETATM    3  C   UNL     1      -8.895   8.892  66.883  1.00  0.00    -0.127 A  
HETATM    4  C   UNL     1     -10.265   8.773  67.218  1.00  0.00    -0.263 A  
HETATM    5  C   UNL     1     -10.997   9.943  67.457  1.00  0.00    -0.239 A  
HETATM    6  C   UNL     1      -9.086  11.299  66.855  1.00  0.00    -0.167 A  
HETATM    7  C   UNL     1     -10.410  11.203  67.280  1.00  0.00    -0.243 A  
HETATM    8  C   UNL     1      -8.328  10.150  66.657  1.00  0.00    -0.123 A  
BRANCH   4   9
HETATM    9  N   UNL     1     -10.866   7.499  67.267  1.00  0.00    -0.528 NA 
HETATM   10  H   UNL     1     -11.591   7.379  66.560  1.00  0.00     0.000 HD 
BRANCH   9  11
HETATM   11  C   UNL     1     -10.693   6.338  68.080  1.00  0.00    -0.295 A  
HETATM   12  C   UNL     1     -10.454   5.178  71.579  1.00  0.00    -0.256 A  
HETATM   13  C   UNL     1     -10.118   5.191  67.448  1.00  0.00    -0.222 A  
HETATM   14  C   UNL     1      -9.937   5.063  66.048  1.00  0.00    -0.220 A  
HETATM   15  C   UNL     1     -10.899   6.323  69.492  1.00  0.00    -0.404 A  
HETATM   16  C   UNL     1      -9.389   3.910  65.484  1.00  0.00    -0.160 A  
HETATM   17  C   UNL     1     -10.397   5.204  70.191  1.00  0.00    -0.270 A  
HETATM   18  C   UNL     1     -11.523   7.343  70.259  1.00  0.00    -0.206 A  
HETATM   19  C   UNL     1      -9.003   2.864  66.308  1.00  0.00    -0.153 A  
HETATM   20  C   UNL     1     -11.615   7.272  71.651  1.00  0.00    -0.306 A  
HETATM   21  C   UNL     1     -11.048   6.199  72.317  1.00  0.00    -0.320 A  
HETATM   22  C   UNL     1      -9.169   2.982  67.687  1.00  0.00    -0.240 A  
HETATM   23  C   UNL     1      -9.717   4.120  68.266  1.00  0.00    -0.082 A  
HETATM   24  N   UNL     1      -9.832   4.147  69.598  1.00  0.00    -0.198 NA 
ENDBRANCH   9  11
ENDBRANCH   4   9
BRANCH   6  25
HETATM   25  N   UNL     1      -8.484  12.558  66.553  1.00  0.00    -0.413 N  
HETATM   26  H   UNL     1      -8.804  13.126  65.769  1.00  0.00     0.000 HD 
BRANCH  25  27
HETATM   27  S   UNL     1      -7.219  13.067  67.552  1.00  0.00    -0.127 S  
HETATM   28  C   UNL     1      -7.360  14.843  67.410  1.00  0.00    -0.193 C  
HETATM   29  O   UNL     1      -6.006  12.668  66.873  1.00  0.00    -0.262 OA 
HETATM   30  O   UNL     1      -7.471  12.685  68.923  1.00  0.00    -0.080 OA 
ENDBRANCH  25  27
ENDBRANCH   6  25
ENDBRANCH   2   3
TORSDOF 5
ENDMDL
MODEL      172
REMARK 921   NORMALIZED FREE ENERGY PREDICTED BY IDOCK:   -4.66 KCAL/MOL
REMARK 922        TOTAL FREE ENERGY PREDICTED BY IDOCK:   -6.55 KCAL/MOL
REMARK 923 INTER-LIGAND FREE ENERGY PREDICTED BY IDOCK:   -5.63 KCAL/MOL
REMARK 924 INTRA-LIGAND FREE ENERGY PREDICTED BY IDOCK:   -0.93 KCAL/MOL
REMARK 927      BINDING AFFINITY PREDICTED BY RF-SCORE:    0.00 PKD
ROOT
HETATM    1  C   UNL     1     -12.226   7.728  72.121  1.00  0.00    -0.285 C  
HETATM    2  O   UNL     1     -11.750   7.000  70.984  1.00  0.00    -0.298 OA 
ENDROOT
BRANCH   2   3
HETATM    3  C   UNL     1     -11.228   7.795  69.986  1.00  0.00    -0.117 A  
HETATM    4  C   UNL     1     -10.891   7.168  68.763  1.00  0.00    -0.120 A  
HETATM    5  C   UNL     1     -10.454   7.970  67.701  1.00  0.00    -0.301 A  
HETATM    6  C   UNL     1     -10.517   9.932  69.116  1.00  0.00    -0.217 A  
HETATM    7  C   UNL     1     -10.270   9.348  67.874  1.00  0.00    -0.259 A  
HETATM    8  C   UNL     1     -10.995   9.161  70.170  1.00  0.00    -0.267 A  
BRANCH   4   9
HETATM    9  N   UNL     1     -10.963   5.765  68.651  1.00  0.00    -0.216 NA 
HETATM   10  H   UNL     1     -11.920   5.415  68.711  1.00  0.00     0.000 HD 
BRANCH   9  11
HETATM   11  C   UNL     1     -10.005   4.721  68.473  1.00  0.00    -0.089 A  
HETATM   12  C   UNL     1      -7.238   2.923  70.135  1.00  0.00    -0.040 A  
HETATM   13  C   UNL     1      -9.714   4.338  67.126  1.00  0.00    -0.232 A  
HETATM   14  C   UNL     1     -10.470   4.753  66.001  1.00  0.00    -0.332 A  
HETATM   15  C   UNL     1      -9.221   4.179  69.535  1.00  0.00    -0.214 A  
HETATM   16  C   UNL     1     -10.152   4.331  64.710  1.00  0.00    -0.159 A  
HETATM   17  C   UNL     1      -8.115   3.384  69.161  1.00  0.00    -0.056 A  
HETATM   18  C   UNL     1      -9.425   4.395  70.923  1.00  0.00    -0.241 A  
HETATM   19  C   UNL     1      -9.065   3.492  64.514  1.00  0.00    -0.130 A  
HETATM   20  C   UNL     1      -8.560   3.879  71.890  1.00  0.00    -0.115 A  
HETATM   21  C   UNL     1      -7.442   3.166  71.491  1.00  0.00    -0.040 A  
HETATM   22  C   UNL     1      -8.309   3.084  65.613  1.00  0.00    -0.098 A  
HETATM   23  C   UNL     1      -8.614   3.491  66.906  1.00  0.00    -0.112 A  
HETATM   24  N   UNL     1      -7.829   3.054  67.896  1.00  0.00    -0.066 NA 
ENDBRANCH   9  11
ENDBRANCH   4   9
BRANCH   6  25
HETATM   25  N   UNL     1     -10.234  11.309  69.368  1.00  0.00    -0.435 N  
HETATM   26  H   UNL     1      -9.494  11.591  70.010  1.00  0.00     0.000 HD 
BRANCH  25  27
HETATM   27  S   UNL     1     -11.180  12.450  68.554  1.00  0.00    -0.303 S  
HETATM   28  C   UNL     1     -10.105  12.883  67.194  1.00  0.00    -0.243 C  
HETATM   29  O   UNL     1     -11.250  13.593  69.438  1.00  0.00    -0.249 OA 
HETATM   30  O   UNL     1     -12.376  11.834  68.028  1.00  0.00    -0.391 OA 
ENDBRANCH  25  27
ENDBRANCH   6  25
ENDBRANCH   2   3
TORSDOF 5
ENDMDL
MODEL      173
REMARK 921   NORMALIZED FREE ENERGY PREDICTED BY IDOCK:   -4.65 KCAL/MOL
REMARK 922        TOTAL FREE ENERGY PREDICTED BY IDOCK:   -6.55 KCAL/MOL
REMARK 923 INTER-LIGAND FREE ENERGY PREDICTED BY IDOCK:   -6.18 KCAL/MOL
REMARK 924 INTRA-LIGAND FREE ENERGY PREDICTED BY IDOCK:   -0.37 KCAL/MOL
REMARK 927      BINDING AFFINITY PREDICTED BY RF-SCORE:    0.00 PKD
ROOT
HETATM    1  C   UNL     1     -10.995   6.094  68.772  1.00  0.00    -0.348 C  
HETATM    2  O   UNL     1      -9.717   6.584  69.191  1.00  0.00    -0.137 OA 
ENDROOT
BRANCH   2   3
HETATM    3  C   UNL     1      -9.086   7.379  68.258  1.00  0.00    -0.128 A  
HETATM    4  C   UNL     1      -8.370   8.503  68.735  1.00  0.00    -0.122 A  
HETATM    5  C   UNL     1      -7.638   9.267  67.817  1.00  0.00    -0.084 A  
HETATM    6  C   UNL     1      -8.475   7.924  65.986  1.00  0.00    -0.138 A  
HETATM    7  C   UNL     1      -7.687   8.978  66.447  1.00  0.00    -0.099 A  
HETATM    8  C   UNL     1      -9.173   7.125  66.886  1.00  0.00    -0.174 A  
BRANCH   4   9
HETATM    9  N   UNL     1      -8.438   8.849  70.100  1.00  0.00    -0.133 NA 
HETATM   10  H   UNL     1      -7.606   9.346  70.421  1.00  0.00     0.000 HD 
BRANCH   9  11
HETATM   11  C   UNL     1      -9.402   8.663  71.137  1.00  0.00    -0.216 A  
HETATM   12  C   UNL     1     -10.396   6.411  73.891  1.00  0.00    -0.338 A  
HETATM   13  C   UNL     1     -10.637   9.371  70.999  1.00  0.00    -0.400 A  
HETATM   14  C   UNL     1     -10.862  10.399  70.050  1.00  0.00    -0.348 A  
HETATM   15  C   UNL     1      -9.265   7.700  72.180  1.00  0.00    -0.182 A  
HETATM   16  C   UNL     1     -12.083  11.071  69.975  1.00  0.00    -0.441 A  
HETATM   17  C   UNL     1     -10.423   7.423  72.940  1.00  0.00    -0.295 A  
HETATM   18  C   UNL     1      -8.089   6.970  72.499  1.00  0.00    -0.107 A  
HETATM   19  C   UNL     1     -13.108  10.723  70.842  1.00  0.00    -0.291 A  
HETATM   20  C   UNL     1      -8.070   5.993  73.496  1.00  0.00    -0.110 A  
HETATM   21  C   UNL     1      -9.238   5.689  74.174  1.00  0.00    -0.127 A  
HETATM   22  C   UNL     1     -12.901   9.707  71.774  1.00  0.00    -0.514 A  
HETATM   23  C   UNL     1     -11.691   9.031  71.866  1.00  0.00    -0.374 A  
HETATM   24  N   UNL     1     -11.586   8.066  72.786  1.00  0.00    -0.392 NA 
ENDBRANCH   9  11
ENDBRANCH   4   9
BRANCH   6  25
HETATM   25  N   UNL     1      -8.644   7.667  64.592  1.00  0.00    -0.373 N  
HETATM   26  H   UNL     1      -9.359   8.145  64.045  1.00  0.00     0.000 HD 
BRANCH  25  27
HETATM   27  S   UNL     1      -7.604   6.536  63.886  1.00  0.00    -0.108 S  
HETATM   28  C   UNL     1      -8.654   5.091  63.828  1.00  0.00    -0.110 C  
HETATM   29  O   UNL     1      -6.575   6.290  64.871  1.00  0.00    -0.037 OA 
HETATM   30  O   UNL     1      -7.271   6.928  62.536  1.00  0.00    -0.054 OA 
ENDBRANCH  25  27
ENDBRANCH   6  25
ENDBRANCH   2   3
TORSDOF 5
ENDMDL
MODEL      174
REMARK 921   NORMALIZED FREE ENERGY PREDICTED BY IDOCK:   -4.65 KCAL/MOL
REMARK 922        TOTAL FREE ENERGY PREDICTED BY IDOCK:   -6.54 KCAL/MOL
REMARK 923 INTER-LIGAND FREE ENERGY PREDICTED BY IDOCK:   -5.83 KCAL/MOL
REMARK 924 INTRA-LIGAND FREE ENERGY PREDICTED BY IDOCK:   -0.71 KCAL/MOL
REMARK 927      BINDING AFFINITY PREDICTED BY RF-SCORE:    0.00 PKD
ROOT
HETATM    1  C   UNL     1      -7.484   6.538  71.607  1.00  0.00    -0.089 C  
HETATM    2  O   UNL     1      -6.828   7.141  70.487  1.00  0.00    -0.051 OA 
ENDROOT
BRANCH   2   3
HETATM    3  C   UNL     1      -7.381   6.810  69.268  1.00  0.00    -0.093 A  
HETATM    4  C   UNL     1      -8.182   7.786  68.629  1.00  0.00    -0.128 A  
HETATM    5  C   UNL     1      -8.671   7.511  67.345  1.00  0.00    -0.124 A  
HETATM    6  C   UNL     1      -7.735   5.282  67.432  1.00  0.00    -0.096 A  
HETATM    7  C   UNL     1      -8.446   6.265  66.746  1.00  0.00    -0.111 A  
HETATM    8  C   UNL     1      -7.202   5.550  68.689  1.00  0.00    -0.074 A  
BRANCH   4   9
HETATM    9  N   UNL     1      -8.501   8.982  69.303  1.00  0.00    -0.125 NA 
HETATM   10  H   UNL     1      -7.694   9.395  69.773  1.00  0.00     0.000 HD 
BRANCH   9  11
HETATM   11  C   UNL     1      -9.692   9.750  69.478  1.00  0.00    -0.212 A  
HETATM   12  C   UNL     1     -12.948   9.811  71.222  1.00  0.00    -0.470 A  
HETATM   13  C   UNL     1      -9.985  10.721  68.470  1.00  0.00    -0.186 A  
HETATM   14  C   UNL     1      -9.071  11.123  67.464  1.00  0.00    -0.146 A  
HETATM   15  C   UNL     1     -10.663   9.482  70.488  1.00  0.00    -0.359 A  
HETATM   16  C   UNL     1      -9.404  12.092  66.517  1.00  0.00    -0.226 A  
HETATM   17  C   UNL     1     -11.916  10.119  70.345  1.00  0.00    -0.267 A  
HETATM   18  C   UNL     1     -10.501   8.609  71.597  1.00  0.00    -0.366 A  
HETATM   19  C   UNL     1     -10.662  12.675  66.550  1.00  0.00    -0.273 A  
HETATM   20  C   UNL     1     -11.538   8.354  72.497  1.00  0.00    -0.426 A  
HETATM   21  C   UNL     1     -12.778   8.933  72.290  1.00  0.00    -0.464 A  
HETATM   22  C   UNL     1     -11.573  12.281  67.530  1.00  0.00    -0.422 A  
HETATM   23  C   UNL     1     -11.256  11.321  68.484  1.00  0.00    -0.252 A  
HETATM   24  N   UNL     1     -12.195  11.003  69.381  1.00  0.00    -0.360 NA 
ENDBRANCH   9  11
ENDBRANCH   4   9
BRANCH   6  25
HETATM   25  N   UNL     1      -7.581   3.963  66.908  1.00  0.00    -0.080 N  
HETATM   26  H   UNL     1      -6.663   3.586  66.674  1.00  0.00     0.000 HD 
BRANCH  25  27
HETATM   27  S   UNL     1      -8.989   3.051  66.692  1.00  0.00    -0.157 S  
HETATM   28  C   UNL     1      -9.611   2.975  68.366  1.00  0.00    -0.048 C  
HETATM   29  O   UNL     1      -8.538   1.725  66.331  1.00  0.00    -0.100 OA 
HETATM   30  O   UNL     1      -9.937   3.770  65.872  1.00  0.00    -0.131 OA 
ENDBRANCH  25  27
ENDBRANCH   6  25
ENDBRANCH   2   3
TORSDOF 5
ENDMDL
MODEL      175
REMARK 921   NORMALIZED FREE ENERGY PREDICTED BY IDOCK:   -4.63 KCAL/MOL
REMARK 922        TOTAL FREE ENERGY PREDICTED BY IDOCK:   -6.52 KCAL/MOL
REMARK 923 INTER-LIGAND FREE ENERGY PREDICTED BY IDOCK:   -6.00 KCAL/MOL
REMARK 924 INTRA-LIGAND FREE ENERGY PREDICTED BY IDOCK:   -0.52 KCAL/MOL
REMARK 927      BINDING AFFINITY PREDICTED BY RF-SCORE:    0.00 PKD
ROOT
HETATM    1  C   UNL     1      -6.610  10.852  68.846  1.00  0.00    -0.056 C  
HETATM    2  O   UNL     1      -7.864  10.872  69.536  1.00  0.00    -0.095 OA 
ENDROOT
BRANCH   2   3
HETATM    3  C   UNL     1      -8.642   9.754  69.319  1.00  0.00    -0.158 A  
HETATM    4  C   UNL     1     -10.044   9.938  69.253  1.00  0.00    -0.203 A  
HETATM    5  C   UNL     1     -10.847   8.836  68.934  1.00  0.00    -0.040 A  
HETATM    6  C   UNL     1      -8.911   7.385  68.937  1.00  0.00    -0.131 A  
HETATM    7  C   UNL     1     -10.283   7.563  68.773  1.00  0.00    -0.206 A  
HETATM    8  C   UNL     1      -8.090   8.474  69.209  1.00  0.00    -0.113 A  
BRANCH   4   9
HETATM    9  N   UNL     1     -10.599  11.201  69.542  1.00  0.00    -0.430 NA 
HETATM   10  H   UNL     1     -10.545  11.436  70.534  1.00  0.00     0.000 HD 
BRANCH   9  11
HETATM   11  C   UNL     1     -11.220  12.227  68.767  1.00  0.00    -0.265 A  
HETATM   12  C   UNL     1     -11.416  13.667  65.370  1.00  0.00    -0.322 A  
HETATM   13  C   UNL     1     -11.765  13.336  69.488  1.00  0.00    -0.384 A  
HETATM   14  C   UNL     1     -11.935  13.363  70.895  1.00  0.00    -0.129 A  
HETATM   15  C   UNL     1     -11.169  12.282  67.343  1.00  0.00    -0.358 A  
HETATM   16  C   UNL     1     -12.493  14.465  71.543  1.00  0.00    -0.430 A  
HETATM   17  C   UNL     1     -11.556  13.500  66.743  1.00  0.00    -0.363 A  
HETATM   18  C   UNL     1     -10.730  11.243  66.479  1.00  0.00    -0.323 A  
HETATM   19  C   UNL     1     -12.886  15.568  70.800  1.00  0.00    -0.513 A  
HETATM   20  C   UNL     1     -10.647  11.414  65.095  1.00  0.00    -0.352 A  
HETATM   21  C   UNL     1     -10.961  12.643  64.541  1.00  0.00    -0.365 A  
HETATM   22  C   UNL     1     -12.715  15.556  69.416  1.00  0.00     0.263 A  
HETATM   23  C   UNL     1     -12.166  14.465  68.753  1.00  0.00    -0.165 A  
HETATM   24  N   UNL     1     -12.036  14.546  67.425  1.00  0.00    -0.382 NA 
ENDBRANCH   9  11
ENDBRANCH   4   9
BRANCH   6  25
HETATM   25  N   UNL     1      -8.312   6.090  68.896  1.00  0.00    -0.107 N  
HETATM   26  H   UNL     1      -7.925   5.709  68.032  1.00  0.00     0.000 HD 
BRANCH  25  27
HETATM   27  S   UNL     1      -8.273   5.212  70.341  1.00  0.00    -0.099 S  
HETATM   28  C   UNL     1      -6.627   4.519  70.279  1.00  0.00    -0.035 C  
HETATM   29  O   UNL     1      -9.213   4.129  70.160  1.00  0.00    -0.111 OA 
HETATM   30  O   UNL     1      -8.364   6.103  71.475  1.00  0.00    -0.124 OA 
ENDBRANCH  25  27
ENDBRANCH   6  25
ENDBRANCH   2   3
TORSDOF 5
ENDMDL
MODEL      176
REMARK 921   NORMALIZED FREE ENERGY PREDICTED BY IDOCK:   -4.63 KCAL/MOL
REMARK 922        TOTAL FREE ENERGY PREDICTED BY IDOCK:   -6.51 KCAL/MOL
REMARK 923 INTER-LIGAND FREE ENERGY PREDICTED BY IDOCK:   -6.17 KCAL/MOL
REMARK 924 INTRA-LIGAND FREE ENERGY PREDICTED BY IDOCK:   -0.34 KCAL/MOL
REMARK 927      BINDING AFFINITY PREDICTED BY RF-SCORE:    0.00 PKD
ROOT
HETATM    1  C   UNL     1      -8.447   9.430  70.331  1.00  0.00    -0.214 C  
HETATM    2  O   UNL     1      -9.769   9.599  69.809  1.00  0.00    -0.195 OA 
ENDROOT
BRANCH   2   3
HETATM    3  C   UNL     1      -9.805   9.998  68.489  1.00  0.00    -0.156 A  
HETATM    4  C   UNL     1     -10.370   9.102  67.552  1.00  0.00    -0.261 A  
HETATM    5  C   UNL     1     -10.510   9.525  66.224  1.00  0.00    -0.137 A  
HETATM    6  C   UNL     1      -9.379  11.602  66.736  1.00  0.00    -0.186 A  
HETATM    7  C   UNL     1     -10.019  10.772  65.816  1.00  0.00    -0.306 A  
HETATM    8  C   UNL     1      -9.272  11.220  68.068  1.00  0.00    -0.160 A  
BRANCH   4   9
HETATM    9  N   UNL     1     -10.741   7.804  67.959  1.00  0.00    -0.424 NA 
HETATM   10  H   UNL     1     -11.634   7.508  67.564  1.00  0.00     0.000 HD 
BRANCH   9  11
HETATM   11  C   UNL     1     -10.154   6.808  68.797  1.00  0.00    -0.160 A  
HETATM   12  C   UNL     1     -10.200   5.411  72.217  1.00  0.00    -0.244 A  
HETATM   13  C   UNL     1      -8.893   6.279  68.380  1.00  0.00    -0.114 A  
HETATM   14  C   UNL     1      -8.322   6.500  67.102  1.00  0.00    -0.113 A  
HETATM   15  C   UNL     1     -10.667   6.454  70.081  1.00  0.00    -0.328 A  
HETATM   16  C   UNL     1      -7.096   5.941  66.741  1.00  0.00    -0.070 A  
HETATM   17  C   UNL     1      -9.817   5.689  70.911  1.00  0.00    -0.182 A  
HETATM   18  C   UNL     1     -11.929   6.829  70.613  1.00  0.00    -0.418 A  
HETATM   19  C   UNL     1      -6.409   5.154  67.654  1.00  0.00    -0.040 A  
HETATM   20  C   UNL     1     -12.315   6.493  71.913  1.00  0.00    -0.339 A  
HETATM   21  C   UNL     1     -11.433   5.808  72.730  1.00  0.00    -0.304 A  
HETATM   22  C   UNL     1      -6.958   4.936  68.918  1.00  0.00    -0.052 A  
HETATM   23  C   UNL     1      -8.180   5.481  69.292  1.00  0.00    -0.095 A  
HETATM   24  N   UNL     1      -8.624   5.222  70.526  1.00  0.00    -0.118 NA 
ENDBRANCH   9  11
ENDBRANCH   4   9
BRANCH   6  25
HETATM   25  N   UNL     1      -8.765  12.828  66.339  1.00  0.00    -0.426 N  
HETATM   26  H   UNL     1      -7.829  12.849  65.935  1.00  0.00     0.000 HD 
BRANCH  25  27
HETATM   27  S   UNL     1      -9.658  14.246  66.567  1.00  0.00    -0.298 S  
HETATM   28  C   UNL     1     -10.938  14.051  65.336  1.00  0.00    -0.321 C  
HETATM   29  O   UNL     1      -8.793  15.321  66.133  1.00  0.00    -0.284 OA 
HETATM   30  O   UNL     1     -10.265  14.256  67.878  1.00  0.00    -0.231 OA 
ENDBRANCH  25  27
ENDBRANCH   6  25
ENDBRANCH   2   3
TORSDOF 5
ENDMDL
MODEL      177
REMARK 921   NORMALIZED FREE ENERGY PREDICTED BY IDOCK:   -4.62 KCAL/MOL
REMARK 922        TOTAL FREE ENERGY PREDICTED BY IDOCK:   -6.51 KCAL/MOL
REMARK 923 INTER-LIGAND FREE ENERGY PREDICTED BY IDOCK:   -5.89 KCAL/MOL
REMARK 924 INTRA-LIGAND FREE ENERGY PREDICTED BY IDOCK:   -0.62 KCAL/MOL
REMARK 927      BINDING AFFINITY PREDICTED BY RF-SCORE:    0.00 PKD
ROOT
HETATM    1  C   UNL     1      -8.158   8.085  65.899  1.00  0.00    -0.117 C  
HETATM    2  O   UNL     1      -8.835   8.293  67.143  1.00  0.00    -0.133 OA 
ENDROOT
BRANCH   2   3
HETATM    3  C   UNL     1      -8.336   7.542  68.187  1.00  0.00    -0.125 A  
HETATM    4  C   UNL     1      -8.336   8.132  69.473  1.00  0.00    -0.122 A  
HETATM    5  C   UNL     1      -7.928   7.354  70.564  1.00  0.00    -0.099 A  
HETATM    6  C   UNL     1      -7.367   5.522  69.086  1.00  0.00    -0.077 A  
HETATM    7  C   UNL     1      -7.449   6.051  70.373  1.00  0.00    -0.090 A  
HETATM    8  C   UNL     1      -7.809   6.262  67.995  1.00  0.00    -0.104 A  
BRANCH   4   9
HETATM    9  N   UNL     1      -8.703   9.485  69.624  1.00  0.00    -0.165 NA 
HETATM   10  H   UNL     1      -7.897  10.104  69.705  1.00  0.00     0.000 HD 
BRANCH   9  11
HETATM   11  C   UNL     1      -9.945  10.187  69.689  1.00  0.00    -0.232 A  
HETATM   12  C   UNL     1     -13.359  10.045  71.093  1.00  0.00    -0.379 A  
HETATM   13  C   UNL     1     -10.186  11.163  68.672  1.00  0.00    -0.216 A  
HETATM   14  C   UNL     1      -9.198  11.632  67.771  1.00  0.00    -0.178 A  
HETATM   15  C   UNL     1     -10.998   9.848  70.591  1.00  0.00    -0.405 A  
HETATM   16  C   UNL     1      -9.484  12.602  66.810  1.00  0.00    -0.237 A  
HETATM   17  C   UNL     1     -12.261  10.423  70.331  1.00  0.00    -0.303 A  
HETATM   18  C   UNL     1     -10.903   8.962  71.696  1.00  0.00    -0.420 A  
HETATM   19  C   UNL     1     -10.768  13.119  66.724  1.00  0.00    -0.274 A  
HETATM   20  C   UNL     1     -12.010   8.635  72.482  1.00  0.00    -0.358 A  
HETATM   21  C   UNL     1     -13.251   9.155  72.159  1.00  0.00    -0.524 A  
HETATM   22  C   UNL     1     -11.751  12.659  67.600  1.00  0.00    -0.420 A  
HETATM   23  C   UNL     1     -11.482  11.697  68.565  1.00  0.00    -0.298 A  
HETATM   24  N   UNL     1     -12.489  11.313  69.357  1.00  0.00    -0.272 NA 
ENDBRANCH   9  11
ENDBRANCH   4   9
BRANCH   6  25
HETATM   25  N   UNL     1      -6.779   4.245  68.836  1.00  0.00    -0.045 N  
HETATM   26  H   UNL     1      -5.853   4.159  68.417  1.00  0.00     0.000 HD 
BRANCH  25  27
HETATM   27  S   UNL     1      -7.683   2.883  69.266  1.00  0.00    -0.046 S  
HETATM   28  C   UNL     1      -9.313   3.362  68.712  1.00  0.00    -0.167 C  
HETATM   29  O   UNL     1      -7.698   2.869  70.711  1.00  0.00    -0.042 OA 
HETATM   30  O   UNL     1      -7.251   1.730  68.509  1.00  0.00    -0.042 OA 
ENDBRANCH  25  27
ENDBRANCH   6  25
ENDBRANCH   2   3
TORSDOF 5
ENDMDL
MODEL      178
REMARK 921   NORMALIZED FREE ENERGY PREDICTED BY IDOCK:   -4.62 KCAL/MOL
REMARK 922        TOTAL FREE ENERGY PREDICTED BY IDOCK:   -6.50 KCAL/MOL
REMARK 923 INTER-LIGAND FREE ENERGY PREDICTED BY IDOCK:   -6.14 KCAL/MOL
REMARK 924 INTRA-LIGAND FREE ENERGY PREDICTED BY IDOCK:   -0.36 KCAL/MOL
REMARK 927      BINDING AFFINITY PREDICTED BY RF-SCORE:    0.00 PKD
ROOT
HETATM    1  C   UNL     1     -12.041  12.106  65.556  1.00  0.00    -0.135 C  
HETATM    2  O   UNL     1     -10.663  12.409  65.795  1.00  0.00    -0.255 OA 
ENDROOT
BRANCH   2   3
HETATM    3  C   UNL     1     -10.103  11.699  66.836  1.00  0.00    -0.211 A  
HETATM    4  C   UNL     1      -8.892  12.186  67.381  1.00  0.00    -0.181 A  
HETATM    5  C   UNL     1      -8.357  11.540  68.503  1.00  0.00    -0.146 A  
HETATM    6  C   UNL     1     -10.100   9.865  68.407  1.00  0.00    -0.167 A  
HETATM    7  C   UNL     1      -8.960  10.385  69.017  1.00  0.00    -0.184 A  
HETATM    8  C   UNL     1     -10.673  10.517  67.320  1.00  0.00    -0.333 A  
BRANCH   4   9
HETATM    9  N   UNL     1      -8.236  13.274  66.769  1.00  0.00    -0.413 NA 
HETATM   10  H   UNL     1      -7.735  13.005  65.922  1.00  0.00     0.000 HD 
BRANCH   9  11
HETATM   11  C   UNL     1      -8.111  14.666  67.063  1.00  0.00    -0.120 A  
HETATM   12  C   UNL     1      -6.647  17.069  69.457  1.00  0.00    -0.194 A  
HETATM   13  C   UNL     1      -9.074  15.538  66.465  1.00  0.00    -0.336 A  
HETATM   14  C   UNL     1      -9.970  15.148  65.439  1.00  0.00    -0.365 A  
HETATM   15  C   UNL     1      -7.206  15.190  68.034  1.00  0.00    -0.137 A  
HETATM   16  C   UNL     1     -10.875  16.048  64.877  1.00  0.00    -0.391 A  
HETATM   17  C   UNL     1      -7.412  16.530  68.430  1.00  0.00    -0.186 A  
HETATM   18  C   UNL     1      -6.148  14.482  68.663  1.00  0.00    -0.084 A  
HETATM   19  C   UNL     1     -10.910  17.357  65.334  1.00  0.00     0.018 A  
HETATM   20  C   UNL     1      -5.357  15.061  69.658  1.00  0.00    -0.090 A  
HETATM   21  C   UNL     1      -5.629  16.351  70.080  1.00  0.00    -0.191 A  
HETATM   22  C   UNL     1     -10.039  17.750  66.349  1.00  0.00    -0.357 A  
HETATM   23  C   UNL     1      -9.127  16.868  66.917  1.00  0.00    -0.230 A  
HETATM   24  N   UNL     1      -8.335  17.333  67.889  1.00  0.00    -0.216 NA 
ENDBRANCH   9  11
ENDBRANCH   4   9
BRANCH   6  25
HETATM   25  N   UNL     1     -10.679   8.629  68.827  1.00  0.00    -0.406 N  
HETATM   26  H   UNL     1     -10.826   7.861  68.173  1.00  0.00     0.000 HD 
BRANCH  25  27
HETATM   27  S   UNL     1     -11.111   8.496  70.456  1.00  0.00    -0.228 S  
HETATM   28  C   UNL     1      -9.662   7.697  71.133  1.00  0.00    -0.162 C  
HETATM   29  O   UNL     1     -12.195   7.540  70.491  1.00  0.00    -0.103 OA 
HETATM   30  O   UNL     1     -11.246   9.805  71.053  1.00  0.00    -0.330 OA 
ENDBRANCH  25  27
ENDBRANCH   6  25
ENDBRANCH   2   3
TORSDOF 5
ENDMDL
MODEL      179
REMARK 921   NORMALIZED FREE ENERGY PREDICTED BY IDOCK:   -4.61 KCAL/MOL
REMARK 922        TOTAL FREE ENERGY PREDICTED BY IDOCK:   -6.49 KCAL/MOL
REMARK 923 INTER-LIGAND FREE ENERGY PREDICTED BY IDOCK:   -5.98 KCAL/MOL
REMARK 924 INTRA-LIGAND FREE ENERGY PREDICTED BY IDOCK:   -0.51 KCAL/MOL
REMARK 927      BINDING AFFINITY PREDICTED BY RF-SCORE:    0.00 PKD
ROOT
HETATM    1  C   UNL     1     -12.148   6.999  70.884  1.00  0.00    -0.357 C  
HETATM    2  O   UNL     1     -10.938   7.468  71.489  1.00  0.00    -0.228 OA 
ENDROOT
BRANCH   2   3
HETATM    3  C   UNL     1     -10.121   8.177  70.635  1.00  0.00    -0.194 A  
HETATM    4  C   UNL     1      -8.930   7.548  70.199  1.00  0.00    -0.147 A  
HETATM    5  C   UNL     1      -8.135   8.207  69.254  1.00  0.00    -0.117 A  
HETATM    6  C   UNL     1      -9.590  10.139  69.331  1.00  0.00    -0.232 A  
HETATM    7  C   UNL     1      -8.464   9.498  68.817  1.00  0.00    -0.122 A  
HETATM    8  C   UNL     1     -10.418   9.484  70.237  1.00  0.00    -0.319 A  
BRANCH   4   9
HETATM    9  N   UNL     1      -8.554   6.305  70.747  1.00  0.00    -0.134 NA 
HETATM   10  H   UNL     1      -7.673   6.351  71.259  1.00  0.00     0.000 HD 
BRANCH   9  11
HETATM   11  C   UNL     1      -9.123   4.995  70.749  1.00  0.00    -0.134 A  
HETATM   12  C   UNL     1     -10.298   2.278  72.960  1.00  0.00    -0.229 A  
HETATM   13  C   UNL     1      -8.980   4.230  69.548  1.00  0.00    -0.154 A  
HETATM   14  C   UNL     1      -8.534   4.765  68.314  1.00  0.00    -0.100 A  
HETATM   15  C   UNL     1      -9.656   4.367  71.914  1.00  0.00    -0.212 A  
HETATM   16  C   UNL     1      -8.435   3.976  67.168  1.00  0.00    -0.100 A  
HETATM   17  C   UNL     1      -9.895   2.977  71.829  1.00  0.00    -0.160 A  
HETATM   18  C   UNL     1      -9.930   4.998  73.156  1.00  0.00    -0.185 A  
HETATM   19  C   UNL     1      -8.771   2.632  67.233  1.00  0.00    -0.136 A  
HETATM   20  C   UNL     1     -10.386   4.284  74.267  1.00  0.00    -0.287 A  
HETATM   21  C   UNL     1     -10.540   2.912  74.177  1.00  0.00    -0.246 A  
HETATM   22  C   UNL     1      -9.203   2.093  68.444  1.00  0.00    -0.236 A  
HETATM   23  C   UNL     1      -9.313   2.865  69.594  1.00  0.00    -0.135 A  
HETATM   24  N   UNL     1      -9.730   2.261  70.712  1.00  0.00    -0.089 NA 
ENDBRANCH   9  11
ENDBRANCH   4   9
BRANCH   6  25
HETATM   25  N   UNL     1      -9.897  11.494  69.002  1.00  0.00    -0.411 N  
HETATM   26  H   UNL     1      -9.506  12.273  69.531  1.00  0.00     0.000 HD 
BRANCH  25  27
HETATM   27  S   UNL     1     -10.938  11.751  67.694  1.00  0.00    -0.250 S  
HETATM   28  C   UNL     1     -10.731  13.506  67.428  1.00  0.00    -0.263 C  
HETATM   29  O   UNL     1     -12.270  11.540  68.214  1.00  0.00    -0.561 OA 
HETATM   30  O   UNL     1     -10.467  11.042  66.526  1.00  0.00    -0.241 OA 
ENDBRANCH  25  27
ENDBRANCH   6  25
ENDBRANCH   2   3
TORSDOF 5
ENDMDL
MODEL      180
REMARK 921   NORMALIZED FREE ENERGY PREDICTED BY IDOCK:   -4.60 KCAL/MOL
REMARK 922        TOTAL FREE ENERGY PREDICTED BY IDOCK:   -6.48 KCAL/MOL
REMARK 923 INTER-LIGAND FREE ENERGY PREDICTED BY IDOCK:   -6.32 KCAL/MOL
REMARK 924 INTRA-LIGAND FREE ENERGY PREDICTED BY IDOCK:   -0.17 KCAL/MOL
REMARK 927      BINDING AFFINITY PREDICTED BY RF-SCORE:    0.00 PKD
ROOT
HETATM    1  C   UNL     1      -9.900  11.878  66.977  1.00  0.00    -0.192 C  
HETATM    2  O   UNL     1      -9.868  10.845  67.968  1.00  0.00    -0.165 OA 
ENDROOT
BRANCH   2   3
HETATM    3  C   UNL     1     -10.743  11.043  69.015  1.00  0.00    -0.219 A  
HETATM    4  C   UNL     1     -11.017   9.937  69.854  1.00  0.00    -0.281 A  
HETATM    5  C   UNL     1     -11.824  10.139  70.981  1.00  0.00    -0.475 A  
HETATM    6  C   UNL     1     -12.213  12.436  70.330  1.00  0.00    -0.287 A  
HETATM    7  C   UNL     1     -12.417  11.385  71.222  1.00  0.00    -0.423 A  
HETATM    8  C   UNL     1     -11.379  12.270  69.230  1.00  0.00    -0.317 A  
BRANCH   4   9
HETATM    9  N   UNL     1     -10.511   8.664  69.523  1.00  0.00    -0.219 NA 
HETATM   10  H   UNL     1     -10.949   8.272  68.689  1.00  0.00     0.000 HD 
BRANCH   9  11
HETATM   11  C   UNL     1      -9.527   7.796  70.086  1.00  0.00    -0.160 A  
HETATM   12  C   UNL     1      -8.191   6.508  73.281  1.00  0.00    -0.118 A  
HETATM   13  C   UNL     1      -8.415   7.459  69.252  1.00  0.00    -0.136 A  
HETATM   14  C   UNL     1      -8.353   7.730  67.862  1.00  0.00    -0.123 A  
HETATM   15  C   UNL     1      -9.511   7.404  71.458  1.00  0.00    -0.162 A  
HETATM   16  C   UNL     1      -7.251   7.358  67.093  1.00  0.00    -0.089 A  
HETATM   17  C   UNL     1      -8.322   6.805  71.930  1.00  0.00    -0.109 A  
HETATM   18  C   UNL     1     -10.560   7.593  72.396  1.00  0.00    -0.313 A  
HETATM   19  C   UNL     1      -6.181   6.714  67.697  1.00  0.00    -0.035 A  
HETATM   20  C   UNL     1     -10.426   7.238  73.740  1.00  0.00    -0.335 A  
HETATM   21  C   UNL     1      -9.223   6.723  74.191  1.00  0.00    -0.234 A  
HETATM   22  C   UNL     1      -6.227   6.450  69.066  1.00  0.00    -0.034 A  
HETATM   23  C   UNL     1      -7.319   6.809  69.847  1.00  0.00    -0.089 A  
HETATM   24  N   UNL     1      -7.272   6.520  71.151  1.00  0.00    -0.077 NA 
ENDBRANCH   9  11
ENDBRANCH   4   9
BRANCH   6  25
HETATM   25  N   UNL     1     -12.889  13.685  70.475  1.00  0.00    -0.166 N  
HETATM   26  H   UNL     1     -13.347  14.138  69.684  1.00  0.00     0.000 HD 
BRANCH  25  27
HETATM   27  S   UNL     1     -12.898  14.382  72.016  1.00  0.00    -0.350 S  
HETATM   28  C   UNL     1     -14.171  15.622  71.826  1.00  0.00    -0.299 C  
HETATM   29  O   UNL     1     -11.632  15.069  72.136  1.00  0.00    -0.388 OA 
HETATM   30  O   UNL     1     -13.326  13.418  73.004  1.00  0.00    -0.518 OA 
ENDBRANCH  25  27
ENDBRANCH   6  25
ENDBRANCH   2   3
TORSDOF 5
ENDMDL
MODEL      181
REMARK 921   NORMALIZED FREE ENERGY PREDICTED BY IDOCK:   -4.59 KCAL/MOL
REMARK 922        TOTAL FREE ENERGY PREDICTED BY IDOCK:   -6.47 KCAL/MOL
REMARK 923 INTER-LIGAND FREE ENERGY PREDICTED BY IDOCK:   -5.94 KCAL/MOL
REMARK 924 INTRA-LIGAND FREE ENERGY PREDICTED BY IDOCK:   -0.53 KCAL/MOL
REMARK 927      BINDING AFFINITY PREDICTED BY RF-SCORE:    0.00 PKD
ROOT
HETATM    1  C   UNL     1      -7.784   8.336  66.168  1.00  0.00    -0.097 C  
HETATM    2  O   UNL     1      -8.778   8.214  67.191  1.00  0.00    -0.124 OA 
ENDROOT
BRANCH   2   3
HETATM    3  C   UNL     1      -8.446   7.328  68.194  1.00  0.00    -0.123 A  
HETATM    4  C   UNL     1      -8.530   7.793  69.528  1.00  0.00    -0.131 A  
HETATM    5  C   UNL     1      -8.295   6.884  70.568  1.00  0.00    -0.129 A  
HETATM    6  C   UNL     1      -7.730   5.157  68.970  1.00  0.00    -0.081 A  
HETATM    7  C   UNL     1      -7.900   5.569  70.291  1.00  0.00    -0.093 A  
HETATM    8  C   UNL     1      -8.002   6.031  67.923  1.00  0.00    -0.106 A  
BRANCH   4   9
HETATM    9  N   UNL     1      -8.806   9.152  69.781  1.00  0.00    -0.149 NA 
HETATM   10  H   UNL     1      -7.993   9.660  70.131  1.00  0.00     0.000 HD 
BRANCH   9  11
HETATM   11  C   UNL     1      -9.962   9.982  69.659  1.00  0.00    -0.236 A  
HETATM   12  C   UNL     1     -11.170  13.203  68.312  1.00  0.00    -0.307 A  
HETATM   13  C   UNL     1     -11.030   9.734  70.577  1.00  0.00    -0.384 A  
HETATM   14  C   UNL     1     -11.108   8.595  71.417  1.00  0.00    -0.343 A  
HETATM   15  C   UNL     1     -10.029  11.124  68.806  1.00  0.00    -0.207 A  
HETATM   16  C   UNL     1     -12.186   8.395  72.279  1.00  0.00    -0.449 A  
HETATM   17  C   UNL     1     -11.107  12.010  69.021  1.00  0.00    -0.239 A  
HETATM   18  C   UNL     1      -9.096  11.470  67.794  1.00  0.00    -0.165 A  
HETATM   19  C   UNL     1     -13.206   9.333  72.328  1.00  0.00    -0.535 A  
HETATM   20  C   UNL     1      -9.206  12.651  67.055  1.00  0.00    -0.212 A  
HETATM   21  C   UNL     1     -10.231  13.537  67.339  1.00  0.00    -0.237 A  
HETATM   22  C   UNL     1     -13.136  10.462  71.512  1.00  0.00    -0.532 A  
HETATM   23  C   UNL     1     -12.073  10.675  70.644  1.00  0.00    -0.365 A  
HETATM   24  N   UNL     1     -12.088  11.789  69.904  1.00  0.00    -0.303 NA 
ENDBRANCH   9  11
ENDBRANCH   4   9
BRANCH   6  25
HETATM   25  N   UNL     1      -7.218   3.864  68.647  1.00  0.00    -0.054 N  
HETATM   26  H   UNL     1      -6.228   3.715  68.455  1.00  0.00     0.000 HD 
BRANCH  25  27
HETATM   27  S   UNL     1      -8.327   2.587  68.599  1.00  0.00    -0.067 S  
HETATM   28  C   UNL     1      -7.968   1.879  66.998  1.00  0.00    -0.067 C  
HETATM   29  O   UNL     1      -9.629   3.210  68.521  1.00  0.00    -0.168 OA 
HETATM   30  O   UNL     1      -8.022   1.613  69.622  1.00  0.00    -0.042 OA 
ENDBRANCH  25  27
ENDBRANCH   6  25
ENDBRANCH   2   3
TORSDOF 5
ENDMDL
MODEL      182
REMARK 921   NORMALIZED FREE ENERGY PREDICTED BY IDOCK:   -4.58 KCAL/MOL
REMARK 922        TOTAL FREE ENERGY PREDICTED BY IDOCK:   -6.45 KCAL/MOL
REMARK 923 INTER-LIGAND FREE ENERGY PREDICTED BY IDOCK:   -5.82 KCAL/MOL
REMARK 924 INTRA-LIGAND FREE ENERGY PREDICTED BY IDOCK:   -0.63 KCAL/MOL
REMARK 927      BINDING AFFINITY PREDICTED BY RF-SCORE:    0.00 PKD
ROOT
HETATM    1  C   UNL     1      -6.631  10.979  69.394  1.00  0.00    -0.104 C  
HETATM    2  O   UNL     1      -7.803  10.331  69.898  1.00  0.00    -0.166 OA 
ENDROOT
BRANCH   2   3
HETATM    3  C   UNL     1      -8.848  10.281  69.000  1.00  0.00    -0.168 A  
HETATM    4  C   UNL     1      -9.341   9.004  68.643  1.00  0.00    -0.136 A  
HETATM    5  C   UNL     1     -10.466   8.931  67.811  1.00  0.00    -0.300 A  
HETATM    6  C   UNL     1     -10.474  11.338  67.562  1.00  0.00    -0.201 A  
HETATM    7  C   UNL     1     -11.034  10.094  67.274  1.00  0.00    -0.250 A  
HETATM    8  C   UNL     1      -9.386  11.435  68.422  1.00  0.00    -0.194 A  
BRANCH   4   9
HETATM    9  N   UNL     1      -8.677   7.845  69.094  1.00  0.00    -0.138 NA 
HETATM   10  H   UNL     1      -7.717   7.785  68.753  1.00  0.00     0.000 HD 
BRANCH   9  11
HETATM   11  C   UNL     1      -9.038   6.736  69.918  1.00  0.00    -0.144 A  
HETATM   12  C   UNL     1      -9.220   5.585  73.424  1.00  0.00    -0.131 A  
HETATM   13  C   UNL     1      -9.102   5.457  69.282  1.00  0.00    -0.133 A  
HETATM   14  C   UNL     1      -9.065   5.264  67.879  1.00  0.00    -0.117 A  
HETATM   15  C   UNL     1      -9.163   6.814  71.337  1.00  0.00    -0.153 A  
HETATM   16  C   UNL     1      -9.153   3.993  67.312  1.00  0.00    -0.169 A  
HETATM   17  C   UNL     1      -9.220   5.588  72.034  1.00  0.00    -0.140 A  
HETATM   18  C   UNL     1      -9.197   8.004  72.112  1.00  0.00    -0.232 A  
HETATM   19  C   UNL     1      -9.271   2.884  68.137  1.00  0.00    -0.248 A  
HETATM   20  C   UNL     1      -9.250   7.979  73.507  1.00  0.00    -0.312 A  
HETATM   21  C   UNL     1      -9.229   6.763  74.168  1.00  0.00    -0.234 A  
HETATM   22  C   UNL     1      -9.300   3.060  69.520  1.00  0.00    -0.213 A  
HETATM   23  C   UNL     1      -9.219   4.320  70.101  1.00  0.00    -0.135 A  
HETATM   24  N   UNL     1      -9.248   4.391  71.436  1.00  0.00    -0.127 NA 
ENDBRANCH   9  11
ENDBRANCH   4   9
BRANCH   6  25
HETATM   25  N   UNL     1     -10.950  12.535  66.946  1.00  0.00    -0.249 N  
HETATM   26  H   UNL     1     -11.359  13.290  67.495  1.00  0.00     0.000 HD 
BRANCH  25  27
HETATM   27  S   UNL     1     -10.805  12.646  65.265  1.00  0.00    -0.298 S  
HETATM   28  C   UNL     1     -12.521  12.625  64.767  1.00  0.00    -0.484 C  
HETATM   29  O   UNL     1     -10.211  11.396  64.845  1.00  0.00    -0.247 OA 
HETATM   30  O   UNL     1     -10.223  13.915  64.890  1.00  0.00    -0.395 OA 
ENDBRANCH  25  27
ENDBRANCH   6  25
ENDBRANCH   2   3
TORSDOF 5
ENDMDL
MODEL      183
REMARK 921   NORMALIZED FREE ENERGY PREDICTED BY IDOCK:   -4.57 KCAL/MOL
REMARK 922        TOTAL FREE ENERGY PREDICTED BY IDOCK:   -6.44 KCAL/MOL
REMARK 923 INTER-LIGAND FREE ENERGY PREDICTED BY IDOCK:   -5.75 KCAL/MOL
REMARK 924 INTRA-LIGAND FREE ENERGY PREDICTED BY IDOCK:   -0.69 KCAL/MOL
REMARK 927      BINDING AFFINITY PREDICTED BY RF-SCORE:    0.00 PKD
ROOT
HETATM    1  C   UNL     1      -9.219   6.185  69.390  1.00  0.00    -0.133 C  
HETATM    2  O   UNL     1     -10.114   6.182  70.508  1.00  0.00    -0.180 OA 
ENDROOT
BRANCH   2   3
HETATM    3  C   UNL     1     -10.771   7.378  70.705  1.00  0.00    -0.229 A  
HETATM    4  C   UNL     1     -11.216   7.669  72.016  1.00  0.00    -0.272 A  
HETATM    5  C   UNL     1     -11.797   8.919  72.261  1.00  0.00    -0.365 A  
HETATM    6  C   UNL     1     -11.655   9.480  69.912  1.00  0.00     0.015 A  
HETATM    7  C   UNL     1     -12.014   9.825  71.214  1.00  0.00    -0.471 A  
HETATM    8  C   UNL     1     -11.036   8.262  69.655  1.00  0.00    -0.092 A  
BRANCH   4   9
HETATM    9  N   UNL     1     -11.103   6.693  73.027  1.00  0.00    -0.412 NA 
HETATM   10  H   UNL     1     -12.007   6.423  73.416  1.00  0.00     0.000 HD 
BRANCH   9  11
HETATM   11  C   UNL     1     -10.013   5.996  73.633  1.00  0.00    -0.197 A  
HETATM   12  C   UNL     1      -6.443   6.290  74.537  1.00  0.00    -0.074 A  
HETATM   13  C   UNL     1     -10.123   4.572  73.707  1.00  0.00    -0.210 A  
HETATM   14  C   UNL     1     -11.315   3.853  73.444  1.00  0.00    -0.248 A  
HETATM   15  C   UNL     1      -8.782   6.618  73.997  1.00  0.00    -0.167 A  
HETATM   16  C   UNL     1     -11.370   2.463  73.553  1.00  0.00    -0.302 A  
HETATM   17  C   UNL     1      -7.703   5.757  74.293  1.00  0.00    -0.094 A  
HETATM   18  C   UNL     1      -8.532   8.015  74.051  1.00  0.00    -0.312 A  
HETATM   19  C   UNL     1     -10.232   1.761  73.920  1.00  0.00    -0.153 A  
HETATM   20  C   UNL     1      -7.269   8.532  74.350  1.00  0.00    -0.198 A  
HETATM   21  C   UNL     1      -6.211   7.664  74.562  1.00  0.00    -0.089 A  
HETATM   22  C   UNL     1      -9.051   2.458  74.174  1.00  0.00    -0.083 A  
HETATM   23  C   UNL     1      -8.980   3.842  74.075  1.00  0.00    -0.087 A  
HETATM   24  N   UNL     1      -7.803   4.423  74.331  1.00  0.00    -0.087 NA 
ENDBRANCH   9  11
ENDBRANCH   4   9
BRANCH   6  25
HETATM   25  N   UNL     1     -11.962  10.323  68.801  1.00  0.00    -0.425 N  
HETATM   26  H   UNL     1     -12.832  10.222  68.280  1.00  0.00     0.000 HD 
BRANCH  25  27
HETATM   27  S   UNL     1     -10.818  11.498  68.388  1.00  0.00    -0.228 S  
HETATM   28  C   UNL     1     -11.314  12.850  69.446  1.00  0.00    -0.201 C  
HETATM   29  O   UNL     1     -11.124  11.872  67.025  1.00  0.00    -0.267 OA 
HETATM   30  O   UNL     1      -9.492  11.069  68.767  1.00  0.00    -0.189 OA 
ENDBRANCH  25  27
ENDBRANCH   6  25
ENDBRANCH   2   3
TORSDOF 5
ENDMDL
MODEL      184
REMARK 921   NORMALIZED FREE ENERGY PREDICTED BY IDOCK:   -4.57 KCAL/MOL
REMARK 922        TOTAL FREE ENERGY PREDICTED BY IDOCK:   -6.44 KCAL/MOL
REMARK 923 INTER-LIGAND FREE ENERGY PREDICTED BY IDOCK:   -6.27 KCAL/MOL
REMARK 924 INTRA-LIGAND FREE ENERGY PREDICTED BY IDOCK:   -0.17 KCAL/MOL
REMARK 927      BINDING AFFINITY PREDICTED BY RF-SCORE:    0.00 PKD
ROOT
HETATM    1  C   UNL     1     -11.511  11.345  66.643  1.00  0.00    -0.045 C  
HETATM    2  O   UNL     1     -10.917  11.603  67.919  1.00  0.00    -0.200 OA 
ENDROOT
BRANCH   2   3
HETATM    3  C   UNL     1      -9.742  12.321  67.858  1.00  0.00    -0.202 A  
HETATM    4  C   UNL     1      -8.662  11.873  68.656  1.00  0.00    -0.033 A  
HETATM    5  C   UNL     1      -7.428  12.525  68.535  1.00  0.00    -0.122 A  
HETATM    6  C   UNL     1      -8.393  14.133  67.005  1.00  0.00    -0.118 A  
HETATM    7  C   UNL     1      -7.291  13.649  67.710  1.00  0.00    -0.170 A  
HETATM    8  C   UNL     1      -9.615  13.473  67.076  1.00  0.00    -0.248 A  
BRANCH   4   9
HETATM    9  N   UNL     1      -8.857  10.820  69.572  1.00  0.00    -0.392 NA 
HETATM   10  H   UNL     1      -8.299  10.928  70.419  1.00  0.00     0.000 HD 
BRANCH   9  11
HETATM   11  C   UNL     1      -9.656   9.636  69.587  1.00  0.00    -0.208 A  
HETATM   12  C   UNL     1     -12.446   7.966  71.340  1.00  0.00    -0.330 A  
HETATM   13  C   UNL     1      -9.115   8.487  68.929  1.00  0.00    -0.146 A  
HETATM   14  C   UNL     1      -7.978   8.518  68.083  1.00  0.00    -0.111 A  
HETATM   15  C   UNL     1     -10.851   9.500  70.353  1.00  0.00    -0.338 A  
HETATM   16  C   UNL     1      -7.507   7.368  67.449  1.00  0.00    -0.104 A  
HETATM   17  C   UNL     1     -11.356   8.190  70.508  1.00  0.00    -0.221 A  
HETATM   18  C   UNL     1     -11.556  10.548  71.002  1.00  0.00    -0.318 A  
HETATM   19  C   UNL     1      -8.156   6.160  67.654  1.00  0.00    -0.113 A  
HETATM   20  C   UNL     1     -12.682  10.307  71.792  1.00  0.00    -0.535 A  
HETATM   21  C   UNL     1     -13.110   9.005  71.988  1.00  0.00    -0.474 A  
HETATM   22  C   UNL     1      -9.271   6.116  68.491  1.00  0.00    -0.115 A  
HETATM   23  C   UNL     1      -9.757   7.253  69.126  1.00  0.00    -0.160 A  
HETATM   24  N   UNL     1     -10.827   7.113  69.915  1.00  0.00    -0.249 NA 
ENDBRANCH   9  11
ENDBRANCH   4   9
BRANCH   6  25
HETATM   25  N   UNL     1      -8.327  15.339  66.245  1.00  0.00    -0.347 N  
HETATM   26  H   UNL     1      -7.779  15.399  65.387  1.00  0.00     0.000 HD 
BRANCH  25  27
HETATM   27  S   UNL     1      -9.197  16.666  66.829  1.00  0.00    -0.253 S  
HETATM   28  C   UNL     1     -10.672  16.582  65.825  1.00  0.00    -0.225 C  
HETATM   29  O   UNL     1      -8.449  17.832  66.413  1.00  0.00    -0.280 OA 
HETATM   30  O   UNL     1      -9.560  16.463  68.213  1.00  0.00    -0.213 OA 
ENDBRANCH  25  27
ENDBRANCH   6  25
ENDBRANCH   2   3
TORSDOF 5
ENDMDL
MODEL      185
REMARK 921   NORMALIZED FREE ENERGY PREDICTED BY IDOCK:   -4.57 KCAL/MOL
REMARK 922        TOTAL FREE ENERGY PREDICTED BY IDOCK:   -6.44 KCAL/MOL
REMARK 923 INTER-LIGAND FREE ENERGY PREDICTED BY IDOCK:   -5.94 KCAL/MOL
REMARK 924 INTRA-LIGAND FREE ENERGY PREDICTED BY IDOCK:   -0.50 KCAL/MOL
REMARK 927      BINDING AFFINITY PREDICTED BY RF-SCORE:    0.00 PKD
ROOT
HETATM    1  C   UNL     1      -5.971  11.331  67.789  1.00  0.00    -0.048 C  
HETATM    2  O   UNL     1      -6.232  10.183  68.603  1.00  0.00    -0.044 OA 
ENDROOT
BRANCH   2   3
HETATM    3  C   UNL     1      -6.996   9.217  67.984  1.00  0.00    -0.076 A  
HETATM    4  C   UNL     1      -8.389   9.229  68.234  1.00  0.00    -0.120 A  
HETATM    5  C   UNL     1      -9.199   8.322  67.539  1.00  0.00    -0.155 A  
HETATM    6  C   UNL     1      -7.249   7.309  66.526  1.00  0.00    -0.079 A  
HETATM    7  C   UNL     1      -8.633   7.367  66.685  1.00  0.00    -0.128 A  
HETATM    8  C   UNL     1      -6.431   8.230  67.171  1.00  0.00    -0.058 A  
BRANCH   4   9
HETATM    9  N   UNL     1      -8.922  10.115  69.193  1.00  0.00    -0.165 NA 
HETATM   10  H   UNL     1      -8.271  10.307  69.955  1.00  0.00     0.000 HD 
BRANCH   9  11
HETATM   11  C   UNL     1     -10.163  10.805  69.343  1.00  0.00    -0.160 A  
HETATM   12  C   UNL     1     -11.875  14.006  68.657  1.00  0.00    -0.396 A  
HETATM   13  C   UNL     1     -11.060  10.306  70.339  1.00  0.00    -0.391 A  
HETATM   14  C   UNL     1     -10.900   9.063  71.001  1.00  0.00    -0.345 A  
HETATM   15  C   UNL     1     -10.467  12.035  68.687  1.00  0.00    -0.238 A  
HETATM   16  C   UNL     1     -11.819   8.617  71.951  1.00  0.00    -0.420 A  
HETATM   17  C   UNL     1     -11.590  12.745  69.166  1.00  0.00    -0.319 A  
HETATM   18  C   UNL     1      -9.727  12.627  67.629  1.00  0.00    -0.197 A  
HETATM   19  C   UNL     1     -12.913   9.408  72.267  1.00  0.00    -0.479 A  
HETATM   20  C   UNL     1     -10.062  13.874  67.097  1.00  0.00    -0.252 A  
HETATM   21  C   UNL     1     -11.122  14.582  67.636  1.00  0.00    -0.314 A  
HETATM   22  C   UNL     1     -13.076  10.637  71.628  1.00  0.00    -0.555 A  
HETATM   23  C   UNL     1     -12.174  11.094  70.676  1.00  0.00    -0.397 A  
HETATM   24  N   UNL     1     -12.408  12.288  70.121  1.00  0.00    -0.193 NA 
ENDBRANCH   9  11
ENDBRANCH   4   9
BRANCH   6  25
HETATM   25  N   UNL     1      -6.624   6.282  65.757  1.00  0.00    -0.046 N  
HETATM   26  H   UNL     1      -5.612   6.157  65.758  1.00  0.00     0.000 HD 
BRANCH  25  27
HETATM   27  S   UNL     1      -7.635   5.281  64.843  1.00  0.00    -0.086 S  
HETATM   28  C   UNL     1      -6.466   4.077  64.229  1.00  0.00    -0.041 C  
HETATM   29  O   UNL     1      -8.064   6.086  63.721  1.00  0.00    -0.118 OA 
HETATM   30  O   UNL     1      -8.591   4.613  65.696  1.00  0.00    -0.119 OA 
ENDBRANCH  25  27
ENDBRANCH   6  25
ENDBRANCH   2   3
TORSDOF 5
ENDMDL
MODEL      186
REMARK 921   NORMALIZED FREE ENERGY PREDICTED BY IDOCK:   -4.55 KCAL/MOL
REMARK 922        TOTAL FREE ENERGY PREDICTED BY IDOCK:   -6.42 KCAL/MOL
REMARK 923 INTER-LIGAND FREE ENERGY PREDICTED BY IDOCK:   -6.03 KCAL/MOL
REMARK 924 INTRA-LIGAND FREE ENERGY PREDICTED BY IDOCK:   -0.39 KCAL/MOL
REMARK 927      BINDING AFFINITY PREDICTED BY RF-SCORE:    0.00 PKD
ROOT
HETATM    1  C   UNL     1      -6.782  11.186  68.638  1.00  0.00    -0.062 C  
HETATM    2  O   UNL     1      -7.697  10.377  69.385  1.00  0.00    -0.131 OA 
ENDROOT
BRANCH   2   3
HETATM    3  C   UNL     1      -9.018  10.748  69.246  1.00  0.00    -0.030 A  
HETATM    4  C   UNL     1      -9.971  10.083  70.054  1.00  0.00    -0.222 A  
HETATM    5  C   UNL     1     -11.303  10.511  70.003  1.00  0.00    -0.392 A  
HETATM    6  C   UNL     1     -10.762  12.090  68.251  1.00  0.00    -0.224 A  
HETATM    7  C   UNL     1     -11.699  11.513  69.108  1.00  0.00    -0.395 A  
HETATM    8  C   UNL     1      -9.425  11.711  68.318  1.00  0.00    -0.191 A  
BRANCH   4   9
HETATM    9  N   UNL     1      -9.572   8.993  70.854  1.00  0.00    -0.239 NA 
HETATM   10  H   UNL     1      -9.169   9.286  71.745  1.00  0.00     0.000 HD 
BRANCH   9  11
HETATM   11  C   UNL     1      -9.602   7.573  70.705  1.00  0.00    -0.171 A  
HETATM   12  C   UNL     1     -10.032   4.862  68.232  1.00  0.00    -0.177 A  
HETATM   13  C   UNL     1      -9.846   6.807  71.888  1.00  0.00    -0.173 A  
HETATM   14  C   UNL     1      -9.822   7.343  73.200  1.00  0.00    -0.304 A  
HETATM   15  C   UNL     1      -9.575   6.911  69.441  1.00  0.00    -0.147 A  
HETATM   16  C   UNL     1     -10.046   6.543  74.320  1.00  0.00    -0.379 A  
HETATM   17  C   UNL     1      -9.919   5.541  69.439  1.00  0.00    -0.208 A  
HETATM   18  C   UNL     1      -9.274   7.507  68.188  1.00  0.00    -0.137 A  
HETATM   19  C   UNL     1     -10.309   5.192  74.154  1.00  0.00    -0.307 A  
HETATM   20  C   UNL     1      -9.344   6.792  66.990  1.00  0.00    -0.165 A  
HETATM   21  C   UNL     1      -9.756   5.470  67.010  1.00  0.00    -0.158 A  
HETATM   22  C   UNL     1     -10.344   4.656  72.867  1.00  0.00    -0.242 A  
HETATM   23  C   UNL     1     -10.118   5.436  71.740  1.00  0.00    -0.196 A  
HETATM   24  N   UNL     1     -10.177   4.836  70.546  1.00  0.00    -0.218 NA 
ENDBRANCH   9  11
ENDBRANCH   4   9
BRANCH   6  25
HETATM   25  N   UNL     1     -11.142  13.030  67.247  1.00  0.00    -0.265 N  
HETATM   26  H   UNL     1     -11.624  12.736  66.398  1.00  0.00     0.000 HD 
BRANCH  25  27
HETATM   27  S   UNL     1     -10.760  14.653  67.527  1.00  0.00    -0.273 S  
HETATM   28  C   UNL     1      -8.999  14.651  67.222  1.00  0.00    -0.205 C  
HETATM   29  O   UNL     1     -10.959  14.858  68.944  1.00  0.00    -0.232 OA 
HETATM   30  O   UNL     1     -11.403  15.501  66.549  1.00  0.00    -0.185 OA 
ENDBRANCH  25  27
ENDBRANCH   6  25
ENDBRANCH   2   3
TORSDOF 5
ENDMDL
MODEL      187
REMARK 921   NORMALIZED FREE ENERGY PREDICTED BY IDOCK:   -4.52 KCAL/MOL
REMARK 922        TOTAL FREE ENERGY PREDICTED BY IDOCK:   -6.37 KCAL/MOL
REMARK 923 INTER-LIGAND FREE ENERGY PREDICTED BY IDOCK:   -5.78 KCAL/MOL
REMARK 924 INTRA-LIGAND FREE ENERGY PREDICTED BY IDOCK:   -0.59 KCAL/MOL
REMARK 927      BINDING AFFINITY PREDICTED BY RF-SCORE:    0.00 PKD
ROOT
HETATM    1  C   UNL     1     -11.030   7.347  67.074  1.00  0.00    -0.101 C  
HETATM    2  O   UNL     1      -9.939   7.974  66.391  1.00  0.00    -0.229 OA 
ENDROOT
BRANCH   2   3
HETATM    3  C   UNL     1      -9.856   9.335  66.597  1.00  0.00    -0.245 A  
HETATM    4  C   UNL     1      -8.706   9.824  67.262  1.00  0.00    -0.132 A  
HETATM    5  C   UNL     1      -8.551  11.210  67.394  1.00  0.00    -0.137 A  
HETATM    6  C   UNL     1     -10.721  11.579  66.390  1.00  0.00    -0.273 A  
HETATM    7  C   UNL     1      -9.553  12.086  66.956  1.00  0.00    -0.200 A  
HETATM    8  C   UNL     1     -10.875  10.209  66.209  1.00  0.00     0.050 A  
BRANCH   4   9
HETATM    9  N   UNL     1      -7.772   8.919  67.806  1.00  0.00    -0.100 NA 
HETATM   10  H   UNL     1      -6.807   9.182  67.605  1.00  0.00     0.000 HD 
BRANCH   9  11
HETATM   11  C   UNL     1      -7.867   7.718  68.573  1.00  0.00    -0.120 A  
HETATM   12  C   UNL     1      -7.558   4.042  68.372  1.00  0.00    -0.066 A  
HETATM   13  C   UNL     1      -8.608   7.791  69.793  1.00  0.00    -0.134 A  
HETATM   14  C   UNL     1      -9.038   9.003  70.390  1.00  0.00    -0.242 A  
HETATM   15  C   UNL     1      -7.419   6.446  68.107  1.00  0.00    -0.094 A  
HETATM   16  C   UNL     1      -9.741   9.016  71.595  1.00  0.00    -0.347 A  
HETATM   17  C   UNL     1      -7.854   5.317  68.837  1.00  0.00    -0.083 A  
HETATM   18  C   UNL     1      -6.613   6.208  66.962  1.00  0.00    -0.059 A  
HETATM   19  C   UNL     1     -10.037   7.817  72.226  1.00  0.00    -0.277 A  
HETATM   20  C   UNL     1      -6.283   4.917  66.542  1.00  0.00    -0.032 A  
HETATM   21  C   UNL     1      -6.786   3.828  67.233  1.00  0.00    -0.046 A  
HETATM   22  C   UNL     1      -9.627   6.618  71.644  1.00  0.00    -0.167 A  
HETATM   23  C   UNL     1      -8.921   6.587  70.447  1.00  0.00    -0.152 A  
HETATM   24  N   UNL     1      -8.574   5.390  69.961  1.00  0.00    -0.120 NA 
ENDBRANCH   9  11
ENDBRANCH   4   9
BRANCH   6  25
HETATM   25  N   UNL     1     -11.813  12.428  66.037  1.00  0.00    -0.417 N  
HETATM   26  H   UNL     1     -12.418  12.842  66.747  1.00  0.00     0.000 HD 
BRANCH  25  27
HETATM   27  S   UNL     1     -12.062  12.719  64.390  1.00  0.00    -0.443 S  
HETATM   28  C   UNL     1     -12.216  14.499  64.373  1.00  0.00    -0.458 C  
HETATM   29  O   UNL     1     -13.363  12.163  64.092  1.00  0.00    -0.750 OA 
HETATM   30  O   UNL     1     -10.893  12.343  63.628  1.00  0.00    -0.411 OA 
ENDBRANCH  25  27
ENDBRANCH   6  25
ENDBRANCH   2   3
TORSDOF 5
ENDMDL
MODEL      188
REMARK 921   NORMALIZED FREE ENERGY PREDICTED BY IDOCK:   -4.50 KCAL/MOL
REMARK 922        TOTAL FREE ENERGY PREDICTED BY IDOCK:   -6.35 KCAL/MOL
REMARK 923 INTER-LIGAND FREE ENERGY PREDICTED BY IDOCK:   -5.44 KCAL/MOL
REMARK 924 INTRA-LIGAND FREE ENERGY PREDICTED BY IDOCK:   -0.91 KCAL/MOL
REMARK 927      BINDING AFFINITY PREDICTED BY RF-SCORE:    0.00 PKD
ROOT
HETATM    1  C   UNL     1      -6.757  11.566  68.394  1.00  0.00    -0.066 C  
HETATM    2  O   UNL     1      -6.440  10.395  69.155  1.00  0.00    -0.044 OA 
ENDROOT
BRANCH   2   3
HETATM    3  C   UNL     1      -6.974   9.231  68.644  1.00  0.00    -0.062 A  
HETATM    4  C   UNL     1      -8.081   8.668  69.322  1.00  0.00    -0.112 A  
HETATM    5  C   UNL     1      -8.702   7.543  68.765  1.00  0.00    -0.128 A  
HETATM    6  C   UNL     1      -7.035   7.450  67.014  1.00  0.00    -0.082 A  
HETATM    7  C   UNL     1      -8.184   6.937  67.613  1.00  0.00    -0.117 A  
HETATM    8  C   UNL     1      -6.430   8.593  67.525  1.00  0.00    -0.058 A  
BRANCH   4   9
HETATM    9  N   UNL     1      -8.507   9.221  70.547  1.00  0.00    -0.201 NA 
HETATM   10  H   UNL     1      -8.048  10.107  70.759  1.00  0.00     0.000 HD 
BRANCH   9  11
HETATM   11  C   UNL     1      -9.433   8.825  71.559  1.00  0.00    -0.271 A  
HETATM   12  C   UNL     1     -10.004   6.363  74.254  1.00  0.00    -0.346 A  
HETATM   13  C   UNL     1     -10.782   9.273  71.407  1.00  0.00    -0.432 A  
HETATM   14  C   UNL     1     -11.192  10.255  70.471  1.00  0.00    -0.408 A  
HETATM   15  C   UNL     1      -9.124   7.887  72.589  1.00  0.00    -0.256 A  
HETATM   16  C   UNL     1     -12.521  10.671  70.381  1.00  0.00    -0.421 A  
HETATM   17  C   UNL     1     -10.217   7.368  73.319  1.00  0.00    -0.335 A  
HETATM   18  C   UNL     1      -7.832   7.401  72.921  1.00  0.00    -0.114 A  
HETATM   19  C   UNL     1     -13.471  10.107  71.219  1.00  0.00    -0.305 A  
HETATM   20  C   UNL     1      -7.635   6.426  73.902  1.00  0.00    -0.084 A  
HETATM   21  C   UNL     1      -8.731   5.881  74.549  1.00  0.00    -0.120 A  
HETATM   22  C   UNL     1     -13.081   9.134  72.138  1.00  0.00    -0.516 A  
HETATM   23  C   UNL     1     -11.761   8.712  72.245  1.00  0.00    -0.358 A  
HETATM   24  N   UNL     1     -11.482   7.769  73.151  1.00  0.00    -0.264 NA 
ENDBRANCH   9  11
ENDBRANCH   4   9
BRANCH   6  25
HETATM   25  N   UNL     1      -6.409   6.797  65.909  1.00  0.00    -0.048 N  
HETATM   26  H   UNL     1      -5.492   6.360  65.999  1.00  0.00     0.000 HD 
BRANCH  25  27
HETATM   27  S   UNL     1      -7.255   6.780  64.445  1.00  0.00    -0.076 S  
HETATM   28  C   UNL     1      -6.061   6.005  63.366  1.00  0.00    -0.022 C  
HETATM   29  O   UNL     1      -7.370   8.166  64.050  1.00  0.00    -0.089 OA 
HETATM   30  O   UNL     1      -8.419   5.929  64.544  1.00  0.00    -0.106 OA 
ENDBRANCH  25  27
ENDBRANCH   6  25
ENDBRANCH   2   3
TORSDOF 5
ENDMDL
MODEL      189
REMARK 921   NORMALIZED FREE ENERGY PREDICTED BY IDOCK:   -4.35 KCAL/MOL
REMARK 922        TOTAL FREE ENERGY PREDICTED BY IDOCK:   -6.16 KCAL/MOL
REMARK 923 INTER-LIGAND FREE ENERGY PREDICTED BY IDOCK:   -5.55 KCAL/MOL
REMARK 924 INTRA-LIGAND FREE ENERGY PREDICTED BY IDOCK:   -0.61 KCAL/MOL
REMARK 927      BINDING AFFINITY PREDICTED BY RF-SCORE:    0.00 PKD
ROOT
HETATM    1  C   UNL     1     -12.135  10.950  70.813  1.00  0.00    -0.368 C  
HETATM    2  O   UNL     1     -11.172  10.319  69.962  1.00  0.00    -0.266 OA 
ENDROOT
BRANCH   2   3
HETATM    3  C   UNL     1     -10.408  11.201  69.227  1.00  0.00    -0.120 A  
HETATM    4  C   UNL     1      -9.001  11.081  69.322  1.00  0.00     0.102 A  
HETATM    5  C   UNL     1      -8.205  11.898  68.509  1.00  0.00    -0.126 A  
HETATM    6  C   UNL     1     -10.171  13.039  67.680  1.00  0.00    -0.216 A  
HETATM    7  C   UNL     1      -8.787  12.872  67.688  1.00  0.00    -0.187 A  
HETATM    8  C   UNL     1     -10.981  12.208  68.446  1.00  0.00    -0.271 A  
BRANCH   4   9
HETATM    9  N   UNL     1      -8.435  10.181  70.249  1.00  0.00    -0.368 NA 
HETATM   10  H   UNL     1      -8.157  10.635  71.119  1.00  0.00     0.000 HD 
BRANCH   9  11
HETATM   11  C   UNL     1      -8.162   8.779  70.249  1.00  0.00    -0.119 A  
HETATM   12  C   UNL     1      -6.762   6.032  68.213  1.00  0.00    -0.061 A  
HETATM   13  C   UNL     1      -8.889   7.983  71.189  1.00  0.00    -0.159 A  
HETATM   14  C   UNL     1      -9.662   8.515  72.251  1.00  0.00    -0.380 A  
HETATM   15  C   UNL     1      -7.354   8.132  69.268  1.00  0.00    -0.077 A  
HETATM   16  C   UNL     1     -10.333   7.689  73.152  1.00  0.00    -0.411 A  
HETATM   17  C   UNL     1      -7.427   6.722  69.219  1.00  0.00    -0.095 A  
HETATM   18  C   UNL     1      -6.516   8.771  68.316  1.00  0.00    -0.060 A  
HETATM   19  C   UNL     1     -10.253   6.312  73.007  1.00  0.00    -0.213 A  
HETATM   20  C   UNL     1      -5.814   8.054  67.344  1.00  0.00    -0.042 A  
HETATM   21  C   UNL     1      -5.964   6.680  67.272  1.00  0.00    -0.017 A  
HETATM   22  C   UNL     1      -9.502   5.777  71.961  1.00  0.00    -0.166 A  
HETATM   23  C   UNL     1      -8.823   6.585  71.057  1.00  0.00    -0.139 A  
HETATM   24  N   UNL     1      -8.133   5.983  70.082  1.00  0.00    -0.112 NA 
ENDBRANCH   9  11
ENDBRANCH   4   9
BRANCH   6  25
HETATM   25  N   UNL     1     -10.795  14.093  66.947  1.00  0.00    -0.293 N  
HETATM   26  H   UNL     1     -11.107  14.949  67.406  1.00  0.00     0.000 HD 
BRANCH  25  27
HETATM   27  S   UNL     1     -10.995  13.862  65.284  1.00  0.00    -0.350 S  
HETATM   28  C   UNL     1     -12.497  12.896  65.248  1.00  0.00    -0.493 C  
HETATM   29  O   UNL     1      -9.908  12.997  64.882  1.00  0.00    -0.159 OA 
HETATM   30  O   UNL     1     -11.233  15.124  64.623  1.00  0.00    -0.384 OA 
ENDBRANCH  25  27
ENDBRANCH   6  25
ENDBRANCH   2   3
TORSDOF 5
ENDMDL
MODEL      190
REMARK 921   NORMALIZED FREE ENERGY PREDICTED BY IDOCK:   -4.30 KCAL/MOL
REMARK 922        TOTAL FREE ENERGY PREDICTED BY IDOCK:   -6.09 KCAL/MOL
REMARK 923 INTER-LIGAND FREE ENERGY PREDICTED BY IDOCK:   -5.77 KCAL/MOL
REMARK 924 INTRA-LIGAND FREE ENERGY PREDICTED BY IDOCK:   -0.32 KCAL/MOL
REMARK 927      BINDING AFFINITY PREDICTED BY RF-SCORE:    0.00 PKD
ROOT
HETATM    1  C   UNL     1      -6.647  11.306  67.211  1.00  0.00    -0.093 C  
HETATM    2  O   UNL     1      -7.365  10.475  68.129  1.00  0.00    -0.086 OA 
ENDROOT
BRANCH   2   3
HETATM    3  C   UNL     1      -8.734  10.636  68.080  1.00  0.00    -0.130 A  
HETATM    4  C   UNL     1      -9.490  10.118  69.158  1.00  0.00    -0.206 A  
HETATM    5  C   UNL     1     -10.870  10.357  69.181  1.00  0.00    -0.274 A  
HETATM    6  C   UNL     1     -10.749  11.435  67.018  1.00  0.00    -0.261 A  
HETATM    7  C   UNL     1     -11.499  11.017  68.117  1.00  0.00    -0.374 A  
HETATM    8  C   UNL     1      -9.372  11.248  66.997  1.00  0.00    -0.183 A  
BRANCH   4   9
HETATM    9  N   UNL     1      -8.855   9.349  70.154  1.00  0.00    -0.204 NA 
HETATM   10  H   UNL     1      -8.166   9.883  70.684  1.00  0.00     0.000 HD 
BRANCH   9  11
HETATM   11  C   UNL     1      -8.954   7.993  70.592  1.00  0.00    -0.148 A  
HETATM   12  C   UNL     1     -11.138   5.607  72.377  1.00  0.00    -0.324 A  
HETATM   13  C   UNL     1      -7.730   7.258  70.690  1.00  0.00    -0.093 A  
HETATM   14  C   UNL     1      -6.492   7.705  70.166  1.00  0.00    -0.034 A  
HETATM   15  C   UNL     1     -10.157   7.409  71.089  1.00  0.00    -0.189 A  
HETATM   16  C   UNL     1      -5.333   6.936  70.272  1.00  0.00    -0.019 A  
HETATM   17  C   UNL     1     -10.028   6.174  71.763  1.00  0.00    -0.172 A  
HETATM   18  C   UNL     1     -11.459   7.968  71.002  1.00  0.00    -0.300 A  
HETATM   19  C   UNL     1      -5.385   5.706  70.912  1.00  0.00    -0.009 A  
HETATM   20  C   UNL     1     -12.571   7.354  71.582  1.00  0.00    -0.391 A  
HETATM   21  C   UNL     1     -12.404   6.184  72.302  1.00  0.00    -0.106 A  
HETATM   22  C   UNL     1      -6.596   5.261  71.439  1.00  0.00    -0.039 A  
HETATM   23  C   UNL     1      -7.761   6.012  71.338  1.00  0.00    -0.104 A  
HETATM   24  N   UNL     1      -8.875   5.506  71.879  1.00  0.00    -0.135 NA 
ENDBRANCH   9  11
ENDBRANCH   4   9
BRANCH   6  25
HETATM   25  N   UNL     1     -11.365  12.007  65.864  1.00  0.00    -0.341 N  
HETATM   26  H   UNL     1     -11.693  11.426  65.092  1.00  0.00     0.000 HD 
BRANCH  25  27
HETATM   27  S   UNL     1     -11.528  13.690  65.831  1.00  0.00    -0.326 S  
HETATM   28  C   UNL     1     -10.043  14.163  64.957  1.00  0.00    -0.294 C  
HETATM   29  O   UNL     1     -11.384  14.118  67.205  1.00  0.00    -0.305 OA 
HETATM   30  O   UNL     1     -12.677  14.072  65.044  1.00  0.00    -0.632 OA 
ENDBRANCH  25  27
ENDBRANCH   6  25
ENDBRANCH   2   3
TORSDOF 5
ENDMDL
MODEL      191
REMARK 921   NORMALIZED FREE ENERGY PREDICTED BY IDOCK:   -4.29 KCAL/MOL
REMARK 922        TOTAL FREE ENERGY PREDICTED BY IDOCK:   -6.07 KCAL/MOL
REMARK 923 INTER-LIGAND FREE ENERGY PREDICTED BY IDOCK:   -5.30 KCAL/MOL
REMARK 924 INTRA-LIGAND FREE ENERGY PREDICTED BY IDOCK:   -0.77 KCAL/MOL
REMARK 927      BINDING AFFINITY PREDICTED BY RF-SCORE:    0.00 PKD
ROOT
HETATM    1  C   UNL     1     -10.653   9.304  71.461  1.00  0.00    -0.335 C  
HETATM    2  O   UNL     1      -9.870   9.231  70.265  1.00  0.00    -0.190 OA 
ENDROOT
BRANCH   2   3
HETATM    3  C   UNL     1     -10.116   8.111  69.499  1.00  0.00    -0.193 A  
HETATM    4  C   UNL     1     -10.464   8.313  68.142  1.00  0.00    -0.171 A  
HETATM    5  C   UNL     1     -10.620   7.190  67.319  1.00  0.00    -0.398 A  
HETATM    6  C   UNL     1     -10.275   5.720  69.209  1.00  0.00    -0.226 A  
HETATM    7  C   UNL     1     -10.523   5.897  67.849  1.00  0.00    -0.297 A  
HETATM    8  C   UNL     1     -10.071   6.821  70.034  1.00  0.00    -0.200 A  
BRANCH   4   9
HETATM    9  N   UNL     1     -10.680   9.620  67.661  1.00  0.00    -0.335 NA 
HETATM   10  H   UNL     1     -11.665   9.814  67.478  1.00  0.00     0.000 HD 
BRANCH   9  11
HETATM   11  C   UNL     1      -9.837  10.736  67.369  1.00  0.00    -0.177 A  
HETATM   12  C   UNL     1      -6.343  11.705  66.661  1.00  0.00    -0.066 A  
HETATM   13  C   UNL     1     -10.338  12.029  67.722  1.00  0.00    -0.210 A  
HETATM   14  C   UNL     1     -11.676  12.283  68.111  1.00  0.00    -0.408 A  
HETATM   15  C   UNL     1      -8.490  10.611  66.918  1.00  0.00    -0.127 A  
HETATM   16  C   UNL     1     -12.115  13.570  68.424  1.00  0.00    -0.293 A  
HETATM   17  C   UNL     1      -7.696  11.779  66.970  1.00  0.00    -0.158 A  
HETATM   18  C   UNL     1      -7.865   9.421  66.461  1.00  0.00    -0.097 A  
HETATM   19  C   UNL     1     -11.222  14.630  68.364  1.00  0.00    -0.290 A  
HETATM   20  C   UNL     1      -6.515   9.381  66.105  1.00  0.00    -0.069 A  
HETATM   21  C   UNL     1      -5.742  10.522  66.237  1.00  0.00    -0.085 A  
HETATM   22  C   UNL     1      -9.900  14.389  67.991  1.00  0.00    -0.221 A  
HETATM   23  C   UNL     1      -9.447  13.115  67.671  1.00  0.00    -0.207 A  
HETATM   24  N   UNL     1      -8.161  12.980  67.331  1.00  0.00    -0.177 NA 
ENDBRANCH   9  11
ENDBRANCH   4   9
BRANCH   6  25
HETATM   25  N   UNL     1     -10.282   4.425  69.811  1.00  0.00    -0.031 N  
HETATM   26  H   UNL     1     -11.140   3.879  69.890  1.00  0.00     0.000 HD 
BRANCH  25  27
HETATM   27  S   UNL     1      -8.805   3.835  70.386  1.00  0.00    -0.095 S  
HETATM   28  C   UNL     1      -8.999   2.081  70.101  1.00  0.00    -0.086 C  
HETATM   29  O   UNL     1      -8.834   4.053  71.816  1.00  0.00    -0.107 OA 
HETATM   30  O   UNL     1      -7.714   4.324  69.575  1.00  0.00    -0.054 OA 
ENDBRANCH  25  27
ENDBRANCH   6  25
ENDBRANCH   2   3
TORSDOF 5
ENDMDL
MODEL      192
REMARK 921   NORMALIZED FREE ENERGY PREDICTED BY IDOCK:   -4.27 KCAL/MOL
REMARK 922        TOTAL FREE ENERGY PREDICTED BY IDOCK:   -6.06 KCAL/MOL
REMARK 923 INTER-LIGAND FREE ENERGY PREDICTED BY IDOCK:   -5.95 KCAL/MOL
REMARK 924 INTRA-LIGAND FREE ENERGY PREDICTED BY IDOCK:   -0.10 KCAL/MOL
REMARK 927      BINDING AFFINITY PREDICTED BY RF-SCORE:    0.00 PKD
ROOT
HETATM    1  C   UNL     1      -8.561   6.894  67.701  1.00  0.00    -0.121 C  
HETATM    2  O   UNL     1      -9.739   7.446  68.298  1.00  0.00    -0.148 OA 
ENDROOT
BRANCH   2   3
HETATM    3  C   UNL     1      -9.911   8.794  68.062  1.00  0.00    -0.169 A  
HETATM    4  C   UNL     1     -10.102   9.633  69.185  1.00  0.00    -0.189 A  
HETATM    5  C   UNL     1     -10.178  11.017  68.979  1.00  0.00    -0.217 A  
HETATM    6  C   UNL     1     -10.062  10.697  66.583  1.00  0.00    -0.220 A  
HETATM    7  C   UNL     1     -10.155  11.548  67.683  1.00  0.00    -0.202 A  
HETATM    8  C   UNL     1      -9.940   9.324  66.769  1.00  0.00    -0.312 A  
BRANCH   4   9
HETATM    9  N   UNL     1     -10.249   9.066  70.467  1.00  0.00    -0.204 NA 
HETATM   10  H   UNL     1     -11.059   9.432  70.969  1.00  0.00     0.000 HD 
BRANCH   9  11
HETATM   11  C   UNL     1      -9.525   8.097  71.226  1.00  0.00    -0.159 A  
HETATM   12  C   UNL     1      -9.916   5.334  73.647  1.00  0.00    -0.194 A  
HETATM   13  C   UNL     1      -8.134   8.354  71.436  1.00  0.00    -0.162 A  
HETATM   14  C   UNL     1      -7.400   9.357  70.756  1.00  0.00    -0.126 A  
HETATM   15  C   UNL     1     -10.142   7.008  71.910  1.00  0.00    -0.198 A  
HETATM   16  C   UNL     1      -6.037   9.549  70.986  1.00  0.00    -0.080 A  
HETATM   17  C   UNL     1      -9.346   6.325  72.857  1.00  0.00    -0.139 A  
HETATM   18  C   UNL     1     -11.485   6.573  71.757  1.00  0.00    -0.346 A  
HETATM   19  C   UNL     1      -5.380   8.748  71.907  1.00  0.00    -0.046 A  
HETATM   20  C   UNL     1     -12.023   5.539  72.526  1.00  0.00    -0.085 A  
HETATM   21  C   UNL     1     -11.243   4.938  73.499  1.00  0.00    -0.375 A  
HETATM   22  C   UNL     1      -6.094   7.762  72.589  1.00  0.00    -0.045 A  
HETATM   23  C   UNL     1      -7.450   7.554  72.368  1.00  0.00    -0.075 A  
HETATM   24  N   UNL     1      -8.053   6.590  73.072  1.00  0.00    -0.107 NA 
ENDBRANCH   9  11
ENDBRANCH   4   9
BRANCH   6  25
HETATM   25  N   UNL     1     -10.151  11.186  65.245  1.00  0.00    -0.260 N  
HETATM   26  H   UNL     1      -9.558  10.816  64.502  1.00  0.00     0.000 HD 
BRANCH  25  27
HETATM   27  S   UNL     1     -11.282  12.407  64.945  1.00  0.00    -0.322 S  
HETATM   28  C   UNL     1     -11.949  11.881  63.373  1.00  0.00    -0.425 C  
HETATM   29  O   UNL     1     -10.505  13.604  64.713  1.00  0.00    -0.387 OA 
HETATM   30  O   UNL     1     -12.334  12.376  65.935  1.00  0.00    -0.638 OA 
ENDBRANCH  25  27
ENDBRANCH   6  25
ENDBRANCH   2   3
TORSDOF 5
ENDMDL
MODEL      193
REMARK 921   NORMALIZED FREE ENERGY PREDICTED BY IDOCK:   -4.25 KCAL/MOL
REMARK 922        TOTAL FREE ENERGY PREDICTED BY IDOCK:   -6.03 KCAL/MOL
REMARK 923 INTER-LIGAND FREE ENERGY PREDICTED BY IDOCK:   -5.57 KCAL/MOL
REMARK 924 INTRA-LIGAND FREE ENERGY PREDICTED BY IDOCK:   -0.46 KCAL/MOL
REMARK 927      BINDING AFFINITY PREDICTED BY RF-SCORE:    0.00 PKD
ROOT
HETATM    1  C   UNL     1      -7.540   6.506  67.546  1.00  0.00    -0.105 C  
HETATM    2  O   UNL     1      -8.668   6.645  68.417  1.00  0.00    -0.123 OA 
ENDROOT
BRANCH   2   3
HETATM    3  C   UNL     1      -8.379   6.436  69.749  1.00  0.00    -0.127 A  
HETATM    4  C   UNL     1      -8.325   7.573  70.591  1.00  0.00    -0.126 A  
HETATM    5  C   UNL     1      -8.132   7.377  71.964  1.00  0.00    -0.101 A  
HETATM    6  C   UNL     1      -7.871   4.996  71.619  1.00  0.00    -0.108 A  
HETATM    7  C   UNL     1      -7.909   6.093  72.479  1.00  0.00    -0.104 A  
HETATM    8  C   UNL     1      -8.105   5.164  70.259  1.00  0.00    -0.086 A  
BRANCH   4   9
HETATM    9  N   UNL     1      -8.426   8.863  70.033  1.00  0.00    -0.129 NA 
HETATM   10  H   UNL     1      -7.547   9.185  69.626  1.00  0.00     0.000 HD 
BRANCH   9  11
HETATM   11  C   UNL     1      -9.475   9.824  69.906  1.00  0.00    -0.231 A  
HETATM   12  C   UNL     1     -13.015  10.472  70.741  1.00  0.00    -0.413 A  
HETATM   13  C   UNL     1      -9.328  10.804  68.875  1.00  0.00    -0.183 A  
HETATM   14  C   UNL     1      -8.129  11.022  68.151  1.00  0.00    -0.122 A  
HETATM   15  C   UNL     1     -10.706   9.747  70.622  1.00  0.00    -0.394 A  
HETATM   16  C   UNL     1      -8.037  12.009  67.169  1.00  0.00    -0.177 A  
HETATM   17  C   UNL     1     -11.753  10.581  70.170  1.00  0.00    -0.326 A  
HETATM   18  C   UNL     1     -10.988   8.888  71.717  1.00  0.00    -0.431 A  
HETATM   19  C   UNL     1      -9.144  12.794  66.884  1.00  0.00    -0.221 A  
HETATM   20  C   UNL     1     -12.251   8.832  72.311  1.00  0.00    -0.429 A  
HETATM   21  C   UNL     1     -13.279   9.605  71.799  1.00  0.00    -0.520 A  
HETATM   22  C   UNL     1     -10.331  12.583  67.584  1.00  0.00    -0.222 A  
HETATM   23  C   UNL     1     -10.439  11.609  68.569  1.00  0.00    -0.217 A  
HETATM   24  N   UNL     1     -11.619  11.475  69.184  1.00  0.00    -0.286 NA 
ENDBRANCH   9  11
ENDBRANCH   4   9
BRANCH   6  25
HETATM   25  N   UNL     1      -7.534   3.690  72.085  1.00  0.00    -0.055 N  
HETATM   26  H   UNL     1      -6.576   3.445  72.337  1.00  0.00     0.000 HD 
BRANCH  25  27
HETATM   27  S   UNL     1      -8.791   2.565  72.202  1.00  0.00    -0.072 S  
HETATM   28  C   UNL     1      -8.466   1.849  73.807  1.00  0.00    -0.058 C  
HETATM   29  O   UNL     1      -8.502   1.558  71.206  1.00  0.00    -0.046 OA 
HETATM   30  O   UNL     1     -10.069   3.238  72.239  1.00  0.00    -0.160 OA 
ENDBRANCH  25  27
ENDBRANCH   6  25
ENDBRANCH   2   3
TORSDOF 5
ENDMDL
MODEL      194
REMARK 921   NORMALIZED FREE ENERGY PREDICTED BY IDOCK:   -4.25 KCAL/MOL
REMARK 922        TOTAL FREE ENERGY PREDICTED BY IDOCK:   -6.02 KCAL/MOL
REMARK 923 INTER-LIGAND FREE ENERGY PREDICTED BY IDOCK:   -5.42 KCAL/MOL
REMARK 924 INTRA-LIGAND FREE ENERGY PREDICTED BY IDOCK:   -0.60 KCAL/MOL
REMARK 927      BINDING AFFINITY PREDICTED BY RF-SCORE:    0.00 PKD
ROOT
HETATM    1  C   UNL     1     -12.208  11.257  68.832  1.00  0.00    -0.093 C  
HETATM    2  O   UNL     1     -11.712  11.614  67.538  1.00  0.00    -0.535 OA 
ENDROOT
BRANCH   2   3
HETATM    3  C   UNL     1     -10.388  12.000  67.530  1.00  0.00    -0.200 A  
HETATM    4  C   UNL     1      -9.460  11.134  66.903  1.00  0.00    -0.185 A  
HETATM    5  C   UNL     1      -8.128  11.550  66.795  1.00  0.00    -0.158 A  
HETATM    6  C   UNL     1      -8.616  13.549  68.068  1.00  0.00    -0.177 A  
HETATM    7  C   UNL     1      -7.706  12.755  67.372  1.00  0.00    -0.165 A  
HETATM    8  C   UNL     1      -9.953  13.175  68.149  1.00  0.00    -0.234 A  
BRANCH   4   9
HETATM    9  N   UNL     1      -9.882   9.870  66.442  1.00  0.00    -0.212 NA 
HETATM   10  H   UNL     1     -10.729   9.922  65.874  1.00  0.00     0.000 HD 
BRANCH   9  11
HETATM   11  C   UNL     1      -9.397   8.535  66.586  1.00  0.00    -0.189 A  
HETATM   12  C   UNL     1      -7.837   5.734  64.750  1.00  0.00    -0.114 A  
HETATM   13  C   UNL     1      -9.877   7.795  67.712  1.00  0.00    -0.200 A  
HETATM   14  C   UNL     1     -10.593   8.368  68.792  1.00  0.00    -0.154 A  
HETATM   15  C   UNL     1      -8.619   7.866  65.595  1.00  0.00    -0.159 A  
HETATM   16  C   UNL     1     -11.019   7.601  69.877  1.00  0.00    -0.208 A  
HETATM   17  C   UNL     1      -8.478   6.468  65.740  1.00  0.00    -0.148 A  
HETATM   18  C   UNL     1      -8.007   8.466  64.462  1.00  0.00    -0.146 A  
HETATM   19  C   UNL     1     -10.744   6.242  69.902  1.00  0.00    -0.355 A  
HETATM   20  C   UNL     1      -7.322   7.715  63.505  1.00  0.00    -0.090 A  
HETATM   21  C   UNL     1      -7.264   6.338  63.633  1.00  0.00    -0.054 A  
HETATM   22  C   UNL     1     -10.047   5.665  68.840  1.00  0.00    -0.254 A  
HETATM   23  C   UNL     1      -9.612   6.415  67.755  1.00  0.00    -0.121 A  
HETATM   24  N   UNL     1      -8.956   5.776  66.781  1.00  0.00    -0.116 NA 
ENDBRANCH   9  11
ENDBRANCH   4   9
BRANCH   6  25
HETATM   25  N   UNL     1      -8.206  14.724  68.768  1.00  0.00    -0.158 N  
HETATM   26  H   UNL     1      -7.609  14.671  69.593  1.00  0.00     0.000 HD 
BRANCH  25  27
HETATM   27  S   UNL     1      -8.751  16.207  68.168  1.00  0.00    -0.179 S  
HETATM   28  C   UNL     1      -8.506  15.981  66.412  1.00  0.00    -0.327 C  
HETATM   29  O   UNL     1      -7.789  17.186  68.622  1.00  0.00    -0.246 OA 
HETATM   30  O   UNL     1     -10.164  16.369  68.427  1.00  0.00    -0.239 OA 
ENDBRANCH  25  27
ENDBRANCH   6  25
ENDBRANCH   2   3
TORSDOF 5
ENDMDL
MODEL      195
REMARK 921   NORMALIZED FREE ENERGY PREDICTED BY IDOCK:   -4.23 KCAL/MOL
REMARK 922        TOTAL FREE ENERGY PREDICTED BY IDOCK:   -6.00 KCAL/MOL
REMARK 923 INTER-LIGAND FREE ENERGY PREDICTED BY IDOCK:   -6.06 KCAL/MOL
REMARK 924 INTRA-LIGAND FREE ENERGY PREDICTED BY IDOCK:    0.06 KCAL/MOL
REMARK 927      BINDING AFFINITY PREDICTED BY RF-SCORE:    0.00 PKD
ROOT
HETATM    1  C   UNL     1     -11.269   9.962  68.568  1.00  0.00    -0.072 C  
HETATM    2  O   UNL     1     -11.096  10.521  67.261  1.00  0.00    -0.292 OA 
ENDROOT
BRANCH   2   3
HETATM    3  C   UNL     1      -9.924  10.145  66.640  1.00  0.00    -0.216 A  
HETATM    4  C   UNL     1      -8.871  11.090  66.607  1.00  0.00    -0.164 A  
HETATM    5  C   UNL     1      -7.638  10.697  66.072  1.00  0.00    -0.142 A  
HETATM    6  C   UNL     1      -8.557   8.545  65.456  1.00  0.00    -0.180 A  
HETATM    7  C   UNL     1      -7.479   9.428  65.500  1.00  0.00    -0.095 A  
HETATM    8  C   UNL     1      -9.776   8.899  66.023  1.00  0.00    -0.308 A  
BRANCH   4   9
HETATM    9  N   UNL     1      -9.092  12.402  67.073  1.00  0.00    -0.201 NA 
HETATM   10  H   UNL     1      -9.073  12.466  68.092  1.00  0.00     0.000 HD 
BRANCH   9  11
HETATM   11  C   UNL     1      -9.337  13.663  66.448  1.00  0.00    -0.186 A  
HETATM   12  C   UNL     1      -8.923  17.310  66.869  1.00  0.00    -0.256 A  
HETATM   13  C   UNL     1     -10.338  13.690  65.427  1.00  0.00    -0.345 A  
HETATM   14  C   UNL     1     -10.915  12.532  64.849  1.00  0.00    -0.335 A  
HETATM   15  C   UNL     1      -8.771  14.892  66.900  1.00  0.00    -0.276 A  
HETATM   16  C   UNL     1     -11.874  12.618  63.840  1.00  0.00    -0.544 A  
HETATM   17  C   UNL     1      -9.340  16.077  66.383  1.00  0.00    -0.298 A  
HETATM   18  C   UNL     1      -7.721  15.035  67.846  1.00  0.00    -0.145 A  
HETATM   19  C   UNL     1     -12.284  13.865  63.392  1.00  0.00     0.005 A  
HETATM   20  C   UNL     1      -7.281  16.286  68.282  1.00  0.00    -0.141 A  
HETATM   21  C   UNL     1      -7.907  17.429  67.815  1.00  0.00    -0.205 A  
HETATM   22  C   UNL     1     -11.730  15.012  63.960  1.00  0.00     0.040 A  
HETATM   23  C   UNL     1     -10.770  14.944  64.962  1.00  0.00    -0.431 A  
HETATM   24  N   UNL     1     -10.299  16.097  65.451  1.00  0.00    -0.539 NA 
ENDBRANCH   9  11
ENDBRANCH   4   9
BRANCH   6  25
HETATM   25  N   UNL     1      -8.471   7.289  64.783  1.00  0.00    -0.348 N  
HETATM   26  H   UNL     1      -8.654   7.208  63.783  1.00  0.00     0.000 HD 
BRANCH  25  27
HETATM   27  S   UNL     1      -8.052   5.942  65.715  1.00  0.00    -0.127 S  
HETATM   28  C   UNL     1      -6.301   6.214  65.948  1.00  0.00    -0.038 C  
HETATM   29  O   UNL     1      -8.206   4.803  64.839  1.00  0.00    -0.110 OA 
HETATM   30  O   UNL     1      -8.709   5.993  67.001  1.00  0.00    -0.111 OA 
ENDBRANCH  25  27
ENDBRANCH   6  25
ENDBRANCH   2   3
TORSDOF 5
ENDMDL
MODEL      196
REMARK 921   NORMALIZED FREE ENERGY PREDICTED BY IDOCK:   -4.23 KCAL/MOL
REMARK 922        TOTAL FREE ENERGY PREDICTED BY IDOCK:   -6.00 KCAL/MOL
REMARK 923 INTER-LIGAND FREE ENERGY PREDICTED BY IDOCK:   -5.59 KCAL/MOL
REMARK 924 INTRA-LIGAND FREE ENERGY PREDICTED BY IDOCK:   -0.41 KCAL/MOL
REMARK 927      BINDING AFFINITY PREDICTED BY RF-SCORE:    0.00 PKD
ROOT
HETATM    1  C   UNL     1      -8.807   5.922  69.136  1.00  0.00    -0.117 C  
HETATM    2  O   UNL     1      -8.951   7.089  68.319  1.00  0.00    -0.129 OA 
ENDROOT
BRANCH   2   3
HETATM    3  C   UNL     1      -9.518   8.164  68.970  1.00  0.00    -0.155 A  
HETATM    4  C   UNL     1      -9.312   9.448  68.411  1.00  0.00    -0.134 A  
HETATM    5  C   UNL     1      -9.959  10.543  68.997  1.00  0.00    -0.223 A  
HETATM    6  C   UNL     1     -10.832   9.125  70.753  1.00  0.00    -0.268 A  
HETATM    7  C   UNL     1     -10.720  10.383  70.163  1.00  0.00    -0.292 A  
HETATM    8  C   UNL     1     -10.235   8.018  70.161  1.00  0.00    -0.203 A  
BRANCH   4   9
HETATM    9  N   UNL     1      -8.441   9.602  67.313  1.00  0.00    -0.131 NA 
HETATM   10  H   UNL     1      -7.458   9.532  67.579  1.00  0.00     0.000 HD 
BRANCH   9  11
HETATM   11  C   UNL     1      -8.618   9.835  65.916  1.00  0.00    -0.137 A  
HETATM   12  C   UNL     1     -10.617  11.734  63.457  1.00  0.00    -0.499 A  
HETATM   13  C   UNL     1      -8.097   8.841  65.028  1.00  0.00    -0.144 A  
HETATM   14  C   UNL     1      -7.233   7.793  65.429  1.00  0.00    -0.068 A  
HETATM   15  C   UNL     1      -9.417  10.891  65.385  1.00  0.00    -0.254 A  
HETATM   16  C   UNL     1      -6.738   6.863  64.514  1.00  0.00    -0.042 A  
HETATM   17  C   UNL     1      -9.744  10.808  64.014  1.00  0.00    -0.313 A  
HETATM   18  C   UNL     1      -9.944  11.991  66.113  1.00  0.00    -0.254 A  
HETATM   19  C   UNL     1      -7.104   6.956  63.180  1.00  0.00    -0.063 A  
HETATM   20  C   UNL     1     -10.779  12.941  65.521  1.00  0.00    -0.301 A  
HETATM   21  C   UNL     1     -11.144  12.793  64.193  1.00  0.00    -0.432 A  
HETATM   22  C   UNL     1      -7.961   7.979  62.775  1.00  0.00    -0.151 A  
HETATM   23  C   UNL     1      -8.459   8.917  63.672  1.00  0.00    -0.138 A  
HETATM   24  N   UNL     1      -9.279   9.858  63.194  1.00  0.00    -0.272 NA 
ENDBRANCH   9  11
ENDBRANCH   4   9
BRANCH   6  25
HETATM   25  N   UNL     1     -11.501   8.939  72.001  1.00  0.00    -0.367 N  
HETATM   26  H   UNL     1     -11.042   9.149  72.887  1.00  0.00     0.000 HD 
BRANCH  25  27
HETATM   27  S   UNL     1     -13.087   8.356  71.945  1.00  0.00    -0.361 S  
HETATM   28  C   UNL     1     -13.823   9.470  70.758  1.00  0.00     0.262 C  
HETATM   29  O   UNL     1     -13.655   8.657  73.240  1.00  0.00    -0.030 OA 
HETATM   30  O   UNL     1     -13.114   7.015  71.408  1.00  0.00    -0.376 OA 
ENDBRANCH  25  27
ENDBRANCH   6  25
ENDBRANCH   2   3
TORSDOF 5
ENDMDL
MODEL      197
REMARK 921   NORMALIZED FREE ENERGY PREDICTED BY IDOCK:   -4.20 KCAL/MOL
REMARK 922        TOTAL FREE ENERGY PREDICTED BY IDOCK:   -5.96 KCAL/MOL
REMARK 923 INTER-LIGAND FREE ENERGY PREDICTED BY IDOCK:   -5.30 KCAL/MOL
REMARK 924 INTRA-LIGAND FREE ENERGY PREDICTED BY IDOCK:   -0.66 KCAL/MOL
REMARK 927      BINDING AFFINITY PREDICTED BY RF-SCORE:    0.00 PKD
ROOT
HETATM    1  C   UNL     1      -8.747   7.055  68.035  1.00  0.00    -0.126 C  
HETATM    2  O   UNL     1      -9.814   7.294  68.958  1.00  0.00    -0.160 OA 
ENDROOT
BRANCH   2   3
HETATM    3  C   UNL     1     -10.310   8.580  68.924  1.00  0.00    -0.210 A  
HETATM    4  C   UNL     1     -10.526   9.229  70.163  1.00  0.00    -0.230 A  
HETATM    5  C   UNL     1     -10.934  10.569  70.151  1.00  0.00    -0.338 A  
HETATM    6  C   UNL     1     -11.082  10.536  67.737  1.00  0.00    -0.317 A  
HETATM    7  C   UNL     1     -11.208  11.223  68.943  1.00  0.00    -0.315 A  
HETATM    8  C   UNL     1     -10.634   9.219  67.723  1.00  0.00    -0.307 A  
BRANCH   4   9
HETATM    9  N   UNL     1     -10.365   8.513  71.366  1.00  0.00    -0.220 NA 
HETATM   10  H   UNL     1     -11.146   8.646  72.009  1.00  0.00     0.000 HD 
BRANCH   9  11
HETATM   11  C   UNL     1      -9.361   7.645  71.892  1.00  0.00    -0.145 A  
HETATM   12  C   UNL     1      -5.738   6.926  71.832  1.00  0.00    -0.037 A  
HETATM   13  C   UNL     1      -9.806   6.393  72.420  1.00  0.00    -0.176 A  
HETATM   14  C   UNL     1     -11.165   6.072  72.665  1.00  0.00    -0.326 A  
HETATM   15  C   UNL     1      -7.961   7.886  71.761  1.00  0.00    -0.118 A  
HETATM   16  C   UNL     1     -11.540   4.840  73.202  1.00  0.00    -0.288 A  
HETATM   17  C   UNL     1      -7.103   6.802  72.054  1.00  0.00    -0.075 A  
HETATM   18  C   UNL     1      -7.354   9.095  71.329  1.00  0.00    -0.054 A  
HETATM   19  C   UNL     1     -10.566   3.898  73.498  1.00  0.00    -0.283 A  
HETATM   20  C   UNL     1      -5.973   9.215  71.162  1.00  0.00    -0.063 A  
HETATM   21  C   UNL     1      -5.163   8.114  71.384  1.00  0.00    -0.033 A  
HETATM   22  C   UNL     1      -9.226   4.200  73.253  1.00  0.00    -0.120 A  
HETATM   23  C   UNL     1      -8.834   5.424  72.724  1.00  0.00    -0.122 A  
HETATM   24  N   UNL     1      -7.528   5.622  72.518  1.00  0.00    -0.095 NA 
ENDBRANCH   9  11
ENDBRANCH   4   9
BRANCH   6  25
HETATM   25  N   UNL     1     -11.460  11.127  66.493  1.00  0.00     0.039 N  
HETATM   26  H   UNL     1     -12.439  11.285  66.254  1.00  0.00     0.000 HD 
BRANCH  25  27
HETATM   27  S   UNL     1     -10.214  11.556  65.434  1.00  0.00    -0.277 S  
HETATM   28  C   UNL     1     -10.687  13.224  65.000  1.00  0.00    -0.333 C  
HETATM   29  O   UNL     1     -10.401  10.729  64.263  1.00  0.00    -0.359 OA 
HETATM   30  O   UNL     1      -8.948  11.594  66.130  1.00  0.00    -0.209 OA 
ENDBRANCH  25  27
ENDBRANCH   6  25
ENDBRANCH   2   3
TORSDOF 5
ENDMDL
MODEL      198
REMARK 921   NORMALIZED FREE ENERGY PREDICTED BY IDOCK:   -4.16 KCAL/MOL
REMARK 922        TOTAL FREE ENERGY PREDICTED BY IDOCK:   -5.91 KCAL/MOL
REMARK 923 INTER-LIGAND FREE ENERGY PREDICTED BY IDOCK:   -4.97 KCAL/MOL
REMARK 924 INTRA-LIGAND FREE ENERGY PREDICTED BY IDOCK:   -0.94 KCAL/MOL
REMARK 927      BINDING AFFINITY PREDICTED BY RF-SCORE:    0.00 PKD
ROOT
HETATM    1  C   UNL     1     -12.646   7.129  71.935  1.00  0.00    -0.293 C  
HETATM    2  O   UNL     1     -12.084   6.886  70.641  1.00  0.00    -0.371 OA 
ENDROOT
BRANCH   2   3
HETATM    3  C   UNL     1     -11.148   7.819  70.249  1.00  0.00    -0.234 A  
HETATM    4  C   UNL     1      -9.859   7.347  69.909  1.00  0.00    -0.178 A  
HETATM    5  C   UNL     1      -8.922   8.263  69.413  1.00  0.00    -0.147 A  
HETATM    6  C   UNL     1     -10.471  10.087  69.772  1.00  0.00    -0.256 A  
HETATM    7  C   UNL     1      -9.227   9.629  69.341  1.00  0.00    -0.196 A  
HETATM    8  C   UNL     1     -11.430   9.188  70.225  1.00  0.00    -0.174 A  
BRANCH   4   9
HETATM    9  N   UNL     1      -9.534   5.990  70.108  1.00  0.00    -0.156 NA 
HETATM   10  H   UNL     1     -10.090   5.557  70.846  1.00  0.00     0.000 HD 
BRANCH   9  11
HETATM   11  C   UNL     1      -8.606   5.081  69.515  1.00  0.00    -0.091 A  
HETATM   12  C   UNL     1      -8.127   2.768  66.674  1.00  0.00    -0.082 A  
HETATM   13  C   UNL     1      -7.568   4.578  70.361  1.00  0.00    -0.053 A  
HETATM   14  C   UNL     1      -7.271   5.096  71.646  1.00  0.00    -0.075 A  
HETATM   15  C   UNL     1      -8.763   4.533  68.207  1.00  0.00    -0.113 A  
HETATM   16  C   UNL     1      -6.231   4.579  72.420  1.00  0.00    -0.017 A  
HETATM   17  C   UNL     1      -7.945   3.428  67.882  1.00  0.00    -0.079 A  
HETATM   18  C   UNL     1      -9.689   4.967  67.221  1.00  0.00    -0.182 A  
HETATM   19  C   UNL     1      -5.471   3.528  71.929  1.00  0.00    -0.007 A  
HETATM   20  C   UNL     1      -9.820   4.320  65.990  1.00  0.00    -0.232 A  
HETATM   21  C   UNL     1      -9.057   3.195  65.728  1.00  0.00    -0.149 A  
HETATM   22  C   UNL     1      -5.760   3.005  70.669  1.00  0.00    -0.017 A  
HETATM   23  C   UNL     1      -6.789   3.511  69.883  1.00  0.00    -0.034 A  
HETATM   24  N   UNL     1      -6.996   2.942  68.690  1.00  0.00    -0.047 NA 
ENDBRANCH   9  11
ENDBRANCH   4   9
BRANCH   6  25
HETATM   25  N   UNL     1     -10.780  11.480  69.824  1.00  0.00    -0.433 N  
HETATM   26  H   UNL     1     -10.814  11.986  70.709  1.00  0.00     0.000 HD 
BRANCH  25  27
HETATM   27  S   UNL     1     -11.087  12.256  68.353  1.00  0.00    -0.264 S  
HETATM   28  C   UNL     1     -11.720  13.829  68.917  1.00  0.00    -0.336 C  
HETATM   29  O   UNL     1     -12.186  11.530  67.756  1.00  0.00    -0.560 OA 
HETATM   30  O   UNL     1      -9.855  12.478  67.631  1.00  0.00    -0.195 OA 
ENDBRANCH  25  27
ENDBRANCH   6  25
ENDBRANCH   2   3
TORSDOF 5
ENDMDL
MODEL      199
REMARK 921   NORMALIZED FREE ENERGY PREDICTED BY IDOCK:   -4.11 KCAL/MOL
REMARK 922        TOTAL FREE ENERGY PREDICTED BY IDOCK:   -5.84 KCAL/MOL
REMARK 923 INTER-LIGAND FREE ENERGY PREDICTED BY IDOCK:   -5.03 KCAL/MOL
REMARK 924 INTRA-LIGAND FREE ENERGY PREDICTED BY IDOCK:   -0.81 KCAL/MOL
REMARK 927      BINDING AFFINITY PREDICTED BY RF-SCORE:    0.00 PKD
ROOT
HETATM    1  C   UNL     1     -11.233   6.958  69.211  1.00  0.00    -0.137 C  
HETATM    2  O   UNL     1      -9.991   7.458  69.717  1.00  0.00    -0.184 OA 
ENDROOT
BRANCH   2   3
HETATM    3  C   UNL     1      -9.512   8.561  69.041  1.00  0.00    -0.150 A  
HETATM    4  C   UNL     1      -8.490   8.347  68.087  1.00  0.00    -0.132 A  
HETATM    5  C   UNL     1      -8.058   9.434  67.317  1.00  0.00    -0.110 A  
HETATM    6  C   UNL     1      -9.500  10.927  68.561  1.00  0.00    -0.185 A  
HETATM    7  C   UNL     1      -8.563  10.720  67.550  1.00  0.00    -0.125 A  
HETATM    8  C   UNL     1      -9.976   9.853  69.305  1.00  0.00    -0.217 A  
BRANCH   4   9
HETATM    9  N   UNL     1      -7.907   7.070  67.957  1.00  0.00    -0.112 NA 
HETATM   10  H   UNL     1      -7.191   6.891  68.662  1.00  0.00     0.000 HD 
BRANCH   9  11
HETATM   11  C   UNL     1      -8.089   5.968  67.067  1.00  0.00    -0.106 A  
HETATM   12  C   UNL     1      -8.653   5.082  63.525  1.00  0.00    -0.108 A  
HETATM   13  C   UNL     1      -8.502   4.730  67.652  1.00  0.00    -0.104 A  
HETATM   14  C   UNL     1      -8.508   4.473  69.046  1.00  0.00    -0.090 A  
HETATM   15  C   UNL     1      -8.050   6.086  65.646  1.00  0.00    -0.126 A  
HETATM   16  C   UNL     1      -8.901   3.237  69.560  1.00  0.00    -0.149 A  
HETATM   17  C   UNL     1      -8.548   4.990  64.907  1.00  0.00    -0.150 A  
HETATM   18  C   UNL     1      -7.596   7.213  64.910  1.00  0.00    -0.103 A  
HETATM   19  C   UNL     1      -9.304   2.233  68.693  1.00  0.00    -0.238 A  
HETATM   20  C   UNL     1      -7.662   7.264  63.516  1.00  0.00    -0.123 A  
HETATM   21  C   UNL     1      -8.224   6.206  62.822  1.00  0.00    -0.049 A  
HETATM   22  C   UNL     1      -9.310   2.477  67.320  1.00  0.00    -0.115 A  
HETATM   23  C   UNL     1      -8.917   3.701  66.790  1.00  0.00    -0.142 A  
HETATM   24  N   UNL     1      -8.962   3.845  65.461  1.00  0.00    -0.127 NA 
ENDBRANCH   9  11
ENDBRANCH   4   9
BRANCH   6  25
HETATM   25  N   UNL     1      -9.954  12.235  68.907  1.00  0.00    -0.426 N  
HETATM   26  H   UNL     1      -9.389  12.861  69.480  1.00  0.00     0.000 HD 
BRANCH  25  27
HETATM   27  S   UNL     1     -11.472  12.703  68.325  1.00  0.00    -0.336 S  
HETATM   28  C   UNL     1     -11.050  14.175  67.404  1.00  0.00    -0.306 C  
HETATM   29  O   UNL     1     -12.222  13.115  69.491  1.00  0.00    -0.258 OA 
HETATM   30  O   UNL     1     -11.991  11.711  67.411  1.00  0.00    -0.621 OA 
ENDBRANCH  25  27
ENDBRANCH   6  25
ENDBRANCH   2   3
TORSDOF 5
ENDMDL
MODEL      200
REMARK 921   NORMALIZED FREE ENERGY PREDICTED BY IDOCK:   -4.09 KCAL/MOL
REMARK 922        TOTAL FREE ENERGY PREDICTED BY IDOCK:   -5.82 KCAL/MOL
REMARK 923 INTER-LIGAND FREE ENERGY PREDICTED BY IDOCK:   -4.91 KCAL/MOL
REMARK 924 INTRA-LIGAND FREE ENERGY PREDICTED BY IDOCK:   -0.91 KCAL/MOL
REMARK 927      BINDING AFFINITY PREDICTED BY RF-SCORE:    0.00 PKD
ROOT
HETATM    1  C   UNL     1     -12.948   7.102  71.783  1.00  0.00    -0.325 C  
HETATM    2  O   UNL     1     -12.010   6.822  70.739  1.00  0.00    -0.374 OA 
ENDROOT
BRANCH   2   3
HETATM    3  C   UNL     1     -11.001   7.755  70.626  1.00  0.00    -0.249 A  
HETATM    4  C   UNL     1      -9.695   7.352  70.994  1.00  0.00    -0.164 A  
HETATM    5  C   UNL     1      -8.638   8.248  70.793  1.00  0.00    -0.147 A  
HETATM    6  C   UNL     1     -10.186   9.956  70.056  1.00  0.00    -0.271 A  
HETATM    7  C   UNL     1      -8.881   9.546  70.322  1.00  0.00    -0.281 A  
HETATM    8  C   UNL     1     -11.245   9.066  70.206  1.00  0.00    -0.232 A  
BRANCH   4   9
HETATM    9  N   UNL     1      -9.492   6.087  71.584  1.00  0.00    -0.149 NA 
HETATM   10  H   UNL     1     -10.163   5.888  72.326  1.00  0.00     0.000 HD 
BRANCH   9  11
HETATM   11  C   UNL     1      -8.564   5.021  71.380  1.00  0.00    -0.126 A  
HETATM   12  C   UNL     1      -5.432   3.535  72.657  1.00  0.00     0.000 A  
HETATM   13  C   UNL     1      -8.572   4.399  70.092  1.00  0.00    -0.102 A  
HETATM   14  C   UNL     1      -9.577   4.608  69.115  1.00  0.00    -0.245 A  
HETATM   15  C   UNL     1      -7.542   4.675  72.313  1.00  0.00    -0.084 A  
HETATM   16  C   UNL     1      -9.545   3.957  67.882  1.00  0.00    -0.193 A  
HETATM   17  C   UNL     1      -6.523   3.817  71.844  1.00  0.00    -0.015 A  
HETATM   18  C   UNL     1      -7.434   5.141  73.651  1.00  0.00    -0.091 A  
HETATM   19  C   UNL     1      -8.503   3.089  67.595  1.00  0.00    -0.101 A  
HETATM   20  C   UNL     1      -6.355   4.802  74.470  1.00  0.00    -0.058 A  
HETATM   21  C   UNL     1      -5.332   4.021  73.959  1.00  0.00    -0.004 A  
HETATM   22  C   UNL     1      -7.503   2.882  68.545  1.00  0.00    -0.048 A  
HETATM   23  C   UNL     1      -7.522   3.518  69.781  1.00  0.00    -0.045 A  
HETATM   24  N   UNL     1      -6.518   3.263  70.627  1.00  0.00    -0.030 NA 
ENDBRANCH   9  11
ENDBRANCH   4   9
BRANCH   6  25
HETATM   25  N   UNL     1     -10.489  11.301  69.686  1.00  0.00    -0.445 N  
HETATM   26  H   UNL     1     -10.554  12.043  70.382  1.00  0.00     0.000 HD 
BRANCH  25  27
HETATM   27  S   UNL     1     -10.736  11.610  68.041  1.00  0.00    -0.221 S  
HETATM   28  C   UNL     1      -9.639  12.996  67.782  1.00  0.00    -0.208 C  
HETATM   29  O   UNL     1     -12.093  12.100  67.940  1.00  0.00    -0.502 OA 
HETATM   30  O   UNL     1     -10.281  10.495  67.243  1.00  0.00    -0.195 OA 
ENDBRANCH  25  27
ENDBRANCH   6  25
ENDBRANCH   2   3
TORSDOF 5
ENDMDL
MODEL      201
REMARK 921   NORMALIZED FREE ENERGY PREDICTED BY IDOCK:   -4.07 KCAL/MOL
REMARK 922        TOTAL FREE ENERGY PREDICTED BY IDOCK:   -5.79 KCAL/MOL
REMARK 923 INTER-LIGAND FREE ENERGY PREDICTED BY IDOCK:   -4.78 KCAL/MOL
REMARK 924 INTRA-LIGAND FREE ENERGY PREDICTED BY IDOCK:   -1.01 KCAL/MOL
REMARK 927      BINDING AFFINITY PREDICTED BY RF-SCORE:    0.00 PKD
ROOT
HETATM    1  C   UNL     1      -7.146   6.277  70.834  1.00  0.00    -0.070 C  
HETATM    2  O   UNL     1      -7.747   5.510  69.784  1.00  0.00    -0.076 OA 
ENDROOT
BRANCH   2   3
HETATM    3  C   UNL     1      -8.984   5.971  69.388  1.00  0.00    -0.126 A  
HETATM    4  C   UNL     1      -9.185   6.193  68.005  1.00  0.00    -0.116 A  
HETATM    5  C   UNL     1     -10.463   6.565  67.568  1.00  0.00    -0.297 A  
HETATM    6  C   UNL     1     -11.249   6.668  69.854  1.00  0.00    -0.364 A  
HETATM    7  C   UNL     1     -11.493   6.799  68.488  1.00  0.00     0.097 A  
HETATM    8  C   UNL     1     -10.000   6.256  70.306  1.00  0.00    -0.210 A  
BRANCH   4   9
HETATM    9  N   UNL     1      -8.101   6.074  67.111  1.00  0.00    -0.105 NA 
HETATM   10  H   UNL     1      -7.227   5.840  67.583  1.00  0.00     0.000 HD 
BRANCH   9  11
HETATM   11  C   UNL     1      -7.945   6.206  65.698  1.00  0.00    -0.114 A  
HETATM   12  C   UNL     1      -8.059   8.637  62.918  1.00  0.00    -0.177 A  
HETATM   13  C   UNL     1      -8.063   5.009  64.924  1.00  0.00    -0.112 A  
HETATM   14  C   UNL     1      -8.084   3.705  65.477  1.00  0.00    -0.093 A  
HETATM   15  C   UNL     1      -7.855   7.462  65.027  1.00  0.00    -0.124 A  
HETATM   16  C   UNL     1      -8.179   2.570  64.671  1.00  0.00    -0.086 A  
HETATM   17  C   UNL     1      -8.014   7.441  63.624  1.00  0.00    -0.074 A  
HETATM   18  C   UNL     1      -7.660   8.728  65.640  1.00  0.00    -0.086 A  
HETATM   19  C   UNL     1      -8.263   2.715  63.294  1.00  0.00    -0.081 A  
HETATM   20  C   UNL     1      -7.657   9.916  64.904  1.00  0.00    -0.135 A  
HETATM   21  C   UNL     1      -7.890   9.872  63.540  1.00  0.00    -0.150 A  
HETATM   22  C   UNL     1      -8.252   3.995  62.739  1.00  0.00    -0.081 A  
HETATM   23  C   UNL     1      -8.153   5.135  63.527  1.00  0.00    -0.107 A  
HETATM   24  N   UNL     1      -8.155   6.320  62.907  1.00  0.00    -0.096 NA 
ENDBRANCH   9  11
ENDBRANCH   4   9
BRANCH   6  25
HETATM   25  N   UNL     1     -12.235   7.007  70.829  1.00  0.00    -0.535 N  
HETATM   26  H   UNL     1     -13.050   6.416  70.989  1.00  0.00     0.000 HD 
BRANCH  25  27
HETATM   27  S   UNL     1     -11.993   8.432  71.707  1.00  0.00    -0.350 S  
HETATM   28  C   UNL     1     -13.677   8.903  72.073  1.00  0.00    -0.459 C  
HETATM   29  O   UNL     1     -11.467   9.386  70.756  1.00  0.00    -0.268 OA 
HETATM   30  O   UNL     1     -11.305   8.151  72.946  1.00  0.00    -0.387 OA 
ENDBRANCH  25  27
ENDBRANCH   6  25
ENDBRANCH   2   3
TORSDOF 5
ENDMDL
MODEL      202
REMARK 921   NORMALIZED FREE ENERGY PREDICTED BY IDOCK:   -4.06 KCAL/MOL
REMARK 922        TOTAL FREE ENERGY PREDICTED BY IDOCK:   -5.77 KCAL/MOL
REMARK 923 INTER-LIGAND FREE ENERGY PREDICTED BY IDOCK:   -5.17 KCAL/MOL
REMARK 924 INTRA-LIGAND FREE ENERGY PREDICTED BY IDOCK:   -0.60 KCAL/MOL
REMARK 927      BINDING AFFINITY PREDICTED BY RF-SCORE:    0.00 PKD
ROOT
HETATM    1  C   UNL     1     -11.898   6.481  70.243  1.00  0.00    -0.295 C  
HETATM    2  O   UNL     1     -11.111   7.114  71.258  1.00  0.00    -0.242 OA 
ENDROOT
BRANCH   2   3
HETATM    3  C   UNL     1     -10.062   7.864  70.770  1.00  0.00    -0.192 A  
HETATM    4  C   UNL     1      -8.768   7.295  70.834  1.00  0.00    -0.148 A  
HETATM    5  C   UNL     1      -7.702   7.994  70.254  1.00  0.00    -0.086 A  
HETATM    6  C   UNL     1      -9.163   9.853  69.736  1.00  0.00    -0.227 A  
HETATM    7  C   UNL     1      -7.898   9.268  69.704  1.00  0.00    -0.090 A  
HETATM    8  C   UNL     1     -10.244   9.156  70.266  1.00  0.00    -0.253 A  
BRANCH   4   9
HETATM    9  N   UNL     1      -8.574   6.070  71.504  1.00  0.00    -0.131 NA 
HETATM   10  H   UNL     1      -8.136   6.187  72.418  1.00  0.00     0.000 HD 
BRANCH   9  11
HETATM   11  C   UNL     1      -8.849   4.703  71.197  1.00  0.00    -0.118 A  
HETATM   12  C   UNL     1      -9.342   2.332  68.407  1.00  0.00    -0.260 A  
HETATM   13  C   UNL     1      -9.443   3.918  72.236  1.00  0.00    -0.185 A  
HETATM   14  C   UNL     1      -9.551   4.338  73.585  1.00  0.00    -0.133 A  
HETATM   15  C   UNL     1      -8.724   4.145  69.890  1.00  0.00    -0.114 A  
HETATM   16  C   UNL     1     -10.122   3.521  74.561  1.00  0.00    -0.215 A  
HETATM   17  C   UNL     1      -9.318   2.881  69.683  1.00  0.00    -0.135 A  
HETATM   18  C   UNL     1      -8.095   4.758  68.774  1.00  0.00    -0.083 A  
HETATM   19  C   UNL     1     -10.605   2.270  74.208  1.00  0.00    -0.208 A  
HETATM   20  C   UNL     1      -8.085   4.164  67.509  1.00  0.00    -0.095 A  
HETATM   21  C   UNL     1      -8.740   2.959  67.318  1.00  0.00    -0.140 A  
HETATM   22  C   UNL     1     -10.512   1.850  72.881  1.00  0.00    -0.227 A  
HETATM   23  C   UNL     1      -9.942   2.648  71.897  1.00  0.00    -0.142 A  
HETATM   24  N   UNL     1      -9.901   2.165  70.651  1.00  0.00     0.006 NA 
ENDBRANCH   9  11
ENDBRANCH   4   9
BRANCH   6  25
HETATM   25  N   UNL     1      -9.383  11.191  69.292  1.00  0.00    -0.404 N  
HETATM   26  H   UNL     1      -8.975  11.988  69.780  1.00  0.00     0.000 HD 
BRANCH  25  27
HETATM   27  S   UNL     1     -10.348  11.398  67.919  1.00  0.00    -0.189 S  
HETATM   28  C   UNL     1     -10.316  13.176  67.739  1.00  0.00    -0.230 C  
HETATM   29  O   UNL     1     -11.684  11.023  68.326  1.00  0.00    -0.461 OA 
HETATM   30  O   UNL     1      -9.720  10.799  66.764  1.00  0.00    -0.179 OA 
ENDBRANCH  25  27
ENDBRANCH   6  25
ENDBRANCH   2   3
TORSDOF 5
ENDMDL
MODEL      203
REMARK 921   NORMALIZED FREE ENERGY PREDICTED BY IDOCK:   -4.05 KCAL/MOL
REMARK 922        TOTAL FREE ENERGY PREDICTED BY IDOCK:   -5.76 KCAL/MOL
REMARK 923 INTER-LIGAND FREE ENERGY PREDICTED BY IDOCK:   -6.64 KCAL/MOL
REMARK 924 INTRA-LIGAND FREE ENERGY PREDICTED BY IDOCK:    0.88 KCAL/MOL
REMARK 927      BINDING AFFINITY PREDICTED BY RF-SCORE:    0.00 PKD
ROOT
HETATM    1  C   UNL     1     -10.938  14.538  67.845  1.00  0.00    -0.269 C  
HETATM    2  O   UNL     1     -11.132  13.121  67.775  1.00  0.00    -0.246 OA 
ENDROOT
BRANCH   2   3
HETATM    3  C   UNL     1     -11.626  12.564  68.935  1.00  0.00    -0.318 A  
HETATM    4  C   UNL     1     -11.521  11.160  69.081  1.00  0.00    -0.298 A  
HETATM    5  C   UNL     1     -11.924  10.583  70.292  1.00  0.00    -0.411 A  
HETATM    6  C   UNL     1     -12.684  12.733  71.099  1.00  0.00    -0.263 A  
HETATM    7  C   UNL     1     -12.501  11.366  71.300  1.00  0.00    -0.423 A  
HETATM    8  C   UNL     1     -12.249  13.333  69.922  1.00  0.00    -0.313 A  
BRANCH   4   9
HETATM    9  N   UNL     1     -11.054  10.377  68.005  1.00  0.00    -0.336 NA 
HETATM   10  H   UNL     1     -11.743  10.286  67.258  1.00  0.00     0.000 HD 
BRANCH   9  11
HETATM   11  C   UNL     1      -9.840   9.682  67.721  1.00  0.00    -0.159 A  
HETATM   12  C   UNL     1      -8.424   6.330  67.082  1.00  0.00    -0.108 A  
HETATM   13  C   UNL     1      -8.622  10.356  68.049  1.00  0.00    -0.123 A  
HETATM   14  C   UNL     1      -8.542  11.725  68.405  1.00  0.00    -0.156 A  
HETATM   15  C   UNL     1      -9.789   8.319  67.302  1.00  0.00    -0.258 A  
HETATM   16  C   UNL     1      -7.322  12.336  68.694  1.00  0.00    -0.106 A  
HETATM   17  C   UNL     1      -8.527   7.687  67.359  1.00  0.00    -0.122 A  
HETATM   18  C   UNL     1     -10.890   7.532  66.871  1.00  0.00    -0.174 A  
HETATM   19  C   UNL     1      -6.155  11.589  68.643  1.00  0.00    -0.047 A  
HETATM   20  C   UNL     1     -10.755   6.181  66.547  1.00  0.00    -0.207 A  
HETATM   21  C   UNL     1      -9.521   5.568  66.684  1.00  0.00    -0.154 A  
HETATM   22  C   UNL     1      -6.222  10.239  68.303  1.00  0.00    -0.048 A  
HETATM   23  C   UNL     1      -7.428   9.615  68.007  1.00  0.00    -0.082 A  
HETATM   24  N   UNL     1      -7.395   8.314  67.697  1.00  0.00    -0.091 NA 
ENDBRANCH   9  11
ENDBRANCH   4   9
BRANCH   6  25
HETATM   25  N   UNL     1     -13.370  13.546  72.051  1.00  0.00    -0.439 N  
HETATM   26  H   UNL     1     -13.771  13.148  72.901  1.00  0.00     0.000 HD 
BRANCH  25  27
HETATM   27  S   UNL     1     -13.490  15.198  71.710  1.00  0.00    -0.480 S  
HETATM   28  C   UNL     1     -11.783  15.705  71.856  1.00  0.00    -0.459 C  
HETATM   29  O   UNL     1     -14.215  15.770  72.823  1.00  0.00    -0.539 OA 
HETATM   30  O   UNL     1     -13.925  15.402  70.347  1.00  0.00    -0.015 OA 
ENDBRANCH  25  27
ENDBRANCH   6  25
ENDBRANCH   2   3
TORSDOF 5
ENDMDL
MODEL      204
REMARK 921   NORMALIZED FREE ENERGY PREDICTED BY IDOCK:   -4.04 KCAL/MOL
REMARK 922        TOTAL FREE ENERGY PREDICTED BY IDOCK:   -5.76 KCAL/MOL
REMARK 923 INTER-LIGAND FREE ENERGY PREDICTED BY IDOCK:   -5.18 KCAL/MOL
REMARK 924 INTRA-LIGAND FREE ENERGY PREDICTED BY IDOCK:   -0.57 KCAL/MOL
REMARK 927      BINDING AFFINITY PREDICTED BY RF-SCORE:    0.00 PKD
ROOT
HETATM    1  C   UNL     1      -5.912  15.214  69.919  1.00  0.00    -0.136 C  
HETATM    2  O   UNL     1      -5.853  14.673  68.595  1.00  0.00    -0.083 OA 
ENDROOT
BRANCH   2   3
HETATM    3  C   UNL     1      -6.987  14.900  67.844  1.00  0.00    -0.156 A  
HETATM    4  C   UNL     1      -7.668  13.769  67.335  1.00  0.00    -0.143 A  
HETATM    5  C   UNL     1      -8.877  13.968  66.656  1.00  0.00    -0.117 A  
HETATM    6  C   UNL     1      -8.616  16.367  66.835  1.00  0.00    -0.214 A  
HETATM    7  C   UNL     1      -9.352  15.263  66.408  1.00  0.00    -0.328 A  
HETATM    8  C   UNL     1      -7.438  16.190  67.551  1.00  0.00    -0.179 A  
BRANCH   4   9
HETATM    9  N   UNL     1      -7.107  12.485  67.487  1.00  0.00    -0.138 NA 
HETATM   10  H   UNL     1      -6.296  12.337  66.886  1.00  0.00     0.000 HD 
BRANCH   9  11
HETATM   11  C   UNL     1      -7.411  11.343  68.289  1.00  0.00    -0.101 A  
HETATM   12  C   UNL     1      -6.187   9.285  71.102  1.00  0.00    -0.075 A  
HETATM   13  C   UNL     1      -8.343  10.405  67.743  1.00  0.00    -0.114 A  
HETATM   14  C   UNL     1      -9.140  10.651  66.597  1.00  0.00    -0.176 A  
HETATM   15  C   UNL     1      -6.720  11.016  69.493  1.00  0.00    -0.126 A  
HETATM   16  C   UNL     1     -10.049   9.706  66.121  1.00  0.00    -0.328 A  
HETATM   17  C   UNL     1      -6.920   9.714  70.002  1.00  0.00    -0.093 A  
HETATM   18  C   UNL     1      -5.825  11.860  70.202  1.00  0.00    -0.157 A  
HETATM   19  C   UNL     1     -10.175   8.490  66.776  1.00  0.00    -0.370 A  
HETATM   20  C   UNL     1      -5.137  11.426  71.338  1.00  0.00    -0.063 A  
HETATM   21  C   UNL     1      -5.295  10.120  71.770  1.00  0.00     0.000 A  
HETATM   22  C   UNL     1      -9.390   8.233  67.899  1.00  0.00    -0.150 A  
HETATM   23  C   UNL     1      -8.484   9.165  68.390  1.00  0.00    -0.128 A  
HETATM   24  N   UNL     1      -7.770   8.828  69.469  1.00  0.00    -0.087 NA 
ENDBRANCH   9  11
ENDBRANCH   4   9
BRANCH   6  25
HETATM   25  N   UNL     1      -9.005  17.701  66.504  1.00  0.00    -0.264 N  
HETATM   26  H   UNL     1      -8.818  18.097  65.583  1.00  0.00     0.000 HD 
BRANCH  25  27
HETATM   27  S   UNL     1      -9.789  18.595  67.706  1.00  0.00    -0.341 S  
HETATM   28  C   UNL     1     -10.624  19.833  66.726  1.00  0.00    -0.467 C  
HETATM   29  O   UNL     1      -8.736  19.256  68.444  1.00  0.00    -0.332 OA 
HETATM   30  O   UNL     1     -10.778  17.782  68.377  1.00  0.00    -0.316 OA 
ENDBRANCH  25  27
ENDBRANCH   6  25
ENDBRANCH   2   3
TORSDOF 5
ENDMDL
MODEL      205
REMARK 921   NORMALIZED FREE ENERGY PREDICTED BY IDOCK:   -4.01 KCAL/MOL
REMARK 922        TOTAL FREE ENERGY PREDICTED BY IDOCK:   -5.71 KCAL/MOL
REMARK 923 INTER-LIGAND FREE ENERGY PREDICTED BY IDOCK:   -4.86 KCAL/MOL
REMARK 924 INTRA-LIGAND FREE ENERGY PREDICTED BY IDOCK:   -0.85 KCAL/MOL
REMARK 927      BINDING AFFINITY PREDICTED BY RF-SCORE:    0.00 PKD
ROOT
HETATM    1  C   UNL     1     -11.261  10.317  70.576  1.00  0.00    -0.330 C  
HETATM    2  O   UNL     1     -11.421   9.479  69.426  1.00  0.00    -0.027 OA 
ENDROOT
BRANCH   2   3
HETATM    3  C   UNL     1     -11.140  10.105  68.230  1.00  0.00    -0.227 A  
HETATM    4  C   UNL     1     -10.453   9.354  67.247  1.00  0.00    -0.264 A  
HETATM    5  C   UNL     1     -10.246   9.934  65.989  1.00  0.00    -0.269 A  
HETATM    6  C   UNL     1     -11.220  12.013  66.754  1.00  0.00    -0.322 A  
HETATM    7  C   UNL     1     -10.631  11.259  65.740  1.00  0.00    -0.306 A  
HETATM    8  C   UNL     1     -11.476  11.441  67.995  1.00  0.00    -0.377 A  
BRANCH   4   9
HETATM    9  N   UNL     1      -9.964   8.070  67.560  1.00  0.00    -0.178 NA 
HETATM   10  H   UNL     1     -10.711   7.402  67.755  1.00  0.00     0.000 HD 
BRANCH   9  11
HETATM   11  C   UNL     1      -8.664   7.488  67.668  1.00  0.00    -0.122 A  
HETATM   12  C   UNL     1      -6.046   5.711  65.762  1.00  0.00    -0.029 A  
HETATM   13  C   UNL     1      -8.217   7.155  68.985  1.00  0.00    -0.125 A  
HETATM   14  C   UNL     1      -8.864   7.574  70.174  1.00  0.00    -0.147 A  
HETATM   15  C   UNL     1      -7.888   7.076  66.544  1.00  0.00    -0.106 A  
HETATM   16  C   UNL     1      -8.370   7.236  71.434  1.00  0.00    -0.110 A  
HETATM   17  C   UNL     1      -6.776   6.249  66.815  1.00  0.00    -0.061 A  
HETATM   18  C   UNL     1      -8.150   7.388  65.184  1.00  0.00    -0.129 A  
HETATM   19  C   UNL     1      -7.221   6.465  71.533  1.00  0.00    -0.083 A  
HETATM   20  C   UNL     1      -7.371   6.878  64.142  1.00  0.00    -0.086 A  
HETATM   21  C   UNL     1      -6.333   6.009  64.431  1.00  0.00    -0.030 A  
HETATM   22  C   UNL     1      -6.580   6.040  70.369  1.00  0.00    -0.044 A  
HETATM   23  C   UNL     1      -7.056   6.371  69.106  1.00  0.00    -0.084 A  
HETATM   24  N   UNL     1      -6.379   5.914  68.048  1.00  0.00    -0.039 NA 
ENDBRANCH   9  11
ENDBRANCH   4   9
BRANCH   6  25
HETATM   25  N   UNL     1     -11.521  13.398  66.579  1.00  0.00    -0.327 N  
HETATM   26  H   UNL     1     -12.313  13.703  66.014  1.00  0.00     0.000 HD 
BRANCH  25  27
HETATM   27  S   UNL     1     -10.509  14.510  67.352  1.00  0.00    -0.266 S  
HETATM   28  C   UNL     1     -10.482  15.840  66.158  1.00  0.00    -0.317 C  
HETATM   29  O   UNL     1      -9.198  13.900  67.357  1.00  0.00    -0.206 OA 
HETATM   30  O   UNL     1     -11.119  14.987  68.572  1.00  0.00    -0.250 OA 
ENDBRANCH  25  27
ENDBRANCH   6  25
ENDBRANCH   2   3
TORSDOF 5
ENDMDL
MODEL      206
REMARK 921   NORMALIZED FREE ENERGY PREDICTED BY IDOCK:   -3.95 KCAL/MOL
REMARK 922        TOTAL FREE ENERGY PREDICTED BY IDOCK:   -5.64 KCAL/MOL
REMARK 923 INTER-LIGAND FREE ENERGY PREDICTED BY IDOCK:   -4.75 KCAL/MOL
REMARK 924 INTRA-LIGAND FREE ENERGY PREDICTED BY IDOCK:   -0.89 KCAL/MOL
REMARK 927      BINDING AFFINITY PREDICTED BY RF-SCORE:    0.00 PKD
ROOT
HETATM    1  C   UNL     1      -6.997   5.583  70.814  1.00  0.00    -0.053 C  
HETATM    2  O   UNL     1      -7.573   5.196  69.562  1.00  0.00    -0.063 OA 
ENDROOT
BRANCH   2   3
HETATM    3  C   UNL     1      -8.852   5.671  69.361  1.00  0.00    -0.111 A  
HETATM    4  C   UNL     1      -9.243   5.952  68.030  1.00  0.00    -0.112 A  
HETATM    5  C   UNL     1     -10.567   6.339  67.791  1.00  0.00    -0.329 A  
HETATM    6  C   UNL     1     -11.028   6.341  70.167  1.00  0.00    -0.347 A  
HETATM    7  C   UNL     1     -11.459   6.530  68.855  1.00  0.00    -0.150 A  
HETATM    8  C   UNL     1      -9.730   5.912  70.423  1.00  0.00    -0.217 A  
BRANCH   4   9
HETATM    9  N   UNL     1      -8.294   5.875  66.991  1.00  0.00    -0.105 NA 
HETATM   10  H   UNL     1      -7.338   5.789  67.337  1.00  0.00     0.000 HD 
BRANCH   9  11
HETATM   11  C   UNL     1      -8.363   5.889  65.564  1.00  0.00    -0.145 A  
HETATM   12  C   UNL     1      -8.442   3.714  62.579  1.00  0.00    -0.077 A  
HETATM   13  C   UNL     1      -7.992   7.109  64.915  1.00  0.00    -0.127 A  
HETATM   14  C   UNL     1      -7.798   8.340  65.589  1.00  0.00    -0.104 A  
HETATM   15  C   UNL     1      -8.608   4.727  64.774  1.00  0.00    -0.146 A  
HETATM   16  C   UNL     1      -7.458   9.505  64.901  1.00  0.00    -0.111 A  
HETATM   17  C   UNL     1      -8.343   4.837  63.391  1.00  0.00    -0.112 A  
HETATM   18  C   UNL     1      -9.054   3.466  65.251  1.00  0.00    -0.146 A  
HETATM   19  C   UNL     1      -7.296   9.462  63.524  1.00  0.00    -0.103 A  
HETATM   20  C   UNL     1      -9.197   2.362  64.408  1.00  0.00    -0.130 A  
HETATM   21  C   UNL     1      -8.859   2.478  63.071  1.00  0.00    -0.085 A  
HETATM   22  C   UNL     1      -7.476   8.254  62.851  1.00  0.00    -0.114 A  
HETATM   23  C   UNL     1      -7.820   7.086  63.520  1.00  0.00    -0.109 A  
HETATM   24  N   UNL     1      -7.966   5.973  62.793  1.00  0.00    -0.101 NA 
ENDBRANCH   9  11
ENDBRANCH   4   9
BRANCH   6  25
HETATM   25  N   UNL     1     -11.869   6.634  71.283  1.00  0.00    -0.336 N  
HETATM   26  H   UNL     1     -12.657   6.036  71.528  1.00  0.00     0.000 HD 
BRANCH  25  27
HETATM   27  S   UNL     1     -11.500   8.019  72.181  1.00  0.00    -0.362 S  
HETATM   28  C   UNL     1     -13.126   8.724  72.411  1.00  0.00    -0.391 C  
HETATM   29  O   UNL     1     -10.771   8.882  71.279  1.00  0.00    -0.239 OA 
HETATM   30  O   UNL     1     -10.960   7.655  73.471  1.00  0.00    -0.326 OA 
ENDBRANCH  25  27
ENDBRANCH   6  25
ENDBRANCH   2   3
TORSDOF 5
ENDMDL
MODEL      207
REMARK 921   NORMALIZED FREE ENERGY PREDICTED BY IDOCK:   -3.83 KCAL/MOL
REMARK 922        TOTAL FREE ENERGY PREDICTED BY IDOCK:   -5.48 KCAL/MOL
REMARK 923 INTER-LIGAND FREE ENERGY PREDICTED BY IDOCK:   -4.74 KCAL/MOL
REMARK 924 INTRA-LIGAND FREE ENERGY PREDICTED BY IDOCK:   -0.74 KCAL/MOL
REMARK 927      BINDING AFFINITY PREDICTED BY RF-SCORE:    0.00 PKD
ROOT
HETATM    1  C   UNL     1      -7.566   9.540  64.500  1.00  0.00    -0.114 C  
HETATM    2  O   UNL     1      -8.742   8.732  64.620  1.00  0.00    -0.160 OA 
ENDROOT
BRANCH   2   3
HETATM    3  C   UNL     1      -8.819   8.024  65.800  1.00  0.00    -0.132 A  
HETATM    4  C   UNL     1      -9.699   8.510  66.796  1.00  0.00    -0.236 A  
HETATM    5  C   UNL     1      -9.870   7.753  67.962  1.00  0.00    -0.192 A  
HETATM    6  C   UNL     1      -8.187   6.179  67.224  1.00  0.00    -0.106 A  
HETATM    7  C   UNL     1      -9.119   6.589  68.176  1.00  0.00    -0.114 A  
HETATM    8  C   UNL     1      -8.035   6.892  66.039  1.00  0.00    -0.109 A  
BRANCH   4   9
HETATM    9  N   UNL     1     -10.349   9.748  66.614  1.00  0.00    -0.226 NA 
HETATM   10  H   UNL     1     -11.325   9.642  66.338  1.00  0.00     0.000 HD 
BRANCH   9  11
HETATM   11  C   UNL     1      -9.954  11.115  66.727  1.00  0.00    -0.208 A  
HETATM   12  C   UNL     1      -7.811  13.432  68.647  1.00  0.00    -0.073 A  
HETATM   13  C   UNL     1     -10.825  12.086  66.139  1.00  0.00    -0.325 A  
HETATM   14  C   UNL     1     -11.899  11.768  65.271  1.00  0.00    -0.047 A  
HETATM   15  C   UNL     1      -8.857  11.558  67.524  1.00  0.00    -0.155 A  
HETATM   16  C   UNL     1     -12.704  12.759  64.709  1.00  0.00    -0.469 A  
HETATM   17  C   UNL     1      -8.781  12.945  67.780  1.00  0.00    -0.188 A  
HETATM   18  C   UNL     1      -7.862  10.733  68.113  1.00  0.00    -0.112 A  
HETATM   19  C   UNL     1     -12.458  14.091  65.011  1.00  0.00    -0.446 A  
HETATM   20  C   UNL     1      -6.863  11.252  68.940  1.00  0.00    -0.086 A  
HETATM   21  C   UNL     1      -6.857  12.604  69.235  1.00  0.00    -0.012 A  
HETATM   22  C   UNL     1     -11.410  14.415  65.871  1.00  0.00    -0.332 A  
HETATM   23  C   UNL     1     -10.595  13.441  66.435  1.00  0.00    -0.285 A  
HETATM   24  N   UNL     1      -9.618  13.846  67.253  1.00  0.00    -0.236 NA 
ENDBRANCH   9  11
ENDBRANCH   4   9
BRANCH   6  25
HETATM   25  N   UNL     1      -7.321   5.067  67.453  1.00  0.00    -0.081 N  
HETATM   26  H   UNL     1      -6.557   5.116  68.126  1.00  0.00     0.000 HD 
BRANCH  25  27
HETATM   27  S   UNL     1      -7.619   3.663  66.558  1.00  0.00    -0.081 S  
HETATM   28  C   UNL     1      -7.222   2.399  67.756  1.00  0.00    -0.048 C  
HETATM   29  O   UNL     1      -6.597   3.634  65.535  1.00  0.00    -0.035 OA 
HETATM   30  O   UNL     1      -9.020   3.566  66.220  1.00  0.00    -0.128 OA 
ENDBRANCH  25  27
ENDBRANCH   6  25
ENDBRANCH   2   3
TORSDOF 5
ENDMDL
MODEL      208
REMARK 921   NORMALIZED FREE ENERGY PREDICTED BY IDOCK:   -3.71 KCAL/MOL
REMARK 922        TOTAL FREE ENERGY PREDICTED BY IDOCK:   -5.33 KCAL/MOL
REMARK 923 INTER-LIGAND FREE ENERGY PREDICTED BY IDOCK:   -5.51 KCAL/MOL
REMARK 924 INTRA-LIGAND FREE ENERGY PREDICTED BY IDOCK:    0.19 KCAL/MOL
REMARK 927      BINDING AFFINITY PREDICTED BY RF-SCORE:    0.00 PKD
ROOT
HETATM    1  C   UNL     1      -6.794  11.181  68.626  1.00  0.00    -0.070 C  
HETATM    2  O   UNL     1      -7.782  10.340  69.232  1.00  0.00    -0.104 OA 
ENDROOT
BRANCH   2   3
HETATM    3  C   UNL     1      -9.073  10.806  69.101  1.00  0.00    -0.095 A  
HETATM    4  C   UNL     1     -10.108  10.029  69.673  1.00  0.00    -0.236 A  
HETATM    5  C   UNL     1     -11.415  10.531  69.641  1.00  0.00    -0.349 A  
HETATM    6  C   UNL     1     -10.684  12.434  68.338  1.00  0.00    -0.235 A  
HETATM    7  C   UNL     1     -11.704  11.732  68.978  1.00  0.00    -0.390 A  
HETATM    8  C   UNL     1      -9.373  11.976  68.397  1.00  0.00    -0.175 A  
BRANCH   4   9
HETATM    9  N   UNL     1      -9.813   8.765  70.223  1.00  0.00    -0.170 NA 
HETATM   10  H   UNL     1      -9.460   8.825  71.179  1.00  0.00     0.000 HD 
BRANCH   9  11
HETATM   11  C   UNL     1      -9.894   7.420  69.750  1.00  0.00    -0.171 A  
HETATM   12  C   UNL     1      -9.780   3.888  70.827  1.00  0.00    -0.255 A  
HETATM   13  C   UNL     1      -9.651   7.214  68.356  1.00  0.00    -0.137 A  
HETATM   14  C   UNL     1      -9.575   8.257  67.400  1.00  0.00    -0.205 A  
HETATM   15  C   UNL     1     -10.028   6.288  70.608  1.00  0.00    -0.221 A  
HETATM   16  C   UNL     1      -9.357   7.995  66.047  1.00  0.00    -0.158 A  
HETATM   17  C   UNL     1      -9.786   5.023  70.027  1.00  0.00    -0.228 A  
HETATM   18  C   UNL     1     -10.344   6.317  71.992  1.00  0.00    -0.231 A  
HETATM   19  C   UNL     1      -9.202   6.684  65.621  1.00  0.00     0.151 A  
HETATM   20  C   UNL     1     -10.383   5.156  72.768  1.00  0.00    -0.242 A  
HETATM   21  C   UNL     1     -10.068   3.939  72.189  1.00  0.00    -0.225 A  
HETATM   22  C   UNL     1      -9.267   5.650  66.555  1.00  0.00    -0.149 A  
HETATM   23  C   UNL     1      -9.488   5.892  67.905  1.00  0.00    -0.110 A  
HETATM   24  N   UNL     1      -9.529   4.838  68.727  1.00  0.00    -0.138 NA 
ENDBRANCH   9  11
ENDBRANCH   4   9
BRANCH   6  25
HETATM   25  N   UNL     1     -10.953  13.599  67.556  1.00  0.00    -0.264 N  
HETATM   26  H   UNL     1     -11.383  13.533  66.634  1.00  0.00     0.000 HD 
BRANCH  25  27
HETATM   27  S   UNL     1     -10.526  15.091  68.226  1.00  0.00    -0.242 S  
HETATM   28  C   UNL     1     -11.872  15.353  69.372  1.00  0.00    -0.351 C  
HETATM   29  O   UNL     1     -10.670  16.051  67.154  1.00  0.00    -0.314 OA 
HETATM   30  O   UNL     1      -9.293  14.978  68.971  1.00  0.00    -0.201 OA 
ENDBRANCH  25  27
ENDBRANCH   6  25
ENDBRANCH   2   3
TORSDOF 5
ENDMDL
MODEL      209
REMARK 921   NORMALIZED FREE ENERGY PREDICTED BY IDOCK:   -3.62 KCAL/MOL
REMARK 922        TOTAL FREE ENERGY PREDICTED BY IDOCK:   -5.21 KCAL/MOL
REMARK 923 INTER-LIGAND FREE ENERGY PREDICTED BY IDOCK:   -4.37 KCAL/MOL
REMARK 924 INTRA-LIGAND FREE ENERGY PREDICTED BY IDOCK:   -0.84 KCAL/MOL
REMARK 927      BINDING AFFINITY PREDICTED BY RF-SCORE:    0.00 PKD
ROOT
HETATM    1  C   UNL     1     -11.878   6.928  70.704  1.00  0.00    -0.368 C  
HETATM    2  O   UNL     1     -11.388   6.241  69.548  1.00  0.00    -0.409 OA 
ENDROOT
BRANCH   2   3
HETATM    3  C   UNL     1     -10.832   7.069  68.596  1.00  0.00    -0.147 A  
HETATM    4  C   UNL     1     -10.583   6.518  67.317  1.00  0.00    -0.315 A  
HETATM    5  C   UNL     1     -10.113   7.364  66.305  1.00  0.00     0.080 A  
HETATM    6  C   UNL     1      -9.973   9.206  67.869  1.00  0.00    -0.186 A  
HETATM    7  C   UNL     1      -9.812   8.705  66.578  1.00  0.00    -0.348 A  
HETATM    8  C   UNL     1     -10.482   8.393  68.876  1.00  0.00    -0.208 A  
BRANCH   4   9
HETATM    9  N   UNL     1     -10.775   5.138  67.099  1.00  0.00    -0.222 NA 
HETATM   10  H   UNL     1     -11.761   4.876  67.079  1.00  0.00     0.000 HD 
BRANCH   9  11
HETATM   11  C   UNL     1      -9.906   4.022  66.902  1.00  0.00    -0.121 A  
HETATM   12  C   UNL     1      -7.303   1.967  68.531  1.00  0.00    -0.043 A  
HETATM   13  C   UNL     1      -9.641   3.646  65.547  1.00  0.00    -0.149 A  
HETATM   14  C   UNL     1     -10.355   4.145  64.430  1.00  0.00    -0.156 A  
HETATM   15  C   UNL     1      -9.173   3.395  67.953  1.00  0.00    -0.237 A  
HETATM   16  C   UNL     1     -10.067   3.726  63.131  1.00  0.00    -0.176 A  
HETATM   17  C   UNL     1      -8.135   2.519  67.565  1.00  0.00    -0.069 A  
HETATM   18  C   UNL     1      -9.365   3.597  69.346  1.00  0.00    -0.246 A  
HETATM   19  C   UNL     1      -9.053   2.805  62.919  1.00  0.00    -0.087 A  
HETATM   20  C   UNL     1      -8.549   2.991  70.303  1.00  0.00    -0.109 A  
HETATM   21  C   UNL     1      -7.492   2.197  69.892  1.00  0.00    -0.043 A  
HETATM   22  C   UNL     1      -8.337   2.313  64.011  1.00  0.00    -0.082 A  
HETATM   23  C   UNL     1      -8.614   2.716  65.311  1.00  0.00    -0.105 A  
HETATM   24  N   UNL     1      -7.871   2.195  66.294  1.00  0.00    -0.075 NA 
ENDBRANCH   9  11
ENDBRANCH   4   9
BRANCH   6  25
HETATM   25  N   UNL     1      -9.570  10.531  68.215  1.00  0.00    -0.154 N  
HETATM   26  H   UNL     1     -10.254  11.258  68.424  1.00  0.00     0.000 HD 
BRANCH  25  27
HETATM   27  S   UNL     1      -7.909  10.842  68.266  1.00  0.00    -0.125 S  
HETATM   28  C   UNL     1      -7.562  11.146  66.540  1.00  0.00    -0.135 C  
HETATM   29  O   UNL     1      -7.291   9.585  68.624  1.00  0.00    -0.073 OA 
HETATM   30  O   UNL     1      -7.644  12.049  69.016  1.00  0.00    -0.062 OA 
ENDBRANCH  25  27
ENDBRANCH   6  25
ENDBRANCH   2   3
TORSDOF 5
ENDMDL
MODEL      210
REMARK 921   NORMALIZED FREE ENERGY PREDICTED BY IDOCK:   -3.42 KCAL/MOL
REMARK 922        TOTAL FREE ENERGY PREDICTED BY IDOCK:   -4.96 KCAL/MOL
REMARK 923 INTER-LIGAND FREE ENERGY PREDICTED BY IDOCK:   -4.46 KCAL/MOL
REMARK 924 INTRA-LIGAND FREE ENERGY PREDICTED BY IDOCK:   -0.50 KCAL/MOL
REMARK 927      BINDING AFFINITY PREDICTED BY RF-SCORE:    0.00 PKD
ROOT
HETATM    1  C   UNL     1     -10.725  11.806  69.540  1.00  0.00     0.100 C  
HETATM    2  O   UNL     1      -9.467  11.927  68.866  1.00  0.00    -0.056 OA 
ENDROOT
BRANCH   2   3
HETATM    3  C   UNL     1      -9.042  10.764  68.258  1.00  0.00    -0.157 A  
HETATM    4  C   UNL     1      -8.528  10.866  66.944  1.00  0.00    -0.135 A  
HETATM    5  C   UNL     1      -7.997   9.717  66.344  1.00  0.00    -0.108 A  
HETATM    6  C   UNL     1      -8.653   8.381  68.252  1.00  0.00    -0.139 A  
HETATM    7  C   UNL     1      -8.056   8.478  66.996  1.00  0.00    -0.103 A  
HETATM    8  C   UNL     1      -9.145   9.518  68.884  1.00  0.00    -0.141 A  
BRANCH   4   9
HETATM    9  N   UNL     1      -8.594  12.096  66.258  1.00  0.00    -0.397 NA 
HETATM   10  H   UNL     1      -7.695  12.375  65.864  1.00  0.00     0.000 HD 
BRANCH   9  11
HETATM   11  C   UNL     1      -9.630  13.041  65.989  1.00  0.00    -0.165 A  
HETATM   12  C   UNL     1     -11.239  16.116  67.257  1.00  0.00     0.008 A  
HETATM   13  C   UNL     1     -10.672  12.619  65.105  1.00  0.00    -0.321 A  
HETATM   14  C   UNL     1     -10.615  11.443  64.315  1.00  0.00    -0.416 A  
HETATM   15  C   UNL     1      -9.763  14.285  66.676  1.00  0.00    -0.297 A  
HETATM   16  C   UNL     1     -11.653  11.091  63.452  1.00  0.00     0.730 A  
HETATM   17  C   UNL     1     -10.993  14.962  66.523  1.00  0.00    -0.327 A  
HETATM   18  C   UNL     1      -8.794  14.882  67.526  1.00  0.00    -0.195 A  
HETATM   19  C   UNL     1     -12.775  11.902  63.366  1.00  0.00    -0.496 A  
HETATM   20  C   UNL     1      -9.043  16.071  68.214  1.00  0.00    -0.191 A  
HETATM   21  C   UNL     1     -10.285  16.674  68.104  1.00  0.00    -0.280 A  
HETATM   22  C   UNL     1     -12.845  13.056  64.145  1.00  0.00    -0.078 A  
HETATM   23  C   UNL     1     -11.819  13.425  65.006  1.00  0.00    -0.352 A  
HETATM   24  N   UNL     1     -11.977  14.546  65.718  1.00  0.00    -0.341 NA 
ENDBRANCH   9  11
ENDBRANCH   4   9
BRANCH   6  25
HETATM   25  N   UNL     1      -8.836   7.123  68.901  1.00  0.00    -0.131 N  
HETATM   26  H   UNL     1      -8.087   6.685  69.437  1.00  0.00     0.000 HD 
BRANCH  25  27
HETATM   27  S   UNL     1     -10.351   6.388  68.742  1.00  0.00    -0.222 S  
HETATM   28  C   UNL     1     -10.515   5.588  70.332  1.00  0.00    -0.286 C  
HETATM   29  O   UNL     1     -10.176   5.353  67.747  1.00  0.00    -0.177 OA 
HETATM   30  O   UNL     1     -11.387   7.387  68.611  1.00  0.00     0.212 OA 
ENDBRANCH  25  27
ENDBRANCH   6  25
ENDBRANCH   2   3
TORSDOF 5
ENDMDL
MODEL      211
REMARK 921   NORMALIZED FREE ENERGY PREDICTED BY IDOCK:   -3.39 KCAL/MOL
REMARK 922        TOTAL FREE ENERGY PREDICTED BY IDOCK:   -4.92 KCAL/MOL
REMARK 923 INTER-LIGAND FREE ENERGY PREDICTED BY IDOCK:   -4.21 KCAL/MOL
REMARK 924 INTRA-LIGAND FREE ENERGY PREDICTED BY IDOCK:   -0.71 KCAL/MOL
REMARK 927      BINDING AFFINITY PREDICTED BY RF-SCORE:    0.00 PKD
ROOT
HETATM    1  C   UNL     1      -8.484   6.169  71.423  1.00  0.00    -0.128 C  
HETATM    2  O   UNL     1      -7.726   6.749  70.356  1.00  0.00    -0.096 OA 
ENDROOT
BRANCH   2   3
HETATM    3  C   UNL     1      -8.432   7.653  69.591  1.00  0.00    -0.135 A  
HETATM    4  C   UNL     1      -8.488   7.424  68.196  1.00  0.00    -0.124 A  
HETATM    5  C   UNL     1      -9.282   8.271  67.412  1.00  0.00    -0.163 A  
HETATM    6  C   UNL     1      -9.788   9.635  69.345  1.00  0.00    -0.193 A  
HETATM    7  C   UNL     1      -9.933   9.371  67.984  1.00  0.00    -0.209 A  
HETATM    8  C   UNL     1      -9.042   8.781  70.149  1.00  0.00    -0.176 A  
BRANCH   4   9
HETATM    9  N   UNL     1      -7.723   6.386  67.625  1.00  0.00    -0.101 NA 
HETATM   10  H   UNL     1      -6.791   6.314  68.034  1.00  0.00     0.000 HD 
BRANCH   9  11
HETATM   11  C   UNL     1      -7.953   5.413  66.606  1.00  0.00    -0.105 A  
HETATM   12  C   UNL     1      -8.483   4.993  62.974  1.00  0.00    -0.119 A  
HETATM   13  C   UNL     1      -8.459   4.144  67.032  1.00  0.00    -0.100 A  
HETATM   14  C   UNL     1      -8.516   3.725  68.384  1.00  0.00    -0.108 A  
HETATM   15  C   UNL     1      -7.870   5.695  65.210  1.00  0.00    -0.100 A  
HETATM   16  C   UNL     1      -9.001   2.466  68.740  1.00  0.00    -0.175 A  
HETATM   17  C   UNL     1      -8.419   4.730  64.337  1.00  0.00    -0.134 A  
HETATM   18  C   UNL     1      -7.326   6.868  64.622  1.00  0.00    -0.090 A  
HETATM   19  C   UNL     1      -9.446   1.601  67.751  1.00  0.00    -0.122 A  
HETATM   20  C   UNL     1      -7.354   7.089  63.244  1.00  0.00    -0.081 A  
HETATM   21  C   UNL     1      -7.965   6.160  62.418  1.00  0.00    -0.096 A  
HETATM   22  C   UNL     1      -9.402   2.006  66.418  1.00  0.00     0.112 A  
HETATM   23  C   UNL     1      -8.918   3.254  66.045  1.00  0.00    -0.145 A  
HETATM   24  N   UNL     1      -8.919   3.558  64.743  1.00  0.00    -0.124 NA 
ENDBRANCH   9  11
ENDBRANCH   4   9
BRANCH   6  25
HETATM   25  N   UNL     1     -10.340  10.808  69.944  1.00  0.00    -0.437 N  
HETATM   26  H   UNL     1      -9.764  11.626  70.141  1.00  0.00     0.000 HD 
BRANCH  25  27
HETATM   27  S   UNL     1     -11.990  10.781  70.313  1.00  0.00    -0.380 S  
HETATM   28  C   UNL     1     -12.046   9.492  71.550  1.00  0.00    -0.389 C  
HETATM   29  O   UNL     1     -12.643  10.277  69.125  1.00  0.00     0.084 OA 
HETATM   30  O   UNL     1     -12.393  12.029  70.919  1.00  0.00    -0.373 OA 
ENDBRANCH  25  27
ENDBRANCH   6  25
ENDBRANCH   2   3
TORSDOF 5
ENDMDL
MODEL      212
REMARK 921   NORMALIZED FREE ENERGY PREDICTED BY IDOCK:   -3.00 KCAL/MOL
REMARK 922        TOTAL FREE ENERGY PREDICTED BY IDOCK:   -4.42 KCAL/MOL
REMARK 923 INTER-LIGAND FREE ENERGY PREDICTED BY IDOCK:   -4.07 KCAL/MOL
REMARK 924 INTRA-LIGAND FREE ENERGY PREDICTED BY IDOCK:   -0.35 KCAL/MOL
REMARK 927      BINDING AFFINITY PREDICTED BY RF-SCORE:    0.00 PKD
ROOT
HETATM    1  C   UNL     1     -11.021   9.596  67.663  1.00  0.00    -0.124 C  
HETATM    2  O   UNL     1      -9.761   9.913  68.262  1.00  0.00    -0.142 OA 
ENDROOT
BRANCH   2   3
HETATM    3  C   UNL     1      -9.242  11.129  67.872  1.00  0.00    -0.154 A  
HETATM    4  C   UNL     1      -7.835  11.275  67.892  1.00  0.00    -0.116 A  
HETATM    5  C   UNL     1      -7.280  12.466  67.405  1.00  0.00    -0.148 A  
HETATM    6  C   UNL     1      -9.490  13.394  67.072  1.00  0.00    -0.247 A  
HETATM    7  C   UNL     1      -8.104  13.521  66.993  1.00  0.00    -0.015 A  
HETATM    8  C   UNL     1     -10.060  12.203  67.509  1.00  0.00    -0.204 A  
BRANCH   4   9
HETATM    9  N   UNL     1      -7.031  10.248  68.428  1.00  0.00    -0.069 NA 
HETATM   10  H   UNL     1      -6.424  10.577  69.179  1.00  0.00     0.000 HD 
BRANCH   9  11
HETATM   11  C   UNL     1      -6.872   8.854  68.162  1.00  0.00    -0.069 A  
HETATM   12  C   UNL     1      -6.413   6.389  65.450  1.00  0.00    -0.039 A  
HETATM   13  C   UNL     1      -7.304   7.952  69.184  1.00  0.00    -0.083 A  
HETATM   14  C   UNL     1      -7.647   8.348  70.501  1.00  0.00    -0.074 A  
HETATM   15  C   UNL     1      -6.477   8.332  66.895  1.00  0.00    -0.057 A  
HETATM   16  C   UNL     1      -8.042   7.420  71.465  1.00  0.00    -0.100 A  
HETATM   17  C   UNL     1      -6.661   6.945  66.698  1.00  0.00    -0.049 A  
HETATM   18  C   UNL     1      -5.956   9.079  65.805  1.00  0.00    -0.051 A  
HETATM   19  C   UNL     1      -8.111   6.075  71.131  1.00  0.00    -0.121 A  
HETATM   20  C   UNL     1      -5.664   8.489  64.573  1.00  0.00    -0.063 A  
HETATM   21  C   UNL     1      -5.924   7.142  64.385  1.00  0.00    -0.037 A  
HETATM   22  C   UNL     1      -7.784   5.675  69.835  1.00  0.00    -0.083 A  
HETATM   23  C   UNL     1      -7.384   6.585  68.865  1.00  0.00    -0.093 A  
HETATM   24  N   UNL     1      -7.096   6.110  67.648  1.00  0.00    -0.072 NA 
ENDBRANCH   9  11
ENDBRANCH   4   9
BRANCH   6  25
HETATM   25  N   UNL     1     -10.362  14.484  66.771  1.00  0.00    -0.266 N  
HETATM   26  H   UNL     1     -10.338  15.349  67.310  1.00  0.00     0.000 HD 
BRANCH  25  27
HETATM   27  S   UNL     1     -11.437  14.277  65.483  1.00  0.00    -0.338 S  
HETATM   28  C   UNL     1     -10.523  13.142  64.448  1.00  0.00    -0.407 C  
HETATM   29  O   UNL     1     -11.478  15.553  64.805  1.00  0.00    -0.385 OA 
HETATM   30  O   UNL     1     -12.648  13.628  65.933  1.00  0.00    -0.460 OA 
ENDBRANCH  25  27
ENDBRANCH   6  25
ENDBRANCH   2   3
TORSDOF 5
ENDMDL
MODEL      213
REMARK 921   NORMALIZED FREE ENERGY PREDICTED BY IDOCK:   -2.96 KCAL/MOL
REMARK 922        TOTAL FREE ENERGY PREDICTED BY IDOCK:   -4.36 KCAL/MOL
REMARK 923 INTER-LIGAND FREE ENERGY PREDICTED BY IDOCK:   -4.23 KCAL/MOL
REMARK 924 INTRA-LIGAND FREE ENERGY PREDICTED BY IDOCK:   -0.13 KCAL/MOL
REMARK 927      BINDING AFFINITY PREDICTED BY RF-SCORE:    0.00 PKD
ROOT
HETATM    1  C   UNL     1      -8.371   9.266  70.498  1.00  0.00    -0.205 C  
HETATM    2  O   UNL     1      -9.473   9.061  69.607  1.00  0.00    -0.162 OA 
ENDROOT
BRANCH   2   3
HETATM    3  C   UNL     1      -9.282   9.587  68.347  1.00  0.00    -0.130 A  
HETATM    4  C   UNL     1      -9.417   8.708  67.246  1.00  0.00    -0.156 A  
HETATM    5  C   UNL     1      -9.327   9.239  65.953  1.00  0.00    -0.297 A  
HETATM    6  C   UNL     1      -8.797  11.421  66.854  1.00  0.00    -0.173 A  
HETATM    7  C   UNL     1      -9.022  10.592  65.756  1.00  0.00    -0.199 A  
HETATM    8  C   UNL     1      -8.927  10.924  68.146  1.00  0.00    -0.144 A  
BRANCH   4   9
HETATM    9  N   UNL     1      -9.599   7.328  67.470  1.00  0.00    -0.138 NA 
HETATM   10  H   UNL     1     -10.583   7.064  67.516  1.00  0.00     0.000 HD 
BRANCH   9  11
HETATM   11  C   UNL     1      -8.722   6.215  67.647  1.00  0.00    -0.105 A  
HETATM   12  C   UNL     1      -7.313   3.925  70.181  1.00  0.00    -0.042 A  
HETATM   13  C   UNL     1      -7.768   5.977  66.608  1.00  0.00    -0.103 A  
HETATM   14  C   UNL     1      -7.798   6.612  65.341  1.00  0.00    -0.111 A  
HETATM   15  C   UNL     1      -8.638   5.459  68.854  1.00  0.00    -0.099 A  
HETATM   16  C   UNL     1      -6.852   6.324  64.357  1.00  0.00    -0.042 A  
HETATM   17  C   UNL     1      -7.525   4.600  68.985  1.00  0.00    -0.056 A  
HETATM   18  C   UNL     1      -9.545   5.519  69.945  1.00  0.00    -0.217 A  
HETATM   19  C   UNL     1      -5.851   5.402  64.620  1.00  0.00    -0.021 A  
HETATM   20  C   UNL     1      -9.341   4.791  71.120  1.00  0.00    -0.206 A  
HETATM   21  C   UNL     1      -8.202   4.015  71.251  1.00  0.00    -0.076 A  
HETATM   22  C   UNL     1      -5.806   4.777  65.866  1.00  0.00    -0.022 A  
HETATM   23  C   UNL     1      -6.743   5.047  66.856  1.00  0.00    -0.055 A  
HETATM   24  N   UNL     1      -6.617   4.404  68.022  1.00  0.00    -0.042 NA 
ENDBRANCH   9  11
ENDBRANCH   4   9
BRANCH   6  25
HETATM   25  N   UNL     1      -8.372  12.775  66.696  1.00  0.00    -0.413 N  
HETATM   26  H   UNL     1      -7.386  13.032  66.739  1.00  0.00     0.000 HD 
BRANCH  25  27
HETATM   27  S   UNL     1      -9.574  13.935  66.435  1.00  0.00    -0.251 S  
HETATM   28  C   UNL     1     -10.875  13.329  67.500  1.00  0.00    -0.263 C  
HETATM   29  O   UNL     1     -10.003  13.745  65.067  1.00  0.00    -0.291 OA 
HETATM   30  O   UNL     1      -9.142  15.228  66.913  1.00  0.00    -0.209 OA 
ENDBRANCH  25  27
ENDBRANCH   6  25
ENDBRANCH   2   3
TORSDOF 5
ENDMDL
MODEL      214
REMARK 921   NORMALIZED FREE ENERGY PREDICTED BY IDOCK:    6.28 KCAL/MOL
REMARK 922        TOTAL FREE ENERGY PREDICTED BY IDOCK:    7.58 KCAL/MOL
REMARK 923 INTER-LIGAND FREE ENERGY PREDICTED BY IDOCK:    6.56 KCAL/MOL
REMARK 924 INTRA-LIGAND FREE ENERGY PREDICTED BY IDOCK:    1.02 KCAL/MOL
REMARK 927      BINDING AFFINITY PREDICTED BY RF-SCORE:    0.00 PKD
ROOT
HETATM    1  C   UNL     1     -10.331  15.432  71.316  1.00  0.00     0.782 C  
HETATM    2  O   UNL     1      -8.984  15.108  70.955  1.00  0.00     1.663 OA 
ENDROOT
BRANCH   2   3
HETATM    3  C   UNL     1      -8.874  14.371  69.795  1.00  0.00     0.765 A  
HETATM    4  C   UNL     1      -8.975  15.069  68.568  1.00  0.00    -0.186 A  
HETATM    5  C   UNL     1      -8.767  14.359  67.378  1.00  0.00    -0.214 A  
HETATM    6  C   UNL     1      -8.553  12.290  68.615  1.00  0.00     0.020 A  
HETATM    7  C   UNL     1      -8.553  12.974  67.400  1.00  0.00    -0.199 A  
HETATM    8  C   UNL     1      -8.712  12.983  69.810  1.00  0.00     2.364 A  
BRANCH   4   9
HETATM    9  N   UNL     1      -9.316  16.436  68.565  1.00  0.00    -0.217 NA 
HETATM   10  H   UNL     1     -10.012  16.669  69.273  1.00  0.00     0.000 HD 
BRANCH   9  11
HETATM   11  C   UNL     1      -8.910  17.571  67.798  1.00  0.00    -0.241 A  
HETATM   12  C   UNL     1     -10.168  20.590  66.080  1.00  0.00    -0.098 A  
HETATM   13  C   UNL     1      -7.635  17.490  67.155  1.00  0.00    -0.225 A  
HETATM   14  C   UNL     1      -6.675  16.481  67.419  1.00  0.00    -0.195 A  
HETATM   15  C   UNL     1      -9.765  18.676  67.510  1.00  0.00    -0.336 A  
HETATM   16  C   UNL     1      -5.437  16.464  66.776  1.00  0.00     0.194 A  
HETATM   17  C   UNL     1      -9.332  19.562  66.498  1.00  0.00    -0.370 A  
HETATM   18  C   UNL     1     -11.022  18.945  68.114  1.00  0.00     0.119 A  
HETATM   19  C   UNL     1      -5.135  17.449  65.848  1.00  0.00    -0.055 A  
HETATM   20  C   UNL     1     -11.823  20.016  67.714  1.00  0.00     2.086 A  
HETATM   21  C   UNL     1     -11.409  20.824  66.669  1.00  0.00     2.761 A  
HETATM   22  C   UNL     1      -6.075  18.441  65.574  1.00  0.00    -0.281 A  
HETATM   23  C   UNL     1      -7.311  18.477  66.209  1.00  0.00    -0.258 A  
HETATM   24  N   UNL     1      -8.151  19.463  65.877  1.00  0.00    -0.448 NA 
ENDBRANCH   9  11
ENDBRANCH   4   9
BRANCH   6  25
HETATM   25  N   UNL     1      -8.453  10.867  68.674  1.00  0.00    -0.146 N  
HETATM   26  H   UNL     1      -7.798  10.405  69.304  1.00  0.00     0.000 HD 
BRANCH  25  27
HETATM   27  S   UNL     1      -9.470   9.981  67.654  1.00  0.00    -0.145 S  
HETATM   28  C   UNL     1     -10.969  10.950  67.734  1.00  0.00    -0.283 C  
HETATM   29  O   UNL     1      -9.717   8.734  68.344  1.00  0.00    -0.155 OA 
HETATM   30  O   UNL     1      -8.970  10.001  66.299  1.00  0.00    -0.144 OA 
ENDBRANCH  25  27
ENDBRANCH   6  25
ENDBRANCH   2   3
TORSDOF 5
ENDMDL
MODEL      215
REMARK 921   NORMALIZED FREE ENERGY PREDICTED BY IDOCK:   12.10 KCAL/MOL
REMARK 922        TOTAL FREE ENERGY PREDICTED BY IDOCK:   15.10 KCAL/MOL
REMARK 923 INTER-LIGAND FREE ENERGY PREDICTED BY IDOCK:   13.56 KCAL/MOL
REMARK 924 INTRA-LIGAND FREE ENERGY PREDICTED BY IDOCK:    1.54 KCAL/MOL
REMARK 927      BINDING AFFINITY PREDICTED BY RF-SCORE:    0.00 PKD
ROOT
HETATM    1  C   UNL     1     -11.773  14.466  69.525  1.00  0.00    -0.313 C  
HETATM    2  O   UNL     1     -11.272  14.044  68.252  1.00  0.00    -0.247 OA 
ENDROOT
BRANCH   2   3
HETATM    3  C   UNL     1     -11.095  15.071  67.349  1.00  0.00    -0.324 A  
HETATM    4  C   UNL     1     -11.111  14.739  65.973  1.00  0.00    -0.330 A  
HETATM    5  C   UNL     1     -11.033  15.777  65.036  1.00  0.00    -0.431 A  
HETATM    6  C   UNL     1     -10.745  17.398  66.809  1.00  0.00    -0.100 A  
HETATM    7  C   UNL     1     -10.855  17.104  65.451  1.00  0.00    -0.051 A  
HETATM    8  C   UNL     1     -10.865  16.388  67.758  1.00  0.00    -0.306 A  
BRANCH   4   9
HETATM    9  N   UNL     1     -11.164  13.387  65.579  1.00  0.00    -0.287 NA 
HETATM   10  H   UNL     1     -12.118  13.063  65.415  1.00  0.00     0.000 HD 
BRANCH   9  11
HETATM   11  C   UNL     1     -10.191  12.367  65.355  1.00  0.00    -0.278 A  
HETATM   12  C   UNL     1      -9.696   9.014  63.883  1.00  0.00     1.691 A  
HETATM   13  C   UNL     1      -9.027  12.396  66.186  1.00  0.00     0.030 A  
HETATM   14  C   UNL     1      -8.678  13.481  67.028  1.00  0.00    -0.197 A  
HETATM   15  C   UNL     1     -10.399  11.252  64.489  1.00  0.00    -0.381 A  
HETATM   16  C   UNL     1      -7.518  13.464  67.801  1.00  0.00    -0.160 A  
HETATM   17  C   UNL     1      -9.485  10.181  64.607  1.00  0.00    -0.297 A  
HETATM   18  C   UNL     1     -11.456  11.104  63.552  1.00  0.00     0.242 A  
HETATM   19  C   UNL     1      -6.684  12.357  67.757  1.00  0.00    -0.115 A  
HETATM   20  C   UNL     1     -11.619   9.941  62.796  1.00  0.00     6.202 A  
HETATM   21  C   UNL     1     -10.753   8.878  62.986  1.00  0.00     7.852 A  
HETATM   22  C   UNL     1      -7.021  11.279  66.939  1.00  0.00    -0.137 A  
HETATM   23  C   UNL     1      -8.170  11.282  66.158  1.00  0.00    -0.088 A  
HETATM   24  N   UNL     1      -8.415  10.201  65.409  1.00  0.00    -0.149 NA 
ENDBRANCH   9  11
ENDBRANCH   4   9
BRANCH   6  25
HETATM   25  N   UNL     1     -10.449  18.717  67.270  1.00  0.00    -0.405 N  
HETATM   26  H   UNL     1     -10.700  19.022  68.210  1.00  0.00     0.000 HD 
BRANCH  25  27
HETATM   27  S   UNL     1      -9.663  19.751  66.188  1.00  0.00    -0.393 S  
HETATM   28  C   UNL     1     -10.303  21.339  66.701  1.00  0.00     2.226 C  
HETATM   29  O   UNL     1     -10.224  19.451  64.889  1.00  0.00     0.624 OA 
HETATM   30  O   UNL     1      -8.235  19.727  66.412  1.00  0.00    -0.317 OA 
ENDBRANCH  25  27
ENDBRANCH   6  25
ENDBRANCH   2   3
TORSDOF 5
ENDMDL
