MODEL        1
REMARK 921   NORMALIZED FREE ENERGY PREDICTED BY IDOCK:   -4.07 KCAL/MOL
REMARK 922        TOTAL FREE ENERGY PREDICTED BY IDOCK:   -5.39 KCAL/MOL
REMARK 923 INTER-LIGAND FREE ENERGY PREDICTED BY IDOCK:   -5.26 KCAL/MOL
REMARK 924 INTRA-LIGAND FREE ENERGY PREDICTED BY IDOCK:   -0.13 KCAL/MOL
REMARK 927      BINDING AFFINITY PREDICTED BY RF-SCORE:    0.00 PKD
ROOT
HETATM    1  C   UNL     1      -9.964  10.713  65.336  1.00  0.00    -0.343 C  
HETATM    2  C   UNL     1     -10.060  11.262  63.920  1.00  0.00    -0.392 C  
ENDROOT
BRANCH   2   3
HETATM    3  C   UNL     1     -11.218  12.249  63.777  1.00  0.00    -0.510 C  
BRANCH   3   4
HETATM    4  C   UNL     1     -11.745  12.686  65.142  1.00  0.00    -0.407 C  
BRANCH   4   5
HETATM    5  C   UNL     1     -12.193  14.144  65.136  1.00  0.00    -0.433 C  
BRANCH   5   6
HETATM    6  O   UNL     1     -12.436  14.527  63.783  1.00  0.00    -0.809 OA 
BRANCH   6   7
HETATM    7  N   UNL     1     -12.459  15.916  63.706  1.00  0.00    -0.854 NA 
HETATM    8  O   UNL     1     -11.333  16.387  63.893  1.00  0.00    -1.510 OA 
HETATM    9  H   UNL     1     -13.146  16.317  64.344  1.00  0.00     0.000 HD 
HETATM   10  H   UNL     1     -11.349  17.335  63.841  1.00  0.00     0.000 HD 
ENDBRANCH   6   7
ENDBRANCH   5   6
ENDBRANCH   4   5
ENDBRANCH   3   4
ENDBRANCH   2   3
TORSDOF 5
ENDMDL
MODEL        2
REMARK 921   NORMALIZED FREE ENERGY PREDICTED BY IDOCK:   -4.04 KCAL/MOL
REMARK 922        TOTAL FREE ENERGY PREDICTED BY IDOCK:   -5.35 KCAL/MOL
REMARK 923 INTER-LIGAND FREE ENERGY PREDICTED BY IDOCK:   -5.21 KCAL/MOL
REMARK 924 INTRA-LIGAND FREE ENERGY PREDICTED BY IDOCK:   -0.14 KCAL/MOL
REMARK 927      BINDING AFFINITY PREDICTED BY RF-SCORE:    0.00 PKD
ROOT
HETATM    1  C   UNL     1      -9.837  11.350  63.158  1.00  0.00    -0.413 C  
HETATM    2  C   UNL     1     -10.831  12.389  63.654  1.00  0.00    -0.509 C  
ENDROOT
BRANCH   2   3
HETATM    3  C   UNL     1     -10.847  12.467  65.180  1.00  0.00    -0.323 C  
BRANCH   3   4
HETATM    4  C   UNL     1     -10.267  13.791  65.673  1.00  0.00    -0.326 C  
BRANCH   4   5
HETATM    5  C   UNL     1     -11.259  14.939  65.513  1.00  0.00    -0.348 C  
BRANCH   5   6
HETATM    6  O   UNL     1     -10.575  16.034  64.906  1.00  0.00    -0.587 OA 
BRANCH   6   7
HETATM    7  N   UNL     1     -11.447  16.687  64.042  1.00  0.00    -1.551 NA 
HETATM    8  O   UNL     1     -12.285  15.902  63.586  1.00  0.00    -1.156 OA 
HETATM    9  H   UNL     1     -10.947  17.177  63.301  1.00  0.00     0.000 HD 
HETATM   10  H   UNL     1     -12.880  16.348  62.995  1.00  0.00     0.000 HD 
ENDBRANCH   6   7
ENDBRANCH   5   6
ENDBRANCH   4   5
ENDBRANCH   3   4
ENDBRANCH   2   3
TORSDOF 5
ENDMDL
MODEL        3
REMARK 921   NORMALIZED FREE ENERGY PREDICTED BY IDOCK:   -4.03 KCAL/MOL
REMARK 922        TOTAL FREE ENERGY PREDICTED BY IDOCK:   -5.34 KCAL/MOL
REMARK 923 INTER-LIGAND FREE ENERGY PREDICTED BY IDOCK:   -5.24 KCAL/MOL
REMARK 924 INTRA-LIGAND FREE ENERGY PREDICTED BY IDOCK:   -0.09 KCAL/MOL
REMARK 927      BINDING AFFINITY PREDICTED BY RF-SCORE:    0.00 PKD
ROOT
HETATM    1  C   UNL     1     -12.170  12.850  65.432  1.00  0.00    -0.528 C  
HETATM    2  C   UNL     1     -11.821  13.843  66.530  1.00  0.00    -0.440 C  
ENDROOT
BRANCH   2   3
HETATM    3  C   UNL     1     -10.331  14.183  66.526  1.00  0.00    -0.284 C  
BRANCH   3   4
HETATM    4  C   UNL     1      -9.992  15.178  65.419  1.00  0.00    -0.365 C  
BRANCH   4   5
HETATM    5  C   UNL     1     -10.212  16.620  65.867  1.00  0.00    -0.340 C  
BRANCH   5   6
HETATM    6  O   UNL     1     -10.890  17.311  64.819  1.00  0.00    -0.863 OA 
BRANCH   6   7
HETATM    7  N   UNL     1     -11.296  16.388  63.860  1.00  0.00    -1.535 NA 
HETATM    8  O   UNL     1     -12.528  16.312  63.816  1.00  0.00    -0.890 OA 
HETATM    9  H   UNL     1     -10.868  15.475  64.011  1.00  0.00     0.000 HD 
HETATM   10  H   UNL     1     -12.805  15.681  63.162  1.00  0.00     0.000 HD 
ENDBRANCH   6   7
ENDBRANCH   5   6
ENDBRANCH   4   5
ENDBRANCH   3   4
ENDBRANCH   2   3
TORSDOF 5
ENDMDL
MODEL        4
REMARK 921   NORMALIZED FREE ENERGY PREDICTED BY IDOCK:   -3.97 KCAL/MOL
REMARK 922        TOTAL FREE ENERGY PREDICTED BY IDOCK:   -5.25 KCAL/MOL
REMARK 923 INTER-LIGAND FREE ENERGY PREDICTED BY IDOCK:   -5.10 KCAL/MOL
REMARK 924 INTRA-LIGAND FREE ENERGY PREDICTED BY IDOCK:   -0.15 KCAL/MOL
REMARK 927      BINDING AFFINITY PREDICTED BY RF-SCORE:    0.00 PKD
ROOT
HETATM    1  C   UNL     1      -9.628  20.391  67.287  1.00  0.00    -0.592 C  
HETATM    2  C   UNL     1     -10.046  19.372  68.335  1.00  0.00    -0.538 C  
ENDROOT
BRANCH   2   3
HETATM    3  C   UNL     1     -10.693  18.143  67.697  1.00  0.00    -0.364 C  
BRANCH   3   4
HETATM    4  C   UNL     1      -9.720  16.967  67.647  1.00  0.00    -0.257 C  
BRANCH   4   5
HETATM    5  C   UNL     1      -9.371  16.583  66.212  1.00  0.00    -0.302 C  
BRANCH   5   6
HETATM    6  O   UNL     1     -10.391  17.091  65.356  1.00  0.00    -0.617 OA 
BRANCH   6   7
HETATM    7  N   UNL     1     -10.864  16.056  64.556  1.00  0.00    -0.883 NA 
HETATM    8  O   UNL     1     -11.746  16.459  63.790  1.00  0.00    -1.553 OA 
HETATM    9  H   UNL     1     -11.182  15.264  65.113  1.00  0.00     0.000 HD 
HETATM   10  H   UNL     1     -12.069  15.752  63.244  1.00  0.00     0.000 HD 
ENDBRANCH   6   7
ENDBRANCH   5   6
ENDBRANCH   4   5
ENDBRANCH   3   4
ENDBRANCH   2   3
TORSDOF 5
ENDMDL
MODEL        5
REMARK 921   NORMALIZED FREE ENERGY PREDICTED BY IDOCK:   -3.91 KCAL/MOL
REMARK 922        TOTAL FREE ENERGY PREDICTED BY IDOCK:   -5.18 KCAL/MOL
REMARK 923 INTER-LIGAND FREE ENERGY PREDICTED BY IDOCK:   -5.13 KCAL/MOL
REMARK 924 INTRA-LIGAND FREE ENERGY PREDICTED BY IDOCK:   -0.05 KCAL/MOL
REMARK 927      BINDING AFFINITY PREDICTED BY RF-SCORE:    0.00 PKD
ROOT
HETATM    1  C   UNL     1     -11.776  11.112  69.961  1.00  0.00    -0.438 C  
HETATM    2  C   UNL     1     -11.475  12.366  69.154  1.00  0.00    -0.358 C  
ENDROOT
BRANCH   2   3
HETATM    3  C   UNL     1     -11.657  12.128  67.656  1.00  0.00    -0.413 C  
BRANCH   3   4
HETATM    4  C   UNL     1     -11.904  13.438  66.912  1.00  0.00    -0.453 C  
BRANCH   4   5
HETATM    5  C   UNL     1     -12.379  13.198  65.482  1.00  0.00    -0.474 C  
BRANCH   5   6
HETATM    6  O   UNL     1     -13.000  14.393  65.015  1.00  0.00    -0.643 OA 
BRANCH   6   7
HETATM    7  N   UNL     1     -12.404  14.772  63.817  1.00  0.00    -1.082 NA 
HETATM    8  O   UNL     1     -12.209  15.992  63.788  1.00  0.00    -1.269 OA 
HETATM    9  H   UNL     1     -12.944  14.458  63.011  1.00  0.00     0.000 HD 
HETATM   10  H   UNL     1     -11.802  16.250  62.970  1.00  0.00     0.000 HD 
ENDBRANCH   6   7
ENDBRANCH   5   6
ENDBRANCH   4   5
ENDBRANCH   3   4
ENDBRANCH   2   3
TORSDOF 5
ENDMDL
MODEL        6
REMARK 921   NORMALIZED FREE ENERGY PREDICTED BY IDOCK:   -3.87 KCAL/MOL
REMARK 922        TOTAL FREE ENERGY PREDICTED BY IDOCK:   -5.13 KCAL/MOL
REMARK 923 INTER-LIGAND FREE ENERGY PREDICTED BY IDOCK:   -5.01 KCAL/MOL
REMARK 924 INTRA-LIGAND FREE ENERGY PREDICTED BY IDOCK:   -0.12 KCAL/MOL
REMARK 927      BINDING AFFINITY PREDICTED BY RF-SCORE:    0.00 PKD
ROOT
HETATM    1  C   UNL     1     -11.903  13.117  69.261  1.00  0.00    -0.377 C  
HETATM    2  C   UNL     1     -11.548  14.485  68.699  1.00  0.00    -0.346 C  
ENDROOT
BRANCH   2   3
HETATM    3  C   UNL     1     -11.738  14.536  67.184  1.00  0.00    -0.420 C  
BRANCH   3   4
HETATM    4  C   UNL     1     -11.895  13.135  66.597  1.00  0.00    -0.449 C  
BRANCH   4   5
HETATM    5  C   UNL     1     -12.614  13.161  65.252  1.00  0.00    -0.472 C  
BRANCH   5   6
HETATM    6  O   UNL     1     -12.977  14.511  64.970  1.00  0.00    -0.564 OA 
BRANCH   6   7
HETATM    7  N   UNL     1     -12.465  14.865  63.726  1.00  0.00    -1.062 NA 
HETATM    8  O   UNL     1     -12.114  16.049  63.714  1.00  0.00    -1.318 OA 
HETATM    9  H   UNL     1     -13.124  14.660  62.975  1.00  0.00     0.000 HD 
HETATM   10  H   UNL     1     -11.765  16.290  62.864  1.00  0.00     0.000 HD 
ENDBRANCH   6   7
ENDBRANCH   5   6
ENDBRANCH   4   5
ENDBRANCH   3   4
ENDBRANCH   2   3
TORSDOF 5
ENDMDL
MODEL        7
REMARK 921   NORMALIZED FREE ENERGY PREDICTED BY IDOCK:   -3.82 KCAL/MOL
REMARK 922        TOTAL FREE ENERGY PREDICTED BY IDOCK:   -5.07 KCAL/MOL
REMARK 923 INTER-LIGAND FREE ENERGY PREDICTED BY IDOCK:   -4.96 KCAL/MOL
REMARK 924 INTRA-LIGAND FREE ENERGY PREDICTED BY IDOCK:   -0.11 KCAL/MOL
REMARK 927      BINDING AFFINITY PREDICTED BY RF-SCORE:    0.00 PKD
ROOT
HETATM    1  C   UNL     1     -10.264  15.341  67.128  1.00  0.00    -0.252 C  
HETATM    2  C   UNL     1     -11.586  14.615  67.326  1.00  0.00    -0.404 C  
ENDROOT
BRANCH   2   3
HETATM    3  C   UNL     1     -11.604  13.272  66.597  1.00  0.00    -0.408 C  
BRANCH   3   4
HETATM    4  C   UNL     1     -12.535  13.311  65.387  1.00  0.00    -0.543 C  
BRANCH   4   5
HETATM    5  C   UNL     1     -11.916  14.074  64.220  1.00  0.00    -0.435 C  
BRANCH   5   6
HETATM    6  O   UNL     1     -12.577  15.334  64.114  1.00  0.00    -0.681 OA 
BRANCH   6   7
HETATM    7  N   UNL     1     -11.649  16.299  63.737  1.00  0.00    -1.482 NA 
HETATM    8  O   UNL     1     -11.480  17.125  64.640  1.00  0.00    -0.754 OA 
HETATM    9  H   UNL     1     -11.908  16.748  62.860  1.00  0.00     0.000 HD 
HETATM   10  H   UNL     1     -10.847  17.784  64.383  1.00  0.00     0.000 HD 
ENDBRANCH   6   7
ENDBRANCH   5   6
ENDBRANCH   4   5
ENDBRANCH   3   4
ENDBRANCH   2   3
TORSDOF 5
ENDMDL
MODEL        8
REMARK 921   NORMALIZED FREE ENERGY PREDICTED BY IDOCK:   -3.71 KCAL/MOL
REMARK 922        TOTAL FREE ENERGY PREDICTED BY IDOCK:   -4.92 KCAL/MOL
REMARK 923 INTER-LIGAND FREE ENERGY PREDICTED BY IDOCK:   -4.77 KCAL/MOL
REMARK 924 INTRA-LIGAND FREE ENERGY PREDICTED BY IDOCK:   -0.15 KCAL/MOL
REMARK 927      BINDING AFFINITY PREDICTED BY RF-SCORE:    0.00 PKD
ROOT
HETATM    1  C   UNL     1     -11.141  11.198  67.146  1.00  0.00    -0.352 C  
HETATM    2  C   UNL     1     -11.326  12.513  67.887  1.00  0.00    -0.343 C  
ENDROOT
BRANCH   2   3
HETATM    3  C   UNL     1     -12.162  13.502  67.075  1.00  0.00    -0.351 C  
BRANCH   3   4
HETATM    4  C   UNL     1     -12.229  13.095  65.604  1.00  0.00    -0.521 C  
BRANCH   4   5
HETATM    5  C   UNL     1     -11.921  14.267  64.677  1.00  0.00    -0.455 C  
BRANCH   5   6
HETATM    6  O   UNL     1     -10.877  15.037  65.269  1.00  0.00    -0.334 OA 
BRANCH   6   7
HETATM    7  N   UNL     1     -10.850  16.293  64.672  1.00  0.00    -0.860 NA 
HETATM    8  O   UNL     1     -11.677  16.364  63.757  1.00  0.00    -1.553 OA 
HETATM    9  H   UNL     1      -9.914  16.539  64.353  1.00  0.00     0.000 HD 
HETATM   10  H   UNL     1     -11.659  17.222  63.350  1.00  0.00     0.000 HD 
ENDBRANCH   6   7
ENDBRANCH   5   6
ENDBRANCH   4   5
ENDBRANCH   3   4
ENDBRANCH   2   3
TORSDOF 5
ENDMDL
MODEL        9
REMARK 921   NORMALIZED FREE ENERGY PREDICTED BY IDOCK:   -3.63 KCAL/MOL
REMARK 922        TOTAL FREE ENERGY PREDICTED BY IDOCK:   -4.81 KCAL/MOL
REMARK 923 INTER-LIGAND FREE ENERGY PREDICTED BY IDOCK:   -4.70 KCAL/MOL
REMARK 924 INTRA-LIGAND FREE ENERGY PREDICTED BY IDOCK:   -0.11 KCAL/MOL
REMARK 927      BINDING AFFINITY PREDICTED BY RF-SCORE:    0.00 PKD
ROOT
HETATM    1  C   UNL     1      -9.325  11.258  66.220  1.00  0.00    -0.226 C  
HETATM    2  C   UNL     1      -9.129  10.932  64.747  1.00  0.00    -0.197 C  
ENDROOT
BRANCH   2   3
HETATM    3  C   UNL     1     -10.377  11.261  63.929  1.00  0.00    -0.439 C  
BRANCH   3   4
HETATM    4  C   UNL     1     -10.855  12.686  64.195  1.00  0.00    -0.431 C  
BRANCH   4   5
HETATM    5  C   UNL     1     -12.368  12.814  64.045  1.00  0.00    -0.411 C  
BRANCH   5   6
HETATM    6  O   UNL     1     -12.652  14.102  63.503  1.00  0.00    -0.834 OA 
BRANCH   6   7
HETATM    7  N   UNL     1     -11.706  15.007  63.973  1.00  0.00    -0.789 NA 
HETATM    8  O   UNL     1     -11.992  16.160  63.633  1.00  0.00    -1.375 OA 
HETATM    9  H   UNL     1     -10.763  14.752  63.682  1.00  0.00     0.000 HD 
HETATM   10  H   UNL     1     -11.346  16.777  63.954  1.00  0.00     0.000 HD 
ENDBRANCH   6   7
ENDBRANCH   5   6
ENDBRANCH   4   5
ENDBRANCH   3   4
ENDBRANCH   2   3
TORSDOF 5
ENDMDL
MODEL       10
REMARK 921   NORMALIZED FREE ENERGY PREDICTED BY IDOCK:   -3.52 KCAL/MOL
REMARK 922        TOTAL FREE ENERGY PREDICTED BY IDOCK:   -4.67 KCAL/MOL
REMARK 923 INTER-LIGAND FREE ENERGY PREDICTED BY IDOCK:   -4.50 KCAL/MOL
REMARK 924 INTRA-LIGAND FREE ENERGY PREDICTED BY IDOCK:   -0.18 KCAL/MOL
REMARK 927      BINDING AFFINITY PREDICTED BY RF-SCORE:    0.00 PKD
ROOT
HETATM    1  C   UNL     1      -9.338  12.524  66.646  1.00  0.00    -0.236 C  
HETATM    2  C   UNL     1     -10.360  13.617  66.368  1.00  0.00    -0.286 C  
ENDROOT
BRANCH   2   3
HETATM    3  C   UNL     1     -11.786  13.127  66.614  1.00  0.00    -0.449 C  
BRANCH   3   4
HETATM    4  C   UNL     1     -12.783  13.846  65.708  1.00  0.00    -0.503 C  
BRANCH   4   5
HETATM    5  C   UNL     1     -12.101  14.458  64.489  1.00  0.00    -0.481 C  
BRANCH   5   6
HETATM    6  O   UNL     1     -12.611  13.811  63.324  1.00  0.00    -0.830 OA 
BRANCH   6   7
HETATM    7  N   UNL     1     -11.834  12.689  63.056  1.00  0.00    -0.738 NA 
HETATM    8  O   UNL     1     -12.531  11.670  63.017  1.00  0.00    -0.972 OA 
HETATM    9  H   UNL     1     -11.066  12.595  63.720  1.00  0.00     0.000 HD 
HETATM   10  H   UNL     1     -12.000  10.904  62.834  1.00  0.00     0.000 HD 
ENDBRANCH   6   7
ENDBRANCH   5   6
ENDBRANCH   4   5
ENDBRANCH   3   4
ENDBRANCH   2   3
TORSDOF 5
ENDMDL
MODEL       11
REMARK 921   NORMALIZED FREE ENERGY PREDICTED BY IDOCK:   -3.51 KCAL/MOL
REMARK 922        TOTAL FREE ENERGY PREDICTED BY IDOCK:   -4.67 KCAL/MOL
REMARK 923 INTER-LIGAND FREE ENERGY PREDICTED BY IDOCK:   -4.55 KCAL/MOL
REMARK 924 INTRA-LIGAND FREE ENERGY PREDICTED BY IDOCK:   -0.12 KCAL/MOL
REMARK 927      BINDING AFFINITY PREDICTED BY RF-SCORE:    0.00 PKD
ROOT
HETATM    1  C   UNL     1      -7.165  15.038  67.454  1.00  0.00    -0.224 C  
HETATM    2  C   UNL     1      -7.749  16.246  66.739  1.00  0.00    -0.295 C  
ENDROOT
BRANCH   2   3
HETATM    3  C   UNL     1      -8.934  16.834  67.505  1.00  0.00    -0.208 C  
BRANCH   3   4
HETATM    4  C   UNL     1     -10.227  16.719  66.700  1.00  0.00    -0.310 C  
BRANCH   4   5
HETATM    5  C   UNL     1     -10.642  18.059  66.100  1.00  0.00    -0.261 C  
BRANCH   5   6
HETATM    6  O   UNL     1     -11.029  17.837  64.746  1.00  0.00    -0.855 OA 
BRANCH   6   7
HETATM    7  N   UNL     1     -11.214  16.473  64.548  1.00  0.00    -1.035 NA 
HETATM    8  O   UNL     1     -12.027  16.265  63.642  1.00  0.00    -1.356 OA 
HETATM    9  H   UNL     1     -11.483  16.000  65.411  1.00  0.00     0.000 HD 
HETATM   10  H   UNL     1     -12.154  15.333  63.507  1.00  0.00     0.000 HD 
ENDBRANCH   6   7
ENDBRANCH   5   6
ENDBRANCH   4   5
ENDBRANCH   3   4
ENDBRANCH   2   3
TORSDOF 5
ENDMDL
MODEL       12
REMARK 921   NORMALIZED FREE ENERGY PREDICTED BY IDOCK:   -3.45 KCAL/MOL
REMARK 922        TOTAL FREE ENERGY PREDICTED BY IDOCK:   -4.59 KCAL/MOL
REMARK 923 INTER-LIGAND FREE ENERGY PREDICTED BY IDOCK:   -4.52 KCAL/MOL
REMARK 924 INTRA-LIGAND FREE ENERGY PREDICTED BY IDOCK:   -0.07 KCAL/MOL
REMARK 927      BINDING AFFINITY PREDICTED BY RF-SCORE:    0.00 PKD
ROOT
HETATM    1  C   UNL     1     -11.835  12.071  69.229  1.00  0.00    -0.377 C  
HETATM    2  C   UNL     1     -11.792  13.592  69.264  1.00  0.00    -0.392 C  
ENDROOT
BRANCH   2   3
HETATM    3  C   UNL     1     -11.859  14.187  67.858  1.00  0.00    -0.405 C  
BRANCH   3   4
HETATM    4  C   UNL     1     -11.846  13.094  66.792  1.00  0.00    -0.444 C  
BRANCH   4   5
HETATM    5  C   UNL     1     -12.373  13.602  65.453  1.00  0.00    -0.476 C  
BRANCH   5   6
HETATM    6  O   UNL     1     -12.856  12.482  64.714  1.00  0.00    -0.755 OA 
BRANCH   6   7
HETATM    7  N   UNL     1     -12.425  12.592  63.396  1.00  0.00    -0.751 NA 
HETATM    8  O   UNL     1     -11.958  11.521  62.995  1.00  0.00    -0.917 OA 
HETATM    9  H   UNL     1     -11.762  13.358  63.280  1.00  0.00     0.000 HD 
HETATM   10  H   UNL     1     -11.663  11.596  62.095  1.00  0.00     0.000 HD 
ENDBRANCH   6   7
ENDBRANCH   5   6
ENDBRANCH   4   5
ENDBRANCH   3   4
ENDBRANCH   2   3
TORSDOF 5
ENDMDL
MODEL       13
REMARK 921   NORMALIZED FREE ENERGY PREDICTED BY IDOCK:   -3.45 KCAL/MOL
REMARK 922        TOTAL FREE ENERGY PREDICTED BY IDOCK:   -4.58 KCAL/MOL
REMARK 923 INTER-LIGAND FREE ENERGY PREDICTED BY IDOCK:   -4.40 KCAL/MOL
REMARK 924 INTRA-LIGAND FREE ENERGY PREDICTED BY IDOCK:   -0.18 KCAL/MOL
REMARK 927      BINDING AFFINITY PREDICTED BY RF-SCORE:    0.00 PKD
ROOT
HETATM    1  C   UNL     1     -12.964  10.746  71.867  1.00  0.00    -0.524 C  
HETATM    2  C   UNL     1     -12.892  12.200  71.424  1.00  0.00    -0.378 C  
ENDROOT
BRANCH   2   3
HETATM    3  C   UNL     1     -13.860  13.077  72.217  1.00  0.00    -0.529 C  
BRANCH   3   4
HETATM    4  C   UNL     1     -13.129  14.228  72.905  1.00  0.00    -0.589 C  
BRANCH   4   5
HETATM    5  C   UNL     1     -13.676  15.585  72.475  1.00  0.00    -0.574 C  
BRANCH   5   6
HETATM    6  O   UNL     1     -14.050  15.497  71.101  1.00  0.00    -0.537 OA 
BRANCH   6   7
HETATM    7  N   UNL     1     -12.980  15.913  70.315  1.00  0.00    -0.693 NA 
HETATM    8  O   UNL     1     -12.768  15.112  69.400  1.00  0.00    -0.577 OA 
HETATM    9  H   UNL     1     -12.144  16.076  70.874  1.00  0.00     0.000 HD 
HETATM   10  H   UNL     1     -12.038  15.396  68.863  1.00  0.00     0.000 HD 
ENDBRANCH   6   7
ENDBRANCH   5   6
ENDBRANCH   4   5
ENDBRANCH   3   4
ENDBRANCH   2   3
TORSDOF 5
ENDMDL
MODEL       14
REMARK 921   NORMALIZED FREE ENERGY PREDICTED BY IDOCK:   -3.44 KCAL/MOL
REMARK 922        TOTAL FREE ENERGY PREDICTED BY IDOCK:   -4.58 KCAL/MOL
REMARK 923 INTER-LIGAND FREE ENERGY PREDICTED BY IDOCK:   -4.47 KCAL/MOL
REMARK 924 INTRA-LIGAND FREE ENERGY PREDICTED BY IDOCK:   -0.11 KCAL/MOL
REMARK 927      BINDING AFFINITY PREDICTED BY RF-SCORE:    0.00 PKD
ROOT
HETATM    1  C   UNL     1     -11.905  14.552  70.236  1.00  0.00    -0.373 C  
HETATM    2  C   UNL     1     -11.361  15.732  69.445  1.00  0.00    -0.348 C  
ENDROOT
BRANCH   2   3
HETATM    3  C   UNL     1     -11.437  15.481  67.939  1.00  0.00    -0.276 C  
BRANCH   3   4
HETATM    4  C   UNL     1     -10.659  16.540  67.161  1.00  0.00    -0.270 C  
BRANCH   4   5
HETATM    5  C   UNL     1     -10.494  16.157  65.694  1.00  0.00    -0.383 C  
BRANCH   5   6
HETATM    6  O   UNL     1     -11.374  15.069  65.418  1.00  0.00    -0.347 OA 
BRANCH   6   7
HETATM    7  N   UNL     1     -12.005  15.299  64.200  1.00  0.00    -0.864 NA 
HETATM    8  O   UNL     1     -11.644  16.375  63.712  1.00  0.00    -1.605 OA 
HETATM    9  H   UNL     1     -13.019  15.245  64.285  1.00  0.00     0.000 HD 
HETATM   10  H   UNL     1     -12.075  16.532  62.881  1.00  0.00     0.000 HD 
ENDBRANCH   6   7
ENDBRANCH   5   6
ENDBRANCH   4   5
ENDBRANCH   3   4
ENDBRANCH   2   3
TORSDOF 5
ENDMDL
MODEL       15
REMARK 921   NORMALIZED FREE ENERGY PREDICTED BY IDOCK:   -3.42 KCAL/MOL
REMARK 922        TOTAL FREE ENERGY PREDICTED BY IDOCK:   -4.55 KCAL/MOL
REMARK 923 INTER-LIGAND FREE ENERGY PREDICTED BY IDOCK:   -4.51 KCAL/MOL
REMARK 924 INTRA-LIGAND FREE ENERGY PREDICTED BY IDOCK:   -0.04 KCAL/MOL
REMARK 927      BINDING AFFINITY PREDICTED BY RF-SCORE:    0.00 PKD
ROOT
HETATM    1  C   UNL     1      -6.800  20.018  68.136  1.00  0.00    -0.329 C  
HETATM    2  C   UNL     1      -8.059  19.202  67.886  1.00  0.00    -0.323 C  
ENDROOT
BRANCH   2   3
HETATM    3  C   UNL     1      -9.195  20.072  67.349  1.00  0.00    -0.477 C  
BRANCH   3   4
HETATM    4  C   UNL     1      -9.657  19.594  65.974  1.00  0.00    -0.389 C  
BRANCH   4   5
HETATM    5  C   UNL     1     -10.718  18.503  66.080  1.00  0.00    -0.201 C  
BRANCH   5   6
HETATM    6  O   UNL     1     -10.981  18.012  64.767  1.00  0.00    -0.706 OA 
BRANCH   6   7
HETATM    7  N   UNL     1     -10.896  16.624  64.781  1.00  0.00    -0.760 NA 
HETATM    8  O   UNL     1     -11.445  16.139  63.786  1.00  0.00    -1.323 OA 
HETATM    9  H   UNL     1     -11.269  16.232  65.645  1.00  0.00     0.000 HD 
HETATM   10  H   UNL     1     -11.387  15.191  63.795  1.00  0.00     0.000 HD 
ENDBRANCH   6   7
ENDBRANCH   5   6
ENDBRANCH   4   5
ENDBRANCH   3   4
ENDBRANCH   2   3
TORSDOF 5
ENDMDL
MODEL       16
REMARK 921   NORMALIZED FREE ENERGY PREDICTED BY IDOCK:   -3.42 KCAL/MOL
REMARK 922        TOTAL FREE ENERGY PREDICTED BY IDOCK:   -4.55 KCAL/MOL
REMARK 923 INTER-LIGAND FREE ENERGY PREDICTED BY IDOCK:   -4.48 KCAL/MOL
REMARK 924 INTRA-LIGAND FREE ENERGY PREDICTED BY IDOCK:   -0.06 KCAL/MOL
REMARK 927      BINDING AFFINITY PREDICTED BY RF-SCORE:    0.00 PKD
ROOT
HETATM    1  C   UNL     1     -12.334  14.996  70.178  1.00  0.00    -0.380 C  
HETATM    2  C   UNL     1     -11.775  15.232  68.783  1.00  0.00    -0.374 C  
ENDROOT
BRANCH   2   3
HETATM    3  C   UNL     1     -11.933  13.996  67.898  1.00  0.00    -0.387 C  
BRANCH   3   4
HETATM    4  C   UNL     1     -11.577  14.304  66.446  1.00  0.00    -0.381 C  
BRANCH   4   5
HETATM    5  C   UNL     1     -12.395  13.464  65.471  1.00  0.00    -0.480 C  
BRANCH   5   6
HETATM    6  O   UNL     1     -12.883  14.326  64.444  1.00  0.00    -0.619 OA 
BRANCH   6   7
HETATM    7  N   UNL     1     -12.370  13.904  63.221  1.00  0.00    -1.148 NA 
HETATM    8  O   UNL     1     -12.429  12.674  63.119  1.00  0.00    -0.713 OA 
HETATM    9  H   UNL     1     -11.423  14.250  63.071  1.00  0.00     0.000 HD 
HETATM   10  H   UNL     1     -12.079  12.387  62.285  1.00  0.00     0.000 HD 
ENDBRANCH   6   7
ENDBRANCH   5   6
ENDBRANCH   4   5
ENDBRANCH   3   4
ENDBRANCH   2   3
TORSDOF 5
ENDMDL
MODEL       17
REMARK 921   NORMALIZED FREE ENERGY PREDICTED BY IDOCK:   -3.41 KCAL/MOL
REMARK 922        TOTAL FREE ENERGY PREDICTED BY IDOCK:   -4.54 KCAL/MOL
REMARK 923 INTER-LIGAND FREE ENERGY PREDICTED BY IDOCK:   -4.44 KCAL/MOL
REMARK 924 INTRA-LIGAND FREE ENERGY PREDICTED BY IDOCK:   -0.10 KCAL/MOL
REMARK 927      BINDING AFFINITY PREDICTED BY RF-SCORE:    0.00 PKD
ROOT
HETATM    1  C   UNL     1     -10.448  19.510  67.324  1.00  0.00    -0.590 C  
HETATM    2  C   UNL     1     -10.341  18.494  66.198  1.00  0.00    -0.457 C  
ENDROOT
BRANCH   2   3
HETATM    3  C   UNL     1     -10.398  17.061  66.726  1.00  0.00    -0.302 C  
BRANCH   3   4
HETATM    4  C   UNL     1     -10.732  16.072  65.612  1.00  0.00    -0.341 C  
BRANCH   4   5
HETATM    5  C   UNL     1     -11.366  14.797  66.157  1.00  0.00    -0.330 C  
BRANCH   5   6
HETATM    6  O   UNL     1     -12.382  14.383  65.246  1.00  0.00    -0.404 OA 
BRANCH   6   7
HETATM    7  N   UNL     1     -12.130  14.950  64.002  1.00  0.00    -0.895 NA 
HETATM    8  O   UNL     1     -12.344  14.139  63.096  1.00  0.00    -1.125 OA 
HETATM    9  H   UNL     1     -11.187  15.335  63.947  1.00  0.00     0.000 HD 
HETATM   10  H   UNL     1     -12.172  14.526  62.246  1.00  0.00     0.000 HD 
ENDBRANCH   6   7
ENDBRANCH   5   6
ENDBRANCH   4   5
ENDBRANCH   3   4
ENDBRANCH   2   3
TORSDOF 5
ENDMDL
MODEL       18
REMARK 921   NORMALIZED FREE ENERGY PREDICTED BY IDOCK:   -3.41 KCAL/MOL
REMARK 922        TOTAL FREE ENERGY PREDICTED BY IDOCK:   -4.54 KCAL/MOL
REMARK 923 INTER-LIGAND FREE ENERGY PREDICTED BY IDOCK:   -4.44 KCAL/MOL
REMARK 924 INTRA-LIGAND FREE ENERGY PREDICTED BY IDOCK:   -0.10 KCAL/MOL
REMARK 927      BINDING AFFINITY PREDICTED BY RF-SCORE:    0.00 PKD
ROOT
HETATM    1  C   UNL     1     -12.145  15.921  72.366  1.00  0.00    -0.605 C  
HETATM    2  C   UNL     1     -13.391  15.343  73.020  1.00  0.00    -0.632 C  
ENDROOT
BRANCH   2   3
HETATM    3  C   UNL     1     -13.697  13.939  72.502  1.00  0.00    -0.665 C  
BRANCH   3   4
HETATM    4  C   UNL     1     -12.699  13.514  71.427  1.00  0.00    -0.423 C  
BRANCH   4   5
HETATM    5  C   UNL     1     -12.702  12.004  71.215  1.00  0.00    -0.279 C  
BRANCH   5   6
HETATM    6  O   UNL     1     -13.514  11.416  72.230  1.00  0.00    -0.351 OA 
BRANCH   6   7
HETATM    7  N   UNL     1     -13.319  10.038  72.221  1.00  0.00    -0.593 NA 
HETATM    8  O   UNL     1     -14.224   9.462  72.833  1.00  0.00    -0.889 OA 
HETATM    9  H   UNL     1     -12.400   9.785  72.581  1.00  0.00     0.000 HD 
HETATM   10  H   UNL     1     -14.091   8.521  72.827  1.00  0.00     0.000 HD 
ENDBRANCH   6   7
ENDBRANCH   5   6
ENDBRANCH   4   5
ENDBRANCH   3   4
ENDBRANCH   2   3
TORSDOF 5
ENDMDL
MODEL       19
REMARK 921   NORMALIZED FREE ENERGY PREDICTED BY IDOCK:   -3.39 KCAL/MOL
REMARK 922        TOTAL FREE ENERGY PREDICTED BY IDOCK:   -4.51 KCAL/MOL
REMARK 923 INTER-LIGAND FREE ENERGY PREDICTED BY IDOCK:   -4.39 KCAL/MOL
REMARK 924 INTRA-LIGAND FREE ENERGY PREDICTED BY IDOCK:   -0.12 KCAL/MOL
REMARK 927      BINDING AFFINITY PREDICTED BY RF-SCORE:    0.00 PKD
ROOT
HETATM    1  C   UNL     1      -8.826  15.804  66.175  1.00  0.00    -0.346 C  
HETATM    2  C   UNL     1     -10.140  15.045  66.066  1.00  0.00    -0.322 C  
ENDROOT
BRANCH   2   3
HETATM    3  C   UNL     1     -11.027  15.613  64.958  1.00  0.00    -0.445 C  
BRANCH   3   4
HETATM    4  C   UNL     1     -11.921  14.532  64.355  1.00  0.00    -0.467 C  
BRANCH   4   5
HETATM    5  C   UNL     1     -12.152  13.380  65.327  1.00  0.00    -0.413 C  
BRANCH   5   6
HETATM    6  O   UNL     1     -13.104  12.492  64.744  1.00  0.00    -0.853 OA 
BRANCH   6   7
HETATM    7  N   UNL     1     -12.856  12.400  63.379  1.00  0.00    -0.726 NA 
HETATM    8  O   UNL     1     -12.678  11.225  63.041  1.00  0.00    -0.819 OA 
HETATM    9  H   UNL     1     -12.077  12.995  63.096  1.00  0.00     0.000 HD 
HETATM   10  H   UNL     1     -12.509  11.163  62.108  1.00  0.00     0.000 HD 
ENDBRANCH   6   7
ENDBRANCH   5   6
ENDBRANCH   4   5
ENDBRANCH   3   4
ENDBRANCH   2   3
TORSDOF 5
ENDMDL
MODEL       20
REMARK 921   NORMALIZED FREE ENERGY PREDICTED BY IDOCK:   -3.33 KCAL/MOL
REMARK 922        TOTAL FREE ENERGY PREDICTED BY IDOCK:   -4.44 KCAL/MOL
REMARK 923 INTER-LIGAND FREE ENERGY PREDICTED BY IDOCK:   -4.26 KCAL/MOL
REMARK 924 INTRA-LIGAND FREE ENERGY PREDICTED BY IDOCK:   -0.17 KCAL/MOL
REMARK 927      BINDING AFFINITY PREDICTED BY RF-SCORE:    0.00 PKD
ROOT
HETATM    1  C   UNL     1     -12.342  15.586  74.429  1.00  0.00    -0.798 C  
HETATM    2  C   UNL     1     -12.661  16.207  73.078  1.00  0.00    -0.537 C  
ENDROOT
BRANCH   2   3
HETATM    3  C   UNL     1     -13.760  15.435  72.350  1.00  0.00    -0.644 C  
BRANCH   3   4
HETATM    4  C   UNL     1     -13.256  14.870  71.024  1.00  0.00    -0.456 C  
BRANCH   4   5
HETATM    5  C   UNL     1     -12.747  13.439  71.174  1.00  0.00    -0.328 C  
BRANCH   5   6
HETATM    6  O   UNL     1     -13.497  12.809  72.211  1.00  0.00    -0.565 OA 
BRANCH   6   7
HETATM    7  N   UNL     1     -13.226  11.445  72.198  1.00  0.00    -0.556 NA 
HETATM    8  O   UNL     1     -12.685  11.114  71.137  1.00  0.00    -0.380 OA 
HETATM    9  H   UNL     1     -14.063  10.893  72.382  1.00  0.00     0.000 HD 
HETATM   10  H   UNL     1     -12.500  10.182  71.128  1.00  0.00     0.000 HD 
ENDBRANCH   6   7
ENDBRANCH   5   6
ENDBRANCH   4   5
ENDBRANCH   3   4
ENDBRANCH   2   3
TORSDOF 5
ENDMDL
MODEL       21
REMARK 921   NORMALIZED FREE ENERGY PREDICTED BY IDOCK:   -3.22 KCAL/MOL
REMARK 922        TOTAL FREE ENERGY PREDICTED BY IDOCK:   -4.29 KCAL/MOL
REMARK 923 INTER-LIGAND FREE ENERGY PREDICTED BY IDOCK:   -4.19 KCAL/MOL
REMARK 924 INTRA-LIGAND FREE ENERGY PREDICTED BY IDOCK:   -0.10 KCAL/MOL
REMARK 927      BINDING AFFINITY PREDICTED BY RF-SCORE:    0.00 PKD
ROOT
HETATM    1  C   UNL     1     -10.889  12.906  68.536  1.00  0.00    -0.283 C  
HETATM    2  C   UNL     1     -11.787  11.681  68.611  1.00  0.00    -0.370 C  
ENDROOT
BRANCH   2   3
HETATM    3  C   UNL     1     -11.669  10.979  69.963  1.00  0.00    -0.437 C  
BRANCH   3   4
HETATM    4  C   UNL     1     -12.508  11.682  71.028  1.00  0.00    -0.436 C  
BRANCH   4   5
HETATM    5  C   UNL     1     -13.252  10.686  71.912  1.00  0.00    -0.423 C  
BRANCH   5   6
HETATM    6  O   UNL     1     -12.429   9.532  72.068  1.00  0.00    -0.371 OA 
BRANCH   6   7
HETATM    7  N   UNL     1     -13.160   8.542  72.716  1.00  0.00    -0.640 NA 
HETATM    8  O   UNL     1     -14.111   9.030  73.335  1.00  0.00    -1.231 OA 
HETATM    9  H   UNL     1     -12.570   7.973  73.322  1.00  0.00     0.000 HD 
HETATM   10  H   UNL     1     -14.610   8.354  73.778  1.00  0.00     0.000 HD 
ENDBRANCH   6   7
ENDBRANCH   5   6
ENDBRANCH   4   5
ENDBRANCH   3   4
ENDBRANCH   2   3
TORSDOF 5
ENDMDL
MODEL       22
REMARK 921   NORMALIZED FREE ENERGY PREDICTED BY IDOCK:   -3.19 KCAL/MOL
REMARK 922        TOTAL FREE ENERGY PREDICTED BY IDOCK:   -4.25 KCAL/MOL
REMARK 923 INTER-LIGAND FREE ENERGY PREDICTED BY IDOCK:   -4.21 KCAL/MOL
REMARK 924 INTRA-LIGAND FREE ENERGY PREDICTED BY IDOCK:   -0.04 KCAL/MOL
REMARK 927      BINDING AFFINITY PREDICTED BY RF-SCORE:    0.00 PKD
ROOT
HETATM    1  C   UNL     1     -10.677  10.498  69.769  1.00  0.00    -0.314 C  
HETATM    2  C   UNL     1     -12.041  10.741  70.397  1.00  0.00    -0.443 C  
ENDROOT
BRANCH   2   3
HETATM    3  C   UNL     1     -12.298  12.230  70.624  1.00  0.00    -0.375 C  
BRANCH   3   4
HETATM    4  C   UNL     1     -13.019  12.473  71.948  1.00  0.00    -0.406 C  
BRANCH   4   5
HETATM    5  C   UNL     1     -13.696  13.840  71.983  1.00  0.00    -0.482 C  
BRANCH   5   6
HETATM    6  O   UNL     1     -13.505  14.395  73.283  1.00  0.00    -0.574 OA 
BRANCH   6   7
HETATM    7  N   UNL     1     -13.658  15.776  73.209  1.00  0.00    -0.686 NA 
HETATM    8  O   UNL     1     -13.241  16.321  74.236  1.00  0.00    -0.934 OA 
HETATM    9  H   UNL     1     -14.623  16.038  73.009  1.00  0.00     0.000 HD 
HETATM   10  H   UNL     1     -13.346  17.264  74.185  1.00  0.00     0.000 HD 
ENDBRANCH   6   7
ENDBRANCH   5   6
ENDBRANCH   4   5
ENDBRANCH   3   4
ENDBRANCH   2   3
TORSDOF 5
ENDMDL
MODEL       23
REMARK 921   NORMALIZED FREE ENERGY PREDICTED BY IDOCK:   -3.17 KCAL/MOL
REMARK 922        TOTAL FREE ENERGY PREDICTED BY IDOCK:   -4.23 KCAL/MOL
REMARK 923 INTER-LIGAND FREE ENERGY PREDICTED BY IDOCK:   -4.17 KCAL/MOL
REMARK 924 INTRA-LIGAND FREE ENERGY PREDICTED BY IDOCK:   -0.06 KCAL/MOL
REMARK 927      BINDING AFFINITY PREDICTED BY RF-SCORE:    0.00 PKD
ROOT
HETATM    1  C   UNL     1     -10.653   9.300  67.947  1.00  0.00    -0.288 C  
HETATM    2  C   UNL     1     -10.501   9.738  66.499  1.00  0.00    -0.212 C  
ENDROOT
BRANCH   2   3
HETATM    3  C   UNL     1     -10.600  11.256  66.357  1.00  0.00    -0.316 C  
BRANCH   3   4
HETATM    4  C   UNL     1     -10.894  11.661  64.915  1.00  0.00    -0.359 C  
BRANCH   4   5
HETATM    5  C   UNL     1     -12.086  12.609  64.824  1.00  0.00    -0.436 C  
BRANCH   5   6
HETATM    6  O   UNL     1     -12.587  12.565  63.489  1.00  0.00    -0.690 OA 
BRANCH   6   7
HETATM    7  N   UNL     1     -12.618  13.858  62.977  1.00  0.00    -0.908 NA 
HETATM    8  O   UNL     1     -12.322  14.683  63.847  1.00  0.00    -0.962 OA 
HETATM    9  H   UNL     1     -13.518  14.070  62.547  1.00  0.00     0.000 HD 
HETATM   10  H   UNL     1     -12.344  15.566  63.498  1.00  0.00     0.000 HD 
ENDBRANCH   6   7
ENDBRANCH   5   6
ENDBRANCH   4   5
ENDBRANCH   3   4
ENDBRANCH   2   3
TORSDOF 5
ENDMDL
MODEL       24
REMARK 921   NORMALIZED FREE ENERGY PREDICTED BY IDOCK:   -3.17 KCAL/MOL
REMARK 922        TOTAL FREE ENERGY PREDICTED BY IDOCK:   -4.22 KCAL/MOL
REMARK 923 INTER-LIGAND FREE ENERGY PREDICTED BY IDOCK:   -4.08 KCAL/MOL
REMARK 924 INTRA-LIGAND FREE ENERGY PREDICTED BY IDOCK:   -0.14 KCAL/MOL
REMARK 927      BINDING AFFINITY PREDICTED BY RF-SCORE:    0.00 PKD
ROOT
HETATM    1  C   UNL     1     -11.687  14.657  68.625  1.00  0.00    -0.362 C  
HETATM    2  C   UNL     1     -11.889  15.714  69.699  1.00  0.00    -0.377 C  
ENDROOT
BRANCH   2   3
HETATM    3  C   UNL     1     -11.302  15.273  71.039  1.00  0.00    -0.393 C  
BRANCH   3   4
HETATM    4  C   UNL     1     -12.023  15.941  72.207  1.00  0.00    -0.617 C  
BRANCH   4   5
HETATM    5  C   UNL     1     -13.505  15.580  72.240  1.00  0.00    -0.499 C  
BRANCH   5   6
HETATM    6  O   UNL     1     -13.687  14.542  73.201  1.00  0.00    -0.536 OA 
BRANCH   6   7
HETATM    7  N   UNL     1     -14.255  13.439  72.571  1.00  0.00    -0.693 NA 
HETATM    8  O   UNL     1     -13.508  12.458  72.643  1.00  0.00    -0.600 OA 
HETATM    9  H   UNL     1     -14.511  13.647  71.606  1.00  0.00     0.000 HD 
HETATM   10  H   UNL     1     -13.896  11.705  72.212  1.00  0.00     0.000 HD 
ENDBRANCH   6   7
ENDBRANCH   5   6
ENDBRANCH   4   5
ENDBRANCH   3   4
ENDBRANCH   2   3
TORSDOF 5
ENDMDL
MODEL       25
REMARK 921   NORMALIZED FREE ENERGY PREDICTED BY IDOCK:   -3.17 KCAL/MOL
REMARK 922        TOTAL FREE ENERGY PREDICTED BY IDOCK:   -4.22 KCAL/MOL
REMARK 923 INTER-LIGAND FREE ENERGY PREDICTED BY IDOCK:   -4.19 KCAL/MOL
REMARK 924 INTRA-LIGAND FREE ENERGY PREDICTED BY IDOCK:   -0.03 KCAL/MOL
REMARK 927      BINDING AFFINITY PREDICTED BY RF-SCORE:    0.00 PKD
ROOT
HETATM    1  C   UNL     1      -9.863   9.451  66.555  1.00  0.00    -0.325 C  
HETATM    2  C   UNL     1     -10.083  10.818  65.925  1.00  0.00    -0.314 C  
ENDROOT
BRANCH   2   3
HETATM    3  C   UNL     1     -10.987  11.696  66.790  1.00  0.00    -0.341 C  
BRANCH   3   4
HETATM    4  C   UNL     1     -11.927  12.538  65.931  1.00  0.00    -0.472 C  
BRANCH   4   5
HETATM    5  C   UNL     1     -11.517  14.008  65.915  1.00  0.00    -0.330 C  
BRANCH   5   6
HETATM    6  O   UNL     1     -11.272  14.385  64.562  1.00  0.00    -0.364 OA 
BRANCH   6   7
HETATM    7  N   UNL     1     -12.488  14.489  63.896  1.00  0.00    -1.031 NA 
HETATM    8  O   UNL     1     -12.487  13.804  62.867  1.00  0.00    -1.009 OA 
HETATM    9  H   UNL     1     -12.729  15.460  63.701  1.00  0.00     0.000 HD 
HETATM   10  H   UNL     1     -13.318  13.876  62.412  1.00  0.00     0.000 HD 
ENDBRANCH   6   7
ENDBRANCH   5   6
ENDBRANCH   4   5
ENDBRANCH   3   4
ENDBRANCH   2   3
TORSDOF 5
ENDMDL
MODEL       26
REMARK 921   NORMALIZED FREE ENERGY PREDICTED BY IDOCK:   -3.13 KCAL/MOL
REMARK 922        TOTAL FREE ENERGY PREDICTED BY IDOCK:   -4.18 KCAL/MOL
REMARK 923 INTER-LIGAND FREE ENERGY PREDICTED BY IDOCK:   -4.11 KCAL/MOL
REMARK 924 INTRA-LIGAND FREE ENERGY PREDICTED BY IDOCK:   -0.07 KCAL/MOL
REMARK 927      BINDING AFFINITY PREDICTED BY RF-SCORE:    0.00 PKD
ROOT
HETATM    1  C   UNL     1     -11.186   9.245  71.476  1.00  0.00    -0.457 C  
HETATM    2  C   UNL     1     -11.656  10.415  70.625  1.00  0.00    -0.440 C  
ENDROOT
BRANCH   2   3
HETATM    3  C   UNL     1     -12.848  11.128  71.259  1.00  0.00    -0.515 C  
BRANCH   3   4
HETATM    4  C   UNL     1     -12.635  12.640  71.294  1.00  0.00    -0.339 C  
BRANCH   4   5
HETATM    5  C   UNL     1     -13.609  13.328  72.247  1.00  0.00    -0.605 C  
BRANCH   5   6
HETATM    6  O   UNL     1     -13.416  14.736  72.137  1.00  0.00    -0.333 OA 
BRANCH   6   7
HETATM    7  N   UNL     1     -14.174  15.213  71.073  1.00  0.00    -0.727 NA 
HETATM    8  O   UNL     1     -13.502  15.955  70.350  1.00  0.00    -0.690 OA 
HETATM    9  H   UNL     1     -15.027  15.670  71.393  1.00  0.00     0.000 HD 
HETATM   10  H   UNL     1     -14.020  16.281  69.624  1.00  0.00     0.000 HD 
ENDBRANCH   6   7
ENDBRANCH   5   6
ENDBRANCH   4   5
ENDBRANCH   3   4
ENDBRANCH   2   3
TORSDOF 5
ENDMDL
MODEL       27
REMARK 921   NORMALIZED FREE ENERGY PREDICTED BY IDOCK:   -3.12 KCAL/MOL
REMARK 922        TOTAL FREE ENERGY PREDICTED BY IDOCK:   -4.16 KCAL/MOL
REMARK 923 INTER-LIGAND FREE ENERGY PREDICTED BY IDOCK:   -4.03 KCAL/MOL
REMARK 924 INTRA-LIGAND FREE ENERGY PREDICTED BY IDOCK:   -0.13 KCAL/MOL
REMARK 927      BINDING AFFINITY PREDICTED BY RF-SCORE:    0.00 PKD
ROOT
HETATM    1  C   UNL     1      -8.671  12.681  68.149  1.00  0.00    -0.190 C  
HETATM    2  C   UNL     1      -9.505  13.912  68.474  1.00  0.00    -0.174 C  
ENDROOT
BRANCH   2   3
HETATM    3  C   UNL     1      -9.900  14.672  67.208  1.00  0.00    -0.231 C  
BRANCH   3   4
HETATM    4  C   UNL     1      -9.937  13.746  65.994  1.00  0.00    -0.319 C  
BRANCH   4   5
HETATM    5  C   UNL     1     -11.346  13.617  65.423  1.00  0.00    -0.301 C  
BRANCH   5   6
HETATM    6  O   UNL     1     -11.892  14.928  65.291  1.00  0.00    -0.313 OA 
BRANCH   6   7
HETATM    7  N   UNL     1     -12.024  15.227  63.939  1.00  0.00    -0.953 NA 
HETATM    8  O   UNL     1     -11.700  16.397  63.713  1.00  0.00    -1.553 OA 
HETATM    9  H   UNL     1     -12.962  15.023  63.598  1.00  0.00     0.000 HD 
HETATM   10  H   UNL     1     -11.790  16.602  62.790  1.00  0.00     0.000 HD 
ENDBRANCH   6   7
ENDBRANCH   5   6
ENDBRANCH   4   5
ENDBRANCH   3   4
ENDBRANCH   2   3
TORSDOF 5
ENDMDL
MODEL       28
REMARK 921   NORMALIZED FREE ENERGY PREDICTED BY IDOCK:   -3.04 KCAL/MOL
REMARK 922        TOTAL FREE ENERGY PREDICTED BY IDOCK:   -4.06 KCAL/MOL
REMARK 923 INTER-LIGAND FREE ENERGY PREDICTED BY IDOCK:   -3.95 KCAL/MOL
REMARK 924 INTRA-LIGAND FREE ENERGY PREDICTED BY IDOCK:   -0.10 KCAL/MOL
REMARK 927      BINDING AFFINITY PREDICTED BY RF-SCORE:    0.00 PKD
ROOT
HETATM    1  C   UNL     1     -11.767  11.893  63.672  1.00  0.00    -0.572 C  
HETATM    2  C   UNL     1     -11.928  13.341  63.235  1.00  0.00    -0.376 C  
ENDROOT
BRANCH   2   3
HETATM    3  C   UNL     1     -11.806  14.301  64.417  1.00  0.00    -0.444 C  
BRANCH   3   4
HETATM    4  C   UNL     1     -12.512  13.750  65.654  1.00  0.00    -0.541 C  
BRANCH   4   5
HETATM    5  C   UNL     1     -11.575  13.677  66.856  1.00  0.00    -0.367 C  
BRANCH   5   6
HETATM    6  O   UNL     1     -12.112  12.733  67.779  1.00  0.00    -0.314 OA 
BRANCH   6   7
HETATM    7  N   UNL     1     -11.622  11.469  67.467  1.00  0.00    -0.544 NA 
HETATM    8  O   UNL     1     -12.027  10.627  68.275  1.00  0.00    -0.793 OA 
HETATM    9  H   UNL     1     -10.605  11.466  67.397  1.00  0.00     0.000 HD 
HETATM   10  H   UNL     1     -11.692   9.764  68.061  1.00  0.00     0.000 HD 
ENDBRANCH   6   7
ENDBRANCH   5   6
ENDBRANCH   4   5
ENDBRANCH   3   4
ENDBRANCH   2   3
TORSDOF 5
ENDMDL
MODEL       29
REMARK 921   NORMALIZED FREE ENERGY PREDICTED BY IDOCK:   -3.03 KCAL/MOL
REMARK 922        TOTAL FREE ENERGY PREDICTED BY IDOCK:   -4.04 KCAL/MOL
REMARK 923 INTER-LIGAND FREE ENERGY PREDICTED BY IDOCK:   -3.89 KCAL/MOL
REMARK 924 INTRA-LIGAND FREE ENERGY PREDICTED BY IDOCK:   -0.15 KCAL/MOL
REMARK 927      BINDING AFFINITY PREDICTED BY RF-SCORE:    0.00 PKD
ROOT
HETATM    1  C   UNL     1     -10.148   9.181  67.925  1.00  0.00    -0.246 C  
HETATM    2  C   UNL     1     -11.022   9.722  69.046  1.00  0.00    -0.193 C  
ENDROOT
BRANCH   2   3
HETATM    3  C   UNL     1     -10.251   9.816  70.363  1.00  0.00    -0.343 C  
BRANCH   3   4
HETATM    4  C   UNL     1     -11.117   9.385  71.544  1.00  0.00    -0.446 C  
BRANCH   4   5
HETATM    5  C   UNL     1     -11.772   8.028  71.301  1.00  0.00    -0.282 C  
BRANCH   5   6
HETATM    6  O   UNL     1     -13.126   8.104  71.741  1.00  0.00    -0.332 OA 
BRANCH   6   7
HETATM    7  N   UNL     1     -13.196   8.961  72.835  1.00  0.00    -0.803 NA 
HETATM    8  O   UNL     1     -14.283   8.851  73.412  1.00  0.00    -1.241 OA 
HETATM    9  H   UNL     1     -13.007   9.927  72.570  1.00  0.00     0.000 HD 
HETATM   10  H   UNL     1     -14.331   9.437  74.158  1.00  0.00     0.000 HD 
ENDBRANCH   6   7
ENDBRANCH   5   6
ENDBRANCH   4   5
ENDBRANCH   3   4
ENDBRANCH   2   3
TORSDOF 5
ENDMDL
MODEL       30
REMARK 921   NORMALIZED FREE ENERGY PREDICTED BY IDOCK:   -3.00 KCAL/MOL
REMARK 922        TOTAL FREE ENERGY PREDICTED BY IDOCK:   -4.01 KCAL/MOL
REMARK 923 INTER-LIGAND FREE ENERGY PREDICTED BY IDOCK:   -3.92 KCAL/MOL
REMARK 924 INTRA-LIGAND FREE ENERGY PREDICTED BY IDOCK:   -0.09 KCAL/MOL
REMARK 927      BINDING AFFINITY PREDICTED BY RF-SCORE:    0.00 PKD
ROOT
HETATM    1  C   UNL     1      -9.802  19.783  66.293  1.00  0.00    -0.557 C  
HETATM    2  C   UNL     1     -10.793  19.240  67.311  1.00  0.00    -0.554 C  
ENDROOT
BRANCH   2   3
HETATM    3  C   UNL     1     -10.126  18.260  68.276  1.00  0.00    -0.406 C  
BRANCH   3   4
HETATM    4  C   UNL     1     -10.735  16.864  68.157  1.00  0.00    -0.375 C  
BRANCH   4   5
HETATM    5  C   UNL     1     -10.368  15.983  69.347  1.00  0.00    -0.272 C  
BRANCH   5   6
HETATM    6  O   UNL     1     -11.446  16.027  70.280  1.00  0.00    -0.337 OA 
BRANCH   6   7
HETATM    7  N   UNL     1     -12.588  15.514  69.673  1.00  0.00    -0.596 NA 
HETATM    8  O   UNL     1     -13.543  15.519  70.456  1.00  0.00    -0.826 OA 
HETATM    9  H   UNL     1     -12.423  14.585  69.286  1.00  0.00     0.000 HD 
HETATM   10  H   UNL     1     -14.322  15.168  70.042  1.00  0.00     0.000 HD 
ENDBRANCH   6   7
ENDBRANCH   5   6
ENDBRANCH   4   5
ENDBRANCH   3   4
ENDBRANCH   2   3
TORSDOF 5
ENDMDL
MODEL       31
REMARK 921   NORMALIZED FREE ENERGY PREDICTED BY IDOCK:   -2.99 KCAL/MOL
REMARK 922        TOTAL FREE ENERGY PREDICTED BY IDOCK:   -4.00 KCAL/MOL
REMARK 923 INTER-LIGAND FREE ENERGY PREDICTED BY IDOCK:   -3.87 KCAL/MOL
REMARK 924 INTRA-LIGAND FREE ENERGY PREDICTED BY IDOCK:   -0.13 KCAL/MOL
REMARK 927      BINDING AFFINITY PREDICTED BY RF-SCORE:    0.00 PKD
ROOT
HETATM    1  C   UNL     1      -9.176   5.931  70.556  1.00  0.00    -0.167 C  
HETATM    2  C   UNL     1     -10.486   5.408  69.987  1.00  0.00    -0.373 C  
ENDROOT
BRANCH   2   3
HETATM    3  C   UNL     1     -11.646   6.358  70.283  1.00  0.00    -0.451 C  
BRANCH   3   4
HETATM    4  C   UNL     1     -11.974   6.385  71.774  1.00  0.00    -0.370 C  
BRANCH   4   5
HETATM    5  C   UNL     1     -12.008   7.808  72.322  1.00  0.00    -0.309 C  
BRANCH   5   6
HETATM    6  O   UNL     1     -13.060   8.511  71.663  1.00  0.00    -0.330 OA 
BRANCH   6   7
HETATM    7  N   UNL     1     -14.244   8.310  72.364  1.00  0.00    -0.631 NA 
HETATM    8  O   UNL     1     -14.235   8.933  73.431  1.00  0.00    -1.241 OA 
HETATM    9  H   UNL     1     -14.433   7.319  72.509  1.00  0.00     0.000 HD 
HETATM   10  H   UNL     1     -15.044   8.796  73.910  1.00  0.00     0.000 HD 
ENDBRANCH   6   7
ENDBRANCH   5   6
ENDBRANCH   4   5
ENDBRANCH   3   4
ENDBRANCH   2   3
TORSDOF 5
ENDMDL
MODEL       32
REMARK 921   NORMALIZED FREE ENERGY PREDICTED BY IDOCK:   -2.98 KCAL/MOL
REMARK 922        TOTAL FREE ENERGY PREDICTED BY IDOCK:   -3.98 KCAL/MOL
REMARK 923 INTER-LIGAND FREE ENERGY PREDICTED BY IDOCK:   -3.80 KCAL/MOL
REMARK 924 INTRA-LIGAND FREE ENERGY PREDICTED BY IDOCK:   -0.18 KCAL/MOL
REMARK 927      BINDING AFFINITY PREDICTED BY RF-SCORE:    0.00 PKD
ROOT
HETATM    1  C   UNL     1     -12.141  12.832  63.367  1.00  0.00    -0.619 C  
HETATM    2  C   UNL     1     -12.397  12.573  64.844  1.00  0.00    -0.539 C  
ENDROOT
BRANCH   2   3
HETATM    3  C   UNL     1     -12.559  13.877  65.623  1.00  0.00    -0.553 C  
BRANCH   3   4
HETATM    4  C   UNL     1     -11.448  14.047  66.657  1.00  0.00    -0.377 C  
BRANCH   4   5
HETATM    5  C   UNL     1     -10.572  15.259  66.354  1.00  0.00    -0.308 C  
BRANCH   5   6
HETATM    6  O   UNL     1     -10.924  15.747  65.061  1.00  0.00    -0.410 OA 
BRANCH   6   7
HETATM    7  N   UNL     1     -10.711  17.121  65.026  1.00  0.00    -0.681 NA 
HETATM    8  O   UNL     1     -10.551  17.572  66.165  1.00  0.00    -0.313 OA 
HETATM    9  H   UNL     1     -11.459  17.606  64.531  1.00  0.00     0.000 HD 
HETATM   10  H   UNL     1     -10.406  18.510  66.140  1.00  0.00     0.000 HD 
ENDBRANCH   6   7
ENDBRANCH   5   6
ENDBRANCH   4   5
ENDBRANCH   3   4
ENDBRANCH   2   3
TORSDOF 5
ENDMDL
MODEL       33
REMARK 921   NORMALIZED FREE ENERGY PREDICTED BY IDOCK:   -2.96 KCAL/MOL
REMARK 922        TOTAL FREE ENERGY PREDICTED BY IDOCK:   -3.96 KCAL/MOL
REMARK 923 INTER-LIGAND FREE ENERGY PREDICTED BY IDOCK:   -3.86 KCAL/MOL
REMARK 924 INTRA-LIGAND FREE ENERGY PREDICTED BY IDOCK:   -0.10 KCAL/MOL
REMARK 927      BINDING AFFINITY PREDICTED BY RF-SCORE:    0.00 PKD
ROOT
HETATM    1  C   UNL     1     -14.410   7.352  71.612  1.00  0.00    -0.614 C  
HETATM    2  C   UNL     1     -14.311   8.762  72.172  1.00  0.00    -0.481 C  
ENDROOT
BRANCH   2   3
HETATM    3  C   UNL     1     -12.900   9.329  72.019  1.00  0.00    -0.495 C  
BRANCH   3   4
HETATM    4  C   UNL     1     -12.932  10.830  71.742  1.00  0.00    -0.568 C  
BRANCH   4   5
HETATM    5  C   UNL     1     -12.143  11.192  70.487  1.00  0.00    -0.381 C  
BRANCH   5   6
HETATM    6  O   UNL     1     -11.939   9.999  69.733  1.00  0.00    -0.108 OA 
BRANCH   6   7
HETATM    7  N   UNL     1     -11.871  10.326  68.383  1.00  0.00    -0.717 NA 
HETATM    8  O   UNL     1     -11.262   9.458  67.749  1.00  0.00    -0.492 OA 
HETATM    9  H   UNL     1     -11.466  11.250  68.239  1.00  0.00     0.000 HD 
HETATM   10  H   UNL     1     -11.215   9.681  66.828  1.00  0.00     0.000 HD 
ENDBRANCH   6   7
ENDBRANCH   5   6
ENDBRANCH   4   5
ENDBRANCH   3   4
ENDBRANCH   2   3
TORSDOF 5
ENDMDL
MODEL       34
REMARK 921   NORMALIZED FREE ENERGY PREDICTED BY IDOCK:   -2.96 KCAL/MOL
REMARK 922        TOTAL FREE ENERGY PREDICTED BY IDOCK:   -3.96 KCAL/MOL
REMARK 923 INTER-LIGAND FREE ENERGY PREDICTED BY IDOCK:   -3.89 KCAL/MOL
REMARK 924 INTRA-LIGAND FREE ENERGY PREDICTED BY IDOCK:   -0.07 KCAL/MOL
REMARK 927      BINDING AFFINITY PREDICTED BY RF-SCORE:    0.00 PKD
ROOT
HETATM    1  C   UNL     1      -7.140  13.436  67.981  1.00  0.00    -0.125 C  
HETATM    2  C   UNL     1      -8.491  12.761  68.163  1.00  0.00    -0.177 C  
ENDROOT
BRANCH   2   3
HETATM    3  C   UNL     1      -9.546  13.355  67.231  1.00  0.00    -0.234 C  
BRANCH   3   4
HETATM    4  C   UNL     1      -9.486  14.881  67.228  1.00  0.00    -0.216 C  
BRANCH   4   5
HETATM    5  C   UNL     1      -9.596  15.449  65.816  1.00  0.00    -0.333 C  
BRANCH   5   6
HETATM    6  O   UNL     1     -10.939  15.887  65.618  1.00  0.00    -0.290 OA 
BRANCH   6   7
HETATM    7  N   UNL     1     -10.953  16.865  64.629  1.00  0.00    -0.963 NA 
HETATM    8  O   UNL     1     -11.759  16.578  63.738  1.00  0.00    -1.548 OA 
HETATM    9  H   UNL     1     -10.021  17.034  64.254  1.00  0.00     0.000 HD 
HETATM   10  H   UNL     1     -11.768  17.246  63.062  1.00  0.00     0.000 HD 
ENDBRANCH   6   7
ENDBRANCH   5   6
ENDBRANCH   4   5
ENDBRANCH   3   4
ENDBRANCH   2   3
TORSDOF 5
ENDMDL
MODEL       35
REMARK 921   NORMALIZED FREE ENERGY PREDICTED BY IDOCK:   -2.93 KCAL/MOL
REMARK 922        TOTAL FREE ENERGY PREDICTED BY IDOCK:   -3.91 KCAL/MOL
REMARK 923 INTER-LIGAND FREE ENERGY PREDICTED BY IDOCK:   -3.83 KCAL/MOL
REMARK 924 INTRA-LIGAND FREE ENERGY PREDICTED BY IDOCK:   -0.08 KCAL/MOL
REMARK 927      BINDING AFFINITY PREDICTED BY RF-SCORE:    0.00 PKD
ROOT
HETATM    1  C   UNL     1     -13.775   8.878  71.679  1.00  0.00    -0.444 C  
HETATM    2  C   UNL     1     -12.944  10.144  71.539  1.00  0.00    -0.547 C  
ENDROOT
BRANCH   2   3
HETATM    3  C   UNL     1     -11.495   9.827  71.173  1.00  0.00    -0.472 C  
BRANCH   3   4
HETATM    4  C   UNL     1     -11.259   9.969  69.671  1.00  0.00    -0.285 C  
BRANCH   4   5
HETATM    5  C   UNL     1     -11.634  11.360  69.167  1.00  0.00    -0.314 C  
BRANCH   5   6
HETATM    6  O   UNL     1     -12.153  11.228  67.846  1.00  0.00    -0.634 OA 
BRANCH   6   7
HETATM    7  N   UNL     1     -12.067  12.458  67.203  1.00  0.00    -0.512 NA 
HETATM    8  O   UNL     1     -12.336  12.348  66.002  1.00  0.00    -0.627 OA 
HETATM    9  H   UNL     1     -11.157  12.896  67.346  1.00  0.00     0.000 HD 
HETATM   10  H   UNL     1     -12.277  13.188  65.563  1.00  0.00     0.000 HD 
ENDBRANCH   6   7
ENDBRANCH   5   6
ENDBRANCH   4   5
ENDBRANCH   3   4
ENDBRANCH   2   3
TORSDOF 5
ENDMDL
MODEL       36
REMARK 921   NORMALIZED FREE ENERGY PREDICTED BY IDOCK:   -2.90 KCAL/MOL
REMARK 922        TOTAL FREE ENERGY PREDICTED BY IDOCK:   -3.87 KCAL/MOL
REMARK 923 INTER-LIGAND FREE ENERGY PREDICTED BY IDOCK:   -3.84 KCAL/MOL
REMARK 924 INTRA-LIGAND FREE ENERGY PREDICTED BY IDOCK:   -0.04 KCAL/MOL
REMARK 927      BINDING AFFINITY PREDICTED BY RF-SCORE:    0.00 PKD
ROOT
HETATM    1  C   UNL     1      -9.709  20.414  67.484  1.00  0.00    -0.571 C  
HETATM    2  C   UNL     1     -10.385  19.054  67.561  1.00  0.00    -0.503 C  
ENDROOT
BRANCH   2   3
HETATM    3  C   UNL     1     -10.368  18.341  66.210  1.00  0.00    -0.422 C  
BRANCH   3   4
HETATM    4  C   UNL     1      -9.581  17.034  66.282  1.00  0.00    -0.289 C  
BRANCH   4   5
HETATM    5  C   UNL     1     -10.502  15.818  66.293  1.00  0.00    -0.309 C  
BRANCH   5   6
HETATM    6  O   UNL     1     -10.443  15.206  65.006  1.00  0.00    -0.398 OA 
BRANCH   6   7
HETATM    7  N   UNL     1     -10.025  13.887  65.154  1.00  0.00    -0.583 NA 
HETATM    8  O   UNL     1      -9.989  13.311  64.061  1.00  0.00    -0.762 OA 
HETATM    9  H   UNL     1     -10.600  13.382  65.827  1.00  0.00     0.000 HD 
HETATM   10  H   UNL     1      -9.704  12.411  64.162  1.00  0.00     0.000 HD 
ENDBRANCH   6   7
ENDBRANCH   5   6
ENDBRANCH   4   5
ENDBRANCH   3   4
ENDBRANCH   2   3
TORSDOF 5
ENDMDL
MODEL       37
REMARK 921   NORMALIZED FREE ENERGY PREDICTED BY IDOCK:   -2.88 KCAL/MOL
REMARK 922        TOTAL FREE ENERGY PREDICTED BY IDOCK:   -3.85 KCAL/MOL
REMARK 923 INTER-LIGAND FREE ENERGY PREDICTED BY IDOCK:   -3.77 KCAL/MOL
REMARK 924 INTRA-LIGAND FREE ENERGY PREDICTED BY IDOCK:   -0.09 KCAL/MOL
REMARK 927      BINDING AFFINITY PREDICTED BY RF-SCORE:    0.00 PKD
ROOT
HETATM    1  C   UNL     1     -10.946  14.170  68.490  1.00  0.00    -0.271 C  
HETATM    2  C   UNL     1     -11.254  13.737  67.065  1.00  0.00    -0.326 C  
ENDROOT
BRANCH   2   3
HETATM    3  C   UNL     1     -10.605  14.670  66.042  1.00  0.00    -0.314 C  
BRANCH   3   4
HETATM    4  C   UNL     1     -11.516  14.890  64.837  1.00  0.00    -0.407 C  
BRANCH   4   5
HETATM    5  C   UNL     1     -11.899  13.573  64.168  1.00  0.00    -0.437 C  
BRANCH   5   6
HETATM    6  O   UNL     1     -10.700  12.918  63.761  1.00  0.00    -0.397 OA 
BRANCH   6   7
HETATM    7  N   UNL     1     -11.033  11.799  63.004  1.00  0.00    -0.668 NA 
HETATM    8  O   UNL     1     -12.252  11.600  63.025  1.00  0.00    -0.949 OA 
HETATM    9  H   UNL     1     -10.512  10.975  63.302  1.00  0.00     0.000 HD 
HETATM   10  H   UNL     1     -12.479  10.836  62.509  1.00  0.00     0.000 HD 
ENDBRANCH   6   7
ENDBRANCH   5   6
ENDBRANCH   4   5
ENDBRANCH   3   4
ENDBRANCH   2   3
TORSDOF 5
ENDMDL
MODEL       38
REMARK 921   NORMALIZED FREE ENERGY PREDICTED BY IDOCK:   -2.87 KCAL/MOL
REMARK 922        TOTAL FREE ENERGY PREDICTED BY IDOCK:   -3.84 KCAL/MOL
REMARK 923 INTER-LIGAND FREE ENERGY PREDICTED BY IDOCK:   -3.76 KCAL/MOL
REMARK 924 INTRA-LIGAND FREE ENERGY PREDICTED BY IDOCK:   -0.09 KCAL/MOL
REMARK 927      BINDING AFFINITY PREDICTED BY RF-SCORE:    0.00 PKD
ROOT
HETATM    1  C   UNL     1     -12.247  11.161  70.598  1.00  0.00    -0.492 C  
HETATM    2  C   UNL     1     -11.743  11.464  69.194  1.00  0.00    -0.410 C  
ENDROOT
BRANCH   2   3
HETATM    3  C   UNL     1     -11.833  12.956  68.876  1.00  0.00    -0.352 C  
BRANCH   3   4
HETATM    4  C   UNL     1     -10.772  13.370  67.858  1.00  0.00    -0.259 C  
BRANCH   4   5
HETATM    5  C   UNL     1     -11.228  13.111  66.426  1.00  0.00    -0.300 C  
BRANCH   5   6
HETATM    6  O   UNL     1     -12.559  13.606  66.289  1.00  0.00    -0.391 OA 
BRANCH   6   7
HETATM    7  N   UNL     1     -12.887  13.647  64.938  1.00  0.00    -0.720 NA 
HETATM    8  O   UNL     1     -13.189  12.523  64.523  1.00  0.00    -0.832 OA 
HETATM    9  H   UNL     1     -12.143  14.066  64.382  1.00  0.00     0.000 HD 
HETATM   10  H   UNL     1     -13.413  12.551  63.601  1.00  0.00     0.000 HD 
ENDBRANCH   6   7
ENDBRANCH   5   6
ENDBRANCH   4   5
ENDBRANCH   3   4
ENDBRANCH   2   3
TORSDOF 5
ENDMDL
MODEL       39
REMARK 921   NORMALIZED FREE ENERGY PREDICTED BY IDOCK:   -2.87 KCAL/MOL
REMARK 922        TOTAL FREE ENERGY PREDICTED BY IDOCK:   -3.84 KCAL/MOL
REMARK 923 INTER-LIGAND FREE ENERGY PREDICTED BY IDOCK:   -3.75 KCAL/MOL
REMARK 924 INTRA-LIGAND FREE ENERGY PREDICTED BY IDOCK:   -0.09 KCAL/MOL
REMARK 927      BINDING AFFINITY PREDICTED BY RF-SCORE:    0.00 PKD
ROOT
HETATM    1  C   UNL     1     -11.001   5.904  69.884  1.00  0.00    -0.444 C  
HETATM    2  C   UNL     1     -10.784   7.377  69.573  1.00  0.00    -0.233 C  
ENDROOT
BRANCH   2   3
HETATM    3  C   UNL     1     -10.199   8.124  70.771  1.00  0.00    -0.215 C  
BRANCH   3   4
HETATM    4  C   UNL     1     -10.494   9.620  70.689  1.00  0.00    -0.379 C  
BRANCH   4   5
HETATM    5  C   UNL     1     -11.949   9.930  71.026  1.00  0.00    -0.365 C  
BRANCH   5   6
HETATM    6  O   UNL     1     -12.256   9.310  72.274  1.00  0.00    -0.329 OA 
BRANCH   6   7
HETATM    7  N   UNL     1     -13.475   9.799  72.732  1.00  0.00    -0.523 NA 
HETATM    8  O   UNL     1     -14.091   8.930  73.357  1.00  0.00    -1.256 OA 
HETATM    9  H   UNL     1     -14.035  10.185  71.972  1.00  0.00     0.000 HD 
HETATM   10  H   UNL     1     -14.924   9.264  73.670  1.00  0.00     0.000 HD 
ENDBRANCH   6   7
ENDBRANCH   5   6
ENDBRANCH   4   5
ENDBRANCH   3   4
ENDBRANCH   2   3
TORSDOF 5
ENDMDL
MODEL       40
REMARK 921   NORMALIZED FREE ENERGY PREDICTED BY IDOCK:   -2.86 KCAL/MOL
REMARK 922        TOTAL FREE ENERGY PREDICTED BY IDOCK:   -3.83 KCAL/MOL
REMARK 923 INTER-LIGAND FREE ENERGY PREDICTED BY IDOCK:   -3.76 KCAL/MOL
REMARK 924 INTRA-LIGAND FREE ENERGY PREDICTED BY IDOCK:   -0.07 KCAL/MOL
REMARK 927      BINDING AFFINITY PREDICTED BY RF-SCORE:    0.00 PKD
ROOT
HETATM    1  C   UNL     1     -10.314   6.453  74.315  1.00  0.00    -0.311 C  
HETATM    2  C   UNL     1      -9.682   7.488  73.396  1.00  0.00    -0.346 C  
ENDROOT
BRANCH   2   3
HETATM    3  C   UNL     1     -10.484   7.657  72.106  1.00  0.00    -0.270 C  
BRANCH   3   4
HETATM    4  C   UNL     1     -10.499   9.115  71.650  1.00  0.00    -0.403 C  
BRANCH   4   5
HETATM    5  C   UNL     1     -11.819   9.486  70.981  1.00  0.00    -0.330 C  
BRANCH   5   6
HETATM    6  O   UNL     1     -12.718   9.934  71.993  1.00  0.00    -0.392 OA 
BRANCH   6   7
HETATM    7  N   UNL     1     -13.722   8.985  72.156  1.00  0.00    -0.452 NA 
HETATM    8  O   UNL     1     -14.092   8.932  73.333  1.00  0.00    -1.256 OA 
HETATM    9  H   UNL     1     -13.434   8.070  71.810  1.00  0.00     0.000 HD 
HETATM   10  H   UNL     1     -14.777   8.284  73.445  1.00  0.00     0.000 HD 
ENDBRANCH   6   7
ENDBRANCH   5   6
ENDBRANCH   4   5
ENDBRANCH   3   4
ENDBRANCH   2   3
TORSDOF 5
ENDMDL
MODEL       41
REMARK 921   NORMALIZED FREE ENERGY PREDICTED BY IDOCK:   -2.86 KCAL/MOL
REMARK 922        TOTAL FREE ENERGY PREDICTED BY IDOCK:   -3.82 KCAL/MOL
REMARK 923 INTER-LIGAND FREE ENERGY PREDICTED BY IDOCK:   -3.74 KCAL/MOL
REMARK 924 INTRA-LIGAND FREE ENERGY PREDICTED BY IDOCK:   -0.09 KCAL/MOL
REMARK 927      BINDING AFFINITY PREDICTED BY RF-SCORE:    0.00 PKD
ROOT
HETATM    1  C   UNL     1     -10.088   4.636  72.111  1.00  0.00    -0.256 C  
HETATM    2  C   UNL     1     -10.117   5.745  71.070  1.00  0.00    -0.260 C  
ENDROOT
BRANCH   2   3
HETATM    3  C   UNL     1     -11.513   6.351  70.934  1.00  0.00    -0.406 C  
BRANCH   3   4
HETATM    4  C   UNL     1     -11.459   7.877  70.945  1.00  0.00    -0.294 C  
BRANCH   4   5
HETATM    5  C   UNL     1     -11.825   8.447  72.312  1.00  0.00    -0.389 C  
BRANCH   5   6
HETATM    6  O   UNL     1     -12.343   9.762  72.120  1.00  0.00    -0.316 OA 
BRANCH   6   7
HETATM    7  N   UNL     1     -13.657   9.799  72.575  1.00  0.00    -0.655 NA 
HETATM    8  O   UNL     1     -13.916   8.802  73.256  1.00  0.00    -1.160 OA 
HETATM    9  H   UNL     1     -14.318   9.912  71.807  1.00  0.00     0.000 HD 
HETATM   10  H   UNL     1     -14.813   8.828  73.567  1.00  0.00     0.000 HD 
ENDBRANCH   6   7
ENDBRANCH   5   6
ENDBRANCH   4   5
ENDBRANCH   3   4
ENDBRANCH   2   3
TORSDOF 5
ENDMDL
MODEL       42
REMARK 921   NORMALIZED FREE ENERGY PREDICTED BY IDOCK:   -2.85 KCAL/MOL
REMARK 922        TOTAL FREE ENERGY PREDICTED BY IDOCK:   -3.81 KCAL/MOL
REMARK 923 INTER-LIGAND FREE ENERGY PREDICTED BY IDOCK:   -3.68 KCAL/MOL
REMARK 924 INTRA-LIGAND FREE ENERGY PREDICTED BY IDOCK:   -0.14 KCAL/MOL
REMARK 927      BINDING AFFINITY PREDICTED BY RF-SCORE:    0.00 PKD
ROOT
HETATM    1  C   UNL     1     -12.051  12.940  70.384  1.00  0.00    -0.385 C  
HETATM    2  C   UNL     1     -12.026  11.548  69.773  1.00  0.00    -0.415 C  
ENDROOT
BRANCH   2   3
HETATM    3  C   UNL     1     -11.966  10.463  70.847  1.00  0.00    -0.478 C  
BRANCH   3   4
HETATM    4  C   UNL     1     -13.151  10.565  71.805  1.00  0.00    -0.570 C  
BRANCH   4   5
HETATM    5  C   UNL     1     -13.381   9.260  72.562  1.00  0.00    -0.391 C  
BRANCH   5   6
HETATM    6  O   UNL     1     -14.100   8.373  71.707  1.00  0.00    -0.396 OA 
BRANCH   6   7
HETATM    7  N   UNL     1     -13.504   7.117  71.759  1.00  0.00    -0.509 NA 
HETATM    8  O   UNL     1     -12.744   6.949  70.800  1.00  0.00    -0.533 OA 
HETATM    9  H   UNL     1     -14.198   6.373  71.825  1.00  0.00     0.000 HD 
HETATM   10  H   UNL     1     -12.338   6.091  70.835  1.00  0.00     0.000 HD 
ENDBRANCH   6   7
ENDBRANCH   5   6
ENDBRANCH   4   5
ENDBRANCH   3   4
ENDBRANCH   2   3
TORSDOF 5
ENDMDL
MODEL       43
REMARK 921   NORMALIZED FREE ENERGY PREDICTED BY IDOCK:   -2.84 KCAL/MOL
REMARK 922        TOTAL FREE ENERGY PREDICTED BY IDOCK:   -3.80 KCAL/MOL
REMARK 923 INTER-LIGAND FREE ENERGY PREDICTED BY IDOCK:   -3.62 KCAL/MOL
REMARK 924 INTRA-LIGAND FREE ENERGY PREDICTED BY IDOCK:   -0.18 KCAL/MOL
REMARK 927      BINDING AFFINITY PREDICTED BY RF-SCORE:    0.00 PKD
ROOT
HETATM    1  C   UNL     1     -10.233  10.801  64.460  1.00  0.00    -0.428 C  
HETATM    2  C   UNL     1     -10.848  11.557  63.292  1.00  0.00    -0.342 C  
ENDROOT
BRANCH   2   3
HETATM    3  C   UNL     1     -12.261  12.038  63.617  1.00  0.00    -0.642 C  
BRANCH   3   4
HETATM    4  C   UNL     1     -12.279  13.532  63.935  1.00  0.00    -0.458 C  
BRANCH   4   5
HETATM    5  C   UNL     1     -12.297  13.790  65.439  1.00  0.00    -0.475 C  
BRANCH   5   6
HETATM    6  O   UNL     1     -11.309  14.777  65.730  1.00  0.00    -0.340 OA 
BRANCH   6   7
HETATM    7  N   UNL     1     -10.087  14.358  65.213  1.00  0.00    -0.478 NA 
HETATM    8  O   UNL     1      -9.317  14.023  66.119  1.00  0.00    -0.456 OA 
HETATM    9  H   UNL     1      -9.672  15.066  64.608  1.00  0.00     0.000 HD 
HETATM   10  H   UNL     1      -8.483  13.737  65.766  1.00  0.00     0.000 HD 
ENDBRANCH   6   7
ENDBRANCH   5   6
ENDBRANCH   4   5
ENDBRANCH   3   4
ENDBRANCH   2   3
TORSDOF 5
ENDMDL
MODEL       44
REMARK 921   NORMALIZED FREE ENERGY PREDICTED BY IDOCK:   -2.84 KCAL/MOL
REMARK 922        TOTAL FREE ENERGY PREDICTED BY IDOCK:   -3.80 KCAL/MOL
REMARK 923 INTER-LIGAND FREE ENERGY PREDICTED BY IDOCK:   -3.73 KCAL/MOL
REMARK 924 INTRA-LIGAND FREE ENERGY PREDICTED BY IDOCK:   -0.07 KCAL/MOL
REMARK 927      BINDING AFFINITY PREDICTED BY RF-SCORE:    0.00 PKD
ROOT
HETATM    1  C   UNL     1     -14.404   7.350  71.619  1.00  0.00    -0.614 C  
HETATM    2  C   UNL     1     -14.257   8.757  72.177  1.00  0.00    -0.504 C  
ENDROOT
BRANCH   2   3
HETATM    3  C   UNL     1     -12.828   9.277  72.020  1.00  0.00    -0.495 C  
BRANCH   3   4
HETATM    4  C   UNL     1     -12.813  10.777  71.735  1.00  0.00    -0.528 C  
BRANCH   4   5
HETATM    5  C   UNL     1     -12.027  11.106  70.470  1.00  0.00    -0.380 C  
BRANCH   5   6
HETATM    6  O   UNL     1     -12.125  12.510  70.239  1.00  0.00    -0.349 OA 
BRANCH   6   7
HETATM    7  N   UNL     1     -10.971  12.942  69.594  1.00  0.00    -0.443 NA 
HETATM    8  O   UNL     1     -10.251  11.985  69.291  1.00  0.00    -0.418 OA 
HETATM    9  H   UNL     1     -10.466  13.633  70.149  1.00  0.00     0.000 HD 
HETATM   10  H   UNL     1      -9.463  12.281  68.851  1.00  0.00     0.000 HD 
ENDBRANCH   6   7
ENDBRANCH   5   6
ENDBRANCH   4   5
ENDBRANCH   3   4
ENDBRANCH   2   3
TORSDOF 5
ENDMDL
MODEL       45
REMARK 921   NORMALIZED FREE ENERGY PREDICTED BY IDOCK:   -2.77 KCAL/MOL
REMARK 922        TOTAL FREE ENERGY PREDICTED BY IDOCK:   -3.71 KCAL/MOL
REMARK 923 INTER-LIGAND FREE ENERGY PREDICTED BY IDOCK:   -3.58 KCAL/MOL
REMARK 924 INTRA-LIGAND FREE ENERGY PREDICTED BY IDOCK:   -0.13 KCAL/MOL
REMARK 927      BINDING AFFINITY PREDICTED BY RF-SCORE:    0.00 PKD
ROOT
HETATM    1  C   UNL     1     -10.987   5.880  69.891  1.00  0.00    -0.444 C  
HETATM    2  C   UNL     1     -12.021   6.520  70.804  1.00  0.00    -0.351 C  
ENDROOT
BRANCH   2   3
HETATM    3  C   UNL     1     -11.381   7.065  72.081  1.00  0.00    -0.302 C  
BRANCH   3   4
HETATM    4  C   UNL     1     -11.739   8.534  72.297  1.00  0.00    -0.443 C  
BRANCH   4   5
HETATM    5  C   UNL     1     -11.124   9.430  71.227  1.00  0.00    -0.376 C  
BRANCH   5   6
HETATM    6  O   UNL     1     -12.009  10.527  71.006  1.00  0.00    -0.343 OA 
BRANCH   6   7
HETATM    7  N   UNL     1     -12.804  10.249  69.899  1.00  0.00    -0.533 NA 
HETATM    8  O   UNL     1     -12.385  10.838  68.897  1.00  0.00    -0.788 OA 
HETATM    9  H   UNL     1     -13.785  10.459  70.077  1.00  0.00     0.000 HD 
HETATM   10  H   UNL     1     -12.928  10.648  68.141  1.00  0.00     0.000 HD 
ENDBRANCH   6   7
ENDBRANCH   5   6
ENDBRANCH   4   5
ENDBRANCH   3   4
ENDBRANCH   2   3
TORSDOF 5
ENDMDL
MODEL       46
REMARK 921   NORMALIZED FREE ENERGY PREDICTED BY IDOCK:   -2.75 KCAL/MOL
REMARK 922        TOTAL FREE ENERGY PREDICTED BY IDOCK:   -3.68 KCAL/MOL
REMARK 923 INTER-LIGAND FREE ENERGY PREDICTED BY IDOCK:   -3.62 KCAL/MOL
REMARK 924 INTRA-LIGAND FREE ENERGY PREDICTED BY IDOCK:   -0.06 KCAL/MOL
REMARK 927      BINDING AFFINITY PREDICTED BY RF-SCORE:    0.00 PKD
ROOT
HETATM    1  C   UNL     1      -8.541  11.846  67.482  1.00  0.00    -0.160 C  
HETATM    2  C   UNL     1      -9.853  12.173  68.178  1.00  0.00    -0.207 C  
ENDROOT
BRANCH   2   3
HETATM    3  C   UNL     1     -11.023  12.185  67.195  1.00  0.00    -0.316 C  
BRANCH   3   4
HETATM    4  C   UNL     1     -11.809  13.491  67.284  1.00  0.00    -0.427 C  
BRANCH   4   5
HETATM    5  C   UNL     1     -11.926  14.176  65.926  1.00  0.00    -0.409 C  
BRANCH   5   6
HETATM    6  O   UNL     1     -13.217  13.887  65.394  1.00  0.00    -0.750 OA 
BRANCH   6   7
HETATM    7  N   UNL     1     -13.113  12.809  64.521  1.00  0.00    -0.733 NA 
HETATM    8  O   UNL     1     -12.345  13.069  63.589  1.00  0.00    -0.621 OA 
HETATM    9  H   UNL     1     -14.027  12.508  64.183  1.00  0.00     0.000 HD 
HETATM   10  H   UNL     1     -12.275  12.333  62.993  1.00  0.00     0.000 HD 
ENDBRANCH   6   7
ENDBRANCH   5   6
ENDBRANCH   4   5
ENDBRANCH   3   4
ENDBRANCH   2   3
TORSDOF 5
ENDMDL
MODEL       47
REMARK 921   NORMALIZED FREE ENERGY PREDICTED BY IDOCK:   -2.74 KCAL/MOL
REMARK 922        TOTAL FREE ENERGY PREDICTED BY IDOCK:   -3.67 KCAL/MOL
REMARK 923 INTER-LIGAND FREE ENERGY PREDICTED BY IDOCK:   -3.59 KCAL/MOL
REMARK 924 INTRA-LIGAND FREE ENERGY PREDICTED BY IDOCK:   -0.08 KCAL/MOL
REMARK 927      BINDING AFFINITY PREDICTED BY RF-SCORE:    0.00 PKD
ROOT
HETATM    1  C   UNL     1      -9.950  20.239  66.965  1.00  0.00    -0.601 C  
HETATM    2  C   UNL     1      -8.911  19.128  66.962  1.00  0.00    -0.318 C  
ENDROOT
BRANCH   2   3
HETATM    3  C   UNL     1      -7.898  19.304  68.093  1.00  0.00    -0.343 C  
BRANCH   3   4
HETATM    4  C   UNL     1      -6.650  20.039  67.610  1.00  0.00    -0.264 C  
BRANCH   4   5
HETATM    5  C   UNL     1      -5.914  20.722  68.759  1.00  0.00    -0.341 C  
BRANCH   5   6
HETATM    6  O   UNL     1      -6.349  20.126  69.980  1.00  0.00    -0.354 OA 
BRANCH   6   7
HETATM    7  N   UNL     1      -5.749  20.791  71.044  1.00  0.00    -0.560 NA 
HETATM    8  O   UNL     1      -6.411  20.655  72.078  1.00  0.00    -0.812 OA 
HETATM    9  H   UNL     1      -5.583  21.774  70.829  1.00  0.00     0.000 HD 
HETATM   10  H   UNL     1      -6.001  21.109  72.804  1.00  0.00     0.000 HD 
ENDBRANCH   6   7
ENDBRANCH   5   6
ENDBRANCH   4   5
ENDBRANCH   3   4
ENDBRANCH   2   3
TORSDOF 5
ENDMDL
MODEL       48
REMARK 921   NORMALIZED FREE ENERGY PREDICTED BY IDOCK:   -2.73 KCAL/MOL
REMARK 922        TOTAL FREE ENERGY PREDICTED BY IDOCK:   -3.66 KCAL/MOL
REMARK 923 INTER-LIGAND FREE ENERGY PREDICTED BY IDOCK:   -3.56 KCAL/MOL
REMARK 924 INTRA-LIGAND FREE ENERGY PREDICTED BY IDOCK:   -0.11 KCAL/MOL
REMARK 927      BINDING AFFINITY PREDICTED BY RF-SCORE:    0.00 PKD
ROOT
HETATM    1  C   UNL     1      -9.953  20.106  66.486  1.00  0.00    -0.586 C  
HETATM    2  C   UNL     1     -10.649  18.902  67.103  1.00  0.00    -0.531 C  
ENDROOT
BRANCH   2   3
HETATM    3  C   UNL     1     -10.190  18.664  68.541  1.00  0.00    -0.398 C  
BRANCH   3   4
HETATM    4  C   UNL     1     -10.376  17.204  68.948  1.00  0.00    -0.348 C  
BRANCH   4   5
HETATM    5  C   UNL     1     -10.653  16.311  67.742  1.00  0.00    -0.314 C  
BRANCH   5   6
HETATM    6  O   UNL     1     -10.891  14.987  68.217  1.00  0.00    -0.246 OA 
BRANCH   6   7
HETATM    7  N   UNL     1     -12.258  14.732  68.173  1.00  0.00    -0.589 NA 
HETATM    8  O   UNL     1     -12.699  14.499  69.303  1.00  0.00    -0.545 OA 
HETATM    9  H   UNL     1     -12.480  13.982  67.519  1.00  0.00     0.000 HD 
HETATM   10  H   UNL     1     -13.632  14.324  69.272  1.00  0.00     0.000 HD 
ENDBRANCH   6   7
ENDBRANCH   5   6
ENDBRANCH   4   5
ENDBRANCH   3   4
ENDBRANCH   2   3
TORSDOF 5
ENDMDL
MODEL       49
REMARK 921   NORMALIZED FREE ENERGY PREDICTED BY IDOCK:   -2.73 KCAL/MOL
REMARK 922        TOTAL FREE ENERGY PREDICTED BY IDOCK:   -3.66 KCAL/MOL
REMARK 923 INTER-LIGAND FREE ENERGY PREDICTED BY IDOCK:   -3.56 KCAL/MOL
REMARK 924 INTRA-LIGAND FREE ENERGY PREDICTED BY IDOCK:   -0.10 KCAL/MOL
REMARK 927      BINDING AFFINITY PREDICTED BY RF-SCORE:    0.00 PKD
ROOT
HETATM    1  C   UNL     1      -9.719  20.533  67.230  1.00  0.00    -0.600 C  
HETATM    2  C   UNL     1     -10.732  19.399  67.237  1.00  0.00    -0.603 C  
ENDROOT
BRANCH   2   3
HETATM    3  C   UNL     1     -10.488  18.420  66.090  1.00  0.00    -0.422 C  
BRANCH   3   4
HETATM    4  C   UNL     1     -10.147  17.026  66.613  1.00  0.00    -0.308 C  
BRANCH   4   5
HETATM    5  C   UNL     1     -10.518  15.938  65.611  1.00  0.00    -0.392 C  
BRANCH   5   6
HETATM    6  O   UNL     1     -10.772  14.736  66.337  1.00  0.00    -0.300 OA 
BRANCH   6   7
HETATM    7  N   UNL     1     -11.259  15.065  67.597  1.00  0.00    -0.317 NA 
HETATM    8  O   UNL     1     -12.339  14.505  67.812  1.00  0.00    -0.619 OA 
HETATM    9  H   UNL     1     -11.327  16.075  67.723  1.00  0.00     0.000 HD 
HETATM   10  H   UNL     1     -12.672  14.730  68.673  1.00  0.00     0.000 HD 
ENDBRANCH   6   7
ENDBRANCH   5   6
ENDBRANCH   4   5
ENDBRANCH   3   4
ENDBRANCH   2   3
TORSDOF 5
ENDMDL
MODEL       50
REMARK 921   NORMALIZED FREE ENERGY PREDICTED BY IDOCK:   -2.73 KCAL/MOL
REMARK 922        TOTAL FREE ENERGY PREDICTED BY IDOCK:   -3.65 KCAL/MOL
REMARK 923 INTER-LIGAND FREE ENERGY PREDICTED BY IDOCK:   -3.43 KCAL/MOL
REMARK 924 INTRA-LIGAND FREE ENERGY PREDICTED BY IDOCK:   -0.22 KCAL/MOL
REMARK 927      BINDING AFFINITY PREDICTED BY RF-SCORE:    0.00 PKD
ROOT
HETATM    1  C   UNL     1     -12.868  10.241  71.473  1.00  0.00    -0.557 C  
HETATM    2  C   UNL     1     -11.515   9.911  70.861  1.00  0.00    -0.456 C  
ENDROOT
BRANCH   2   3
HETATM    3  C   UNL     1     -10.750   8.894  71.706  1.00  0.00    -0.432 C  
BRANCH   3   4
HETATM    4  C   UNL     1     -11.703   7.978  72.470  1.00  0.00    -0.446 C  
BRANCH   4   5
HETATM    5  C   UNL     1     -11.748   6.577  71.867  1.00  0.00    -0.324 C  
BRANCH   5   6
HETATM    6  O   UNL     1     -10.568   6.393  71.087  1.00  0.00    -0.222 OA 
BRANCH   6   7
HETATM    7  N   UNL     1     -10.915   5.783  69.885  1.00  0.00    -0.349 NA 
HETATM    8  O   UNL     1     -11.674   6.503  69.229  1.00  0.00    -0.644 OA 
HETATM    9  H   UNL     1     -11.311   4.856  70.034  1.00  0.00     0.000 HD 
HETATM   10  H   UNL     1     -11.910   6.087  68.408  1.00  0.00     0.000 HD 
ENDBRANCH   6   7
ENDBRANCH   5   6
ENDBRANCH   4   5
ENDBRANCH   3   4
ENDBRANCH   2   3
TORSDOF 5
ENDMDL
MODEL       51
REMARK 921   NORMALIZED FREE ENERGY PREDICTED BY IDOCK:   -2.72 KCAL/MOL
REMARK 922        TOTAL FREE ENERGY PREDICTED BY IDOCK:   -3.64 KCAL/MOL
REMARK 923 INTER-LIGAND FREE ENERGY PREDICTED BY IDOCK:   -3.48 KCAL/MOL
REMARK 924 INTRA-LIGAND FREE ENERGY PREDICTED BY IDOCK:   -0.16 KCAL/MOL
REMARK 927      BINDING AFFINITY PREDICTED BY RF-SCORE:    0.00 PKD
ROOT
HETATM    1  C   UNL     1     -11.469  10.840  70.134  1.00  0.00    -0.415 C  
HETATM    2  C   UNL     1     -12.688  10.886  71.044  1.00  0.00    -0.505 C  
ENDROOT
BRANCH   2   3
HETATM    3  C   UNL     1     -12.689   9.727  72.040  1.00  0.00    -0.463 C  
BRANCH   3   4
HETATM    4  C   UNL     1     -13.666   8.633  71.616  1.00  0.00    -0.424 C  
BRANCH   4   5
HETATM    5  C   UNL     1     -12.958   7.301  71.383  1.00  0.00    -0.373 C  
BRANCH   5   6
HETATM    6  O   UNL     1     -11.561   7.558  71.256  1.00  0.00    -0.267 OA 
BRANCH   6   7
HETATM    7  N   UNL     1     -11.176   7.309  69.942  1.00  0.00    -0.422 NA 
HETATM    8  O   UNL     1     -12.016   6.616  69.360  1.00  0.00    -0.611 OA 
HETATM    9  H   UNL     1     -10.246   6.892  69.895  1.00  0.00     0.000 HD 
HETATM   10  H   UNL     1     -11.753   6.446  68.464  1.00  0.00     0.000 HD 
ENDBRANCH   6   7
ENDBRANCH   5   6
ENDBRANCH   4   5
ENDBRANCH   3   4
ENDBRANCH   2   3
TORSDOF 5
ENDMDL
MODEL       52
REMARK 921   NORMALIZED FREE ENERGY PREDICTED BY IDOCK:   -2.70 KCAL/MOL
REMARK 922        TOTAL FREE ENERGY PREDICTED BY IDOCK:   -3.62 KCAL/MOL
REMARK 923 INTER-LIGAND FREE ENERGY PREDICTED BY IDOCK:   -3.51 KCAL/MOL
REMARK 924 INTRA-LIGAND FREE ENERGY PREDICTED BY IDOCK:   -0.12 KCAL/MOL
REMARK 927      BINDING AFFINITY PREDICTED BY RF-SCORE:    0.00 PKD
ROOT
HETATM    1  C   UNL     1     -11.379   6.225  70.251  1.00  0.00    -0.457 C  
HETATM    2  C   UNL     1     -11.380   7.679  70.697  1.00  0.00    -0.288 C  
ENDROOT
BRANCH   2   3
HETATM    3  C   UNL     1     -12.236   7.883  71.946  1.00  0.00    -0.351 C  
BRANCH   3   4
HETATM    4  C   UNL     1     -12.826   9.291  71.990  1.00  0.00    -0.495 C  
BRANCH   4   5
HETATM    5  C   UNL     1     -11.958  10.293  71.236  1.00  0.00    -0.363 C  
BRANCH   5   6
HETATM    6  O   UNL     1     -12.634  11.549  71.230  1.00  0.00    -0.383 OA 
BRANCH   6   7
HETATM    7  N   UNL     1     -13.373  11.667  72.403  1.00  0.00    -0.489 NA 
HETATM    8  O   UNL     1     -13.661  12.848  72.625  1.00  0.00    -0.678 OA 
HETATM    9  H   UNL     1     -12.892  11.242  73.196  1.00  0.00     0.000 HD 
HETATM   10  H   UNL     1     -14.165  12.929  73.426  1.00  0.00     0.000 HD 
ENDBRANCH   6   7
ENDBRANCH   5   6
ENDBRANCH   4   5
ENDBRANCH   3   4
ENDBRANCH   2   3
TORSDOF 5
ENDMDL
MODEL       53
REMARK 921   NORMALIZED FREE ENERGY PREDICTED BY IDOCK:   -2.69 KCAL/MOL
REMARK 922        TOTAL FREE ENERGY PREDICTED BY IDOCK:   -3.61 KCAL/MOL
REMARK 923 INTER-LIGAND FREE ENERGY PREDICTED BY IDOCK:   -3.52 KCAL/MOL
REMARK 924 INTRA-LIGAND FREE ENERGY PREDICTED BY IDOCK:   -0.09 KCAL/MOL
REMARK 927      BINDING AFFINITY PREDICTED BY RF-SCORE:    0.00 PKD
ROOT
HETATM    1  C   UNL     1     -11.209  12.209  63.613  1.00  0.00    -0.540 C  
HETATM    2  C   UNL     1     -12.069  13.419  63.942  1.00  0.00    -0.514 C  
ENDROOT
BRANCH   2   3
HETATM    3  C   UNL     1     -12.314  13.542  65.446  1.00  0.00    -0.517 C  
BRANCH   3   4
HETATM    4  C   UNL     1     -11.646  12.401  66.211  1.00  0.00    -0.449 C  
BRANCH   4   5
HETATM    5  C   UNL     1     -11.709  12.617  67.719  1.00  0.00    -0.356 C  
BRANCH   5   6
HETATM    6  O   UNL     1     -10.702  13.563  68.073  1.00  0.00    -0.240 OA 
BRANCH   6   7
HETATM    7  N   UNL     1     -10.867  13.918  69.409  1.00  0.00    -0.426 NA 
HETATM    8  O   UNL     1     -11.257  12.953  70.075  1.00  0.00    -0.482 OA 
HETATM    9  H   UNL     1     -11.485  14.721  69.512  1.00  0.00     0.000 HD 
HETATM   10  H   UNL     1     -11.369  13.195  70.987  1.00  0.00     0.000 HD 
ENDBRANCH   6   7
ENDBRANCH   5   6
ENDBRANCH   4   5
ENDBRANCH   3   4
ENDBRANCH   2   3
TORSDOF 5
ENDMDL
MODEL       54
REMARK 921   NORMALIZED FREE ENERGY PREDICTED BY IDOCK:   -2.69 KCAL/MOL
REMARK 922        TOTAL FREE ENERGY PREDICTED BY IDOCK:   -3.61 KCAL/MOL
REMARK 923 INTER-LIGAND FREE ENERGY PREDICTED BY IDOCK:   -3.47 KCAL/MOL
REMARK 924 INTRA-LIGAND FREE ENERGY PREDICTED BY IDOCK:   -0.14 KCAL/MOL
REMARK 927      BINDING AFFINITY PREDICTED BY RF-SCORE:    0.00 PKD
ROOT
HETATM    1  C   UNL     1     -10.445   7.327  73.300  1.00  0.00    -0.416 C  
HETATM    2  C   UNL     1     -10.039   8.371  72.271  1.00  0.00    -0.382 C  
ENDROOT
BRANCH   2   3
HETATM    3  C   UNL     1     -11.126   8.569  71.214  1.00  0.00    -0.320 C  
BRANCH   3   4
HETATM    4  C   UNL     1     -12.428   9.059  71.843  1.00  0.00    -0.454 C  
BRANCH   4   5
HETATM    5  C   UNL     1     -12.788  10.466  71.377  1.00  0.00    -0.452 C  
BRANCH   5   6
HETATM    6  O   UNL     1     -11.672  10.995  70.663  1.00  0.00    -0.329 OA 
BRANCH   6   7
HETATM    7  N   UNL     1     -12.121  11.536  69.462  1.00  0.00    -0.304 NA 
HETATM    8  O   UNL     1     -12.273  10.653  68.612  1.00  0.00    -0.814 OA 
HETATM    9  H   UNL     1     -11.505  12.277  69.130  1.00  0.00     0.000 HD 
HETATM   10  H   UNL     1     -12.579  11.022  67.792  1.00  0.00     0.000 HD 
ENDBRANCH   6   7
ENDBRANCH   5   6
ENDBRANCH   4   5
ENDBRANCH   3   4
ENDBRANCH   2   3
TORSDOF 5
ENDMDL
MODEL       55
REMARK 921   NORMALIZED FREE ENERGY PREDICTED BY IDOCK:   -2.68 KCAL/MOL
REMARK 922        TOTAL FREE ENERGY PREDICTED BY IDOCK:   -3.60 KCAL/MOL
REMARK 923 INTER-LIGAND FREE ENERGY PREDICTED BY IDOCK:   -3.44 KCAL/MOL
REMARK 924 INTRA-LIGAND FREE ENERGY PREDICTED BY IDOCK:   -0.16 KCAL/MOL
REMARK 927      BINDING AFFINITY PREDICTED BY RF-SCORE:    0.00 PKD
ROOT
HETATM    1  C   UNL     1     -13.946   9.256  72.322  1.00  0.00    -0.439 C  
HETATM    2  C   UNL     1     -12.992  10.318  71.799  1.00  0.00    -0.574 C  
ENDROOT
BRANCH   2   3
HETATM    3  C   UNL     1     -11.738   9.694  71.188  1.00  0.00    -0.450 C  
BRANCH   3   4
HETATM    4  C   UNL     1     -11.413   8.352  71.839  1.00  0.00    -0.384 C  
BRANCH   4   5
HETATM    5  C   UNL     1     -10.995   7.308  70.807  1.00  0.00    -0.251 C  
BRANCH   5   6
HETATM    6  O   UNL     1     -11.379   6.024  71.295  1.00  0.00    -0.285 OA 
BRANCH   6   7
HETATM    7  N   UNL     1     -12.011   6.181  72.524  1.00  0.00    -0.526 NA 
HETATM    8  O   UNL     1     -11.895   5.161  73.212  1.00  0.00    -0.527 OA 
HETATM    9  H   UNL     1     -12.987   6.451  72.414  1.00  0.00     0.000 HD 
HETATM   10  H   UNL     1     -12.326   5.267  74.051  1.00  0.00     0.000 HD 
ENDBRANCH   6   7
ENDBRANCH   5   6
ENDBRANCH   4   5
ENDBRANCH   3   4
ENDBRANCH   2   3
TORSDOF 5
ENDMDL
MODEL       56
REMARK 921   NORMALIZED FREE ENERGY PREDICTED BY IDOCK:   -2.68 KCAL/MOL
REMARK 922        TOTAL FREE ENERGY PREDICTED BY IDOCK:   -3.59 KCAL/MOL
REMARK 923 INTER-LIGAND FREE ENERGY PREDICTED BY IDOCK:   -3.57 KCAL/MOL
REMARK 924 INTRA-LIGAND FREE ENERGY PREDICTED BY IDOCK:   -0.02 KCAL/MOL
REMARK 927      BINDING AFFINITY PREDICTED BY RF-SCORE:    0.00 PKD
ROOT
HETATM    1  C   UNL     1     -10.567  14.335  68.765  1.00  0.00    -0.255 C  
HETATM    2  C   UNL     1     -10.293  13.871  67.343  1.00  0.00    -0.252 C  
ENDROOT
BRANCH   2   3
HETATM    3  C   UNL     1      -9.350  14.828  66.613  1.00  0.00    -0.291 C  
BRANCH   3   4
HETATM    4  C   UNL     1      -9.971  15.333  65.313  1.00  0.00    -0.322 C  
BRANCH   4   5
HETATM    5  C   UNL     1     -11.350  14.726  65.070  1.00  0.00    -0.391 C  
BRANCH   5   6
HETATM    6  O   UNL     1     -11.199  13.634  64.164  1.00  0.00    -0.367 OA 
BRANCH   6   7
HETATM    7  N   UNL     1     -12.351  13.529  63.390  1.00  0.00    -0.963 NA 
HETATM    8  O   UNL     1     -12.967  12.492  63.655  1.00  0.00    -0.730 OA 
HETATM    9  H   UNL     1     -12.143  13.600  62.395  1.00  0.00     0.000 HD 
HETATM   10  H   UNL     1     -13.752  12.420  63.127  1.00  0.00     0.000 HD 
ENDBRANCH   6   7
ENDBRANCH   5   6
ENDBRANCH   4   5
ENDBRANCH   3   4
ENDBRANCH   2   3
TORSDOF 5
ENDMDL
MODEL       57
REMARK 921   NORMALIZED FREE ENERGY PREDICTED BY IDOCK:   -2.65 KCAL/MOL
REMARK 922        TOTAL FREE ENERGY PREDICTED BY IDOCK:   -3.55 KCAL/MOL
REMARK 923 INTER-LIGAND FREE ENERGY PREDICTED BY IDOCK:   -3.40 KCAL/MOL
REMARK 924 INTRA-LIGAND FREE ENERGY PREDICTED BY IDOCK:   -0.15 KCAL/MOL
REMARK 927      BINDING AFFINITY PREDICTED BY RF-SCORE:    0.00 PKD
ROOT
HETATM    1  C   UNL     1     -10.371  11.889  63.362  1.00  0.00    -0.481 C  
HETATM    2  C   UNL     1     -11.388  12.355  64.393  1.00  0.00    -0.396 C  
ENDROOT
BRANCH   2   3
HETATM    3  C   UNL     1     -11.831  13.794  64.133  1.00  0.00    -0.439 C  
BRANCH   3   4
HETATM    4  C   UNL     1     -10.877  14.794  64.782  1.00  0.00    -0.395 C  
BRANCH   4   5
HETATM    5  C   UNL     1     -10.689  14.513  66.270  1.00  0.00    -0.309 C  
BRANCH   5   6
HETATM    6  O   UNL     1     -11.793  15.083  66.971  1.00  0.00    -0.272 OA 
BRANCH   6   7
HETATM    7  N   UNL     1     -12.373  14.103  67.770  1.00  0.00    -0.547 NA 
HETATM    8  O   UNL     1     -12.622  14.544  68.897  1.00  0.00    -0.560 OA 
HETATM    9  H   UNL     1     -11.798  13.263  67.813  1.00  0.00     0.000 HD 
HETATM   10  H   UNL     1     -13.018  13.875  69.442  1.00  0.00     0.000 HD 
ENDBRANCH   6   7
ENDBRANCH   5   6
ENDBRANCH   4   5
ENDBRANCH   3   4
ENDBRANCH   2   3
TORSDOF 5
ENDMDL
MODEL       58
REMARK 921   NORMALIZED FREE ENERGY PREDICTED BY IDOCK:   -2.64 KCAL/MOL
REMARK 922        TOTAL FREE ENERGY PREDICTED BY IDOCK:   -3.54 KCAL/MOL
REMARK 923 INTER-LIGAND FREE ENERGY PREDICTED BY IDOCK:   -3.48 KCAL/MOL
REMARK 924 INTRA-LIGAND FREE ENERGY PREDICTED BY IDOCK:   -0.06 KCAL/MOL
REMARK 927      BINDING AFFINITY PREDICTED BY RF-SCORE:    0.00 PKD
ROOT
HETATM    1  C   UNL     1     -13.489  15.594  72.945  1.00  0.00    -0.657 C  
HETATM    2  C   UNL     1     -13.723  15.413  71.453  1.00  0.00    -0.591 C  
ENDROOT
BRANCH   2   3
HETATM    3  C   UNL     1     -12.405  15.332  70.684  1.00  0.00    -0.427 C  
BRANCH   3   4
HETATM    4  C   UNL     1     -12.221  13.959  70.042  1.00  0.00    -0.408 C  
BRANCH   4   5
HETATM    5  C   UNL     1     -11.140  13.976  68.966  1.00  0.00    -0.264 C  
BRANCH   5   6
HETATM    6  O   UNL     1     -11.057  12.669  68.401  1.00  0.00    -0.235 OA 
BRANCH   6   7
HETATM    7  N   UNL     1     -11.257  12.759  67.027  1.00  0.00    -0.278 NA 
HETATM    8  O   UNL     1     -12.152  11.991  66.660  1.00  0.00    -0.615 OA 
HETATM    9  H   UNL     1     -10.392  12.604  66.510  1.00  0.00     0.000 HD 
HETATM   10  H   UNL     1     -12.288  12.053  65.722  1.00  0.00     0.000 HD 
ENDBRANCH   6   7
ENDBRANCH   5   6
ENDBRANCH   4   5
ENDBRANCH   3   4
ENDBRANCH   2   3
TORSDOF 5
ENDMDL
MODEL       59
REMARK 921   NORMALIZED FREE ENERGY PREDICTED BY IDOCK:   -2.62 KCAL/MOL
REMARK 922        TOTAL FREE ENERGY PREDICTED BY IDOCK:   -3.52 KCAL/MOL
REMARK 923 INTER-LIGAND FREE ENERGY PREDICTED BY IDOCK:   -3.45 KCAL/MOL
REMARK 924 INTRA-LIGAND FREE ENERGY PREDICTED BY IDOCK:   -0.07 KCAL/MOL
REMARK 927      BINDING AFFINITY PREDICTED BY RF-SCORE:    0.00 PKD
ROOT
HETATM    1  C   UNL     1      -8.227  16.421  66.306  1.00  0.00    -0.343 C  
HETATM    2  C   UNL     1      -9.304  15.350  66.378  1.00  0.00    -0.331 C  
ENDROOT
BRANCH   2   3
HETATM    3  C   UNL     1     -10.438  15.627  65.391  1.00  0.00    -0.435 C  
BRANCH   3   4
HETATM    4  C   UNL     1     -11.554  14.594  65.525  1.00  0.00    -0.335 C  
BRANCH   4   5
HETATM    5  C   UNL     1     -11.006  13.202  65.827  1.00  0.00    -0.277 C  
BRANCH   5   6
HETATM    6  O   UNL     1     -12.103  12.359  66.174  1.00  0.00    -0.611 OA 
BRANCH   6   7
HETATM    7  N   UNL     1     -11.648  11.356  67.024  1.00  0.00    -0.514 NA 
HETATM    8  O   UNL     1     -12.067  11.529  68.173  1.00  0.00    -0.604 OA 
HETATM    9  H   UNL     1     -10.632  11.276  67.002  1.00  0.00     0.000 HD 
HETATM   10  H   UNL     1     -11.756  10.844  68.753  1.00  0.00     0.000 HD 
ENDBRANCH   6   7
ENDBRANCH   5   6
ENDBRANCH   4   5
ENDBRANCH   3   4
ENDBRANCH   2   3
TORSDOF 5
ENDMDL
MODEL       60
REMARK 921   NORMALIZED FREE ENERGY PREDICTED BY IDOCK:   -2.60 KCAL/MOL
REMARK 922        TOTAL FREE ENERGY PREDICTED BY IDOCK:   -3.49 KCAL/MOL
REMARK 923 INTER-LIGAND FREE ENERGY PREDICTED BY IDOCK:   -3.21 KCAL/MOL
REMARK 924 INTRA-LIGAND FREE ENERGY PREDICTED BY IDOCK:   -0.27 KCAL/MOL
REMARK 927      BINDING AFFINITY PREDICTED BY RF-SCORE:    0.00 PKD
ROOT
HETATM    1  C   UNL     1     -14.089   8.702  71.910  1.00  0.00    -0.512 C  
HETATM    2  C   UNL     1     -13.002   9.741  72.143  1.00  0.00    -0.483 C  
ENDROOT
BRANCH   2   3
HETATM    3  C   UNL     1     -12.896  10.715  70.970  1.00  0.00    -0.496 C  
BRANCH   3   4
HETATM    4  C   UNL     1     -11.481  10.742  70.398  1.00  0.00    -0.397 C  
BRANCH   4   5
HETATM    5  C   UNL     1     -10.630   9.596  70.937  1.00  0.00    -0.316 C  
BRANCH   5   6
HETATM    6  O   UNL     1     -10.158   8.834  69.828  1.00  0.00    -0.186 OA 
BRANCH   6   7
HETATM    7  N   UNL     1     -11.194   8.032  69.360  1.00  0.00    -0.425 NA 
HETATM    8  O   UNL     1     -11.440   7.121  70.157  1.00  0.00    -0.398 OA 
HETATM    9  H   UNL     1     -11.001   7.673  68.426  1.00  0.00     0.000 HD 
HETATM   10  H   UNL     1     -12.147   6.573  69.838  1.00  0.00     0.000 HD 
ENDBRANCH   6   7
ENDBRANCH   5   6
ENDBRANCH   4   5
ENDBRANCH   3   4
ENDBRANCH   2   3
TORSDOF 5
ENDMDL
MODEL       61
REMARK 921   NORMALIZED FREE ENERGY PREDICTED BY IDOCK:   -2.58 KCAL/MOL
REMARK 922        TOTAL FREE ENERGY PREDICTED BY IDOCK:   -3.46 KCAL/MOL
REMARK 923 INTER-LIGAND FREE ENERGY PREDICTED BY IDOCK:   -3.37 KCAL/MOL
REMARK 924 INTRA-LIGAND FREE ENERGY PREDICTED BY IDOCK:   -0.10 KCAL/MOL
REMARK 927      BINDING AFFINITY PREDICTED BY RF-SCORE:    0.00 PKD
ROOT
HETATM    1  C   UNL     1     -14.401   8.446  71.947  1.00  0.00    -0.561 C  
HETATM    2  C   UNL     1     -13.421   9.604  72.050  1.00  0.00    -0.514 C  
ENDROOT
BRANCH   2   3
HETATM    3  C   UNL     1     -12.923  10.043  70.674  1.00  0.00    -0.250 C  
BRANCH   3   4
HETATM    4  C   UNL     1     -12.269  11.422  70.734  1.00  0.00    -0.475 C  
BRANCH   4   5
HETATM    5  C   UNL     1     -11.721  11.849  69.376  1.00  0.00    -0.339 C  
BRANCH   5   6
HETATM    6  O   UNL     1     -11.494  13.257  69.413  1.00  0.00    -0.267 OA 
BRANCH   6   7
HETATM    7  N   UNL     1     -11.618  13.698  70.726  1.00  0.00    -0.449 NA 
HETATM    8  O   UNL     1     -10.941  14.715  70.914  1.00  0.00    -0.513 OA 
HETATM    9  H   UNL     1     -11.387  12.963  71.394  1.00  0.00     0.000 HD 
HETATM   10  H   UNL     1     -11.026  15.016  71.811  1.00  0.00     0.000 HD 
ENDBRANCH   6   7
ENDBRANCH   5   6
ENDBRANCH   4   5
ENDBRANCH   3   4
ENDBRANCH   2   3
TORSDOF 5
ENDMDL
MODEL       62
REMARK 921   NORMALIZED FREE ENERGY PREDICTED BY IDOCK:   -2.56 KCAL/MOL
REMARK 922        TOTAL FREE ENERGY PREDICTED BY IDOCK:   -3.43 KCAL/MOL
REMARK 923 INTER-LIGAND FREE ENERGY PREDICTED BY IDOCK:   -3.29 KCAL/MOL
REMARK 924 INTRA-LIGAND FREE ENERGY PREDICTED BY IDOCK:   -0.14 KCAL/MOL
REMARK 927      BINDING AFFINITY PREDICTED BY RF-SCORE:    0.00 PKD
ROOT
HETATM    1  C   UNL     1     -10.416   8.710  71.978  1.00  0.00    -0.422 C  
HETATM    2  C   UNL     1     -11.875   8.304  72.125  1.00  0.00    -0.431 C  
ENDROOT
BRANCH   2   3
HETATM    3  C   UNL     1     -12.177   7.014  71.364  1.00  0.00    -0.407 C  
BRANCH   3   4
HETATM    4  C   UNL     1     -10.952   6.105  71.305  1.00  0.00    -0.340 C  
BRANCH   4   5
HETATM    5  C   UNL     1     -10.753   5.511  69.914  1.00  0.00    -0.288 C  
BRANCH   5   6
HETATM    6  O   UNL     1     -11.350   6.394  68.966  1.00  0.00    -0.355 OA 
BRANCH   6   7
HETATM    7  N   UNL     1     -10.722   6.226  67.737  1.00  0.00    -0.273 NA 
HETATM    8  O   UNL     1     -11.455   6.594  66.813  1.00  0.00    -0.776 OA 
HETATM    9  H   UNL     1     -10.403   5.266  67.605  1.00  0.00     0.000 HD 
HETATM   10  H   UNL     1     -11.026   6.479  65.974  1.00  0.00     0.000 HD 
ENDBRANCH   6   7
ENDBRANCH   5   6
ENDBRANCH   4   5
ENDBRANCH   3   4
ENDBRANCH   2   3
TORSDOF 5
ENDMDL
MODEL       63
REMARK 921   NORMALIZED FREE ENERGY PREDICTED BY IDOCK:   -2.55 KCAL/MOL
REMARK 922        TOTAL FREE ENERGY PREDICTED BY IDOCK:   -3.42 KCAL/MOL
REMARK 923 INTER-LIGAND FREE ENERGY PREDICTED BY IDOCK:   -3.31 KCAL/MOL
REMARK 924 INTRA-LIGAND FREE ENERGY PREDICTED BY IDOCK:   -0.11 KCAL/MOL
REMARK 927      BINDING AFFINITY PREDICTED BY RF-SCORE:    0.00 PKD
ROOT
HETATM    1  C   UNL     1      -9.477   7.240  73.873  1.00  0.00    -0.316 C  
HETATM    2  C   UNL     1      -9.982   7.979  72.643  1.00  0.00    -0.358 C  
ENDROOT
BRANCH   2   3
HETATM    3  C   UNL     1     -11.509   8.030  72.606  1.00  0.00    -0.465 C  
BRANCH   3   4
HETATM    4  C   UNL     1     -12.009   8.746  71.354  1.00  0.00    -0.367 C  
BRANCH   4   5
HETATM    5  C   UNL     1     -11.027   8.613  70.194  1.00  0.00    -0.226 C  
BRANCH   5   6
HETATM    6  O   UNL     1     -10.803   9.913  69.652  1.00  0.00    -0.227 OA 
BRANCH   6   7
HETATM    7  N   UNL     1     -11.412   9.991  68.403  1.00  0.00    -0.538 NA 
HETATM    8  O   UNL     1     -12.391  10.743  68.437  1.00  0.00    -0.813 OA 
HETATM    9  H   UNL     1     -11.657   9.068  68.046  1.00  0.00     0.000 HD 
HETATM   10  H   UNL     1     -12.807  10.796  67.584  1.00  0.00     0.000 HD 
ENDBRANCH   6   7
ENDBRANCH   5   6
ENDBRANCH   4   5
ENDBRANCH   3   4
ENDBRANCH   2   3
TORSDOF 5
ENDMDL
MODEL       64
REMARK 921   NORMALIZED FREE ENERGY PREDICTED BY IDOCK:   -2.54 KCAL/MOL
REMARK 922        TOTAL FREE ENERGY PREDICTED BY IDOCK:   -3.42 KCAL/MOL
REMARK 923 INTER-LIGAND FREE ENERGY PREDICTED BY IDOCK:   -3.31 KCAL/MOL
REMARK 924 INTRA-LIGAND FREE ENERGY PREDICTED BY IDOCK:   -0.10 KCAL/MOL
REMARK 927      BINDING AFFINITY PREDICTED BY RF-SCORE:    0.00 PKD
ROOT
HETATM    1  C   UNL     1     -13.509  15.574  72.955  1.00  0.00    -0.641 C  
HETATM    2  C   UNL     1     -13.799  15.433  71.468  1.00  0.00    -0.599 C  
ENDROOT
BRANCH   2   3
HETATM    3  C   UNL     1     -12.511  15.354  70.650  1.00  0.00    -0.478 C  
BRANCH   3   4
HETATM    4  C   UNL     1     -12.428  14.043  69.872  1.00  0.00    -0.301 C  
BRANCH   4   5
HETATM    5  C   UNL     1     -11.349  14.090  68.795  1.00  0.00    -0.278 C  
BRANCH   5   6
HETATM    6  O   UNL     1     -11.662  15.156  67.900  1.00  0.00    -0.338 OA 
BRANCH   6   7
HETATM    7  N   UNL     1     -10.543  15.971  67.762  1.00  0.00    -0.301 NA 
HETATM    8  O   UNL     1     -10.816  17.144  68.039  1.00  0.00    -0.378 OA 
HETATM    9  H   UNL     1     -10.130  15.890  66.833  1.00  0.00     0.000 HD 
HETATM   10  H   UNL     1     -10.052  17.700  67.944  1.00  0.00     0.000 HD 
ENDBRANCH   6   7
ENDBRANCH   5   6
ENDBRANCH   4   5
ENDBRANCH   3   4
ENDBRANCH   2   3
TORSDOF 5
ENDMDL
MODEL       65
REMARK 921   NORMALIZED FREE ENERGY PREDICTED BY IDOCK:   -2.50 KCAL/MOL
REMARK 922        TOTAL FREE ENERGY PREDICTED BY IDOCK:   -3.36 KCAL/MOL
REMARK 923 INTER-LIGAND FREE ENERGY PREDICTED BY IDOCK:   -3.25 KCAL/MOL
REMARK 924 INTRA-LIGAND FREE ENERGY PREDICTED BY IDOCK:   -0.11 KCAL/MOL
REMARK 927      BINDING AFFINITY PREDICTED BY RF-SCORE:    0.00 PKD
ROOT
HETATM    1  C   UNL     1     -12.190  12.447  70.460  1.00  0.00    -0.382 C  
HETATM    2  C   UNL     1     -12.720  11.034  70.273  1.00  0.00    -0.256 C  
ENDROOT
BRANCH   2   3
HETATM    3  C   UNL     1     -12.545  10.196  71.538  1.00  0.00    -0.537 C  
BRANCH   3   4
HETATM    4  C   UNL     1     -13.556   9.053  71.591  1.00  0.00    -0.446 C  
BRANCH   4   5
HETATM    5  C   UNL     1     -12.884   7.714  71.882  1.00  0.00    -0.282 C  
BRANCH   5   6
HETATM    6  O   UNL     1     -11.530   7.970  72.250  1.00  0.00    -0.308 OA 
BRANCH   6   7
HETATM    7  N   UNL     1     -11.232   7.246  73.400  1.00  0.00    -0.571 NA 
HETATM    8  O   UNL     1     -11.429   6.039  73.225  1.00  0.00    -0.468 OA 
HETATM    9  H   UNL     1     -11.743   7.598  74.210  1.00  0.00     0.000 HD 
HETATM   10  H   UNL     1     -11.226   5.545  74.011  1.00  0.00     0.000 HD 
ENDBRANCH   6   7
ENDBRANCH   5   6
ENDBRANCH   4   5
ENDBRANCH   3   4
ENDBRANCH   2   3
TORSDOF 5
ENDMDL
MODEL       66
REMARK 921   NORMALIZED FREE ENERGY PREDICTED BY IDOCK:   -2.45 KCAL/MOL
REMARK 922        TOTAL FREE ENERGY PREDICTED BY IDOCK:   -3.29 KCAL/MOL
REMARK 923 INTER-LIGAND FREE ENERGY PREDICTED BY IDOCK:   -3.17 KCAL/MOL
REMARK 924 INTRA-LIGAND FREE ENERGY PREDICTED BY IDOCK:   -0.12 KCAL/MOL
REMARK 927      BINDING AFFINITY PREDICTED BY RF-SCORE:    0.00 PKD
ROOT
HETATM    1  C   UNL     1      -9.121  12.643  66.733  1.00  0.00    -0.214 C  
HETATM    2  C   UNL     1      -9.580  13.040  68.128  1.00  0.00    -0.227 C  
ENDROOT
BRANCH   2   3
HETATM    3  C   UNL     1      -9.873  14.537  68.218  1.00  0.00    -0.229 C  
BRANCH   3   4
HETATM    4  C   UNL     1     -11.375  14.811  68.181  1.00  0.00    -0.324 C  
BRANCH   4   5
HETATM    5  C   UNL     1     -12.120  14.030  69.259  1.00  0.00    -0.338 C  
BRANCH   5   6
HETATM    6  O   UNL     1     -12.132  14.818  70.448  1.00  0.00    -0.280 OA 
BRANCH   6   7
HETATM    7  N   UNL     1     -13.082  15.826  70.310  1.00  0.00    -0.705 NA 
HETATM    8  O   UNL     1     -14.116  15.543  70.923  1.00  0.00    -0.855 OA 
HETATM    9  H   UNL     1     -13.270  16.034  69.330  1.00  0.00     0.000 HD 
HETATM   10  H   UNL     1     -14.764  16.231  70.829  1.00  0.00     0.000 HD 
ENDBRANCH   6   7
ENDBRANCH   5   6
ENDBRANCH   4   5
ENDBRANCH   3   4
ENDBRANCH   2   3
TORSDOF 5
ENDMDL
MODEL       67
REMARK 921   NORMALIZED FREE ENERGY PREDICTED BY IDOCK:   -2.43 KCAL/MOL
REMARK 922        TOTAL FREE ENERGY PREDICTED BY IDOCK:   -3.27 KCAL/MOL
REMARK 923 INTER-LIGAND FREE ENERGY PREDICTED BY IDOCK:   -3.15 KCAL/MOL
REMARK 924 INTRA-LIGAND FREE ENERGY PREDICTED BY IDOCK:   -0.12 KCAL/MOL
REMARK 927      BINDING AFFINITY PREDICTED BY RF-SCORE:    0.00 PKD
ROOT
HETATM    1  C   UNL     1     -11.851  12.418  63.472  1.00  0.00    -0.605 C  
HETATM    2  C   UNL     1     -11.370  13.121  64.733  1.00  0.00    -0.352 C  
ENDROOT
BRANCH   2   3
HETATM    3  C   UNL     1     -11.229  12.146  65.900  1.00  0.00    -0.384 C  
BRANCH   3   4
HETATM    4  C   UNL     1     -11.763  12.751  67.196  1.00  0.00    -0.443 C  
BRANCH   4   5
HETATM    5  C   UNL     1     -12.053  14.242  67.048  1.00  0.00    -0.390 C  
BRANCH   5   6
HETATM    6  O   UNL     1     -11.288  14.942  68.027  1.00  0.00    -0.297 OA 
BRANCH   6   7
HETATM    7  N   UNL     1     -10.758  16.091  67.449  1.00  0.00    -0.316 NA 
HETATM    8  O   UNL     1     -10.933  17.072  68.179  1.00  0.00    -0.367 OA 
HETATM    9  H   UNL     1     -11.131  16.247  66.513  1.00  0.00     0.000 HD 
HETATM   10  H   UNL     1     -10.572  17.856  67.784  1.00  0.00     0.000 HD 
ENDBRANCH   6   7
ENDBRANCH   5   6
ENDBRANCH   4   5
ENDBRANCH   3   4
ENDBRANCH   2   3
TORSDOF 5
ENDMDL
MODEL       68
REMARK 921   NORMALIZED FREE ENERGY PREDICTED BY IDOCK:   -2.43 KCAL/MOL
REMARK 922        TOTAL FREE ENERGY PREDICTED BY IDOCK:   -3.27 KCAL/MOL
REMARK 923 INTER-LIGAND FREE ENERGY PREDICTED BY IDOCK:   -3.19 KCAL/MOL
REMARK 924 INTRA-LIGAND FREE ENERGY PREDICTED BY IDOCK:   -0.08 KCAL/MOL
REMARK 927      BINDING AFFINITY PREDICTED BY RF-SCORE:    0.00 PKD
ROOT
HETATM    1  C   UNL     1      -5.756  19.280  67.390  1.00  0.00    -0.171 C  
HETATM    2  C   UNL     1      -6.481  18.730  68.609  1.00  0.00    -0.258 C  
ENDROOT
BRANCH   2   3
HETATM    3  C   UNL     1      -7.776  19.493  68.883  1.00  0.00    -0.369 C  
BRANCH   3   4
HETATM    4  C   UNL     1      -8.546  19.761  67.592  1.00  0.00    -0.376 C  
BRANCH   4   5
HETATM    5  C   UNL     1     -10.049  19.856  67.838  1.00  0.00    -0.436 C  
BRANCH   5   6
HETATM    6  O   UNL     1     -10.683  18.796  67.125  1.00  0.00    -0.429 OA 
BRANCH   6   7
HETATM    7  N   UNL     1     -10.585  19.050  65.760  1.00  0.00    -0.537 NA 
HETATM    8  O   UNL     1     -10.734  18.012  65.107  1.00  0.00    -0.612 OA 
HETATM    9  H   UNL     1      -9.711  19.520  65.526  1.00  0.00     0.000 HD 
HETATM   10  H   UNL     1     -10.668  18.186  64.176  1.00  0.00     0.000 HD 
ENDBRANCH   6   7
ENDBRANCH   5   6
ENDBRANCH   4   5
ENDBRANCH   3   4
ENDBRANCH   2   3
TORSDOF 5
ENDMDL
MODEL       69
REMARK 921   NORMALIZED FREE ENERGY PREDICTED BY IDOCK:   -2.42 KCAL/MOL
REMARK 922        TOTAL FREE ENERGY PREDICTED BY IDOCK:   -3.26 KCAL/MOL
REMARK 923 INTER-LIGAND FREE ENERGY PREDICTED BY IDOCK:   -3.18 KCAL/MOL
REMARK 924 INTRA-LIGAND FREE ENERGY PREDICTED BY IDOCK:   -0.08 KCAL/MOL
REMARK 927      BINDING AFFINITY PREDICTED BY RF-SCORE:    0.00 PKD
ROOT
HETATM    1  C   UNL     1     -14.326   8.438  71.483  1.00  0.00    -0.499 C  
HETATM    2  C   UNL     1     -13.741   9.620  72.241  1.00  0.00    -0.384 C  
ENDROOT
BRANCH   2   3
HETATM    3  C   UNL     1     -12.705  10.367  71.402  1.00  0.00    -0.551 C  
BRANCH   3   4
HETATM    4  C   UNL     1     -11.484   9.494  71.122  1.00  0.00    -0.430 C  
BRANCH   4   5
HETATM    5  C   UNL     1     -10.651  10.038  69.966  1.00  0.00    -0.293 C  
BRANCH   5   6
HETATM    6  O   UNL     1      -9.274   9.831  70.277  1.00  0.00    -0.246 OA 
BRANCH   6   7
HETATM    7  N   UNL     1      -8.509  10.753  69.570  1.00  0.00    -0.385 NA 
HETATM    8  O   UNL     1      -9.203  11.703  69.193  1.00  0.00    -0.392 OA 
HETATM    9  H   UNL     1      -8.016  10.315  68.792  1.00  0.00     0.000 HD 
HETATM   10  H   UNL     1      -8.680  12.333  68.710  1.00  0.00     0.000 HD 
ENDBRANCH   6   7
ENDBRANCH   5   6
ENDBRANCH   4   5
ENDBRANCH   3   4
ENDBRANCH   2   3
TORSDOF 5
ENDMDL
MODEL       70
REMARK 921   NORMALIZED FREE ENERGY PREDICTED BY IDOCK:   -2.42 KCAL/MOL
REMARK 922        TOTAL FREE ENERGY PREDICTED BY IDOCK:   -3.26 KCAL/MOL
REMARK 923 INTER-LIGAND FREE ENERGY PREDICTED BY IDOCK:   -3.19 KCAL/MOL
REMARK 924 INTRA-LIGAND FREE ENERGY PREDICTED BY IDOCK:   -0.07 KCAL/MOL
REMARK 927      BINDING AFFINITY PREDICTED BY RF-SCORE:    0.00 PKD
ROOT
HETATM    1  C   UNL     1     -11.884  13.523  69.196  1.00  0.00    -0.386 C  
HETATM    2  C   UNL     1     -11.781  15.015  68.917  1.00  0.00    -0.354 C  
ENDROOT
BRANCH   2   3
HETATM    3  C   UNL     1     -10.419  15.384  68.329  1.00  0.00    -0.241 C  
BRANCH   3   4
HETATM    4  C   UNL     1     -10.507  15.601  66.820  1.00  0.00    -0.297 C  
BRANCH   4   5
HETATM    5  C   UNL     1     -10.247  14.312  66.047  1.00  0.00    -0.315 C  
BRANCH   5   6
HETATM    6  O   UNL     1     -10.736  14.486  64.718  1.00  0.00    -0.413 OA 
BRANCH   6   7
HETATM    7  N   UNL     1     -10.268  13.443  63.926  1.00  0.00    -0.691 NA 
HETATM    8  O   UNL     1      -9.646  12.619  64.604  1.00  0.00    -0.498 OA 
HETATM    9  H   UNL     1      -9.710  13.785  63.144  1.00  0.00     0.000 HD 
HETATM   10  H   UNL     1      -9.326  11.908  64.063  1.00  0.00     0.000 HD 
ENDBRANCH   6   7
ENDBRANCH   5   6
ENDBRANCH   4   5
ENDBRANCH   3   4
ENDBRANCH   2   3
TORSDOF 5
ENDMDL
MODEL       71
REMARK 921   NORMALIZED FREE ENERGY PREDICTED BY IDOCK:   -2.39 KCAL/MOL
REMARK 922        TOTAL FREE ENERGY PREDICTED BY IDOCK:   -3.22 KCAL/MOL
REMARK 923 INTER-LIGAND FREE ENERGY PREDICTED BY IDOCK:   -3.03 KCAL/MOL
REMARK 924 INTRA-LIGAND FREE ENERGY PREDICTED BY IDOCK:   -0.19 KCAL/MOL
REMARK 927      BINDING AFFINITY PREDICTED BY RF-SCORE:    0.00 PKD
ROOT
HETATM    1  C   UNL     1     -10.143  11.733  65.270  1.00  0.00    -0.300 C  
HETATM    2  C   UNL     1     -11.534  12.009  64.722  1.00  0.00    -0.357 C  
ENDROOT
BRANCH   2   3
HETATM    3  C   UNL     1     -12.297  13.001  65.600  1.00  0.00    -0.504 C  
BRANCH   3   4
HETATM    4  C   UNL     1     -11.368  13.680  66.605  1.00  0.00    -0.343 C  
BRANCH   4   5
HETATM    5  C   UNL     1     -11.878  13.534  68.035  1.00  0.00    -0.365 C  
BRANCH   5   6
HETATM    6  O   UNL     1     -11.733  12.169  68.421  1.00  0.00    -0.300 OA 
BRANCH   6   7
HETATM    7  N   UNL     1     -10.838  12.095  69.483  1.00  0.00    -0.449 NA 
HETATM    8  O   UNL     1      -9.703  11.814  69.085  1.00  0.00    -0.409 OA 
HETATM    9  H   UNL     1     -11.157  11.443  70.200  1.00  0.00     0.000 HD 
HETATM   10  H   UNL     1      -9.092  11.763  69.810  1.00  0.00     0.000 HD 
ENDBRANCH   6   7
ENDBRANCH   5   6
ENDBRANCH   4   5
ENDBRANCH   3   4
ENDBRANCH   2   3
TORSDOF 5
ENDMDL
MODEL       72
REMARK 921   NORMALIZED FREE ENERGY PREDICTED BY IDOCK:   -2.37 KCAL/MOL
REMARK 922        TOTAL FREE ENERGY PREDICTED BY IDOCK:   -3.20 KCAL/MOL
REMARK 923 INTER-LIGAND FREE ENERGY PREDICTED BY IDOCK:   -3.14 KCAL/MOL
REMARK 924 INTRA-LIGAND FREE ENERGY PREDICTED BY IDOCK:   -0.05 KCAL/MOL
REMARK 927      BINDING AFFINITY PREDICTED BY RF-SCORE:    0.00 PKD
ROOT
HETATM    1  C   UNL     1      -7.507  15.439  67.294  1.00  0.00    -0.242 C  
HETATM    2  C   UNL     1      -9.005  15.652  67.143  1.00  0.00    -0.232 C  
ENDROOT
BRANCH   2   3
HETATM    3  C   UNL     1      -9.765  14.326  67.151  1.00  0.00    -0.254 C  
BRANCH   3   4
HETATM    4  C   UNL     1     -10.485  14.092  65.825  1.00  0.00    -0.320 C  
BRANCH   4   5
HETATM    5  C   UNL     1     -10.222  12.693  65.276  1.00  0.00    -0.284 C  
BRANCH   5   6
HETATM    6  O   UNL     1     -10.305  12.753  63.853  1.00  0.00    -0.420 OA 
BRANCH   6   7
HETATM    7  N   UNL     1     -10.595  11.482  63.366  1.00  0.00    -0.537 NA 
HETATM    8  O   UNL     1     -11.709  11.458  62.833  1.00  0.00    -0.856 OA 
HETATM    9  H   UNL     1     -10.509  10.772  64.092  1.00  0.00     0.000 HD 
HETATM   10  H   UNL     1     -11.907  10.591  62.501  1.00  0.00     0.000 HD 
ENDBRANCH   6   7
ENDBRANCH   5   6
ENDBRANCH   4   5
ENDBRANCH   3   4
ENDBRANCH   2   3
TORSDOF 5
ENDMDL
MODEL       73
REMARK 921   NORMALIZED FREE ENERGY PREDICTED BY IDOCK:   -2.37 KCAL/MOL
REMARK 922        TOTAL FREE ENERGY PREDICTED BY IDOCK:   -3.19 KCAL/MOL
REMARK 923 INTER-LIGAND FREE ENERGY PREDICTED BY IDOCK:   -3.00 KCAL/MOL
REMARK 924 INTRA-LIGAND FREE ENERGY PREDICTED BY IDOCK:   -0.20 KCAL/MOL
REMARK 927      BINDING AFFINITY PREDICTED BY RF-SCORE:    0.00 PKD
ROOT
HETATM    1  C   UNL     1     -10.594  13.218  68.449  1.00  0.00    -0.263 C  
HETATM    2  C   UNL     1     -11.587  12.418  67.621  1.00  0.00    -0.421 C  
ENDROOT
BRANCH   2   3
HETATM    3  C   UNL     1     -10.941  11.170  67.020  1.00  0.00    -0.348 C  
BRANCH   3   4
HETATM    4  C   UNL     1      -9.569  11.487  66.429  1.00  0.00    -0.230 C  
BRANCH   4   5
HETATM    5  C   UNL     1      -9.477  11.083  64.961  1.00  0.00    -0.233 C  
BRANCH   5   6
HETATM    6  O   UNL     1     -10.785  10.730  64.516  1.00  0.00    -0.297 OA 
BRANCH   6   7
HETATM    7  N   UNL     1     -11.086  11.465  63.374  1.00  0.00    -0.772 NA 
HETATM    8  O   UNL     1     -11.743  12.472  63.659  1.00  0.00    -0.431 OA 
HETATM    9  H   UNL     1     -11.556  10.895  62.672  1.00  0.00     0.000 HD 
HETATM   10  H   UNL     1     -11.948  12.974  62.879  1.00  0.00     0.000 HD 
ENDBRANCH   6   7
ENDBRANCH   5   6
ENDBRANCH   4   5
ENDBRANCH   3   4
ENDBRANCH   2   3
TORSDOF 5
ENDMDL
MODEL       74
REMARK 921   NORMALIZED FREE ENERGY PREDICTED BY IDOCK:   -2.37 KCAL/MOL
REMARK 922        TOTAL FREE ENERGY PREDICTED BY IDOCK:   -3.19 KCAL/MOL
REMARK 923 INTER-LIGAND FREE ENERGY PREDICTED BY IDOCK:   -3.13 KCAL/MOL
REMARK 924 INTRA-LIGAND FREE ENERGY PREDICTED BY IDOCK:   -0.06 KCAL/MOL
REMARK 927      BINDING AFFINITY PREDICTED BY RF-SCORE:    0.00 PKD
ROOT
HETATM    1  C   UNL     1     -11.548  12.554  63.495  1.00  0.00    -0.584 C  
HETATM    2  C   UNL     1     -12.042  13.660  64.415  1.00  0.00    -0.470 C  
ENDROOT
BRANCH   2   3
HETATM    3  C   UNL     1     -12.360  13.129  65.812  1.00  0.00    -0.496 C  
BRANCH   3   4
HETATM    4  C   UNL     1     -11.979  14.141  66.890  1.00  0.00    -0.479 C  
BRANCH   4   5
HETATM    5  C   UNL     1     -10.641  13.802  67.538  1.00  0.00    -0.244 C  
BRANCH   5   6
HETATM    6  O   UNL     1      -9.617  13.989  66.564  1.00  0.00    -0.277 OA 
BRANCH   6   7
HETATM    7  N   UNL     1      -8.776  12.880  66.575  1.00  0.00    -0.428 NA 
HETATM    8  O   UNL     1      -7.969  12.949  67.508  1.00  0.00    -0.155 OA 
HETATM    9  H   UNL     1      -8.306  12.754  65.679  1.00  0.00     0.000 HD 
HETATM   10  H   UNL     1      -7.396  12.192  67.515  1.00  0.00     0.000 HD 
ENDBRANCH   6   7
ENDBRANCH   5   6
ENDBRANCH   4   5
ENDBRANCH   3   4
ENDBRANCH   2   3
TORSDOF 5
ENDMDL
MODEL       75
REMARK 921   NORMALIZED FREE ENERGY PREDICTED BY IDOCK:   -2.37 KCAL/MOL
REMARK 922        TOTAL FREE ENERGY PREDICTED BY IDOCK:   -3.19 KCAL/MOL
REMARK 923 INTER-LIGAND FREE ENERGY PREDICTED BY IDOCK:   -3.06 KCAL/MOL
REMARK 924 INTRA-LIGAND FREE ENERGY PREDICTED BY IDOCK:   -0.13 KCAL/MOL
REMARK 927      BINDING AFFINITY PREDICTED BY RF-SCORE:    0.00 PKD
ROOT
HETATM    1  C   UNL     1      -7.655   6.386  71.688  1.00  0.00    -0.095 C  
HETATM    2  C   UNL     1      -8.848   7.317  71.844  1.00  0.00    -0.133 C  
ENDROOT
BRANCH   2   3
HETATM    3  C   UNL     1      -9.424   7.260  73.259  1.00  0.00    -0.240 C  
BRANCH   3   4
HETATM    4  C   UNL     1     -10.924   7.545  73.259  1.00  0.00    -0.362 C  
BRANCH   4   5
HETATM    5  C   UNL     1     -11.450   7.814  71.852  1.00  0.00    -0.275 C  
BRANCH   5   6
HETATM    6  O   UNL     1     -12.469   8.807  71.942  1.00  0.00    -0.325 OA 
BRANCH   6   7
HETATM    7  N   UNL     1     -13.364   8.444  72.943  1.00  0.00    -0.592 NA 
HETATM    8  O   UNL     1     -14.227   9.314  73.099  1.00  0.00    -1.041 OA 
HETATM    9  H   UNL     1     -12.885   8.228  73.817  1.00  0.00     0.000 HD 
HETATM   10  H   UNL     1     -14.838   9.066  73.783  1.00  0.00     0.000 HD 
ENDBRANCH   6   7
ENDBRANCH   5   6
ENDBRANCH   4   5
ENDBRANCH   3   4
ENDBRANCH   2   3
TORSDOF 5
ENDMDL
MODEL       76
REMARK 921   NORMALIZED FREE ENERGY PREDICTED BY IDOCK:   -2.36 KCAL/MOL
REMARK 922        TOTAL FREE ENERGY PREDICTED BY IDOCK:   -3.18 KCAL/MOL
REMARK 923 INTER-LIGAND FREE ENERGY PREDICTED BY IDOCK:   -2.94 KCAL/MOL
REMARK 924 INTRA-LIGAND FREE ENERGY PREDICTED BY IDOCK:   -0.24 KCAL/MOL
REMARK 927      BINDING AFFINITY PREDICTED BY RF-SCORE:    0.00 PKD
ROOT
HETATM    1  C   UNL     1     -11.895  15.212  68.581  1.00  0.00    -0.329 C  
HETATM    2  C   UNL     1     -10.389  15.005  68.604  1.00  0.00    -0.236 C  
ENDROOT
BRANCH   2   3
HETATM    3  C   UNL     1      -9.914  14.197  67.397  1.00  0.00    -0.240 C  
BRANCH   3   4
HETATM    4  C   UNL     1      -9.847  12.706  67.720  1.00  0.00    -0.212 C  
BRANCH   4   5
HETATM    5  C   UNL     1     -10.740  11.885  66.795  1.00  0.00    -0.246 C  
BRANCH   5   6
HETATM    6  O   UNL     1     -12.001  11.710  67.438  1.00  0.00    -0.621 OA 
BRANCH   6   7
HETATM    7  N   UNL     1     -11.785  11.403  68.778  1.00  0.00    -0.319 NA 
HETATM    8  O   UNL     1     -12.566  10.525  69.160  1.00  0.00    -0.740 OA 
HETATM    9  H   UNL     1     -11.835  12.233  69.367  1.00  0.00     0.000 HD 
HETATM   10  H   UNL     1     -12.418  10.316  70.074  1.00  0.00     0.000 HD 
ENDBRANCH   6   7
ENDBRANCH   5   6
ENDBRANCH   4   5
ENDBRANCH   3   4
ENDBRANCH   2   3
TORSDOF 5
ENDMDL
MODEL       77
REMARK 921   NORMALIZED FREE ENERGY PREDICTED BY IDOCK:   -2.35 KCAL/MOL
REMARK 922        TOTAL FREE ENERGY PREDICTED BY IDOCK:   -3.16 KCAL/MOL
REMARK 923 INTER-LIGAND FREE ENERGY PREDICTED BY IDOCK:   -3.06 KCAL/MOL
REMARK 924 INTRA-LIGAND FREE ENERGY PREDICTED BY IDOCK:   -0.10 KCAL/MOL
REMARK 927      BINDING AFFINITY PREDICTED BY RF-SCORE:    0.00 PKD
ROOT
HETATM    1  C   UNL     1      -9.690  11.562  66.019  1.00  0.00    -0.253 C  
HETATM    2  C   UNL     1     -10.943  12.308  65.584  1.00  0.00    -0.338 C  
ENDROOT
BRANCH   2   3
HETATM    3  C   UNL     1     -11.856  12.611  66.771  1.00  0.00    -0.440 C  
BRANCH   3   4
HETATM    4  C   UNL     1     -11.054  13.082  67.982  1.00  0.00    -0.288 C  
BRANCH   4   5
HETATM    5  C   UNL     1     -11.670  12.600  69.292  1.00  0.00    -0.322 C  
BRANCH   5   6
HETATM    6  O   UNL     1     -11.450  11.194  69.393  1.00  0.00    -0.243 OA 
BRANCH   6   7
HETATM    7  N   UNL     1     -12.681  10.552  69.483  1.00  0.00    -0.640 NA 
HETATM    8  O   UNL     1     -12.794   9.967  70.565  1.00  0.00    -0.536 OA 
HETATM    9  H   UNL     1     -12.835   9.922  68.696  1.00  0.00     0.000 HD 
HETATM   10  H   UNL     1     -13.634   9.528  70.626  1.00  0.00     0.000 HD 
ENDBRANCH   6   7
ENDBRANCH   5   6
ENDBRANCH   4   5
ENDBRANCH   3   4
ENDBRANCH   2   3
TORSDOF 5
ENDMDL
MODEL       78
REMARK 921   NORMALIZED FREE ENERGY PREDICTED BY IDOCK:   -2.34 KCAL/MOL
REMARK 922        TOTAL FREE ENERGY PREDICTED BY IDOCK:   -3.16 KCAL/MOL
REMARK 923 INTER-LIGAND FREE ENERGY PREDICTED BY IDOCK:   -3.13 KCAL/MOL
REMARK 924 INTRA-LIGAND FREE ENERGY PREDICTED BY IDOCK:   -0.03 KCAL/MOL
REMARK 927      BINDING AFFINITY PREDICTED BY RF-SCORE:    0.00 PKD
ROOT
HETATM    1  C   UNL     1     -10.826  12.779  66.218  1.00  0.00    -0.299 C  
HETATM    2  C   UNL     1     -11.854  12.728  67.339  1.00  0.00    -0.404 C  
ENDROOT
BRANCH   2   3
HETATM    3  C   UNL     1     -11.953  14.066  68.071  1.00  0.00    -0.386 C  
BRANCH   3   4
HETATM    4  C   UNL     1     -11.633  13.911  69.556  1.00  0.00    -0.358 C  
BRANCH   4   5
HETATM    5  C   UNL     1     -12.620  14.676  70.431  1.00  0.00    -0.343 C  
BRANCH   5   6
HETATM    6  O   UNL     1     -12.287  14.428  71.796  1.00  0.00    -0.341 OA 
BRANCH   6   7
HETATM    7  N   UNL     1     -13.430  14.010  72.469  1.00  0.00    -0.522 NA 
HETATM    8  O   UNL     1     -13.645  14.722  73.455  1.00  0.00    -0.474 OA 
HETATM    9  H   UNL     1     -13.378  13.023  72.721  1.00  0.00     0.000 HD 
HETATM   10  H   UNL     1     -14.425  14.436  73.916  1.00  0.00     0.000 HD 
ENDBRANCH   6   7
ENDBRANCH   5   6
ENDBRANCH   4   5
ENDBRANCH   3   4
ENDBRANCH   2   3
TORSDOF 5
ENDMDL
MODEL       79
REMARK 921   NORMALIZED FREE ENERGY PREDICTED BY IDOCK:   -2.33 KCAL/MOL
REMARK 922        TOTAL FREE ENERGY PREDICTED BY IDOCK:   -3.15 KCAL/MOL
REMARK 923 INTER-LIGAND FREE ENERGY PREDICTED BY IDOCK:   -3.03 KCAL/MOL
REMARK 924 INTRA-LIGAND FREE ENERGY PREDICTED BY IDOCK:   -0.12 KCAL/MOL
REMARK 927      BINDING AFFINITY PREDICTED BY RF-SCORE:    0.00 PKD
ROOT
HETATM    1  C   UNL     1      -7.755  12.420  67.315  1.00  0.00    -0.158 C  
HETATM    2  C   UNL     1      -9.098  11.872  67.773  1.00  0.00    -0.180 C  
ENDROOT
BRANCH   2   3
HETATM    3  C   UNL     1      -9.700  10.924  66.737  1.00  0.00    -0.221 C  
BRANCH   3   4
HETATM    4  C   UNL     1     -10.998  11.486  66.161  1.00  0.00    -0.320 C  
BRANCH   4   5
HETATM    5  C   UNL     1     -10.734  12.496  65.048  1.00  0.00    -0.294 C  
BRANCH   5   6
HETATM    6  O   UNL     1     -10.348  11.775  63.879  1.00  0.00    -0.311 OA 
BRANCH   6   7
HETATM    7  N   UNL     1     -11.492  11.407  63.179  1.00  0.00    -0.873 NA 
HETATM    8  O   UNL     1     -12.250  12.372  63.036  1.00  0.00    -0.669 OA 
HETATM    9  H   UNL     1     -11.965  10.618  63.619  1.00  0.00     0.000 HD 
HETATM   10  H   UNL     1     -13.032  12.120  62.558  1.00  0.00     0.000 HD 
ENDBRANCH   6   7
ENDBRANCH   5   6
ENDBRANCH   4   5
ENDBRANCH   3   4
ENDBRANCH   2   3
TORSDOF 5
ENDMDL
MODEL       80
REMARK 921   NORMALIZED FREE ENERGY PREDICTED BY IDOCK:   -2.33 KCAL/MOL
REMARK 922        TOTAL FREE ENERGY PREDICTED BY IDOCK:   -3.14 KCAL/MOL
REMARK 923 INTER-LIGAND FREE ENERGY PREDICTED BY IDOCK:   -3.06 KCAL/MOL
REMARK 924 INTRA-LIGAND FREE ENERGY PREDICTED BY IDOCK:   -0.09 KCAL/MOL
REMARK 927      BINDING AFFINITY PREDICTED BY RF-SCORE:    0.00 PKD
ROOT
HETATM    1  C   UNL     1     -12.947  10.384  71.608  1.00  0.00    -0.581 C  
HETATM    2  C   UNL     1     -12.485  11.570  70.775  1.00  0.00    -0.444 C  
ENDROOT
BRANCH   2   3
HETATM    3  C   UNL     1     -11.909  11.123  69.432  1.00  0.00    -0.415 C  
BRANCH   3   4
HETATM    4  C   UNL     1     -11.905  12.268  68.422  1.00  0.00    -0.358 C  
BRANCH   4   5
HETATM    5  C   UNL     1     -10.488  12.728  68.092  1.00  0.00    -0.236 C  
BRANCH   5   6
HETATM    6  O   UNL     1     -10.545  13.524  66.910  1.00  0.00    -0.268 OA 
BRANCH   6   7
HETATM    7  N   UNL     1     -11.803  13.385  66.334  1.00  0.00    -0.375 NA 
HETATM    8  O   UNL     1     -12.071  14.358  65.621  1.00  0.00    -0.379 OA 
HETATM    9  H   UNL     1     -12.524  13.224  67.037  1.00  0.00     0.000 HD 
HETATM   10  H   UNL     1     -12.930  14.263  65.228  1.00  0.00     0.000 HD 
ENDBRANCH   6   7
ENDBRANCH   5   6
ENDBRANCH   4   5
ENDBRANCH   3   4
ENDBRANCH   2   3
TORSDOF 5
ENDMDL
MODEL       81
REMARK 921   NORMALIZED FREE ENERGY PREDICTED BY IDOCK:   -2.33 KCAL/MOL
REMARK 922        TOTAL FREE ENERGY PREDICTED BY IDOCK:   -3.13 KCAL/MOL
REMARK 923 INTER-LIGAND FREE ENERGY PREDICTED BY IDOCK:   -3.04 KCAL/MOL
REMARK 924 INTRA-LIGAND FREE ENERGY PREDICTED BY IDOCK:   -0.09 KCAL/MOL
REMARK 927      BINDING AFFINITY PREDICTED BY RF-SCORE:    0.00 PKD
ROOT
HETATM    1  C   UNL     1     -10.908  11.931  65.784  1.00  0.00    -0.341 C  
HETATM    2  C   UNL     1     -11.259  12.094  67.255  1.00  0.00    -0.366 C  
ENDROOT
BRANCH   2   3
HETATM    3  C   UNL     1     -11.495  10.743  67.928  1.00  0.00    -0.306 C  
BRANCH   3   4
HETATM    4  C   UNL     1     -11.818  10.912  69.411  1.00  0.00    -0.400 C  
BRANCH   4   5
HETATM    5  C   UNL     1     -11.392   9.695  70.226  1.00  0.00    -0.257 C  
BRANCH   5   6
HETATM    6  O   UNL     1     -11.735   9.932  71.590  1.00  0.00    -0.372 OA 
BRANCH   6   7
HETATM    7  N   UNL     1     -12.812  10.812  71.636  1.00  0.00    -0.449 NA 
HETATM    8  O   UNL     1     -13.567  10.535  72.574  1.00  0.00    -0.550 OA 
HETATM    9  H   UNL     1     -13.311  10.843  70.748  1.00  0.00     0.000 HD 
HETATM   10  H   UNL     1     -14.302  11.135  72.606  1.00  0.00     0.000 HD 
ENDBRANCH   6   7
ENDBRANCH   5   6
ENDBRANCH   4   5
ENDBRANCH   3   4
ENDBRANCH   2   3
TORSDOF 5
ENDMDL
MODEL       82
REMARK 921   NORMALIZED FREE ENERGY PREDICTED BY IDOCK:   -2.32 KCAL/MOL
REMARK 922        TOTAL FREE ENERGY PREDICTED BY IDOCK:   -3.13 KCAL/MOL
REMARK 923 INTER-LIGAND FREE ENERGY PREDICTED BY IDOCK:   -3.06 KCAL/MOL
REMARK 924 INTRA-LIGAND FREE ENERGY PREDICTED BY IDOCK:   -0.07 KCAL/MOL
REMARK 927      BINDING AFFINITY PREDICTED BY RF-SCORE:    0.00 PKD
ROOT
HETATM    1  C   UNL     1      -9.148  15.012  68.174  1.00  0.00    -0.178 C  
HETATM    2  C   UNL     1      -9.886  16.065  68.988  1.00  0.00    -0.239 C  
ENDROOT
BRANCH   2   3
HETATM    3  C   UNL     1     -10.776  16.936  68.102  1.00  0.00    -0.375 C  
BRANCH   3   4
HETATM    4  C   UNL     1     -10.343  18.400  68.151  1.00  0.00    -0.393 C  
BRANCH   4   5
HETATM    5  C   UNL     1     -10.744  19.152  66.886  1.00  0.00    -0.424 C  
BRANCH   5   6
HETATM    6  O   UNL     1      -9.607  19.208  66.025  1.00  0.00    -0.432 OA 
BRANCH   6   7
HETATM    7  N   UNL     1      -8.701  20.131  66.537  1.00  0.00    -0.484 NA 
HETATM    8  O   UNL     1      -7.818  20.385  65.711  1.00  0.00    -0.536 OA 
HETATM    9  H   UNL     1      -8.308  19.821  67.425  1.00  0.00     0.000 HD 
HETATM   10  H   UNL     1      -7.199  21.015  66.060  1.00  0.00     0.000 HD 
ENDBRANCH   6   7
ENDBRANCH   5   6
ENDBRANCH   4   5
ENDBRANCH   3   4
ENDBRANCH   2   3
TORSDOF 5
ENDMDL
MODEL       83
REMARK 921   NORMALIZED FREE ENERGY PREDICTED BY IDOCK:   -2.32 KCAL/MOL
REMARK 922        TOTAL FREE ENERGY PREDICTED BY IDOCK:   -3.13 KCAL/MOL
REMARK 923 INTER-LIGAND FREE ENERGY PREDICTED BY IDOCK:   -3.04 KCAL/MOL
REMARK 924 INTRA-LIGAND FREE ENERGY PREDICTED BY IDOCK:   -0.09 KCAL/MOL
REMARK 927      BINDING AFFINITY PREDICTED BY RF-SCORE:    0.00 PKD
ROOT
HETATM    1  C   UNL     1     -10.151  12.671  68.269  1.00  0.00    -0.233 C  
HETATM    2  C   UNL     1     -11.468  11.910  68.294  1.00  0.00    -0.372 C  
ENDROOT
BRANCH   2   3
HETATM    3  C   UNL     1     -11.254  10.427  68.592  1.00  0.00    -0.305 C  
BRANCH   3   4
HETATM    4  C   UNL     1     -11.411  10.132  70.082  1.00  0.00    -0.368 C  
BRANCH   4   5
HETATM    5  C   UNL     1     -11.031   8.694  70.419  1.00  0.00    -0.235 C  
BRANCH   5   6
HETATM    6  O   UNL     1     -11.974   8.196  71.366  1.00  0.00    -0.287 OA 
BRANCH   6   7
HETATM    7  N   UNL     1     -12.646   7.115  70.806  1.00  0.00    -0.600 NA 
HETATM    8  O   UNL     1     -12.066   6.712  69.792  1.00  0.00    -0.638 OA 
HETATM    9  H   UNL     1     -13.623   7.335  70.617  1.00  0.00     0.000 HD 
HETATM   10  H   UNL     1     -12.525   5.974  69.410  1.00  0.00     0.000 HD 
ENDBRANCH   6   7
ENDBRANCH   5   6
ENDBRANCH   4   5
ENDBRANCH   3   4
ENDBRANCH   2   3
TORSDOF 5
ENDMDL
MODEL       84
REMARK 921   NORMALIZED FREE ENERGY PREDICTED BY IDOCK:   -2.31 KCAL/MOL
REMARK 922        TOTAL FREE ENERGY PREDICTED BY IDOCK:   -3.12 KCAL/MOL
REMARK 923 INTER-LIGAND FREE ENERGY PREDICTED BY IDOCK:   -3.00 KCAL/MOL
REMARK 924 INTRA-LIGAND FREE ENERGY PREDICTED BY IDOCK:   -0.12 KCAL/MOL
REMARK 927      BINDING AFFINITY PREDICTED BY RF-SCORE:    0.00 PKD
ROOT
HETATM    1  C   UNL     1      -9.606   4.321  69.255  1.00  0.00    -0.261 C  
HETATM    2  C   UNL     1     -10.215   5.183  68.159  1.00  0.00    -0.177 C  
ENDROOT
BRANCH   2   3
HETATM    3  C   UNL     1     -11.123   6.267  68.738  1.00  0.00    -0.424 C  
BRANCH   3   4
HETATM    4  C   UNL     1     -11.230   6.148  70.257  1.00  0.00    -0.439 C  
BRANCH   4   5
HETATM    5  C   UNL     1     -11.113   7.507  70.941  1.00  0.00    -0.263 C  
BRANCH   5   6
HETATM    6  O   UNL     1     -12.429   7.972  71.230  1.00  0.00    -0.304 OA 
BRANCH   6   7
HETATM    7  N   UNL     1     -13.059   7.054  72.064  1.00  0.00    -0.545 NA 
HETATM    8  O   UNL     1     -14.287   7.154  71.981  1.00  0.00    -0.584 OA 
HETATM    9  H   UNL     1     -12.739   7.140  73.028  1.00  0.00     0.000 HD 
HETATM   10  H   UNL     1     -14.717   6.527  72.551  1.00  0.00     0.000 HD 
ENDBRANCH   6   7
ENDBRANCH   5   6
ENDBRANCH   4   5
ENDBRANCH   3   4
ENDBRANCH   2   3
TORSDOF 5
ENDMDL
MODEL       85
REMARK 921   NORMALIZED FREE ENERGY PREDICTED BY IDOCK:   -2.31 KCAL/MOL
REMARK 922        TOTAL FREE ENERGY PREDICTED BY IDOCK:   -3.11 KCAL/MOL
REMARK 923 INTER-LIGAND FREE ENERGY PREDICTED BY IDOCK:   -3.03 KCAL/MOL
REMARK 924 INTRA-LIGAND FREE ENERGY PREDICTED BY IDOCK:   -0.08 KCAL/MOL
REMARK 927      BINDING AFFINITY PREDICTED BY RF-SCORE:    0.00 PKD
ROOT
HETATM    1  C   UNL     1      -6.907  17.987  65.867  1.00  0.00    -0.332 C  
HETATM    2  C   UNL     1      -7.877  17.355  66.853  1.00  0.00    -0.258 C  
ENDROOT
BRANCH   2   3
HETATM    3  C   UNL     1      -8.914  16.486  66.142  1.00  0.00    -0.344 C  
BRANCH   3   4
HETATM    4  C   UNL     1      -8.889  15.052  66.666  1.00  0.00    -0.307 C  
BRANCH   4   5
HETATM    5  C   UNL     1     -10.118  14.265  66.222  1.00  0.00    -0.298 C  
BRANCH   5   6
HETATM    6  O   UNL     1     -11.273  15.057  66.493  1.00  0.00    -0.340 OA 
BRANCH   6   7
HETATM    7  N   UNL     1     -12.293  14.225  66.944  1.00  0.00    -0.571 NA 
HETATM    8  O   UNL     1     -12.350  14.228  68.178  1.00  0.00    -0.581 OA 
HETATM    9  H   UNL     1     -12.200  13.280  66.574  1.00  0.00     0.000 HD 
HETATM   10  H   UNL     1     -13.047  13.660  68.486  1.00  0.00     0.000 HD 
ENDBRANCH   6   7
ENDBRANCH   5   6
ENDBRANCH   4   5
ENDBRANCH   3   4
ENDBRANCH   2   3
TORSDOF 5
ENDMDL
MODEL       86
REMARK 921   NORMALIZED FREE ENERGY PREDICTED BY IDOCK:   -2.31 KCAL/MOL
REMARK 922        TOTAL FREE ENERGY PREDICTED BY IDOCK:   -3.11 KCAL/MOL
REMARK 923 INTER-LIGAND FREE ENERGY PREDICTED BY IDOCK:   -3.06 KCAL/MOL
REMARK 924 INTRA-LIGAND FREE ENERGY PREDICTED BY IDOCK:   -0.05 KCAL/MOL
REMARK 927      BINDING AFFINITY PREDICTED BY RF-SCORE:    0.00 PKD
ROOT
HETATM    1  C   UNL     1     -10.797   8.457  69.938  1.00  0.00    -0.207 C  
HETATM    2  C   UNL     1     -10.117   9.690  70.514  1.00  0.00    -0.338 C  
ENDROOT
BRANCH   2   3
HETATM    3  C   UNL     1      -9.847  10.738  69.436  1.00  0.00    -0.112 C  
BRANCH   3   4
HETATM    4  C   UNL     1     -11.150  11.280  68.851  1.00  0.00    -0.295 C  
BRANCH   4   5
HETATM    5  C   UNL     1     -10.947  11.856  67.453  1.00  0.00    -0.263 C  
BRANCH   5   6
HETATM    6  O   UNL     1     -12.225  11.968  66.830  1.00  0.00    -0.529 OA 
BRANCH   6   7
HETATM    7  N   UNL     1     -12.046  12.311  65.494  1.00  0.00    -0.553 NA 
HETATM    8  O   UNL     1     -13.134  12.445  64.924  1.00  0.00    -0.765 OA 
HETATM    9  H   UNL     1     -11.448  11.641  65.010  1.00  0.00     0.000 HD 
HETATM   10  H   UNL     1     -13.012  12.679  64.012  1.00  0.00     0.000 HD 
ENDBRANCH   6   7
ENDBRANCH   5   6
ENDBRANCH   4   5
ENDBRANCH   3   4
ENDBRANCH   2   3
TORSDOF 5
ENDMDL
MODEL       87
REMARK 921   NORMALIZED FREE ENERGY PREDICTED BY IDOCK:   -2.30 KCAL/MOL
REMARK 922        TOTAL FREE ENERGY PREDICTED BY IDOCK:   -3.11 KCAL/MOL
REMARK 923 INTER-LIGAND FREE ENERGY PREDICTED BY IDOCK:   -2.98 KCAL/MOL
REMARK 924 INTRA-LIGAND FREE ENERGY PREDICTED BY IDOCK:   -0.12 KCAL/MOL
REMARK 927      BINDING AFFINITY PREDICTED BY RF-SCORE:    0.00 PKD
ROOT
HETATM    1  C   UNL     1     -10.089   8.330  67.080  1.00  0.00    -0.334 C  
HETATM    2  C   UNL     1      -9.928   9.376  65.988  1.00  0.00    -0.352 C  
ENDROOT
BRANCH   2   3
HETATM    3  C   UNL     1     -10.334  10.766  66.478  1.00  0.00    -0.300 C  
BRANCH   3   4
HETATM    4  C   UNL     1     -11.195  10.680  67.736  1.00  0.00    -0.383 C  
BRANCH   4   5
HETATM    5  C   UNL     1     -11.718  12.050  68.159  1.00  0.00    -0.333 C  
BRANCH   5   6
HETATM    6  O   UNL     1     -12.117  12.753  66.984  1.00  0.00    -0.432 OA 
BRANCH   6   7
HETATM    7  N   UNL     1     -12.265  14.101  67.295  1.00  0.00    -0.573 NA 
HETATM    8  O   UNL     1     -11.357  14.484  68.039  1.00  0.00    -0.278 OA 
HETATM    9  H   UNL     1     -13.184  14.297  67.691  1.00  0.00     0.000 HD 
HETATM   10  H   UNL     1     -11.458  15.404  68.252  1.00  0.00     0.000 HD 
ENDBRANCH   6   7
ENDBRANCH   5   6
ENDBRANCH   4   5
ENDBRANCH   3   4
ENDBRANCH   2   3
TORSDOF 5
ENDMDL
MODEL       88
REMARK 921   NORMALIZED FREE ENERGY PREDICTED BY IDOCK:   -2.28 KCAL/MOL
REMARK 922        TOTAL FREE ENERGY PREDICTED BY IDOCK:   -3.08 KCAL/MOL
REMARK 923 INTER-LIGAND FREE ENERGY PREDICTED BY IDOCK:   -2.88 KCAL/MOL
REMARK 924 INTRA-LIGAND FREE ENERGY PREDICTED BY IDOCK:   -0.20 KCAL/MOL
REMARK 927      BINDING AFFINITY PREDICTED BY RF-SCORE:    0.00 PKD
ROOT
HETATM    1  C   UNL     1      -7.055  15.938  67.315  1.00  0.00    -0.242 C  
HETATM    2  C   UNL     1      -8.347  15.135  67.339  1.00  0.00    -0.206 C  
ENDROOT
BRANCH   2   3
HETATM    3  C   UNL     1      -9.220  15.440  66.123  1.00  0.00    -0.362 C  
BRANCH   3   4
HETATM    4  C   UNL     1     -10.526  16.117  66.534  1.00  0.00    -0.298 C  
BRANCH   4   5
HETATM    5  C   UNL     1     -10.312  17.579  66.913  1.00  0.00    -0.315 C  
BRANCH   5   6
HETATM    6  O   UNL     1      -9.861  18.276  65.752  1.00  0.00    -0.516 OA 
BRANCH   6   7
HETATM    7  N   UNL     1      -8.800  19.103  66.108  1.00  0.00    -0.448 NA 
HETATM    8  O   UNL     1      -7.744  18.704  65.606  1.00  0.00    -0.495 OA 
HETATM    9  H   UNL     1      -8.723  19.202  67.119  1.00  0.00     0.000 HD 
HETATM   10  H   UNL     1      -7.020  19.268  65.849  1.00  0.00     0.000 HD 
ENDBRANCH   6   7
ENDBRANCH   5   6
ENDBRANCH   4   5
ENDBRANCH   3   4
ENDBRANCH   2   3
TORSDOF 5
ENDMDL
MODEL       89
REMARK 921   NORMALIZED FREE ENERGY PREDICTED BY IDOCK:   -2.28 KCAL/MOL
REMARK 922        TOTAL FREE ENERGY PREDICTED BY IDOCK:   -3.07 KCAL/MOL
REMARK 923 INTER-LIGAND FREE ENERGY PREDICTED BY IDOCK:   -3.00 KCAL/MOL
REMARK 924 INTRA-LIGAND FREE ENERGY PREDICTED BY IDOCK:   -0.07 KCAL/MOL
REMARK 927      BINDING AFFINITY PREDICTED BY RF-SCORE:    0.00 PKD
ROOT
HETATM    1  C   UNL     1     -10.316   8.920  70.959  1.00  0.00    -0.321 C  
HETATM    2  C   UNL     1     -10.341  10.122  70.027  1.00  0.00    -0.301 C  
ENDROOT
BRANCH   2   3
HETATM    3  C   UNL     1     -11.716  10.787  70.005  1.00  0.00    -0.417 C  
BRANCH   3   4
HETATM    4  C   UNL     1     -11.905  11.629  68.745  1.00  0.00    -0.387 C  
BRANCH   4   5
HETATM    5  C   UNL     1     -11.149  12.952  68.829  1.00  0.00    -0.263 C  
BRANCH   5   6
HETATM    6  O   UNL     1     -12.102  14.011  68.763  1.00  0.00    -0.349 OA 
BRANCH   6   7
HETATM    7  N   UNL     1     -12.099  14.695  69.975  1.00  0.00    -0.310 NA 
HETATM    8  O   UNL     1     -13.165  15.295  70.144  1.00  0.00    -0.651 OA 
HETATM    9  H   UNL     1     -11.298  15.321  70.052  1.00  0.00     0.000 HD 
HETATM   10  H   UNL     1     -13.163  15.762  70.971  1.00  0.00     0.000 HD 
ENDBRANCH   6   7
ENDBRANCH   5   6
ENDBRANCH   4   5
ENDBRANCH   3   4
ENDBRANCH   2   3
TORSDOF 5
ENDMDL
MODEL       90
REMARK 921   NORMALIZED FREE ENERGY PREDICTED BY IDOCK:   -2.28 KCAL/MOL
REMARK 922        TOTAL FREE ENERGY PREDICTED BY IDOCK:   -3.07 KCAL/MOL
REMARK 923 INTER-LIGAND FREE ENERGY PREDICTED BY IDOCK:   -2.97 KCAL/MOL
REMARK 924 INTRA-LIGAND FREE ENERGY PREDICTED BY IDOCK:   -0.10 KCAL/MOL
REMARK 927      BINDING AFFINITY PREDICTED BY RF-SCORE:    0.00 PKD
ROOT
HETATM    1  C   UNL     1     -11.079   3.647  73.466  1.00  0.00    -0.320 C  
HETATM    2  C   UNL     1     -10.210   3.925  72.249  1.00  0.00    -0.216 C  
ENDROOT
BRANCH   2   3
HETATM    3  C   UNL     1     -10.274   5.395  71.836  1.00  0.00    -0.258 C  
BRANCH   3   4
HETATM    4  C   UNL     1     -11.107   6.211  72.822  1.00  0.00    -0.294 C  
BRANCH   4   5
HETATM    5  C   UNL     1     -11.826   7.368  72.134  1.00  0.00    -0.286 C  
BRANCH   5   6
HETATM    6  O   UNL     1     -13.020   6.859  71.544  1.00  0.00    -0.367 OA 
BRANCH   6   7
HETATM    7  N   UNL     1     -14.108   7.564  72.049  1.00  0.00    -0.577 NA 
HETATM    8  O   UNL     1     -13.732   8.523  72.731  1.00  0.00    -0.655 OA 
HETATM    9  H   UNL     1     -14.741   6.957  72.569  1.00  0.00     0.000 HD 
HETATM   10  H   UNL     1     -14.475   9.004  73.076  1.00  0.00     0.000 HD 
ENDBRANCH   6   7
ENDBRANCH   5   6
ENDBRANCH   4   5
ENDBRANCH   3   4
ENDBRANCH   2   3
TORSDOF 5
ENDMDL
MODEL       91
REMARK 921   NORMALIZED FREE ENERGY PREDICTED BY IDOCK:   -2.27 KCAL/MOL
REMARK 922        TOTAL FREE ENERGY PREDICTED BY IDOCK:   -3.06 KCAL/MOL
REMARK 923 INTER-LIGAND FREE ENERGY PREDICTED BY IDOCK:   -2.90 KCAL/MOL
REMARK 924 INTRA-LIGAND FREE ENERGY PREDICTED BY IDOCK:   -0.15 KCAL/MOL
REMARK 927      BINDING AFFINITY PREDICTED BY RF-SCORE:    0.00 PKD
ROOT
HETATM    1  C   UNL     1      -7.673   7.400  67.124  1.00  0.00    -0.115 C  
HETATM    2  C   UNL     1      -8.993   6.878  66.577  1.00  0.00    -0.166 C  
ENDROOT
BRANCH   2   3
HETATM    3  C   UNL     1     -10.136   7.858  66.839  1.00  0.00    -0.362 C  
BRANCH   3   4
HETATM    4  C   UNL     1      -9.880   9.202  66.162  1.00  0.00    -0.363 C  
BRANCH   4   5
HETATM    5  C   UNL     1     -10.173  10.373  67.096  1.00  0.00    -0.222 C  
BRANCH   5   6
HETATM    6  O   UNL     1     -10.928   9.879  68.200  1.00  0.00    -0.251 OA 
BRANCH   6   7
HETATM    7  N   UNL     1     -12.055  10.676  68.367  1.00  0.00    -0.813 NA 
HETATM    8  O   UNL     1     -12.119  11.540  67.486  1.00  0.00    -0.614 OA 
HETATM    9  H   UNL     1     -12.091  11.087  69.300  1.00  0.00     0.000 HD 
HETATM   10  H   UNL     1     -12.888  12.084  67.600  1.00  0.00     0.000 HD 
ENDBRANCH   6   7
ENDBRANCH   5   6
ENDBRANCH   4   5
ENDBRANCH   3   4
ENDBRANCH   2   3
TORSDOF 5
ENDMDL
MODEL       92
REMARK 921   NORMALIZED FREE ENERGY PREDICTED BY IDOCK:   -2.27 KCAL/MOL
REMARK 922        TOTAL FREE ENERGY PREDICTED BY IDOCK:   -3.06 KCAL/MOL
REMARK 923 INTER-LIGAND FREE ENERGY PREDICTED BY IDOCK:   -2.97 KCAL/MOL
REMARK 924 INTRA-LIGAND FREE ENERGY PREDICTED BY IDOCK:   -0.09 KCAL/MOL
REMARK 927      BINDING AFFINITY PREDICTED BY RF-SCORE:    0.00 PKD
ROOT
HETATM    1  C   UNL     1      -7.497  20.635  67.450  1.00  0.00    -0.384 C  
HETATM    2  C   UNL     1      -9.006  20.452  67.392  1.00  0.00    -0.449 C  
ENDROOT
BRANCH   2   3
HETATM    3  C   UNL     1      -9.388  19.155  66.679  1.00  0.00    -0.375 C  
BRANCH   3   4
HETATM    4  C   UNL     1     -10.611  18.507  67.323  1.00  0.00    -0.453 C  
BRANCH   4   5
HETATM    5  C   UNL     1     -10.244  17.740  68.590  1.00  0.00    -0.377 C  
BRANCH   5   6
HETATM    6  O   UNL     1     -10.264  16.347  68.286  1.00  0.00    -0.238 OA 
BRANCH   6   7
HETATM    7  N   UNL     1     -11.577  15.892  68.342  1.00  0.00    -0.355 NA 
HETATM    8  O   UNL     1     -11.667  14.749  67.882  1.00  0.00    -0.342 OA 
HETATM    9  H   UNL     1     -12.219  16.535  67.879  1.00  0.00     0.000 HD 
HETATM   10  H   UNL     1     -12.564  14.439  67.921  1.00  0.00     0.000 HD 
ENDBRANCH   6   7
ENDBRANCH   5   6
ENDBRANCH   4   5
ENDBRANCH   3   4
ENDBRANCH   2   3
TORSDOF 5
ENDMDL
MODEL       93
REMARK 921   NORMALIZED FREE ENERGY PREDICTED BY IDOCK:   -2.25 KCAL/MOL
REMARK 922        TOTAL FREE ENERGY PREDICTED BY IDOCK:   -3.04 KCAL/MOL
REMARK 923 INTER-LIGAND FREE ENERGY PREDICTED BY IDOCK:   -2.89 KCAL/MOL
REMARK 924 INTRA-LIGAND FREE ENERGY PREDICTED BY IDOCK:   -0.15 KCAL/MOL
REMARK 927      BINDING AFFINITY PREDICTED BY RF-SCORE:    0.00 PKD
ROOT
HETATM    1  C   UNL     1      -9.655   9.609  65.670  1.00  0.00    -0.338 C  
HETATM    2  C   UNL     1      -9.608  10.904  66.467  1.00  0.00    -0.224 C  
ENDROOT
BRANCH   2   3
HETATM    3  C   UNL     1     -10.891  11.117  67.269  1.00  0.00    -0.326 C  
BRANCH   3   4
HETATM    4  C   UNL     1     -11.503  12.486  66.982  1.00  0.00    -0.419 C  
BRANCH   4   5
HETATM    5  C   UNL     1     -11.785  12.680  65.496  1.00  0.00    -0.402 C  
BRANCH   5   6
HETATM    6  O   UNL     1     -11.438  14.019  65.150  1.00  0.00    -0.309 OA 
BRANCH   6   7
HETATM    7  N   UNL     1     -10.051  14.134  65.130  1.00  0.00    -0.536 NA 
HETATM    8  O   UNL     1      -9.697  15.263  65.485  1.00  0.00    -0.332 OA 
HETATM    9  H   UNL     1      -9.666  13.887  64.218  1.00  0.00     0.000 HD 
HETATM   10  H   UNL     1      -8.751  15.341  65.470  1.00  0.00     0.000 HD 
ENDBRANCH   6   7
ENDBRANCH   5   6
ENDBRANCH   4   5
ENDBRANCH   3   4
ENDBRANCH   2   3
TORSDOF 5
ENDMDL
MODEL       94
REMARK 921   NORMALIZED FREE ENERGY PREDICTED BY IDOCK:   -2.25 KCAL/MOL
REMARK 922        TOTAL FREE ENERGY PREDICTED BY IDOCK:   -3.04 KCAL/MOL
REMARK 923 INTER-LIGAND FREE ENERGY PREDICTED BY IDOCK:   -2.97 KCAL/MOL
REMARK 924 INTRA-LIGAND FREE ENERGY PREDICTED BY IDOCK:   -0.07 KCAL/MOL
REMARK 927      BINDING AFFINITY PREDICTED BY RF-SCORE:    0.00 PKD
ROOT
HETATM    1  C   UNL     1     -13.912   8.549  71.560  1.00  0.00    -0.410 C  
HETATM    2  C   UNL     1     -12.952   9.583  72.128  1.00  0.00    -0.497 C  
ENDROOT
BRANCH   2   3
HETATM    3  C   UNL     1     -11.523   9.349  71.642  1.00  0.00    -0.463 C  
BRANCH   3   4
HETATM    4  C   UNL     1     -10.774   8.387  72.562  1.00  0.00    -0.372 C  
BRANCH   4   5
HETATM    5  C   UNL     1      -9.310   8.242  72.160  1.00  0.00    -0.234 C  
BRANCH   5   6
HETATM    6  O   UNL     1      -8.505   8.597  73.282  1.00  0.00    -0.395 OA 
BRANCH   6   7
HETATM    7  N   UNL     1      -7.233   8.940  72.834  1.00  0.00    -0.333 NA 
HETATM    8  O   UNL     1      -7.202   8.999  71.601  1.00  0.00    -0.262 OA 
HETATM    9  H   UNL     1      -6.522   8.307  73.199  1.00  0.00     0.000 HD 
HETATM   10  H   UNL     1      -6.334   9.233  71.295  1.00  0.00     0.000 HD 
ENDBRANCH   6   7
ENDBRANCH   5   6
ENDBRANCH   4   5
ENDBRANCH   3   4
ENDBRANCH   2   3
TORSDOF 5
ENDMDL
MODEL       95
REMARK 921   NORMALIZED FREE ENERGY PREDICTED BY IDOCK:   -2.24 KCAL/MOL
REMARK 922        TOTAL FREE ENERGY PREDICTED BY IDOCK:   -3.03 KCAL/MOL
REMARK 923 INTER-LIGAND FREE ENERGY PREDICTED BY IDOCK:   -2.92 KCAL/MOL
REMARK 924 INTRA-LIGAND FREE ENERGY PREDICTED BY IDOCK:   -0.10 KCAL/MOL
REMARK 927      BINDING AFFINITY PREDICTED BY RF-SCORE:    0.00 PKD
ROOT
HETATM    1  C   UNL     1     -11.271   6.347  69.166  1.00  0.00    -0.421 C  
HETATM    2  C   UNL     1     -10.540   7.681  69.170  1.00  0.00    -0.195 C  
ENDROOT
BRANCH   2   3
HETATM    3  C   UNL     1     -11.033   8.587  70.297  1.00  0.00    -0.245 C  
BRANCH   3   4
HETATM    4  C   UNL     1     -10.860  10.061  69.939  1.00  0.00    -0.328 C  
BRANCH   4   5
HETATM    5  C   UNL     1     -11.041  10.306  68.444  1.00  0.00    -0.247 C  
BRANCH   5   6
HETATM    6  O   UNL     1     -12.146  11.190  68.270  1.00  0.00    -0.620 OA 
BRANCH   6   7
HETATM    7  N   UNL     1     -11.836  12.109  67.273  1.00  0.00    -0.579 NA 
HETATM    8  O   UNL     1     -11.117  11.596  66.409  1.00  0.00    -0.290 OA 
HETATM    9  H   UNL     1     -11.416  12.955  67.659  1.00  0.00     0.000 HD 
HETATM   10  H   UNL     1     -10.905  12.224  65.729  1.00  0.00     0.000 HD 
ENDBRANCH   6   7
ENDBRANCH   5   6
ENDBRANCH   4   5
ENDBRANCH   3   4
ENDBRANCH   2   3
TORSDOF 5
ENDMDL
MODEL       96
REMARK 921   NORMALIZED FREE ENERGY PREDICTED BY IDOCK:   -2.24 KCAL/MOL
REMARK 922        TOTAL FREE ENERGY PREDICTED BY IDOCK:   -3.02 KCAL/MOL
REMARK 923 INTER-LIGAND FREE ENERGY PREDICTED BY IDOCK:   -2.96 KCAL/MOL
REMARK 924 INTRA-LIGAND FREE ENERGY PREDICTED BY IDOCK:   -0.06 KCAL/MOL
REMARK 927      BINDING AFFINITY PREDICTED BY RF-SCORE:    0.00 PKD
ROOT
HETATM    1  C   UNL     1     -10.774  19.915  65.564  1.00  0.00    -0.305 C  
HETATM    2  C   UNL     1     -10.233  19.075  66.711  1.00  0.00    -0.465 C  
ENDROOT
BRANCH   2   3
HETATM    3  C   UNL     1      -9.103  19.792  67.448  1.00  0.00    -0.415 C  
BRANCH   3   4
HETATM    4  C   UNL     1      -8.641  18.994  68.666  1.00  0.00    -0.389 C  
BRANCH   4   5
HETATM    5  C   UNL     1      -7.122  19.003  68.807  1.00  0.00    -0.318 C  
BRANCH   5   6
HETATM    6  O   UNL     1      -6.771  20.010  69.753  1.00  0.00    -0.338 OA 
BRANCH   6   7
HETATM    7  N   UNL     1      -5.445  20.379  69.547  1.00  0.00    -0.285 NA 
HETATM    8  O   UNL     1      -5.373  21.378  68.825  1.00  0.00    -0.445 OA 
HETATM    9  H   UNL     1      -4.893  19.606  69.177  1.00  0.00     0.000 HD 
HETATM   10  H   UNL     1      -4.468  21.629  68.684  1.00  0.00     0.000 HD 
ENDBRANCH   6   7
ENDBRANCH   5   6
ENDBRANCH   4   5
ENDBRANCH   3   4
ENDBRANCH   2   3
TORSDOF 5
ENDMDL
MODEL       97
REMARK 921   NORMALIZED FREE ENERGY PREDICTED BY IDOCK:   -2.24 KCAL/MOL
REMARK 922        TOTAL FREE ENERGY PREDICTED BY IDOCK:   -3.02 KCAL/MOL
REMARK 923 INTER-LIGAND FREE ENERGY PREDICTED BY IDOCK:   -2.79 KCAL/MOL
REMARK 924 INTRA-LIGAND FREE ENERGY PREDICTED BY IDOCK:   -0.23 KCAL/MOL
REMARK 927      BINDING AFFINITY PREDICTED BY RF-SCORE:    0.00 PKD
ROOT
HETATM    1  C   UNL     1      -9.668  11.311  65.762  1.00  0.00    -0.263 C  
HETATM    2  C   UNL     1     -11.090  11.800  65.527  1.00  0.00    -0.336 C  
ENDROOT
BRANCH   2   3
HETATM    3  C   UNL     1     -11.616  12.592  66.723  1.00  0.00    -0.446 C  
BRANCH   3   4
HETATM    4  C   UNL     1     -12.223  13.922  66.283  1.00  0.00    -0.498 C  
BRANCH   4   5
HETATM    5  C   UNL     1     -11.381  15.109  66.740  1.00  0.00    -0.248 C  
BRANCH   5   6
HETATM    6  O   UNL     1     -10.337  15.304  65.788  1.00  0.00    -0.296 OA 
BRANCH   6   7
HETATM    7  N   UNL     1      -9.160  15.606  66.465  1.00  0.00    -0.275 NA 
HETATM    8  O   UNL     1      -8.442  14.607  66.568  1.00  0.00    -0.428 OA 
HETATM    9  H   UNL     1      -9.347  16.031  67.373  1.00  0.00     0.000 HD 
HETATM   10  H   UNL     1      -7.638  14.813  67.031  1.00  0.00     0.000 HD 
ENDBRANCH   6   7
ENDBRANCH   5   6
ENDBRANCH   4   5
ENDBRANCH   3   4
ENDBRANCH   2   3
TORSDOF 5
ENDMDL
MODEL       98
REMARK 921   NORMALIZED FREE ENERGY PREDICTED BY IDOCK:   -2.23 KCAL/MOL
REMARK 922        TOTAL FREE ENERGY PREDICTED BY IDOCK:   -3.01 KCAL/MOL
REMARK 923 INTER-LIGAND FREE ENERGY PREDICTED BY IDOCK:   -2.94 KCAL/MOL
REMARK 924 INTRA-LIGAND FREE ENERGY PREDICTED BY IDOCK:   -0.07 KCAL/MOL
REMARK 927      BINDING AFFINITY PREDICTED BY RF-SCORE:    0.00 PKD
ROOT
HETATM    1  C   UNL     1     -11.974  11.056  69.072  1.00  0.00    -0.364 C  
HETATM    2  C   UNL     1     -11.220  10.887  67.762  1.00  0.00    -0.384 C  
ENDROOT
BRANCH   2   3
HETATM    3  C   UNL     1     -11.185  12.189  66.962  1.00  0.00    -0.370 C  
BRANCH   3   4
HETATM    4  C   UNL     1     -10.945  13.392  67.871  1.00  0.00    -0.276 C  
BRANCH   4   5
HETATM    5  C   UNL     1      -9.838  14.295  67.336  1.00  0.00    -0.235 C  
BRANCH   5   6
HETATM    6  O   UNL     1     -10.429  15.242  66.448  1.00  0.00    -0.286 OA 
BRANCH   6   7
HETATM    7  N   UNL     1      -9.950  15.013  65.162  1.00  0.00    -0.350 NA 
HETATM    8  O   UNL     1     -10.562  15.699  64.336  1.00  0.00    -0.676 OA 
HETATM    9  H   UNL     1      -9.975  14.023  64.921  1.00  0.00     0.000 HD 
HETATM   10  H   UNL     1     -10.235  15.543  63.458  1.00  0.00     0.000 HD 
ENDBRANCH   6   7
ENDBRANCH   5   6
ENDBRANCH   4   5
ENDBRANCH   3   4
ENDBRANCH   2   3
TORSDOF 5
ENDMDL
MODEL       99
REMARK 921   NORMALIZED FREE ENERGY PREDICTED BY IDOCK:   -2.23 KCAL/MOL
REMARK 922        TOTAL FREE ENERGY PREDICTED BY IDOCK:   -3.01 KCAL/MOL
REMARK 923 INTER-LIGAND FREE ENERGY PREDICTED BY IDOCK:   -2.92 KCAL/MOL
REMARK 924 INTRA-LIGAND FREE ENERGY PREDICTED BY IDOCK:   -0.09 KCAL/MOL
REMARK 927      BINDING AFFINITY PREDICTED BY RF-SCORE:    0.00 PKD
ROOT
HETATM    1  C   UNL     1     -12.111  13.837  70.308  1.00  0.00    -0.425 C  
HETATM    2  C   UNL     1     -11.838  13.712  68.817  1.00  0.00    -0.395 C  
ENDROOT
BRANCH   2   3
HETATM    3  C   UNL     1     -11.486  15.062  68.195  1.00  0.00    -0.355 C  
BRANCH   3   4
HETATM    4  C   UNL     1     -10.289  15.700  68.896  1.00  0.00    -0.218 C  
BRANCH   4   5
HETATM    5  C   UNL     1     -10.386  17.223  68.911  1.00  0.00    -0.352 C  
BRANCH   5   6
HETATM    6  O   UNL     1     -10.026  17.702  67.616  1.00  0.00    -0.299 OA 
BRANCH   6   7
HETATM    7  N   UNL     1     -10.856  18.768  67.284  1.00  0.00    -0.419 NA 
HETATM    8  O   UNL     1     -10.545  19.244  66.188  1.00  0.00    -0.454 OA 
HETATM    9  H   UNL     1     -10.865  19.480  68.014  1.00  0.00     0.000 HD 
HETATM   10  H   UNL     1     -11.111  19.972  65.961  1.00  0.00     0.000 HD 
ENDBRANCH   6   7
ENDBRANCH   5   6
ENDBRANCH   4   5
ENDBRANCH   3   4
ENDBRANCH   2   3
TORSDOF 5
ENDMDL
MODEL      100
REMARK 921   NORMALIZED FREE ENERGY PREDICTED BY IDOCK:   -2.21 KCAL/MOL
REMARK 922        TOTAL FREE ENERGY PREDICTED BY IDOCK:   -2.99 KCAL/MOL
REMARK 923 INTER-LIGAND FREE ENERGY PREDICTED BY IDOCK:   -2.83 KCAL/MOL
REMARK 924 INTRA-LIGAND FREE ENERGY PREDICTED BY IDOCK:   -0.16 KCAL/MOL
REMARK 927      BINDING AFFINITY PREDICTED BY RF-SCORE:    0.00 PKD
ROOT
HETATM    1  C   UNL     1      -6.085  19.175  69.365  1.00  0.00    -0.291 C  
HETATM    2  C   UNL     1      -6.702  17.817  69.067  1.00  0.00    -0.246 C  
ENDROOT
BRANCH   2   3
HETATM    3  C   UNL     1      -7.082  17.685  67.592  1.00  0.00    -0.187 C  
BRANCH   3   4
HETATM    4  C   UNL     1      -6.376  18.738  66.742  1.00  0.00    -0.202 C  
BRANCH   4   5
HETATM    5  C   UNL     1      -7.348  19.465  65.817  1.00  0.00    -0.258 C  
BRANCH   5   6
HETATM    6  O   UNL     1      -8.671  19.238  66.299  1.00  0.00    -0.330 OA 
BRANCH   6   7
HETATM    7  N   UNL     1      -9.444  20.365  66.039  1.00  0.00    -0.651 NA 
HETATM    8  O   UNL     1      -9.684  20.984  67.081  1.00  0.00    -0.669 OA 
HETATM    9  H   UNL     1     -10.298  20.128  65.537  1.00  0.00     0.000 HD 
HETATM   10  H   UNL     1     -10.212  21.753  66.904  1.00  0.00     0.000 HD 
ENDBRANCH   6   7
ENDBRANCH   5   6
ENDBRANCH   4   5
ENDBRANCH   3   4
ENDBRANCH   2   3
TORSDOF 5
ENDMDL
MODEL      101
REMARK 921   NORMALIZED FREE ENERGY PREDICTED BY IDOCK:   -2.19 KCAL/MOL
REMARK 922        TOTAL FREE ENERGY PREDICTED BY IDOCK:   -2.96 KCAL/MOL
REMARK 923 INTER-LIGAND FREE ENERGY PREDICTED BY IDOCK:   -2.87 KCAL/MOL
REMARK 924 INTRA-LIGAND FREE ENERGY PREDICTED BY IDOCK:   -0.10 KCAL/MOL
REMARK 927      BINDING AFFINITY PREDICTED BY RF-SCORE:    0.00 PKD
ROOT
HETATM    1  C   UNL     1     -10.695  14.241  68.957  1.00  0.00    -0.259 C  
HETATM    2  C   UNL     1     -10.101  14.195  67.558  1.00  0.00    -0.236 C  
ENDROOT
BRANCH   2   3
HETATM    3  C   UNL     1      -9.430  15.518  67.190  1.00  0.00    -0.223 C  
BRANCH   3   4
HETATM    4  C   UNL     1     -10.203  16.245  66.092  1.00  0.00    -0.361 C  
BRANCH   4   5
HETATM    5  C   UNL     1     -10.164  17.759  66.279  1.00  0.00    -0.364 C  
BRANCH   5   6
HETATM    6  O   UNL     1     -10.543  18.049  67.623  1.00  0.00    -0.400 OA 
BRANCH   6   7
HETATM    7  N   UNL     1     -10.301  19.395  67.878  1.00  0.00    -0.413 NA 
HETATM    8  O   UNL     1     -10.219  19.605  69.093  1.00  0.00    -0.610 OA 
HETATM    9  H   UNL     1     -11.000  19.993  67.439  1.00  0.00     0.000 HD 
HETATM   10  H   UNL     1     -10.054  20.524  69.267  1.00  0.00     0.000 HD 
ENDBRANCH   6   7
ENDBRANCH   5   6
ENDBRANCH   4   5
ENDBRANCH   3   4
ENDBRANCH   2   3
TORSDOF 5
ENDMDL
MODEL      102
REMARK 921   NORMALIZED FREE ENERGY PREDICTED BY IDOCK:   -2.19 KCAL/MOL
REMARK 922        TOTAL FREE ENERGY PREDICTED BY IDOCK:   -2.96 KCAL/MOL
REMARK 923 INTER-LIGAND FREE ENERGY PREDICTED BY IDOCK:   -2.92 KCAL/MOL
REMARK 924 INTRA-LIGAND FREE ENERGY PREDICTED BY IDOCK:   -0.04 KCAL/MOL
REMARK 927      BINDING AFFINITY PREDICTED BY RF-SCORE:    0.00 PKD
ROOT
HETATM    1  C   UNL     1     -10.428  19.123  66.136  1.00  0.00    -0.558 C  
HETATM    2  C   UNL     1     -10.451  17.617  65.922  1.00  0.00    -0.247 C  
ENDROOT
BRANCH   2   3
HETATM    3  C   UNL     1      -9.744  16.878  67.057  1.00  0.00    -0.255 C  
BRANCH   3   4
HETATM    4  C   UNL     1     -10.619  15.759  67.619  1.00  0.00    -0.301 C  
BRANCH   4   5
HETATM    5  C   UNL     1     -10.507  14.482  66.792  1.00  0.00    -0.270 C  
BRANCH   5   6
HETATM    6  O   UNL     1     -10.811  13.377  67.641  1.00  0.00    -0.253 OA 
BRANCH   6   7
HETATM    7  N   UNL     1     -11.876  12.668  67.094  1.00  0.00    -0.432 NA 
HETATM    8  O   UNL     1     -11.815  11.474  67.402  1.00  0.00    -0.607 OA 
HETATM    9  H   UNL     1     -11.932  12.794  66.083  1.00  0.00     0.000 HD 
HETATM   10  H   UNL     1     -12.541  10.990  67.028  1.00  0.00     0.000 HD 
ENDBRANCH   6   7
ENDBRANCH   5   6
ENDBRANCH   4   5
ENDBRANCH   3   4
ENDBRANCH   2   3
TORSDOF 5
ENDMDL
MODEL      103
REMARK 921   NORMALIZED FREE ENERGY PREDICTED BY IDOCK:   -2.18 KCAL/MOL
REMARK 922        TOTAL FREE ENERGY PREDICTED BY IDOCK:   -2.94 KCAL/MOL
REMARK 923 INTER-LIGAND FREE ENERGY PREDICTED BY IDOCK:   -2.86 KCAL/MOL
REMARK 924 INTRA-LIGAND FREE ENERGY PREDICTED BY IDOCK:   -0.09 KCAL/MOL
REMARK 927      BINDING AFFINITY PREDICTED BY RF-SCORE:    0.00 PKD
ROOT
HETATM    1  C   UNL     1     -10.786   5.614  66.899  1.00  0.00    -0.350 C  
HETATM    2  C   UNL     1     -10.436   5.481  68.374  1.00  0.00    -0.227 C  
ENDROOT
BRANCH   2   3
HETATM    3  C   UNL     1     -11.235   6.462  69.231  1.00  0.00    -0.440 C  
BRANCH   3   4
HETATM    4  C   UNL     1     -10.993   6.222  70.720  1.00  0.00    -0.357 C  
BRANCH   4   5
HETATM    5  C   UNL     1      -9.833   7.060  71.248  1.00  0.00    -0.175 C  
BRANCH   5   6
HETATM    6  O   UNL     1     -10.375   8.142  72.002  1.00  0.00    -0.215 OA 
BRANCH   6   7
HETATM    7  N   UNL     1     -11.357   7.649  72.855  1.00  0.00    -0.534 NA 
HETATM    8  O   UNL     1     -10.898   7.446  73.984  1.00  0.00    -0.558 OA 
HETATM    9  H   UNL     1     -11.802   6.815  72.474  1.00  0.00     0.000 HD 
HETATM   10  H   UNL     1     -11.568   7.109  74.566  1.00  0.00     0.000 HD 
ENDBRANCH   6   7
ENDBRANCH   5   6
ENDBRANCH   4   5
ENDBRANCH   3   4
ENDBRANCH   2   3
TORSDOF 5
ENDMDL
MODEL      104
REMARK 921   NORMALIZED FREE ENERGY PREDICTED BY IDOCK:   -2.17 KCAL/MOL
REMARK 922        TOTAL FREE ENERGY PREDICTED BY IDOCK:   -2.94 KCAL/MOL
REMARK 923 INTER-LIGAND FREE ENERGY PREDICTED BY IDOCK:   -2.82 KCAL/MOL
REMARK 924 INTRA-LIGAND FREE ENERGY PREDICTED BY IDOCK:   -0.11 KCAL/MOL
REMARK 927      BINDING AFFINITY PREDICTED BY RF-SCORE:    0.00 PKD
ROOT
HETATM    1  C   UNL     1      -8.841   8.812  67.116  1.00  0.00    -0.137 C  
HETATM    2  C   UNL     1     -10.361   8.796  67.179  1.00  0.00    -0.364 C  
ENDROOT
BRANCH   2   3
HETATM    3  C   UNL     1     -10.909  10.058  67.844  1.00  0.00    -0.323 C  
BRANCH   3   4
HETATM    4  C   UNL     1     -10.408  10.189  69.281  1.00  0.00    -0.242 C  
BRANCH   4   5
HETATM    5  C   UNL     1     -11.127   9.226  70.221  1.00  0.00    -0.251 C  
BRANCH   5   6
HETATM    6  O   UNL     1     -12.009   9.986  71.044  1.00  0.00    -0.317 OA 
BRANCH   6   7
HETATM    7  N   UNL     1     -13.312   9.811  70.590  1.00  0.00    -0.607 NA 
HETATM    8  O   UNL     1     -13.807   8.780  71.059  1.00  0.00    -0.582 OA 
HETATM    9  H   UNL     1     -13.361   9.822  69.572  1.00  0.00     0.000 HD 
HETATM   10  H   UNL     1     -14.696   8.660  70.749  1.00  0.00     0.000 HD 
ENDBRANCH   6   7
ENDBRANCH   5   6
ENDBRANCH   4   5
ENDBRANCH   3   4
ENDBRANCH   2   3
TORSDOF 5
ENDMDL
MODEL      105
REMARK 921   NORMALIZED FREE ENERGY PREDICTED BY IDOCK:   -2.15 KCAL/MOL
REMARK 922        TOTAL FREE ENERGY PREDICTED BY IDOCK:   -2.91 KCAL/MOL
REMARK 923 INTER-LIGAND FREE ENERGY PREDICTED BY IDOCK:   -2.84 KCAL/MOL
REMARK 924 INTRA-LIGAND FREE ENERGY PREDICTED BY IDOCK:   -0.07 KCAL/MOL
REMARK 927      BINDING AFFINITY PREDICTED BY RF-SCORE:    0.00 PKD
ROOT
HETATM    1  C   UNL     1      -8.920  10.102  69.701  1.00  0.00    -0.190 C  
HETATM    2  C   UNL     1      -9.283  10.347  68.244  1.00  0.00    -0.149 C  
ENDROOT
BRANCH   2   3
HETATM    3  C   UNL     1     -10.574  11.154  68.114  1.00  0.00    -0.227 C  
BRANCH   3   4
HETATM    4  C   UNL     1     -10.895  11.455  66.652  1.00  0.00    -0.339 C  
BRANCH   4   5
HETATM    5  C   UNL     1     -10.660  12.923  66.311  1.00  0.00    -0.266 C  
BRANCH   5   6
HETATM    6  O   UNL     1     -11.229  13.177  65.028  1.00  0.00    -0.290 OA 
BRANCH   6   7
HETATM    7  N   UNL     1     -10.219  13.579  64.160  1.00  0.00    -0.758 NA 
HETATM    8  O   UNL     1      -9.970  12.694  63.334  1.00  0.00    -0.627 OA 
HETATM    9  H   UNL     1      -9.382  13.870  64.664  1.00  0.00     0.000 HD 
HETATM   10  H   UNL     1      -9.281  12.968  62.741  1.00  0.00     0.000 HD 
ENDBRANCH   6   7
ENDBRANCH   5   6
ENDBRANCH   4   5
ENDBRANCH   3   4
ENDBRANCH   2   3
TORSDOF 5
ENDMDL
MODEL      106
REMARK 921   NORMALIZED FREE ENERGY PREDICTED BY IDOCK:   -2.15 KCAL/MOL
REMARK 922        TOTAL FREE ENERGY PREDICTED BY IDOCK:   -2.91 KCAL/MOL
REMARK 923 INTER-LIGAND FREE ENERGY PREDICTED BY IDOCK:   -2.82 KCAL/MOL
REMARK 924 INTRA-LIGAND FREE ENERGY PREDICTED BY IDOCK:   -0.09 KCAL/MOL
REMARK 927      BINDING AFFINITY PREDICTED BY RF-SCORE:    0.00 PKD
ROOT
HETATM    1  C   UNL     1      -7.399   7.011  70.602  1.00  0.00    -0.076 C  
HETATM    2  C   UNL     1      -8.815   6.612  70.992  1.00  0.00    -0.142 C  
ENDROOT
BRANCH   2   3
HETATM    3  C   UNL     1      -9.858   7.410  70.211  1.00  0.00    -0.187 C  
BRANCH   3   4
HETATM    4  C   UNL     1     -11.184   7.475  70.965  1.00  0.00    -0.281 C  
BRANCH   4   5
HETATM    5  C   UNL     1     -11.122   8.450  72.137  1.00  0.00    -0.345 C  
BRANCH   5   6
HETATM    6  O   UNL     1     -12.048   9.505  71.885  1.00  0.00    -0.371 OA 
BRANCH   6   7
HETATM    7  N   UNL     1     -13.342   9.013  72.028  1.00  0.00    -0.404 NA 
HETATM    8  O   UNL     1     -13.620   8.845  73.220  1.00  0.00    -1.012 OA 
HETATM    9  H   UNL     1     -13.483   8.162  71.485  1.00  0.00     0.000 HD 
HETATM   10  H   UNL     1     -14.502   8.509  73.317  1.00  0.00     0.000 HD 
ENDBRANCH   6   7
ENDBRANCH   5   6
ENDBRANCH   4   5
ENDBRANCH   3   4
ENDBRANCH   2   3
TORSDOF 5
ENDMDL
MODEL      107
REMARK 921   NORMALIZED FREE ENERGY PREDICTED BY IDOCK:   -2.15 KCAL/MOL
REMARK 922        TOTAL FREE ENERGY PREDICTED BY IDOCK:   -2.91 KCAL/MOL
REMARK 923 INTER-LIGAND FREE ENERGY PREDICTED BY IDOCK:   -2.85 KCAL/MOL
REMARK 924 INTRA-LIGAND FREE ENERGY PREDICTED BY IDOCK:   -0.06 KCAL/MOL
REMARK 927      BINDING AFFINITY PREDICTED BY RF-SCORE:    0.00 PKD
ROOT
HETATM    1  C   UNL     1     -10.758   6.316  72.093  1.00  0.00    -0.269 C  
HETATM    2  C   UNL     1     -11.093   6.136  70.620  1.00  0.00    -0.384 C  
ENDROOT
BRANCH   2   3
HETATM    3  C   UNL     1      -9.848   5.805  69.798  1.00  0.00    -0.232 C  
BRANCH   3   4
HETATM    4  C   UNL     1      -9.895   6.476  68.427  1.00  0.00    -0.137 C  
BRANCH   4   5
HETATM    5  C   UNL     1      -9.255   5.608  67.348  1.00  0.00    -0.109 C  
BRANCH   5   6
HETATM    6  O   UNL     1      -9.999   5.778  66.143  1.00  0.00    -0.119 OA 
BRANCH   6   7
HETATM    7  N   UNL     1     -10.555   4.555  65.781  1.00  0.00    -0.497 NA 
HETATM    8  O   UNL     1     -11.613   4.717  65.165  1.00  0.00    -1.107 OA 
HETATM    9  H   UNL     1     -10.678   3.943  66.587  1.00  0.00     0.000 HD 
HETATM   10  H   UNL     1     -11.992   3.882  64.917  1.00  0.00     0.000 HD 
ENDBRANCH   6   7
ENDBRANCH   5   6
ENDBRANCH   4   5
ENDBRANCH   3   4
ENDBRANCH   2   3
TORSDOF 5
ENDMDL
MODEL      108
REMARK 921   NORMALIZED FREE ENERGY PREDICTED BY IDOCK:   -2.14 KCAL/MOL
REMARK 922        TOTAL FREE ENERGY PREDICTED BY IDOCK:   -2.89 KCAL/MOL
REMARK 923 INTER-LIGAND FREE ENERGY PREDICTED BY IDOCK:   -2.76 KCAL/MOL
REMARK 924 INTRA-LIGAND FREE ENERGY PREDICTED BY IDOCK:   -0.13 KCAL/MOL
REMARK 927      BINDING AFFINITY PREDICTED BY RF-SCORE:    0.00 PKD
ROOT
HETATM    1  C   UNL     1      -6.451  18.568  65.492  1.00  0.00    -0.309 C  
HETATM    2  C   UNL     1      -7.162  19.176  66.691  1.00  0.00    -0.226 C  
ENDROOT
BRANCH   2   3
HETATM    3  C   UNL     1      -8.315  20.082  66.260  1.00  0.00    -0.322 C  
BRANCH   3   4
HETATM    4  C   UNL     1      -9.575  19.802  67.076  1.00  0.00    -0.490 C  
BRANCH   4   5
HETATM    5  C   UNL     1     -10.469  18.767  66.402  1.00  0.00    -0.429 C  
BRANCH   5   6
HETATM    6  O   UNL     1     -10.740  17.733  67.346  1.00  0.00    -0.357 OA 
BRANCH   6   7
HETATM    7  N   UNL     1     -10.117  18.047  68.549  1.00  0.00    -0.377 NA 
HETATM    8  O   UNL     1      -9.610  17.043  69.058  1.00  0.00    -0.255 OA 
HETATM    9  H   UNL     1     -10.756  18.514  69.193  1.00  0.00     0.000 HD 
HETATM   10  H   UNL     1      -9.185  17.258  69.880  1.00  0.00     0.000 HD 
ENDBRANCH   6   7
ENDBRANCH   5   6
ENDBRANCH   4   5
ENDBRANCH   3   4
ENDBRANCH   2   3
TORSDOF 5
ENDMDL
MODEL      109
REMARK 921   NORMALIZED FREE ENERGY PREDICTED BY IDOCK:   -2.14 KCAL/MOL
REMARK 922        TOTAL FREE ENERGY PREDICTED BY IDOCK:   -2.89 KCAL/MOL
REMARK 923 INTER-LIGAND FREE ENERGY PREDICTED BY IDOCK:   -2.79 KCAL/MOL
REMARK 924 INTRA-LIGAND FREE ENERGY PREDICTED BY IDOCK:   -0.10 KCAL/MOL
REMARK 927      BINDING AFFINITY PREDICTED BY RF-SCORE:    0.00 PKD
ROOT
HETATM    1  C   UNL     1      -9.156   4.683  72.589  1.00  0.00    -0.140 C  
HETATM    2  C   UNL     1      -9.906   5.246  71.391  1.00  0.00    -0.232 C  
ENDROOT
BRANCH   2   3
HETATM    3  C   UNL     1     -11.187   5.963  71.817  1.00  0.00    -0.311 C  
BRANCH   3   4
HETATM    4  C   UNL     1     -10.884   7.124  72.763  1.00  0.00    -0.337 C  
BRANCH   4   5
HETATM    5  C   UNL     1     -11.786   8.324  72.493  1.00  0.00    -0.383 C  
BRANCH   5   6
HETATM    6  O   UNL     1     -12.509   8.074  71.290  1.00  0.00    -0.304 OA 
BRANCH   6   7
HETATM    7  N   UNL     1     -13.407   9.115  71.079  1.00  0.00    -0.559 NA 
HETATM    8  O   UNL     1     -12.842  10.086  70.566  1.00  0.00    -0.524 OA 
HETATM    9  H   UNL     1     -13.894   9.372  71.937  1.00  0.00     0.000 HD 
HETATM   10  H   UNL     1     -13.456  10.798  70.422  1.00  0.00     0.000 HD 
ENDBRANCH   6   7
ENDBRANCH   5   6
ENDBRANCH   4   5
ENDBRANCH   3   4
ENDBRANCH   2   3
TORSDOF 5
ENDMDL
MODEL      110
REMARK 921   NORMALIZED FREE ENERGY PREDICTED BY IDOCK:   -2.13 KCAL/MOL
REMARK 922        TOTAL FREE ENERGY PREDICTED BY IDOCK:   -2.88 KCAL/MOL
REMARK 923 INTER-LIGAND FREE ENERGY PREDICTED BY IDOCK:   -2.83 KCAL/MOL
REMARK 924 INTRA-LIGAND FREE ENERGY PREDICTED BY IDOCK:   -0.05 KCAL/MOL
REMARK 927      BINDING AFFINITY PREDICTED BY RF-SCORE:    0.00 PKD
ROOT
HETATM    1  C   UNL     1     -10.599  18.958  65.722  1.00  0.00    -0.358 C  
HETATM    2  C   UNL     1     -10.434  17.454  65.870  1.00  0.00    -0.256 C  
ENDROOT
BRANCH   2   3
HETATM    3  C   UNL     1      -9.237  17.105  66.755  1.00  0.00    -0.270 C  
BRANCH   3   4
HETATM    4  C   UNL     1      -9.678  16.365  68.016  1.00  0.00    -0.235 C  
BRANCH   4   5
HETATM    5  C   UNL     1     -10.631  17.204  68.861  1.00  0.00    -0.314 C  
BRANCH   5   6
HETATM    6  O   UNL     1     -11.520  16.317  69.537  1.00  0.00    -0.308 OA 
BRANCH   6   7
HETATM    7  N   UNL     1     -11.320  16.438  70.909  1.00  0.00    -0.501 NA 
HETATM    8  O   UNL     1     -12.383  16.299  71.523  1.00  0.00    -0.592 OA 
HETATM    9  H   UNL     1     -10.859  17.316  71.146  1.00  0.00     0.000 HD 
HETATM   10  H   UNL     1     -12.246  16.382  72.459  1.00  0.00     0.000 HD 
ENDBRANCH   6   7
ENDBRANCH   5   6
ENDBRANCH   4   5
ENDBRANCH   3   4
ENDBRANCH   2   3
TORSDOF 5
ENDMDL
MODEL      111
REMARK 921   NORMALIZED FREE ENERGY PREDICTED BY IDOCK:   -2.13 KCAL/MOL
REMARK 922        TOTAL FREE ENERGY PREDICTED BY IDOCK:   -2.88 KCAL/MOL
REMARK 923 INTER-LIGAND FREE ENERGY PREDICTED BY IDOCK:   -2.82 KCAL/MOL
REMARK 924 INTRA-LIGAND FREE ENERGY PREDICTED BY IDOCK:   -0.06 KCAL/MOL
REMARK 927      BINDING AFFINITY PREDICTED BY RF-SCORE:    0.00 PKD
ROOT
HETATM    1  C   UNL     1     -10.525  19.369  65.962  1.00  0.00    -0.596 C  
HETATM    2  C   UNL     1     -10.779  19.500  67.456  1.00  0.00    -0.565 C  
ENDROOT
BRANCH   2   3
HETATM    3  C   UNL     1      -9.670  18.839  68.274  1.00  0.00    -0.406 C  
BRANCH   3   4
HETATM    4  C   UNL     1      -9.780  17.316  68.228  1.00  0.00    -0.294 C  
BRANCH   4   5
HETATM    5  C   UNL     1      -8.470  16.642  68.623  1.00  0.00    -0.253 C  
BRANCH   5   6
HETATM    6  O   UNL     1      -8.720  15.247  68.781  1.00  0.00    -0.171 OA 
BRANCH   6   7
HETATM    7  N   UNL     1      -7.881  14.748  69.772  1.00  0.00    -0.412 NA 
HETATM    8  O   UNL     1      -6.698  14.818  69.424  1.00  0.00    -0.125 OA 
HETATM    9  H   UNL     1      -8.139  13.799  70.042  1.00  0.00     0.000 HD 
HETATM   10  H   UNL     1      -6.125  14.478  70.101  1.00  0.00     0.000 HD 
ENDBRANCH   6   7
ENDBRANCH   5   6
ENDBRANCH   4   5
ENDBRANCH   3   4
ENDBRANCH   2   3
TORSDOF 5
ENDMDL
MODEL      112
REMARK 921   NORMALIZED FREE ENERGY PREDICTED BY IDOCK:   -2.12 KCAL/MOL
REMARK 922        TOTAL FREE ENERGY PREDICTED BY IDOCK:   -2.87 KCAL/MOL
REMARK 923 INTER-LIGAND FREE ENERGY PREDICTED BY IDOCK:   -2.77 KCAL/MOL
REMARK 924 INTRA-LIGAND FREE ENERGY PREDICTED BY IDOCK:   -0.09 KCAL/MOL
REMARK 927      BINDING AFFINITY PREDICTED BY RF-SCORE:    0.00 PKD
ROOT
HETATM    1  C   UNL     1      -8.412  18.446  68.558  1.00  0.00    -0.346 C  
HETATM    2  C   UNL     1      -8.922  17.014  68.487  1.00  0.00    -0.263 C  
ENDROOT
BRANCH   2   3
HETATM    3  C   UNL     1     -10.449  16.960  68.515  1.00  0.00    -0.361 C  
BRANCH   3   4
HETATM    4  C   UNL     1     -10.978  15.805  67.667  1.00  0.00    -0.302 C  
BRANCH   4   5
HETATM    5  C   UNL     1     -11.788  14.816  68.499  1.00  0.00    -0.306 C  
BRANCH   5   6
HETATM    6  O   UNL     1     -11.627  13.520  67.925  1.00  0.00    -0.300 OA 
BRANCH   6   7
HETATM    7  N   UNL     1     -11.556  13.645  66.542  1.00  0.00    -0.349 NA 
HETATM    8  O   UNL     1     -12.312  12.841  65.987  1.00  0.00    -0.547 OA 
HETATM    9  H   UNL     1     -10.598  13.556  66.204  1.00  0.00     0.000 HD 
HETATM   10  H   UNL     1     -12.263  12.926  65.042  1.00  0.00     0.000 HD 
ENDBRANCH   6   7
ENDBRANCH   5   6
ENDBRANCH   4   5
ENDBRANCH   3   4
ENDBRANCH   2   3
TORSDOF 5
ENDMDL
MODEL      113
REMARK 921   NORMALIZED FREE ENERGY PREDICTED BY IDOCK:   -2.11 KCAL/MOL
REMARK 922        TOTAL FREE ENERGY PREDICTED BY IDOCK:   -2.85 KCAL/MOL
REMARK 923 INTER-LIGAND FREE ENERGY PREDICTED BY IDOCK:   -2.76 KCAL/MOL
REMARK 924 INTRA-LIGAND FREE ENERGY PREDICTED BY IDOCK:   -0.09 KCAL/MOL
REMARK 927      BINDING AFFINITY PREDICTED BY RF-SCORE:    0.00 PKD
ROOT
HETATM    1  C   UNL     1     -13.031  14.735  72.811  1.00  0.00    -0.553 C  
HETATM    2  C   UNL     1     -13.113  14.898  71.301  1.00  0.00    -0.448 C  
ENDROOT
BRANCH   2   3
HETATM    3  C   UNL     1     -11.793  15.400  70.717  1.00  0.00    -0.394 C  
BRANCH   3   4
HETATM    4  C   UNL     1     -11.367  14.566  69.511  1.00  0.00    -0.313 C  
BRANCH   4   5
HETATM    5  C   UNL     1     -12.128  13.245  69.438  1.00  0.00    -0.248 C  
BRANCH   5   6
HETATM    6  O   UNL     1     -11.413  12.280  70.207  1.00  0.00    -0.097 OA 
BRANCH   6   7
HETATM    7  N   UNL     1     -12.288  11.266  70.582  1.00  0.00    -0.373 NA 
HETATM    8  O   UNL     1     -11.714  10.425  71.281  1.00  0.00    -0.338 OA 
HETATM    9  H   UNL     1     -12.739  10.839  69.773  1.00  0.00     0.000 HD 
HETATM   10  H   UNL     1     -12.312   9.732  71.537  1.00  0.00     0.000 HD 
ENDBRANCH   6   7
ENDBRANCH   5   6
ENDBRANCH   4   5
ENDBRANCH   3   4
ENDBRANCH   2   3
TORSDOF 5
ENDMDL
MODEL      114
REMARK 921   NORMALIZED FREE ENERGY PREDICTED BY IDOCK:   -2.11 KCAL/MOL
REMARK 922        TOTAL FREE ENERGY PREDICTED BY IDOCK:   -2.85 KCAL/MOL
REMARK 923 INTER-LIGAND FREE ENERGY PREDICTED BY IDOCK:   -2.74 KCAL/MOL
REMARK 924 INTRA-LIGAND FREE ENERGY PREDICTED BY IDOCK:   -0.11 KCAL/MOL
REMARK 927      BINDING AFFINITY PREDICTED BY RF-SCORE:    0.00 PKD
ROOT
HETATM    1  C   UNL     1      -8.966   9.567  64.658  1.00  0.00    -0.266 C  
HETATM    2  C   UNL     1      -9.999  10.670  64.483  1.00  0.00    -0.410 C  
ENDROOT
BRANCH   2   3
HETATM    3  C   UNL     1     -10.473  11.214  65.831  1.00  0.00    -0.310 C  
BRANCH   3   4
HETATM    4  C   UNL     1      -9.920  10.386  66.988  1.00  0.00    -0.252 C  
BRANCH   4   5
HETATM    5  C   UNL     1     -11.017   9.973  67.964  1.00  0.00    -0.240 C  
BRANCH   5   6
HETATM    6  O   UNL     1     -11.715  11.148  68.370  1.00  0.00    -0.402 OA 
BRANCH   6   7
HETATM    7  N   UNL     1     -11.088  11.679  69.492  1.00  0.00    -0.427 NA 
HETATM    8  O   UNL     1     -11.859  12.410  70.123  1.00  0.00    -0.437 OA 
HETATM    9  H   UNL     1     -10.225  12.164  69.248  1.00  0.00     0.000 HD 
HETATM   10  H   UNL     1     -11.431  12.773  70.889  1.00  0.00     0.000 HD 
ENDBRANCH   6   7
ENDBRANCH   5   6
ENDBRANCH   4   5
ENDBRANCH   3   4
ENDBRANCH   2   3
TORSDOF 5
ENDMDL
MODEL      115
REMARK 921   NORMALIZED FREE ENERGY PREDICTED BY IDOCK:   -2.10 KCAL/MOL
REMARK 922        TOTAL FREE ENERGY PREDICTED BY IDOCK:   -2.85 KCAL/MOL
REMARK 923 INTER-LIGAND FREE ENERGY PREDICTED BY IDOCK:   -2.96 KCAL/MOL
REMARK 924 INTRA-LIGAND FREE ENERGY PREDICTED BY IDOCK:    0.11 KCAL/MOL
REMARK 927      BINDING AFFINITY PREDICTED BY RF-SCORE:    0.00 PKD
ROOT
HETATM    1  C   UNL     1      -8.891  14.142  68.161  1.00  0.00    -0.183 C  
HETATM    2  C   UNL     1      -9.650  15.355  68.676  1.00  0.00    -0.204 C  
ENDROOT
BRANCH   2   3
HETATM    3  C   UNL     1     -10.833  15.702  67.773  1.00  0.00    -0.307 C  
BRANCH   3   4
HETATM    4  C   UNL     1     -10.805  17.173  67.363  1.00  0.00    -0.164 C  
BRANCH   4   5
HETATM    5  C   UNL     1      -9.460  17.567  66.760  1.00  0.00    -0.275 C  
BRANCH   5   6
HETATM    6  O   UNL     1      -9.622  17.673  65.347  1.00  0.00    -0.133 OA 
BRANCH   6   7
HETATM    7  N   UNL     1     -10.954  17.960  65.067  1.00  0.00    -0.649 NA 
HETATM    8  O   UNL     1     -11.454  17.080  64.358  1.00  0.00    -1.048 OA 
HETATM    9  H   UNL     1     -11.060  18.884  64.651  1.00  0.00     0.000 HD 
HETATM   10  H   UNL     1     -12.364  17.276  64.167  1.00  0.00     0.000 HD 
ENDBRANCH   6   7
ENDBRANCH   5   6
ENDBRANCH   4   5
ENDBRANCH   3   4
ENDBRANCH   2   3
TORSDOF 5
ENDMDL
MODEL      116
REMARK 921   NORMALIZED FREE ENERGY PREDICTED BY IDOCK:   -2.10 KCAL/MOL
REMARK 922        TOTAL FREE ENERGY PREDICTED BY IDOCK:   -2.85 KCAL/MOL
REMARK 923 INTER-LIGAND FREE ENERGY PREDICTED BY IDOCK:   -2.72 KCAL/MOL
REMARK 924 INTRA-LIGAND FREE ENERGY PREDICTED BY IDOCK:   -0.13 KCAL/MOL
REMARK 927      BINDING AFFINITY PREDICTED BY RF-SCORE:    0.00 PKD
ROOT
HETATM    1  C   UNL     1      -7.789   8.934  64.835  1.00  0.00    -0.121 C  
HETATM    2  C   UNL     1      -9.018   9.805  65.049  1.00  0.00    -0.247 C  
ENDROOT
BRANCH   2   3
HETATM    3  C   UNL     1      -9.498  10.429  63.739  1.00  0.00    -0.353 C  
BRANCH   3   4
HETATM    4  C   UNL     1      -9.901  11.889  63.935  1.00  0.00    -0.284 C  
BRANCH   4   5
HETATM    5  C   UNL     1     -10.152  12.215  65.404  1.00  0.00    -0.255 C  
BRANCH   5   6
HETATM    6  O   UNL     1     -10.641  13.552  65.484  1.00  0.00    -0.281 OA 
BRANCH   6   7
HETATM    7  N   UNL     1     -10.609  14.119  64.214  1.00  0.00    -0.531 NA 
HETATM    8  O   UNL     1     -10.996  15.292  64.245  1.00  0.00    -0.643 OA 
HETATM    9  H   UNL     1     -11.139  13.566  63.541  1.00  0.00     0.000 HD 
HETATM   10  H   UNL     1     -10.974  15.679  63.378  1.00  0.00     0.000 HD 
ENDBRANCH   6   7
ENDBRANCH   5   6
ENDBRANCH   4   5
ENDBRANCH   3   4
ENDBRANCH   2   3
TORSDOF 5
ENDMDL
MODEL      117
REMARK 921   NORMALIZED FREE ENERGY PREDICTED BY IDOCK:   -2.08 KCAL/MOL
REMARK 922        TOTAL FREE ENERGY PREDICTED BY IDOCK:   -2.82 KCAL/MOL
REMARK 923 INTER-LIGAND FREE ENERGY PREDICTED BY IDOCK:   -2.71 KCAL/MOL
REMARK 924 INTRA-LIGAND FREE ENERGY PREDICTED BY IDOCK:   -0.11 KCAL/MOL
REMARK 927      BINDING AFFINITY PREDICTED BY RF-SCORE:    0.00 PKD
ROOT
HETATM    1  C   UNL     1      -5.578  19.147  64.702  1.00  0.00    -0.288 C  
HETATM    2  C   UNL     1      -6.015  18.710  66.092  1.00  0.00    -0.202 C  
ENDROOT
BRANCH   2   3
HETATM    3  C   UNL     1      -7.434  18.145  66.083  1.00  0.00    -0.297 C  
BRANCH   3   4
HETATM    4  C   UNL     1      -8.455  19.204  66.493  1.00  0.00    -0.324 C  
BRANCH   4   5
HETATM    5  C   UNL     1      -7.965  20.035  67.676  1.00  0.00    -0.303 C  
BRANCH   5   6
HETATM    6  O   UNL     1      -8.462  19.439  68.872  1.00  0.00    -0.367 OA 
BRANCH   6   7
HETATM    7  N   UNL     1      -9.849  19.549  68.888  1.00  0.00    -0.443 NA 
HETATM    8  O   UNL     1     -10.373  18.474  69.198  1.00  0.00    -0.483 OA 
HETATM    9  H   UNL     1     -10.209  19.901  68.001  1.00  0.00     0.000 HD 
HETATM   10  H   UNL     1     -11.320  18.550  69.208  1.00  0.00     0.000 HD 
ENDBRANCH   6   7
ENDBRANCH   5   6
ENDBRANCH   4   5
ENDBRANCH   3   4
ENDBRANCH   2   3
TORSDOF 5
ENDMDL
MODEL      118
REMARK 921   NORMALIZED FREE ENERGY PREDICTED BY IDOCK:   -2.08 KCAL/MOL
REMARK 922        TOTAL FREE ENERGY PREDICTED BY IDOCK:   -2.82 KCAL/MOL
REMARK 923 INTER-LIGAND FREE ENERGY PREDICTED BY IDOCK:   -2.78 KCAL/MOL
REMARK 924 INTRA-LIGAND FREE ENERGY PREDICTED BY IDOCK:   -0.04 KCAL/MOL
REMARK 927      BINDING AFFINITY PREDICTED BY RF-SCORE:    0.00 PKD
ROOT
HETATM    1  C   UNL     1     -10.019   5.657  67.306  1.00  0.00    -0.182 C  
HETATM    2  C   UNL     1     -11.009   6.802  67.465  1.00  0.00    -0.375 C  
ENDROOT
BRANCH   2   3
HETATM    3  C   UNL     1     -10.438   8.115  66.932  1.00  0.00    -0.379 C  
BRANCH   3   4
HETATM    4  C   UNL     1     -10.286   9.147  68.047  1.00  0.00    -0.258 C  
BRANCH   4   5
HETATM    5  C   UNL     1     -10.732  10.536  67.600  1.00  0.00    -0.275 C  
BRANCH   5   6
HETATM    6  O   UNL     1     -11.917  10.872  68.318  1.00  0.00    -0.561 OA 
BRANCH   6   7
HETATM    7  N   UNL     1     -11.772  12.148  68.854  1.00  0.00    -0.311 NA 
HETATM    8  O   UNL     1     -10.611  12.339  69.228  1.00  0.00    -0.435 OA 
HETATM    9  H   UNL     1     -12.442  12.320  69.603  1.00  0.00     0.000 HD 
HETATM   10  H   UNL     1     -10.512  13.210  69.594  1.00  0.00     0.000 HD 
ENDBRANCH   6   7
ENDBRANCH   5   6
ENDBRANCH   4   5
ENDBRANCH   3   4
ENDBRANCH   2   3
TORSDOF 5
ENDMDL
MODEL      119
REMARK 921   NORMALIZED FREE ENERGY PREDICTED BY IDOCK:   -2.08 KCAL/MOL
REMARK 922        TOTAL FREE ENERGY PREDICTED BY IDOCK:   -2.81 KCAL/MOL
REMARK 923 INTER-LIGAND FREE ENERGY PREDICTED BY IDOCK:   -2.72 KCAL/MOL
REMARK 924 INTRA-LIGAND FREE ENERGY PREDICTED BY IDOCK:   -0.09 KCAL/MOL
REMARK 927      BINDING AFFINITY PREDICTED BY RF-SCORE:    0.00 PKD
ROOT
HETATM    1  C   UNL     1      -6.128  18.821  65.227  1.00  0.00    -0.314 C  
HETATM    2  C   UNL     1      -7.267  19.408  66.047  1.00  0.00    -0.301 C  
ENDROOT
BRANCH   2   3
HETATM    3  C   UNL     1      -8.127  18.313  66.677  1.00  0.00    -0.281 C  
BRANCH   3   4
HETATM    4  C   UNL     1      -8.264  18.513  68.184  1.00  0.00    -0.315 C  
BRANCH   4   5
HETATM    5  C   UNL     1      -6.913  18.758  68.848  1.00  0.00    -0.308 C  
BRANCH   5   6
HETATM    6  O   UNL     1      -7.055  19.853  69.752  1.00  0.00    -0.269 OA 
BRANCH   6   7
HETATM    7  N   UNL     1      -6.041  19.787  70.701  1.00  0.00    -0.257 NA 
HETATM    8  O   UNL     1      -6.298  20.508  71.671  1.00  0.00    -0.679 OA 
HETATM    9  H   UNL     1      -5.131  20.010  70.297  1.00  0.00     0.000 HD 
HETATM   10  H   UNL     1      -5.605  20.463  72.319  1.00  0.00     0.000 HD 
ENDBRANCH   6   7
ENDBRANCH   5   6
ENDBRANCH   4   5
ENDBRANCH   3   4
ENDBRANCH   2   3
TORSDOF 5
ENDMDL
MODEL      120
REMARK 921   NORMALIZED FREE ENERGY PREDICTED BY IDOCK:   -2.08 KCAL/MOL
REMARK 922        TOTAL FREE ENERGY PREDICTED BY IDOCK:   -2.81 KCAL/MOL
REMARK 923 INTER-LIGAND FREE ENERGY PREDICTED BY IDOCK:   -2.71 KCAL/MOL
REMARK 924 INTRA-LIGAND FREE ENERGY PREDICTED BY IDOCK:   -0.10 KCAL/MOL
REMARK 927      BINDING AFFINITY PREDICTED BY RF-SCORE:    0.00 PKD
ROOT
HETATM    1  C   UNL     1     -12.521  14.351  71.200  1.00  0.00    -0.429 C  
HETATM    2  C   UNL     1     -12.359  13.350  70.066  1.00  0.00    -0.294 C  
ENDROOT
BRANCH   2   3
HETATM    3  C   UNL     1     -11.276  13.788  69.081  1.00  0.00    -0.307 C  
BRANCH   3   4
HETATM    4  C   UNL     1     -11.877  14.537  67.893  1.00  0.00    -0.370 C  
BRANCH   4   5
HETATM    5  C   UNL     1     -10.997  14.430  66.652  1.00  0.00    -0.318 C  
BRANCH   5   6
HETATM    6  O   UNL     1     -10.345  15.684  66.461  1.00  0.00    -0.275 OA 
BRANCH   6   7
HETATM    7  N   UNL     1      -8.993  15.456  66.221  1.00  0.00    -0.360 NA 
HETATM    8  O   UNL     1      -8.623  14.403  66.750  1.00  0.00    -0.359 OA 
HETATM    9  H   UNL     1      -8.420  16.247  66.515  1.00  0.00     0.000 HD 
HETATM   10  H   UNL     1      -7.700  14.248  66.586  1.00  0.00     0.000 HD 
ENDBRANCH   6   7
ENDBRANCH   5   6
ENDBRANCH   4   5
ENDBRANCH   3   4
ENDBRANCH   2   3
TORSDOF 5
ENDMDL
MODEL      121
REMARK 921   NORMALIZED FREE ENERGY PREDICTED BY IDOCK:   -2.07 KCAL/MOL
REMARK 922        TOTAL FREE ENERGY PREDICTED BY IDOCK:   -2.81 KCAL/MOL
REMARK 923 INTER-LIGAND FREE ENERGY PREDICTED BY IDOCK:   -2.71 KCAL/MOL
REMARK 924 INTRA-LIGAND FREE ENERGY PREDICTED BY IDOCK:   -0.10 KCAL/MOL
REMARK 927      BINDING AFFINITY PREDICTED BY RF-SCORE:    0.00 PKD
ROOT
HETATM    1  C   UNL     1     -10.640  19.500  66.163  1.00  0.00    -0.585 C  
HETATM    2  C   UNL     1     -10.078  18.271  66.860  1.00  0.00    -0.377 C  
ENDROOT
BRANCH   2   3
HETATM    3  C   UNL     1      -8.596  18.442  67.192  1.00  0.00    -0.262 C  
BRANCH   3   4
HETATM    4  C   UNL     1      -7.875  17.096  67.217  1.00  0.00    -0.200 C  
BRANCH   4   5
HETATM    5  C   UNL     1      -8.801  15.950  66.822  1.00  0.00    -0.262 C  
BRANCH   5   6
HETATM    6  O   UNL     1      -8.244  14.737  67.326  1.00  0.00    -0.188 OA 
BRANCH   6   7
HETATM    7  N   UNL     1      -8.605  13.691  66.482  1.00  0.00    -0.427 NA 
HETATM    8  O   UNL     1      -9.693  13.916  65.943  1.00  0.00    -0.406 OA 
HETATM    9  H   UNL     1      -8.605  12.796  66.971  1.00  0.00     0.000 HD 
HETATM   10  H   UNL     1      -9.940  13.202  65.367  1.00  0.00     0.000 HD 
ENDBRANCH   6   7
ENDBRANCH   5   6
ENDBRANCH   4   5
ENDBRANCH   3   4
ENDBRANCH   2   3
TORSDOF 5
ENDMDL
MODEL      122
REMARK 921   NORMALIZED FREE ENERGY PREDICTED BY IDOCK:   -2.06 KCAL/MOL
REMARK 922        TOTAL FREE ENERGY PREDICTED BY IDOCK:   -2.80 KCAL/MOL
REMARK 923 INTER-LIGAND FREE ENERGY PREDICTED BY IDOCK:   -2.70 KCAL/MOL
REMARK 924 INTRA-LIGAND FREE ENERGY PREDICTED BY IDOCK:   -0.09 KCAL/MOL
REMARK 927      BINDING AFFINITY PREDICTED BY RF-SCORE:    0.00 PKD
ROOT
HETATM    1  C   UNL     1     -11.192   4.339  73.339  1.00  0.00    -0.361 C  
HETATM    2  C   UNL     1     -10.190   5.012  72.413  1.00  0.00    -0.254 C  
ENDROOT
BRANCH   2   3
HETATM    3  C   UNL     1     -10.652   6.410  72.006  1.00  0.00    -0.244 C  
BRANCH   3   4
HETATM    4  C   UNL     1     -11.516   6.365  70.747  1.00  0.00    -0.415 C  
BRANCH   4   5
HETATM    5  C   UNL     1     -10.705   5.966  69.518  1.00  0.00    -0.343 C  
BRANCH   5   6
HETATM    6  O   UNL     1     -11.330   6.538  68.371  1.00  0.00    -0.247 OA 
BRANCH   6   7
HETATM    7  N   UNL     1     -10.551   7.596  67.914  1.00  0.00    -0.369 NA 
HETATM    8  O   UNL     1     -11.146   8.670  68.048  1.00  0.00    -0.470 OA 
HETATM    9  H   UNL     1     -10.246   7.452  66.952  1.00  0.00     0.000 HD 
HETATM   10  H   UNL     1     -10.614   9.393  67.736  1.00  0.00     0.000 HD 
ENDBRANCH   6   7
ENDBRANCH   5   6
ENDBRANCH   4   5
ENDBRANCH   3   4
ENDBRANCH   2   3
TORSDOF 5
ENDMDL
MODEL      123
REMARK 921   NORMALIZED FREE ENERGY PREDICTED BY IDOCK:   -2.06 KCAL/MOL
REMARK 922        TOTAL FREE ENERGY PREDICTED BY IDOCK:   -2.80 KCAL/MOL
REMARK 923 INTER-LIGAND FREE ENERGY PREDICTED BY IDOCK:   -2.69 KCAL/MOL
REMARK 924 INTRA-LIGAND FREE ENERGY PREDICTED BY IDOCK:   -0.10 KCAL/MOL
REMARK 927      BINDING AFFINITY PREDICTED BY RF-SCORE:    0.00 PKD
ROOT
HETATM    1  C   UNL     1     -10.527  18.568  66.086  1.00  0.00    -0.447 C  
HETATM    2  C   UNL     1     -10.856  19.650  67.104  1.00  0.00    -0.526 C  
ENDROOT
BRANCH   2   3
HETATM    3  C   UNL     1      -9.709  19.857  68.093  1.00  0.00    -0.497 C  
BRANCH   3   4
HETATM    4  C   UNL     1      -8.454  19.109  67.651  1.00  0.00    -0.323 C  
BRANCH   4   5
HETATM    5  C   UNL     1      -7.222  19.557  68.433  1.00  0.00    -0.319 C  
BRANCH   5   6
HETATM    6  O   UNL     1      -6.294  18.474  68.456  1.00  0.00    -0.203 OA 
BRANCH   6   7
HETATM    7  N   UNL     1      -6.692  17.562  69.428  1.00  0.00    -0.223 NA 
HETATM    8  O   UNL     1      -6.564  16.402  69.022  1.00  0.00    -0.157 OA 
HETATM    9  H   UNL     1      -7.641  17.745  69.752  1.00  0.00     0.000 HD 
HETATM   10  H   UNL     1      -6.836  15.779  69.686  1.00  0.00     0.000 HD 
ENDBRANCH   6   7
ENDBRANCH   5   6
ENDBRANCH   4   5
ENDBRANCH   3   4
ENDBRANCH   2   3
TORSDOF 5
ENDMDL
MODEL      124
REMARK 921   NORMALIZED FREE ENERGY PREDICTED BY IDOCK:   -2.04 KCAL/MOL
REMARK 922        TOTAL FREE ENERGY PREDICTED BY IDOCK:   -2.77 KCAL/MOL
REMARK 923 INTER-LIGAND FREE ENERGY PREDICTED BY IDOCK:   -2.67 KCAL/MOL
REMARK 924 INTRA-LIGAND FREE ENERGY PREDICTED BY IDOCK:   -0.10 KCAL/MOL
REMARK 927      BINDING AFFINITY PREDICTED BY RF-SCORE:    0.00 PKD
ROOT
HETATM    1  C   UNL     1      -8.582   7.630  74.242  1.00  0.00    -0.276 C  
HETATM    2  C   UNL     1      -8.751   7.351  72.756  1.00  0.00    -0.160 C  
ENDROOT
BRANCH   2   3
HETATM    3  C   UNL     1      -9.519   6.053  72.512  1.00  0.00    -0.153 C  
BRANCH   3   4
HETATM    4  C   UNL     1     -10.941   6.139  73.063  1.00  0.00    -0.278 C  
BRANCH   4   5
HETATM    5  C   UNL     1     -11.951   6.485  71.973  1.00  0.00    -0.326 C  
BRANCH   5   6
HETATM    6  O   UNL     1     -12.301   7.860  72.114  1.00  0.00    -0.308 OA 
BRANCH   6   7
HETATM    7  N   UNL     1     -13.140   8.222  71.065  1.00  0.00    -0.507 NA 
HETATM    8  O   UNL     1     -14.139   7.496  71.031  1.00  0.00    -0.660 OA 
HETATM    9  H   UNL     1     -12.647   8.227  70.173  1.00  0.00     0.000 HD 
HETATM   10  H   UNL     1     -14.712   7.742  70.314  1.00  0.00     0.000 HD 
ENDBRANCH   6   7
ENDBRANCH   5   6
ENDBRANCH   4   5
ENDBRANCH   3   4
ENDBRANCH   2   3
TORSDOF 5
ENDMDL
MODEL      125
REMARK 921   NORMALIZED FREE ENERGY PREDICTED BY IDOCK:   -2.04 KCAL/MOL
REMARK 922        TOTAL FREE ENERGY PREDICTED BY IDOCK:   -2.77 KCAL/MOL
REMARK 923 INTER-LIGAND FREE ENERGY PREDICTED BY IDOCK:   -2.63 KCAL/MOL
REMARK 924 INTRA-LIGAND FREE ENERGY PREDICTED BY IDOCK:   -0.14 KCAL/MOL
REMARK 927      BINDING AFFINITY PREDICTED BY RF-SCORE:    0.00 PKD
ROOT
HETATM    1  C   UNL     1      -6.114  18.725  68.318  1.00  0.00    -0.217 C  
HETATM    2  C   UNL     1      -6.970  17.478  68.159  1.00  0.00    -0.200 C  
ENDROOT
BRANCH   2   3
HETATM    3  C   UNL     1      -7.425  17.289  66.712  1.00  0.00    -0.258 C  
BRANCH   3   4
HETATM    4  C   UNL     1      -8.936  17.083  66.629  1.00  0.00    -0.280 C  
BRANCH   4   5
HETATM    5  C   UNL     1      -9.651  17.628  67.861  1.00  0.00    -0.282 C  
BRANCH   5   6
HETATM    6  O   UNL     1     -10.731  18.448  67.420  1.00  0.00    -0.416 OA 
BRANCH   6   7
HETATM    7  N   UNL     1     -10.751  19.614  68.180  1.00  0.00    -0.380 NA 
HETATM    8  O   UNL     1     -10.237  19.427  69.287  1.00  0.00    -0.596 OA 
HETATM    9  H   UNL     1     -11.693  19.994  68.261  1.00  0.00     0.000 HD 
HETATM   10  H   UNL     1     -10.251  20.222  69.806  1.00  0.00     0.000 HD 
ENDBRANCH   6   7
ENDBRANCH   5   6
ENDBRANCH   4   5
ENDBRANCH   3   4
ENDBRANCH   2   3
TORSDOF 5
ENDMDL
MODEL      126
REMARK 921   NORMALIZED FREE ENERGY PREDICTED BY IDOCK:   -2.04 KCAL/MOL
REMARK 922        TOTAL FREE ENERGY PREDICTED BY IDOCK:   -2.77 KCAL/MOL
REMARK 923 INTER-LIGAND FREE ENERGY PREDICTED BY IDOCK:   -2.63 KCAL/MOL
REMARK 924 INTRA-LIGAND FREE ENERGY PREDICTED BY IDOCK:   -0.14 KCAL/MOL
REMARK 927      BINDING AFFINITY PREDICTED BY RF-SCORE:    0.00 PKD
ROOT
HETATM    1  C   UNL     1     -13.008   7.335  71.399  1.00  0.00    -0.420 C  
HETATM    2  C   UNL     1     -11.761   6.563  70.995  1.00  0.00    -0.402 C  
ENDROOT
BRANCH   2   3
HETATM    3  C   UNL     1     -11.180   5.781  72.173  1.00  0.00    -0.327 C  
BRANCH   3   4
HETATM    4  C   UNL     1      -9.811   6.325  72.577  1.00  0.00    -0.177 C  
BRANCH   4   5
HETATM    5  C   UNL     1      -9.931   7.588  73.425  1.00  0.00    -0.323 C  
BRANCH   5   6
HETATM    6  O   UNL     1      -9.545   8.700  72.619  1.00  0.00    -0.254 OA 
BRANCH   6   7
HETATM    7  N   UNL     1      -8.162   8.689  72.470  1.00  0.00    -0.392 NA 
HETATM    8  O   UNL     1      -7.828   9.251  71.422  1.00  0.00    -0.335 OA 
HETATM    9  H   UNL     1      -7.785   7.744  72.526  1.00  0.00     0.000 HD 
HETATM   10  H   UNL     1      -6.884   9.244  71.320  1.00  0.00     0.000 HD 
ENDBRANCH   6   7
ENDBRANCH   5   6
ENDBRANCH   4   5
ENDBRANCH   3   4
ENDBRANCH   2   3
TORSDOF 5
ENDMDL
MODEL      127
REMARK 921   NORMALIZED FREE ENERGY PREDICTED BY IDOCK:   -2.01 KCAL/MOL
REMARK 922        TOTAL FREE ENERGY PREDICTED BY IDOCK:   -2.73 KCAL/MOL
REMARK 923 INTER-LIGAND FREE ENERGY PREDICTED BY IDOCK:   -2.66 KCAL/MOL
REMARK 924 INTRA-LIGAND FREE ENERGY PREDICTED BY IDOCK:   -0.07 KCAL/MOL
REMARK 927      BINDING AFFINITY PREDICTED BY RF-SCORE:    0.00 PKD
ROOT
HETATM    1  C   UNL     1     -11.211   6.205  69.337  1.00  0.00    -0.466 C  
HETATM    2  C   UNL     1     -10.987   6.608  67.887  1.00  0.00    -0.342 C  
ENDROOT
BRANCH   2   3
HETATM    3  C   UNL     1     -10.526   8.060  67.773  1.00  0.00    -0.280 C  
BRANCH   3   4
HETATM    4  C   UNL     1      -9.838   8.319  66.434  1.00  0.00    -0.283 C  
BRANCH   4   5
HETATM    5  C   UNL     1      -9.919   9.789  66.031  1.00  0.00    -0.272 C  
BRANCH   5   6
HETATM    6  O   UNL     1      -9.588   9.887  64.647  1.00  0.00    -0.299 OA 
BRANCH   6   7
HETATM    7  N   UNL     1      -8.850  11.049  64.442  1.00  0.00    -0.368 NA 
HETATM    8  O   UNL     1      -7.706  10.930  64.894  1.00  0.00    -0.353 OA 
HETATM    9  H   UNL     1      -9.323  11.867  64.825  1.00  0.00     0.000 HD 
HETATM   10  H   UNL     1      -7.203  11.723  64.754  1.00  0.00     0.000 HD 
ENDBRANCH   6   7
ENDBRANCH   5   6
ENDBRANCH   4   5
ENDBRANCH   3   4
ENDBRANCH   2   3
TORSDOF 5
ENDMDL
MODEL      128
REMARK 921   NORMALIZED FREE ENERGY PREDICTED BY IDOCK:   -2.01 KCAL/MOL
REMARK 922        TOTAL FREE ENERGY PREDICTED BY IDOCK:   -2.73 KCAL/MOL
REMARK 923 INTER-LIGAND FREE ENERGY PREDICTED BY IDOCK:   -2.65 KCAL/MOL
REMARK 924 INTRA-LIGAND FREE ENERGY PREDICTED BY IDOCK:   -0.08 KCAL/MOL
REMARK 927      BINDING AFFINITY PREDICTED BY RF-SCORE:    0.00 PKD
ROOT
HETATM    1  C   UNL     1     -13.090  10.377  71.826  1.00  0.00    -0.567 C  
HETATM    2  C   UNL     1     -12.417  11.573  71.170  1.00  0.00    -0.442 C  
ENDROOT
BRANCH   2   3
HETATM    3  C   UNL     1     -11.612  11.159  69.939  1.00  0.00    -0.416 C  
BRANCH   3   4
HETATM    4  C   UNL     1     -11.729  12.198  68.826  1.00  0.00    -0.374 C  
BRANCH   4   5
HETATM    5  C   UNL     1     -10.654  12.009  67.760  1.00  0.00    -0.207 C  
BRANCH   5   6
HETATM    6  O   UNL     1      -9.380  12.118  68.392  1.00  0.00    -0.203 OA 
BRANCH   6   7
HETATM    7  N   UNL     1      -8.790  13.319  68.011  1.00  0.00    -0.183 NA 
HETATM    8  O   UNL     1      -7.924  13.662  68.823  1.00  0.00    -0.260 OA 
HETATM    9  H   UNL     1      -9.484  14.052  67.870  1.00  0.00     0.000 HD 
HETATM   10  H   UNL     1      -7.522  14.482  68.563  1.00  0.00     0.000 HD 
ENDBRANCH   6   7
ENDBRANCH   5   6
ENDBRANCH   4   5
ENDBRANCH   3   4
ENDBRANCH   2   3
TORSDOF 5
ENDMDL
MODEL      129
REMARK 921   NORMALIZED FREE ENERGY PREDICTED BY IDOCK:   -2.01 KCAL/MOL
REMARK 922        TOTAL FREE ENERGY PREDICTED BY IDOCK:   -2.72 KCAL/MOL
REMARK 923 INTER-LIGAND FREE ENERGY PREDICTED BY IDOCK:   -2.62 KCAL/MOL
REMARK 924 INTRA-LIGAND FREE ENERGY PREDICTED BY IDOCK:   -0.10 KCAL/MOL
REMARK 927      BINDING AFFINITY PREDICTED BY RF-SCORE:    0.00 PKD
ROOT
HETATM    1  C   UNL     1     -14.332   8.462  71.664  1.00  0.00    -0.536 C  
HETATM    2  C   UNL     1     -13.256   9.357  72.260  1.00  0.00    -0.528 C  
ENDROOT
BRANCH   2   3
HETATM    3  C   UNL     1     -11.855   8.881  71.880  1.00  0.00    -0.440 C  
BRANCH   3   4
HETATM    4  C   UNL     1     -11.443   7.660  72.700  1.00  0.00    -0.403 C  
BRANCH   4   5
HETATM    5  C   UNL     1     -11.029   6.492  71.810  1.00  0.00    -0.247 C  
BRANCH   5   6
HETATM    6  O   UNL     1      -9.700   6.115  72.163  1.00  0.00    -0.156 OA 
BRANCH   6   7
HETATM    7  N   UNL     1      -9.122   5.445  71.090  1.00  0.00    -0.140 NA 
HETATM    8  O   UNL     1      -9.842   5.513  70.089  1.00  0.00    -0.172 OA 
HETATM    9  H   UNL     1      -8.896   4.479  71.326  1.00  0.00     0.000 HD 
HETATM   10  H   UNL     1      -9.448   5.055  69.356  1.00  0.00     0.000 HD 
ENDBRANCH   6   7
ENDBRANCH   5   6
ENDBRANCH   4   5
ENDBRANCH   3   4
ENDBRANCH   2   3
TORSDOF 5
ENDMDL
MODEL      130
REMARK 921   NORMALIZED FREE ENERGY PREDICTED BY IDOCK:   -2.00 KCAL/MOL
REMARK 922        TOTAL FREE ENERGY PREDICTED BY IDOCK:   -2.71 KCAL/MOL
REMARK 923 INTER-LIGAND FREE ENERGY PREDICTED BY IDOCK:   -2.65 KCAL/MOL
REMARK 924 INTRA-LIGAND FREE ENERGY PREDICTED BY IDOCK:   -0.06 KCAL/MOL
REMARK 927      BINDING AFFINITY PREDICTED BY RF-SCORE:    0.00 PKD
ROOT
HETATM    1  C   UNL     1      -9.002  12.317  68.067  1.00  0.00    -0.190 C  
HETATM    2  C   UNL     1      -8.293  13.512  67.447  1.00  0.00    -0.199 C  
ENDROOT
BRANCH   2   3
HETATM    3  C   UNL     1      -9.290  14.528  66.891  1.00  0.00    -0.258 C  
BRANCH   3   4
HETATM    4  C   UNL     1      -8.963  15.943  67.365  1.00  0.00    -0.203 C  
BRANCH   4   5
HETATM    5  C   UNL     1      -8.208  16.737  66.303  1.00  0.00    -0.324 C  
BRANCH   5   6
HETATM    6  O   UNL     1      -8.930  17.941  66.055  1.00  0.00    -0.495 OA 
BRANCH   6   7
HETATM    7  N   UNL     1      -8.023  18.978  65.863  1.00  0.00    -0.469 NA 
HETATM    8  O   UNL     1      -7.049  18.596  65.207  1.00  0.00    -0.513 OA 
HETATM    9  H   UNL     1      -7.739  19.399  66.748  1.00  0.00     0.000 HD 
HETATM   10  H   UNL     1      -6.430  19.304  65.076  1.00  0.00     0.000 HD 
ENDBRANCH   6   7
ENDBRANCH   5   6
ENDBRANCH   4   5
ENDBRANCH   3   4
ENDBRANCH   2   3
TORSDOF 5
ENDMDL
MODEL      131
REMARK 921   NORMALIZED FREE ENERGY PREDICTED BY IDOCK:   -1.99 KCAL/MOL
REMARK 922        TOTAL FREE ENERGY PREDICTED BY IDOCK:   -2.70 KCAL/MOL
REMARK 923 INTER-LIGAND FREE ENERGY PREDICTED BY IDOCK:   -2.50 KCAL/MOL
REMARK 924 INTRA-LIGAND FREE ENERGY PREDICTED BY IDOCK:   -0.20 KCAL/MOL
REMARK 927      BINDING AFFINITY PREDICTED BY RF-SCORE:    0.00 PKD
ROOT
HETATM    1  C   UNL     1      -8.733  13.542  67.917  1.00  0.00    -0.183 C  
HETATM    2  C   UNL     1      -9.498  13.648  66.606  1.00  0.00    -0.285 C  
ENDROOT
BRANCH   2   3
HETATM    3  C   UNL     1     -10.565  14.741  66.665  1.00  0.00    -0.299 C  
BRANCH   3   4
HETATM    4  C   UNL     1     -11.337  14.691  67.982  1.00  0.00    -0.329 C  
BRANCH   4   5
HETATM    5  C   UNL     1     -11.470  16.073  68.613  1.00  0.00    -0.377 C  
BRANCH   5   6
HETATM    6  O   UNL     1     -10.159  16.564  68.886  1.00  0.00    -0.237 OA 
BRANCH   6   7
HETATM    7  N   UNL     1     -10.115  17.921  68.586  1.00  0.00    -0.381 NA 
HETATM    8  O   UNL     1     -10.742  18.164  67.549  1.00  0.00    -0.412 OA 
HETATM    9  H   UNL     1      -9.157  18.265  68.535  1.00  0.00     0.000 HD 
HETATM   10  H   UNL     1     -10.711  19.091  67.344  1.00  0.00     0.000 HD 
ENDBRANCH   6   7
ENDBRANCH   5   6
ENDBRANCH   4   5
ENDBRANCH   3   4
ENDBRANCH   2   3
TORSDOF 5
ENDMDL
MODEL      132
REMARK 921   NORMALIZED FREE ENERGY PREDICTED BY IDOCK:   -1.98 KCAL/MOL
REMARK 922        TOTAL FREE ENERGY PREDICTED BY IDOCK:   -2.69 KCAL/MOL
REMARK 923 INTER-LIGAND FREE ENERGY PREDICTED BY IDOCK:   -2.46 KCAL/MOL
REMARK 924 INTRA-LIGAND FREE ENERGY PREDICTED BY IDOCK:   -0.23 KCAL/MOL
REMARK 927      BINDING AFFINITY PREDICTED BY RF-SCORE:    0.00 PKD
ROOT
HETATM    1  C   UNL     1     -12.218   8.443  72.206  1.00  0.00    -0.449 C  
HETATM    2  C   UNL     1     -12.748   7.210  71.489  1.00  0.00    -0.433 C  
ENDROOT
BRANCH   2   3
HETATM    3  C   UNL     1     -11.621   6.243  71.128  1.00  0.00    -0.339 C  
BRANCH   3   4
HETATM    4  C   UNL     1     -11.227   6.375  69.659  1.00  0.00    -0.483 C  
BRANCH   4   5
HETATM    5  C   UNL     1      -9.721   6.554  69.490  1.00  0.00    -0.151 C  
BRANCH   5   6
HETATM    6  O   UNL     1      -9.209   7.148  70.682  1.00  0.00    -0.157 OA 
BRANCH   6   7
HETATM    7  N   UNL     1      -8.887   8.476  70.420  1.00  0.00    -0.144 NA 
HETATM    8  O   UNL     1      -8.635   9.083  71.466  1.00  0.00    -0.303 OA 
HETATM    9  H   UNL     1      -9.617   8.942  69.881  1.00  0.00     0.000 HD 
HETATM   10  H   UNL     1      -8.416   9.989  71.287  1.00  0.00     0.000 HD 
ENDBRANCH   6   7
ENDBRANCH   5   6
ENDBRANCH   4   5
ENDBRANCH   3   4
ENDBRANCH   2   3
TORSDOF 5
ENDMDL
MODEL      133
REMARK 921   NORMALIZED FREE ENERGY PREDICTED BY IDOCK:   -1.97 KCAL/MOL
REMARK 922        TOTAL FREE ENERGY PREDICTED BY IDOCK:   -2.68 KCAL/MOL
REMARK 923 INTER-LIGAND FREE ENERGY PREDICTED BY IDOCK:   -2.57 KCAL/MOL
REMARK 924 INTRA-LIGAND FREE ENERGY PREDICTED BY IDOCK:   -0.11 KCAL/MOL
REMARK 927      BINDING AFFINITY PREDICTED BY RF-SCORE:    0.00 PKD
ROOT
HETATM    1  C   UNL     1      -8.027   3.970  71.382  1.00  0.00    -0.072 C  
HETATM    2  C   UNL     1      -8.677   5.338  71.237  1.00  0.00    -0.136 C  
ENDROOT
BRANCH   2   3
HETATM    3  C   UNL     1     -10.145   5.221  70.826  1.00  0.00    -0.294 C  
BRANCH   3   4
HETATM    4  C   UNL     1     -10.648   6.517  70.193  1.00  0.00    -0.277 C  
BRANCH   4   5
HETATM    5  C   UNL     1      -9.770   6.955  69.025  1.00  0.00    -0.150 C  
BRANCH   5   6
HETATM    6  O   UNL     1     -10.618   7.484  68.008  1.00  0.00    -0.201 OA 
BRANCH   6   7
HETATM    7  N   UNL     1     -11.460   6.475  67.553  1.00  0.00    -0.714 NA 
HETATM    8  O   UNL     1     -11.223   6.204  66.371  1.00  0.00    -0.725 OA 
HETATM    9  H   UNL     1     -12.441   6.710  67.696  1.00  0.00     0.000 HD 
HETATM   10  H   UNL     1     -11.798   5.515  66.060  1.00  0.00     0.000 HD 
ENDBRANCH   6   7
ENDBRANCH   5   6
ENDBRANCH   4   5
ENDBRANCH   3   4
ENDBRANCH   2   3
TORSDOF 5
ENDMDL
MODEL      134
REMARK 921   NORMALIZED FREE ENERGY PREDICTED BY IDOCK:   -1.97 KCAL/MOL
REMARK 922        TOTAL FREE ENERGY PREDICTED BY IDOCK:   -2.68 KCAL/MOL
REMARK 923 INTER-LIGAND FREE ENERGY PREDICTED BY IDOCK:   -2.58 KCAL/MOL
REMARK 924 INTRA-LIGAND FREE ENERGY PREDICTED BY IDOCK:   -0.10 KCAL/MOL
REMARK 927      BINDING AFFINITY PREDICTED BY RF-SCORE:    0.00 PKD
ROOT
HETATM    1  C   UNL     1     -13.264  10.380  71.786  1.00  0.00    -0.529 C  
HETATM    2  C   UNL     1     -12.586  11.467  70.966  1.00  0.00    -0.487 C  
ENDROOT
BRANCH   2   3
HETATM    3  C   UNL     1     -11.533  10.885  70.023  1.00  0.00    -0.411 C  
BRANCH   3   4
HETATM    4  C   UNL     1     -11.113  11.903  68.966  1.00  0.00    -0.300 C  
BRANCH   4   5
HETATM    5  C   UNL     1     -11.296  11.360  67.552  1.00  0.00    -0.292 C  
BRANCH   5   6
HETATM    6  O   UNL     1     -10.897   9.990  67.549  1.00  0.00    -0.277 OA 
BRANCH   6   7
HETATM    7  N   UNL     1      -9.526   9.921  67.324  1.00  0.00    -0.151 NA 
HETATM    8  O   UNL     1      -8.983   9.173  68.144  1.00  0.00    -0.129 OA 
HETATM    9  H   UNL     1      -9.098  10.846  67.317  1.00  0.00     0.000 HD 
HETATM   10  H   UNL     1      -8.047   9.126  67.991  1.00  0.00     0.000 HD 
ENDBRANCH   6   7
ENDBRANCH   5   6
ENDBRANCH   4   5
ENDBRANCH   3   4
ENDBRANCH   2   3
TORSDOF 5
ENDMDL
MODEL      135
REMARK 921   NORMALIZED FREE ENERGY PREDICTED BY IDOCK:   -1.95 KCAL/MOL
REMARK 922        TOTAL FREE ENERGY PREDICTED BY IDOCK:   -2.65 KCAL/MOL
REMARK 923 INTER-LIGAND FREE ENERGY PREDICTED BY IDOCK:   -2.54 KCAL/MOL
REMARK 924 INTRA-LIGAND FREE ENERGY PREDICTED BY IDOCK:   -0.12 KCAL/MOL
REMARK 927      BINDING AFFINITY PREDICTED BY RF-SCORE:    0.00 PKD
ROOT
HETATM    1  C   UNL     1      -8.992   9.772  64.892  1.00  0.00    -0.257 C  
HETATM    2  C   UNL     1      -9.148  10.875  65.928  1.00  0.00    -0.212 C  
ENDROOT
BRANCH   2   3
HETATM    3  C   UNL     1     -10.599  11.342  66.037  1.00  0.00    -0.314 C  
BRANCH   3   4
HETATM    4  C   UNL     1     -11.195  10.988  67.398  1.00  0.00    -0.355 C  
BRANCH   4   5
HETATM    5  C   UNL     1     -10.174  10.304  68.303  1.00  0.00    -0.159 C  
BRANCH   5   6
HETATM    6  O   UNL     1     -10.783  10.092  69.575  1.00  0.00    -0.213 OA 
BRANCH   6   7
HETATM    7  N   UNL     1     -12.154  10.294  69.458  1.00  0.00    -0.509 NA 
HETATM    8  O   UNL     1     -12.750   9.851  70.445  1.00  0.00    -0.516 OA 
HETATM    9  H   UNL     1     -12.520   9.902  68.591  1.00  0.00     0.000 HD 
HETATM   10  H   UNL     1     -13.687   9.989  70.365  1.00  0.00     0.000 HD 
ENDBRANCH   6   7
ENDBRANCH   5   6
ENDBRANCH   4   5
ENDBRANCH   3   4
ENDBRANCH   2   3
TORSDOF 5
ENDMDL
MODEL      136
REMARK 921   NORMALIZED FREE ENERGY PREDICTED BY IDOCK:   -1.95 KCAL/MOL
REMARK 922        TOTAL FREE ENERGY PREDICTED BY IDOCK:   -2.65 KCAL/MOL
REMARK 923 INTER-LIGAND FREE ENERGY PREDICTED BY IDOCK:   -2.57 KCAL/MOL
REMARK 924 INTRA-LIGAND FREE ENERGY PREDICTED BY IDOCK:   -0.07 KCAL/MOL
REMARK 927      BINDING AFFINITY PREDICTED BY RF-SCORE:    0.00 PKD
ROOT
HETATM    1  C   UNL     1      -7.217  12.886  67.641  1.00  0.00    -0.147 C  
HETATM    2  C   UNL     1      -8.207  11.735  67.546  1.00  0.00    -0.152 C  
ENDROOT
BRANCH   2   3
HETATM    3  C   UNL     1      -9.166  11.915  66.370  1.00  0.00    -0.218 C  
BRANCH   3   4
HETATM    4  C   UNL     1     -10.622  11.828  66.824  1.00  0.00    -0.273 C  
BRANCH   4   5
HETATM    5  C   UNL     1     -11.243  13.210  67.001  1.00  0.00    -0.294 C  
BRANCH   5   6
HETATM    6  O   UNL     1     -11.866  13.255  68.283  1.00  0.00    -0.333 OA 
BRANCH   6   7
HETATM    7  N   UNL     1     -12.410  14.520  68.476  1.00  0.00    -0.595 NA 
HETATM    8  O   UNL     1     -12.864  14.635  69.619  1.00  0.00    -0.564 OA 
HETATM    9  H   UNL     1     -13.110  14.742  67.768  1.00  0.00     0.000 HD 
HETATM   10  H   UNL     1     -13.236  15.499  69.750  1.00  0.00     0.000 HD 
ENDBRANCH   6   7
ENDBRANCH   5   6
ENDBRANCH   4   5
ENDBRANCH   3   4
ENDBRANCH   2   3
TORSDOF 5
ENDMDL
MODEL      137
REMARK 921   NORMALIZED FREE ENERGY PREDICTED BY IDOCK:   -1.95 KCAL/MOL
REMARK 922        TOTAL FREE ENERGY PREDICTED BY IDOCK:   -2.64 KCAL/MOL
REMARK 923 INTER-LIGAND FREE ENERGY PREDICTED BY IDOCK:   -2.56 KCAL/MOL
REMARK 924 INTRA-LIGAND FREE ENERGY PREDICTED BY IDOCK:   -0.08 KCAL/MOL
REMARK 927      BINDING AFFINITY PREDICTED BY RF-SCORE:    0.00 PKD
ROOT
HETATM    1  C   UNL     1      -6.012   5.884  69.468  1.00  0.00    -0.024 C  
HETATM    2  C   UNL     1      -7.082   6.469  68.559  1.00  0.00    -0.083 C  
ENDROOT
BRANCH   2   3
HETATM    3  C   UNL     1      -8.480   6.008  68.968  1.00  0.00    -0.117 C  
BRANCH   3   4
HETATM    4  C   UNL     1      -9.313   5.614  67.750  1.00  0.00    -0.113 C  
BRANCH   4   5
HETATM    5  C   UNL     1     -10.698   6.253  67.780  1.00  0.00    -0.306 C  
BRANCH   5   6
HETATM    6  O   UNL     1     -11.261   6.153  66.473  1.00  0.00    -0.147 OA 
BRANCH   6   7
HETATM    7  N   UNL     1     -11.048   4.867  65.989  1.00  0.00    -0.756 NA 
HETATM    8  O   UNL     1     -11.657   4.689  64.929  1.00  0.00    -1.016 OA 
HETATM    9  H   UNL     1     -11.285   4.158  66.683  1.00  0.00     0.000 HD 
HETATM   10  H   UNL     1     -11.512   3.810  64.598  1.00  0.00     0.000 HD 
ENDBRANCH   6   7
ENDBRANCH   5   6
ENDBRANCH   4   5
ENDBRANCH   3   4
ENDBRANCH   2   3
TORSDOF 5
ENDMDL
MODEL      138
REMARK 921   NORMALIZED FREE ENERGY PREDICTED BY IDOCK:   -1.94 KCAL/MOL
REMARK 922        TOTAL FREE ENERGY PREDICTED BY IDOCK:   -2.64 KCAL/MOL
REMARK 923 INTER-LIGAND FREE ENERGY PREDICTED BY IDOCK:   -2.72 KCAL/MOL
REMARK 924 INTRA-LIGAND FREE ENERGY PREDICTED BY IDOCK:    0.08 KCAL/MOL
REMARK 927      BINDING AFFINITY PREDICTED BY RF-SCORE:    0.00 PKD
ROOT
HETATM    1  C   UNL     1      -9.514  16.169  66.005  1.00  0.00    -0.374 C  
HETATM    2  C   UNL     1     -10.660  15.641  65.156  1.00  0.00    -0.449 C  
ENDROOT
BRANCH   2   3
HETATM    3  C   UNL     1     -11.416  14.520  65.868  1.00  0.00    -0.345 C  
BRANCH   3   4
HETATM    4  C   UNL     1     -10.553  13.268  66.006  1.00  0.00    -0.292 C  
BRANCH   4   5
HETATM    5  C   UNL     1     -10.195  12.983  67.461  1.00  0.00    -0.221 C  
BRANCH   5   6
HETATM    6  O   UNL     1     -10.846  13.956  68.276  1.00  0.00    -0.237 OA 
BRANCH   6   7
HETATM    7  N   UNL     1     -11.948  13.367  68.887  1.00  0.00    -0.338 NA 
HETATM    8  O   UNL     1     -11.755  13.222  70.098  1.00  0.00    -0.466 OA 
HETATM    9  H   UNL     1     -12.202  12.487  68.438  1.00  0.00     0.000 HD 
HETATM   10  H   UNL     1     -12.508  12.820  70.515  1.00  0.00     0.000 HD 
ENDBRANCH   6   7
ENDBRANCH   5   6
ENDBRANCH   4   5
ENDBRANCH   3   4
ENDBRANCH   2   3
TORSDOF 5
ENDMDL
MODEL      139
REMARK 921   NORMALIZED FREE ENERGY PREDICTED BY IDOCK:   -1.94 KCAL/MOL
REMARK 922        TOTAL FREE ENERGY PREDICTED BY IDOCK:   -2.64 KCAL/MOL
REMARK 923 INTER-LIGAND FREE ENERGY PREDICTED BY IDOCK:   -2.45 KCAL/MOL
REMARK 924 INTRA-LIGAND FREE ENERGY PREDICTED BY IDOCK:   -0.19 KCAL/MOL
REMARK 927      BINDING AFFINITY PREDICTED BY RF-SCORE:    0.00 PKD
ROOT
HETATM    1  C   UNL     1      -9.797  10.020  65.705  1.00  0.00    -0.345 C  
HETATM    2  C   UNL     1     -10.599  11.098  64.991  1.00  0.00    -0.340 C  
ENDROOT
BRANCH   2   3
HETATM    3  C   UNL     1     -11.139  12.139  65.971  1.00  0.00    -0.354 C  
BRANCH   3   4
HETATM    4  C   UNL     1     -10.166  13.304  66.134  1.00  0.00    -0.296 C  
BRANCH   4   5
HETATM    5  C   UNL     1      -9.788  13.527  67.595  1.00  0.00    -0.228 C  
BRANCH   5   6
HETATM    6  O   UNL     1      -8.582  12.812  67.855  1.00  0.00    -0.160 OA 
BRANCH   6   7
HETATM    7  N   UNL     1      -8.837  11.830  68.807  1.00  0.00    -0.370 NA 
HETATM    8  O   UNL     1      -7.812  11.551  69.437  1.00  0.00    -0.360 OA 
HETATM    9  H   UNL     1      -9.260  11.002  68.389  1.00  0.00     0.000 HD 
HETATM   10  H   UNL     1      -7.986  10.880  70.086  1.00  0.00     0.000 HD 
ENDBRANCH   6   7
ENDBRANCH   5   6
ENDBRANCH   4   5
ENDBRANCH   3   4
ENDBRANCH   2   3
TORSDOF 5
ENDMDL
MODEL      140
REMARK 921   NORMALIZED FREE ENERGY PREDICTED BY IDOCK:   -1.91 KCAL/MOL
REMARK 922        TOTAL FREE ENERGY PREDICTED BY IDOCK:   -2.60 KCAL/MOL
REMARK 923 INTER-LIGAND FREE ENERGY PREDICTED BY IDOCK:   -2.49 KCAL/MOL
REMARK 924 INTRA-LIGAND FREE ENERGY PREDICTED BY IDOCK:   -0.10 KCAL/MOL
REMARK 927      BINDING AFFINITY PREDICTED BY RF-SCORE:    0.00 PKD
ROOT
HETATM    1  C   UNL     1     -10.358  19.944  66.034  1.00  0.00    -0.591 C  
HETATM    2  C   UNL     1     -10.566  18.462  66.308  1.00  0.00    -0.343 C  
ENDROOT
BRANCH   2   3
HETATM    3  C   UNL     1      -9.235  17.735  66.498  1.00  0.00    -0.280 C  
BRANCH   3   4
HETATM    4  C   UNL     1      -8.795  17.758  67.960  1.00  0.00    -0.259 C  
BRANCH   4   5
HETATM    5  C   UNL     1      -7.430  17.103  68.151  1.00  0.00    -0.205 C  
BRANCH   5   6
HETATM    6  O   UNL     1      -7.394  15.916  67.362  1.00  0.00    -0.155 OA 
BRANCH   6   7
HETATM    7  N   UNL     1      -6.073  15.499  67.236  1.00  0.00    -0.324 NA 
HETATM    8  O   UNL     1      -5.386  16.370  66.692  1.00  0.00    -0.338 OA 
HETATM    9  H   UNL     1      -6.004  14.607  66.748  1.00  0.00     0.000 HD 
HETATM   10  H   UNL     1      -4.484  16.086  66.606  1.00  0.00     0.000 HD 
ENDBRANCH   6   7
ENDBRANCH   5   6
ENDBRANCH   4   5
ENDBRANCH   3   4
ENDBRANCH   2   3
TORSDOF 5
ENDMDL
MODEL      141
REMARK 921   NORMALIZED FREE ENERGY PREDICTED BY IDOCK:   -1.91 KCAL/MOL
REMARK 922        TOTAL FREE ENERGY PREDICTED BY IDOCK:   -2.60 KCAL/MOL
REMARK 923 INTER-LIGAND FREE ENERGY PREDICTED BY IDOCK:   -2.45 KCAL/MOL
REMARK 924 INTRA-LIGAND FREE ENERGY PREDICTED BY IDOCK:   -0.14 KCAL/MOL
REMARK 927      BINDING AFFINITY PREDICTED BY RF-SCORE:    0.00 PKD
ROOT
HETATM    1  C   UNL     1      -9.086  11.457  68.260  1.00  0.00    -0.179 C  
HETATM    2  C   UNL     1     -10.547  11.229  67.905  1.00  0.00    -0.231 C  
ENDROOT
BRANCH   2   3
HETATM    3  C   UNL     1     -11.428  12.382  68.384  1.00  0.00    -0.356 C  
BRANCH   3   4
HETATM    4  C   UNL     1     -12.016  13.157  67.206  1.00  0.00    -0.389 C  
BRANCH   4   5
HETATM    5  C   UNL     1     -11.694  14.646  67.290  1.00  0.00    -0.385 C  
BRANCH   5   6
HETATM    6  O   UNL     1     -11.129  14.905  68.574  1.00  0.00    -0.246 OA 
BRANCH   6   7
HETATM    7  N   UNL     1     -11.488  16.188  68.973  1.00  0.00    -0.345 NA 
HETATM    8  O   UNL     1     -12.210  16.153  69.974  1.00  0.00    -0.323 OA 
HETATM    9  H   UNL     1     -11.923  16.711  68.213  1.00  0.00     0.000 HD 
HETATM   10  H   UNL     1     -12.455  17.029  70.246  1.00  0.00     0.000 HD 
ENDBRANCH   6   7
ENDBRANCH   5   6
ENDBRANCH   4   5
ENDBRANCH   3   4
ENDBRANCH   2   3
TORSDOF 5
ENDMDL
MODEL      142
REMARK 921   NORMALIZED FREE ENERGY PREDICTED BY IDOCK:   -1.89 KCAL/MOL
REMARK 922        TOTAL FREE ENERGY PREDICTED BY IDOCK:   -2.58 KCAL/MOL
REMARK 923 INTER-LIGAND FREE ENERGY PREDICTED BY IDOCK:   -2.51 KCAL/MOL
REMARK 924 INTRA-LIGAND FREE ENERGY PREDICTED BY IDOCK:   -0.07 KCAL/MOL
REMARK 927      BINDING AFFINITY PREDICTED BY RF-SCORE:    0.00 PKD
ROOT
HETATM    1  C   UNL     1     -11.368   8.354  71.566  1.00  0.00    -0.334 C  
HETATM    2  C   UNL     1     -11.590   9.624  70.759  1.00  0.00    -0.395 C  
ENDROOT
BRANCH   2   3
HETATM    3  C   UNL     1     -10.391   9.938  69.865  1.00  0.00    -0.298 C  
BRANCH   3   4
HETATM    4  C   UNL     1     -10.703  11.081  68.901  1.00  0.00    -0.249 C  
BRANCH   4   5
HETATM    5  C   UNL     1      -9.686  11.159  67.767  1.00  0.00    -0.171 C  
BRANCH   5   6
HETATM    6  O   UNL     1     -10.338  11.712  66.625  1.00  0.00    -0.211 OA 
BRANCH   6   7
HETATM    7  N   UNL     1      -9.401  12.400  65.861  1.00  0.00    -0.422 NA 
HETATM    8  O   UNL     1      -8.857  13.288  66.526  1.00  0.00    -0.430 OA 
HETATM    9  H   UNL     1      -9.812  12.770  65.005  1.00  0.00     0.000 HD 
HETATM   10  H   UNL     1      -8.217  13.758  66.005  1.00  0.00     0.000 HD 
ENDBRANCH   6   7
ENDBRANCH   5   6
ENDBRANCH   4   5
ENDBRANCH   3   4
ENDBRANCH   2   3
TORSDOF 5
ENDMDL
MODEL      143
REMARK 921   NORMALIZED FREE ENERGY PREDICTED BY IDOCK:   -1.89 KCAL/MOL
REMARK 922        TOTAL FREE ENERGY PREDICTED BY IDOCK:   -2.58 KCAL/MOL
REMARK 923 INTER-LIGAND FREE ENERGY PREDICTED BY IDOCK:   -2.50 KCAL/MOL
REMARK 924 INTRA-LIGAND FREE ENERGY PREDICTED BY IDOCK:   -0.08 KCAL/MOL
REMARK 927      BINDING AFFINITY PREDICTED BY RF-SCORE:    0.00 PKD
ROOT
HETATM    1  C   UNL     1     -10.690  15.095  68.362  1.00  0.00    -0.248 C  
HETATM    2  C   UNL     1     -11.297  16.450  68.032  1.00  0.00    -0.157 C  
ENDROOT
BRANCH   2   3
HETATM    3  C   UNL     1     -10.331  17.591  68.348  1.00  0.00    -0.378 C  
BRANCH   3   4
HETATM    4  C   UNL     1      -9.017  17.431  67.586  1.00  0.00    -0.233 C  
BRANCH   4   5
HETATM    5  C   UNL     1      -7.839  18.017  68.359  1.00  0.00    -0.295 C  
BRANCH   5   6
HETATM    6  O   UNL     1      -7.975  19.436  68.363  1.00  0.00    -0.317 OA 
BRANCH   6   7
HETATM    7  N   UNL     1      -8.062  19.884  67.049  1.00  0.00    -0.296 NA 
HETATM    8  O   UNL     1      -8.324  21.091  67.011  1.00  0.00    -0.574 OA 
HETATM    9  H   UNL     1      -8.730  19.337  66.508  1.00  0.00     0.000 HD 
HETATM   10  H   UNL     1      -8.384  21.397  66.114  1.00  0.00     0.000 HD 
ENDBRANCH   6   7
ENDBRANCH   5   6
ENDBRANCH   4   5
ENDBRANCH   3   4
ENDBRANCH   2   3
TORSDOF 5
ENDMDL
MODEL      144
REMARK 921   NORMALIZED FREE ENERGY PREDICTED BY IDOCK:   -1.88 KCAL/MOL
REMARK 922        TOTAL FREE ENERGY PREDICTED BY IDOCK:   -2.57 KCAL/MOL
REMARK 923 INTER-LIGAND FREE ENERGY PREDICTED BY IDOCK:   -2.36 KCAL/MOL
REMARK 924 INTRA-LIGAND FREE ENERGY PREDICTED BY IDOCK:   -0.21 KCAL/MOL
REMARK 927      BINDING AFFINITY PREDICTED BY RF-SCORE:    0.00 PKD
ROOT
HETATM    1  C   UNL     1     -10.159   5.129  71.823  1.00  0.00    -0.260 C  
HETATM    2  C   UNL     1     -11.350   5.971  71.391  1.00  0.00    -0.301 C  
ENDROOT
BRANCH   2   3
HETATM    3  C   UNL     1     -11.294   6.301  69.900  1.00  0.00    -0.504 C  
BRANCH   3   4
HETATM    4  C   UNL     1     -10.676   7.676  69.660  1.00  0.00    -0.230 C  
BRANCH   4   5
HETATM    5  C   UNL     1     -10.971   8.638  70.807  1.00  0.00    -0.245 C  
BRANCH   5   6
HETATM    6  O   UNL     1      -9.819   9.454  71.009  1.00  0.00    -0.283 OA 
BRANCH   6   7
HETATM    7  N   UNL     1      -8.709   8.631  71.176  1.00  0.00    -0.178 NA 
HETATM    8  O   UNL     1      -8.020   9.010  72.129  1.00  0.00    -0.356 OA 
HETATM    9  H   UNL     1      -8.161   8.559  70.320  1.00  0.00     0.000 HD 
HETATM   10  H   UNL     1      -7.262   8.449  72.243  1.00  0.00     0.000 HD 
ENDBRANCH   6   7
ENDBRANCH   5   6
ENDBRANCH   4   5
ENDBRANCH   3   4
ENDBRANCH   2   3
TORSDOF 5
ENDMDL
MODEL      145
REMARK 921   NORMALIZED FREE ENERGY PREDICTED BY IDOCK:   -1.87 KCAL/MOL
REMARK 922        TOTAL FREE ENERGY PREDICTED BY IDOCK:   -2.55 KCAL/MOL
REMARK 923 INTER-LIGAND FREE ENERGY PREDICTED BY IDOCK:   -2.47 KCAL/MOL
REMARK 924 INTRA-LIGAND FREE ENERGY PREDICTED BY IDOCK:   -0.08 KCAL/MOL
REMARK 927      BINDING AFFINITY PREDICTED BY RF-SCORE:    0.00 PKD
ROOT
HETATM    1  C   UNL     1      -8.380   8.422  62.969  1.00  0.00    -0.102 C  
HETATM    2  C   UNL     1      -8.613   9.191  64.261  1.00  0.00    -0.197 C  
ENDROOT
BRANCH   2   3
HETATM    3  C   UNL     1      -9.363  10.498  64.008  1.00  0.00    -0.308 C  
BRANCH   3   4
HETATM    4  C   UNL     1      -9.997  11.031  65.291  1.00  0.00    -0.320 C  
BRANCH   4   5
HETATM    5  C   UNL     1     -10.396   9.902  66.237  1.00  0.00    -0.163 C  
BRANCH   5   6
HETATM    6  O   UNL     1     -10.467  10.435  67.558  1.00  0.00    -0.212 OA 
BRANCH   6   7
HETATM    7  N   UNL     1     -11.790  10.398  67.987  1.00  0.00    -0.681 NA 
HETATM    8  O   UNL     1     -11.856  10.108  69.186  1.00  0.00    -0.492 OA 
HETATM    9  H   UNL     1     -12.354   9.770  67.415  1.00  0.00     0.000 HD 
HETATM   10  H   UNL     1     -12.759  10.083  69.478  1.00  0.00     0.000 HD 
ENDBRANCH   6   7
ENDBRANCH   5   6
ENDBRANCH   4   5
ENDBRANCH   3   4
ENDBRANCH   2   3
TORSDOF 5
ENDMDL
MODEL      146
REMARK 921   NORMALIZED FREE ENERGY PREDICTED BY IDOCK:   -1.87 KCAL/MOL
REMARK 922        TOTAL FREE ENERGY PREDICTED BY IDOCK:   -2.55 KCAL/MOL
REMARK 923 INTER-LIGAND FREE ENERGY PREDICTED BY IDOCK:   -2.38 KCAL/MOL
REMARK 924 INTRA-LIGAND FREE ENERGY PREDICTED BY IDOCK:   -0.17 KCAL/MOL
REMARK 927      BINDING AFFINITY PREDICTED BY RF-SCORE:    0.00 PKD
ROOT
HETATM    1  C   UNL     1     -10.563   4.850  66.023  1.00  0.00    -0.312 C  
HETATM    2  C   UNL     1     -10.936   6.095  66.815  1.00  0.00    -0.322 C  
ENDROOT
BRANCH   2   3
HETATM    3  C   UNL     1      -9.699   6.907  67.199  1.00  0.00    -0.197 C  
BRANCH   3   4
HETATM    4  C   UNL     1      -9.903   7.633  68.526  1.00  0.00    -0.174 C  
BRANCH   4   5
HETATM    5  C   UNL     1      -9.868   6.671  69.710  1.00  0.00    -0.162 C  
BRANCH   5   6
HETATM    6  O   UNL     1     -11.090   6.811  70.431  1.00  0.00    -0.267 OA 
BRANCH   6   7
HETATM    7  N   UNL     1     -11.738   7.964  69.999  1.00  0.00    -0.443 NA 
HETATM    8  O   UNL     1     -12.636   8.285  70.784  1.00  0.00    -0.499 OA 
HETATM    9  H   UNL     1     -12.089   7.865  69.047  1.00  0.00     0.000 HD 
HETATM   10  H   UNL     1     -13.078   9.072  70.489  1.00  0.00     0.000 HD 
ENDBRANCH   6   7
ENDBRANCH   5   6
ENDBRANCH   4   5
ENDBRANCH   3   4
ENDBRANCH   2   3
TORSDOF 5
ENDMDL
MODEL      147
REMARK 921   NORMALIZED FREE ENERGY PREDICTED BY IDOCK:   -1.86 KCAL/MOL
REMARK 922        TOTAL FREE ENERGY PREDICTED BY IDOCK:   -2.54 KCAL/MOL
REMARK 923 INTER-LIGAND FREE ENERGY PREDICTED BY IDOCK:   -2.38 KCAL/MOL
REMARK 924 INTRA-LIGAND FREE ENERGY PREDICTED BY IDOCK:   -0.16 KCAL/MOL
REMARK 927      BINDING AFFINITY PREDICTED BY RF-SCORE:    0.00 PKD
ROOT
HETATM    1  C   UNL     1      -8.877  14.337  66.943  1.00  0.00    -0.234 C  
HETATM    2  C   UNL     1      -8.567  12.935  67.443  1.00  0.00    -0.195 C  
ENDROOT
BRANCH   2   3
HETATM    3  C   UNL     1      -8.882  11.879  66.385  1.00  0.00    -0.152 C  
BRANCH   3   4
HETATM    4  C   UNL     1      -9.966  10.918  66.867  1.00  0.00    -0.232 C  
BRANCH   4   5
HETATM    5  C   UNL     1     -11.339  11.584  66.902  1.00  0.00    -0.253 C  
BRANCH   5   6
HETATM    6  O   UNL     1     -12.037  11.099  68.048  1.00  0.00    -0.635 OA 
BRANCH   6   7
HETATM    7  N   UNL     1     -11.138  10.430  68.873  1.00  0.00    -0.239 NA 
HETATM    8  O   UNL     1     -11.734   9.786  69.742  1.00  0.00    -0.436 OA 
HETATM    9  H   UNL     1     -10.453  11.067  69.278  1.00  0.00     0.000 HD 
HETATM   10  H   UNL     1     -11.120   9.330  70.306  1.00  0.00     0.000 HD 
ENDBRANCH   6   7
ENDBRANCH   5   6
ENDBRANCH   4   5
ENDBRANCH   3   4
ENDBRANCH   2   3
TORSDOF 5
ENDMDL
MODEL      148
REMARK 921   NORMALIZED FREE ENERGY PREDICTED BY IDOCK:   -1.86 KCAL/MOL
REMARK 922        TOTAL FREE ENERGY PREDICTED BY IDOCK:   -2.54 KCAL/MOL
REMARK 923 INTER-LIGAND FREE ENERGY PREDICTED BY IDOCK:   -2.38 KCAL/MOL
REMARK 924 INTRA-LIGAND FREE ENERGY PREDICTED BY IDOCK:   -0.15 KCAL/MOL
REMARK 927      BINDING AFFINITY PREDICTED BY RF-SCORE:    0.00 PKD
ROOT
HETATM    1  C   UNL     1      -9.371   7.548  68.752  1.00  0.00    -0.147 C  
HETATM    2  C   UNL     1      -8.700   8.871  69.089  1.00  0.00    -0.132 C  
ENDROOT
BRANCH   2   3
HETATM    3  C   UNL     1      -9.299   9.499  70.347  1.00  0.00    -0.311 C  
BRANCH   3   4
HETATM    4  C   UNL     1     -10.505   8.705  70.843  1.00  0.00    -0.265 C  
BRANCH   4   5
HETATM    5  C   UNL     1     -11.658   9.619  71.246  1.00  0.00    -0.393 C  
BRANCH   5   6
HETATM    6  O   UNL     1     -11.833  10.591  70.217  1.00  0.00    -0.278 OA 
BRANCH   6   7
HETATM    7  N   UNL     1     -12.135  11.817  70.803  1.00  0.00    -0.421 NA 
HETATM    8  O   UNL     1     -12.930  11.674  71.738  1.00  0.00    -0.435 OA 
HETATM    9  H   UNL     1     -12.478  12.488  70.116  1.00  0.00     0.000 HD 
HETATM   10  H   UNL     1     -13.137  12.510  72.137  1.00  0.00     0.000 HD 
ENDBRANCH   6   7
ENDBRANCH   5   6
ENDBRANCH   4   5
ENDBRANCH   3   4
ENDBRANCH   2   3
TORSDOF 5
ENDMDL
MODEL      149
REMARK 921   NORMALIZED FREE ENERGY PREDICTED BY IDOCK:   -1.86 KCAL/MOL
REMARK 922        TOTAL FREE ENERGY PREDICTED BY IDOCK:   -2.53 KCAL/MOL
REMARK 923 INTER-LIGAND FREE ENERGY PREDICTED BY IDOCK:   -2.40 KCAL/MOL
REMARK 924 INTRA-LIGAND FREE ENERGY PREDICTED BY IDOCK:   -0.13 KCAL/MOL
REMARK 927      BINDING AFFINITY PREDICTED BY RF-SCORE:    0.00 PKD
ROOT
HETATM    1  C   UNL     1      -6.249  13.993  67.865  1.00  0.00    -0.164 C  
HETATM    2  C   UNL     1      -6.562  15.454  67.582  1.00  0.00    -0.195 C  
ENDROOT
BRANCH   2   3
HETATM    3  C   UNL     1      -7.759  15.941  68.398  1.00  0.00    -0.140 C  
BRANCH   3   4
HETATM    4  C   UNL     1      -8.287  17.272  67.869  1.00  0.00    -0.220 C  
BRANCH   4   5
HETATM    5  C   UNL     1      -8.656  17.187  66.391  1.00  0.00    -0.265 C  
BRANCH   5   6
HETATM    6  O   UNL     1      -8.238  18.396  65.760  1.00  0.00    -0.494 OA 
BRANCH   6   7
HETATM    7  N   UNL     1      -8.550  19.468  66.590  1.00  0.00    -0.322 NA 
HETATM    8  O   UNL     1      -9.359  20.226  66.046  1.00  0.00    -0.603 OA 
HETATM    9  H   UNL     1      -7.713  19.966  66.893  1.00  0.00     0.000 HD 
HETATM   10  H   UNL     1      -9.572  20.958  66.612  1.00  0.00     0.000 HD 
ENDBRANCH   6   7
ENDBRANCH   5   6
ENDBRANCH   4   5
ENDBRANCH   3   4
ENDBRANCH   2   3
TORSDOF 5
ENDMDL
MODEL      150
REMARK 921   NORMALIZED FREE ENERGY PREDICTED BY IDOCK:   -1.86 KCAL/MOL
REMARK 922        TOTAL FREE ENERGY PREDICTED BY IDOCK:   -2.53 KCAL/MOL
REMARK 923 INTER-LIGAND FREE ENERGY PREDICTED BY IDOCK:   -2.35 KCAL/MOL
REMARK 924 INTRA-LIGAND FREE ENERGY PREDICTED BY IDOCK:   -0.18 KCAL/MOL
REMARK 927      BINDING AFFINITY PREDICTED BY RF-SCORE:    0.00 PKD
ROOT
HETATM    1  C   UNL     1      -7.073   5.328  73.657  1.00  0.00    -0.082 C  
HETATM    2  C   UNL     1      -8.536   5.552  73.304  1.00  0.00    -0.116 C  
ENDROOT
BRANCH   2   3
HETATM    3  C   UNL     1      -9.110   6.766  74.032  1.00  0.00    -0.209 C  
BRANCH   3   4
HETATM    4  C   UNL     1      -9.109   8.002  73.134  1.00  0.00    -0.341 C  
BRANCH   4   5
HETATM    5  C   UNL     1     -10.390   8.105  72.312  1.00  0.00    -0.292 C  
BRANCH   5   6
HETATM    6  O   UNL     1     -11.499   8.001  73.203  1.00  0.00    -0.299 OA 
BRANCH   6   7
HETATM    7  N   UNL     1     -12.524   7.307  72.568  1.00  0.00    -0.489 NA 
HETATM    8  O   UNL     1     -12.408   6.090  72.747  1.00  0.00    -0.524 OA 
HETATM    9  H   UNL     1     -12.577   7.539  71.577  1.00  0.00     0.000 HD 
HETATM   10  H   UNL     1     -13.108   5.617  72.313  1.00  0.00     0.000 HD 
ENDBRANCH   6   7
ENDBRANCH   5   6
ENDBRANCH   4   5
ENDBRANCH   3   4
ENDBRANCH   2   3
TORSDOF 5
ENDMDL
MODEL      151
REMARK 921   NORMALIZED FREE ENERGY PREDICTED BY IDOCK:   -1.85 KCAL/MOL
REMARK 922        TOTAL FREE ENERGY PREDICTED BY IDOCK:   -2.52 KCAL/MOL
REMARK 923 INTER-LIGAND FREE ENERGY PREDICTED BY IDOCK:   -2.41 KCAL/MOL
REMARK 924 INTRA-LIGAND FREE ENERGY PREDICTED BY IDOCK:   -0.11 KCAL/MOL
REMARK 927      BINDING AFFINITY PREDICTED BY RF-SCORE:    0.00 PKD
ROOT
HETATM    1  C   UNL     1     -10.790  18.071  67.102  1.00  0.00    -0.183 C  
HETATM    2  C   UNL     1     -10.504  19.247  68.023  1.00  0.00    -0.488 C  
ENDROOT
BRANCH   2   3
HETATM    3  C   UNL     1      -9.035  19.665  67.960  1.00  0.00    -0.381 C  
BRANCH   3   4
HETATM    4  C   UNL     1      -8.358  19.124  66.703  1.00  0.00    -0.309 C  
BRANCH   4   5
HETATM    5  C   UNL     1      -6.922  19.623  66.573  1.00  0.00    -0.214 C  
BRANCH   5   6
HETATM    6  O   UNL     1      -6.903  21.008  66.911  1.00  0.00    -0.306 OA 
BRANCH   6   7
HETATM    7  N   UNL     1      -5.890  21.231  67.838  1.00  0.00    -0.344 NA 
HETATM    8  O   UNL     1      -5.184  20.225  67.970  1.00  0.00    -0.184 OA 
HETATM    9  H   UNL     1      -6.261  21.549  68.732  1.00  0.00     0.000 HD 
HETATM   10  H   UNL     1      -4.493  20.377  68.603  1.00  0.00     0.000 HD 
ENDBRANCH   6   7
ENDBRANCH   5   6
ENDBRANCH   4   5
ENDBRANCH   3   4
ENDBRANCH   2   3
TORSDOF 5
ENDMDL
MODEL      152
REMARK 921   NORMALIZED FREE ENERGY PREDICTED BY IDOCK:   -1.85 KCAL/MOL
REMARK 922        TOTAL FREE ENERGY PREDICTED BY IDOCK:   -2.52 KCAL/MOL
REMARK 923 INTER-LIGAND FREE ENERGY PREDICTED BY IDOCK:   -2.45 KCAL/MOL
REMARK 924 INTRA-LIGAND FREE ENERGY PREDICTED BY IDOCK:   -0.07 KCAL/MOL
REMARK 927      BINDING AFFINITY PREDICTED BY RF-SCORE:    0.00 PKD
ROOT
HETATM    1  C   UNL     1      -6.941  12.808  67.783  1.00  0.00    -0.131 C  
HETATM    2  C   UNL     1      -7.732  11.510  67.723  1.00  0.00    -0.124 C  
ENDROOT
BRANCH   2   3
HETATM    3  C   UNL     1      -8.667  11.478  66.515  1.00  0.00    -0.183 C  
BRANCH   3   4
HETATM    4  C   UNL     1     -10.130  11.402  66.949  1.00  0.00    -0.245 C  
BRANCH   4   5
HETATM    5  C   UNL     1     -10.793  12.776  66.947  1.00  0.00    -0.253 C  
BRANCH   5   6
HETATM    6  O   UNL     1     -11.933  12.717  66.093  1.00  0.00    -0.433 OA 
BRANCH   6   7
HETATM    7  N   UNL     1     -12.546  13.965  66.072  1.00  0.00    -0.458 NA 
HETATM    8  O   UNL     1     -13.478  13.985  65.262  1.00  0.00    -0.622 OA 
HETATM    9  H   UNL     1     -11.875  14.711  65.892  1.00  0.00     0.000 HD 
HETATM   10  H   UNL     1     -13.896  14.838  65.247  1.00  0.00     0.000 HD 
ENDBRANCH   6   7
ENDBRANCH   5   6
ENDBRANCH   4   5
ENDBRANCH   3   4
ENDBRANCH   2   3
TORSDOF 5
ENDMDL
MODEL      153
REMARK 921   NORMALIZED FREE ENERGY PREDICTED BY IDOCK:   -1.83 KCAL/MOL
REMARK 922        TOTAL FREE ENERGY PREDICTED BY IDOCK:   -2.49 KCAL/MOL
REMARK 923 INTER-LIGAND FREE ENERGY PREDICTED BY IDOCK:   -2.46 KCAL/MOL
REMARK 924 INTRA-LIGAND FREE ENERGY PREDICTED BY IDOCK:   -0.04 KCAL/MOL
REMARK 927      BINDING AFFINITY PREDICTED BY RF-SCORE:    0.00 PKD
ROOT
HETATM    1  C   UNL     1      -7.835   8.341  72.150  1.00  0.00    -0.170 C  
HETATM    2  C   UNL     1      -8.056   8.913  70.758  1.00  0.00    -0.179 C  
ENDROOT
BRANCH   2   3
HETATM    3  C   UNL     1      -9.528   9.242  70.513  1.00  0.00    -0.317 C  
BRANCH   3   4
HETATM    4  C   UNL     1      -9.688  10.271  69.395  1.00  0.00    -0.242 C  
BRANCH   4   5
HETATM    5  C   UNL     1     -11.033  10.136  68.689  1.00  0.00    -0.230 C  
BRANCH   5   6
HETATM    6  O   UNL     1     -11.475  11.442  68.325  1.00  0.00    -0.252 OA 
BRANCH   6   7
HETATM    7  N   UNL     1     -11.595  11.507  66.940  1.00  0.00    -0.514 NA 
HETATM    8  O   UNL     1     -12.243  12.502  66.600  1.00  0.00    -0.552 OA 
HETATM    9  H   UNL     1     -11.991  10.650  66.556  1.00  0.00     0.000 HD 
HETATM   10  H   UNL     1     -12.325  12.545  65.655  1.00  0.00     0.000 HD 
ENDBRANCH   6   7
ENDBRANCH   5   6
ENDBRANCH   4   5
ENDBRANCH   3   4
ENDBRANCH   2   3
TORSDOF 5
ENDMDL
MODEL      154
REMARK 921   NORMALIZED FREE ENERGY PREDICTED BY IDOCK:   -1.82 KCAL/MOL
REMARK 922        TOTAL FREE ENERGY PREDICTED BY IDOCK:   -2.48 KCAL/MOL
REMARK 923 INTER-LIGAND FREE ENERGY PREDICTED BY IDOCK:   -2.28 KCAL/MOL
REMARK 924 INTRA-LIGAND FREE ENERGY PREDICTED BY IDOCK:   -0.19 KCAL/MOL
REMARK 927      BINDING AFFINITY PREDICTED BY RF-SCORE:    0.00 PKD
ROOT
HETATM    1  C   UNL     1     -11.055   5.568  72.866  1.00  0.00    -0.349 C  
HETATM    2  C   UNL     1     -10.987   5.799  71.364  1.00  0.00    -0.304 C  
ENDROOT
BRANCH   2   3
HETATM    3  C   UNL     1     -12.109   6.720  70.886  1.00  0.00    -0.421 C  
BRANCH   3   4
HETATM    4  C   UNL     1     -12.189   7.984  71.740  1.00  0.00    -0.352 C  
BRANCH   4   5
HETATM    5  C   UNL     1     -11.185   9.039  71.286  1.00  0.00    -0.315 C  
BRANCH   5   6
HETATM    6  O   UNL     1     -11.207   9.088  69.861  1.00  0.00    -0.195 OA 
BRANCH   6   7
HETATM    7  N   UNL     1      -9.901   9.010  69.387  1.00  0.00    -0.178 NA 
HETATM    8  O   UNL     1      -9.804   8.154  68.502  1.00  0.00    -0.169 OA 
HETATM    9  H   UNL     1      -9.236   8.848  70.143  1.00  0.00     0.000 HD 
HETATM   10  H   UNL     1      -8.912   8.100  68.179  1.00  0.00     0.000 HD 
ENDBRANCH   6   7
ENDBRANCH   5   6
ENDBRANCH   4   5
ENDBRANCH   3   4
ENDBRANCH   2   3
TORSDOF 5
ENDMDL
MODEL      155
REMARK 921   NORMALIZED FREE ENERGY PREDICTED BY IDOCK:   -1.81 KCAL/MOL
REMARK 922        TOTAL FREE ENERGY PREDICTED BY IDOCK:   -2.47 KCAL/MOL
REMARK 923 INTER-LIGAND FREE ENERGY PREDICTED BY IDOCK:   -2.41 KCAL/MOL
REMARK 924 INTRA-LIGAND FREE ENERGY PREDICTED BY IDOCK:   -0.06 KCAL/MOL
REMARK 927      BINDING AFFINITY PREDICTED BY RF-SCORE:    0.00 PKD
ROOT
HETATM    1  C   UNL     1      -9.245   2.426  70.704  1.00  0.00    -0.200 C  
HETATM    2  C   UNL     1      -9.133   3.927  70.923  1.00  0.00    -0.179 C  
ENDROOT
BRANCH   2   3
HETATM    3  C   UNL     1      -9.684   4.337  72.288  1.00  0.00    -0.210 C  
BRANCH   3   4
HETATM    4  C   UNL     1      -9.348   5.792  72.607  1.00  0.00    -0.145 C  
BRANCH   4   5
HETATM    5  C   UNL     1     -10.430   6.451  73.457  1.00  0.00    -0.282 C  
BRANCH   5   6
HETATM    6  O   UNL     1     -10.438   7.846  73.161  1.00  0.00    -0.345 OA 
BRANCH   6   7
HETATM    7  N   UNL     1     -11.519   8.123  72.330  1.00  0.00    -0.373 NA 
HETATM    8  O   UNL     1     -12.540   8.335  72.992  1.00  0.00    -0.680 OA 
HETATM    9  H   UNL     1     -11.663   7.385  71.641  1.00  0.00     0.000 HD 
HETATM   10  H   UNL     1     -13.278   8.524  72.425  1.00  0.00     0.000 HD 
ENDBRANCH   6   7
ENDBRANCH   5   6
ENDBRANCH   4   5
ENDBRANCH   3   4
ENDBRANCH   2   3
TORSDOF 5
ENDMDL
MODEL      156
REMARK 921   NORMALIZED FREE ENERGY PREDICTED BY IDOCK:   -1.81 KCAL/MOL
REMARK 922        TOTAL FREE ENERGY PREDICTED BY IDOCK:   -2.47 KCAL/MOL
REMARK 923 INTER-LIGAND FREE ENERGY PREDICTED BY IDOCK:   -2.28 KCAL/MOL
REMARK 924 INTRA-LIGAND FREE ENERGY PREDICTED BY IDOCK:   -0.19 KCAL/MOL
REMARK 927      BINDING AFFINITY PREDICTED BY RF-SCORE:    0.00 PKD
ROOT
HETATM    1  C   UNL     1      -7.355   9.328  63.334  1.00  0.00    -0.096 C  
HETATM    2  C   UNL     1      -7.870   8.822  64.673  1.00  0.00    -0.127 C  
ENDROOT
BRANCH   2   3
HETATM    3  C   UNL     1      -8.500   9.947  65.493  1.00  0.00    -0.148 C  
BRANCH   3   4
HETATM    4  C   UNL     1     -10.024   9.910  65.406  1.00  0.00    -0.349 C  
BRANCH   4   5
HETATM    5  C   UNL     1     -10.600  11.254  64.972  1.00  0.00    -0.289 C  
BRANCH   5   6
HETATM    6  O   UNL     1      -9.644  11.894  64.129  1.00  0.00    -0.154 OA 
BRANCH   6   7
HETATM    7  N   UNL     1     -10.250  12.210  62.918  1.00  0.00    -0.430 NA 
HETATM    8  O   UNL     1     -11.479  12.120  63.004  1.00  0.00    -0.684 OA 
HETATM    9  H   UNL     1      -9.884  11.644  62.154  1.00  0.00     0.000 HD 
HETATM   10  H   UNL     1     -11.894  12.335  62.177  1.00  0.00     0.000 HD 
ENDBRANCH   6   7
ENDBRANCH   5   6
ENDBRANCH   4   5
ENDBRANCH   3   4
ENDBRANCH   2   3
TORSDOF 5
ENDMDL
MODEL      157
REMARK 921   NORMALIZED FREE ENERGY PREDICTED BY IDOCK:   -1.81 KCAL/MOL
REMARK 922        TOTAL FREE ENERGY PREDICTED BY IDOCK:   -2.47 KCAL/MOL
REMARK 923 INTER-LIGAND FREE ENERGY PREDICTED BY IDOCK:   -2.35 KCAL/MOL
REMARK 924 INTRA-LIGAND FREE ENERGY PREDICTED BY IDOCK:   -0.11 KCAL/MOL
REMARK 927      BINDING AFFINITY PREDICTED BY RF-SCORE:    0.00 PKD
ROOT
HETATM    1  C   UNL     1     -11.979  13.755  69.072  1.00  0.00    -0.399 C  
HETATM    2  C   UNL     1     -11.800  15.069  69.819  1.00  0.00    -0.357 C  
ENDROOT
BRANCH   2   3
HETATM    3  C   UNL     1     -10.356  15.565  69.743  1.00  0.00    -0.316 C  
BRANCH   3   4
HETATM    4  C   UNL     1      -9.754  15.307  68.363  1.00  0.00    -0.213 C  
BRANCH   4   5
HETATM    5  C   UNL     1      -8.366  14.681  68.459  1.00  0.00    -0.162 C  
BRANCH   5   6
HETATM    6  O   UNL     1      -8.276  13.650  67.478  1.00  0.00    -0.160 OA 
BRANCH   6   7
HETATM    7  N   UNL     1      -6.944  13.495  67.108  1.00  0.00    -0.414 NA 
HETATM    8  O   UNL     1      -6.276  14.478  67.445  1.00  0.00    -0.333 OA 
HETATM    9  H   UNL     1      -6.851  13.299  66.112  1.00  0.00     0.000 HD 
HETATM   10  H   UNL     1      -5.367  14.372  67.192  1.00  0.00     0.000 HD 
ENDBRANCH   6   7
ENDBRANCH   5   6
ENDBRANCH   4   5
ENDBRANCH   3   4
ENDBRANCH   2   3
TORSDOF 5
ENDMDL
MODEL      158
REMARK 921   NORMALIZED FREE ENERGY PREDICTED BY IDOCK:   -1.80 KCAL/MOL
REMARK 922        TOTAL FREE ENERGY PREDICTED BY IDOCK:   -2.46 KCAL/MOL
REMARK 923 INTER-LIGAND FREE ENERGY PREDICTED BY IDOCK:   -2.30 KCAL/MOL
REMARK 924 INTRA-LIGAND FREE ENERGY PREDICTED BY IDOCK:   -0.16 KCAL/MOL
REMARK 927      BINDING AFFINITY PREDICTED BY RF-SCORE:    0.00 PKD
ROOT
HETATM    1  C   UNL     1      -6.565  17.235  66.643  1.00  0.00    -0.268 C  
HETATM    2  C   UNL     1      -7.630  16.604  67.526  1.00  0.00    -0.177 C  
ENDROOT
BRANCH   2   3
HETATM    3  C   UNL     1      -7.928  15.165  67.104  1.00  0.00    -0.248 C  
BRANCH   3   4
HETATM    4  C   UNL     1      -9.292  15.058  66.425  1.00  0.00    -0.334 C  
BRANCH   4   5
HETATM    5  C   UNL     1     -10.124  13.917  67.002  1.00  0.00    -0.256 C  
BRANCH   5   6
HETATM    6  O   UNL     1     -10.043  13.984  68.424  1.00  0.00    -0.226 OA 
BRANCH   6   7
HETATM    7  N   UNL     1      -9.987  12.691  68.934  1.00  0.00    -0.424 NA 
HETATM    8  O   UNL     1      -8.865  12.202  68.772  1.00  0.00    -0.368 OA 
HETATM    9  H   UNL     1     -10.717  12.099  68.539  1.00  0.00     0.000 HD 
HETATM   10  H   UNL     1      -8.828  11.319  69.120  1.00  0.00     0.000 HD 
ENDBRANCH   6   7
ENDBRANCH   5   6
ENDBRANCH   4   5
ENDBRANCH   3   4
ENDBRANCH   2   3
TORSDOF 5
ENDMDL
MODEL      159
REMARK 921   NORMALIZED FREE ENERGY PREDICTED BY IDOCK:   -1.79 KCAL/MOL
REMARK 922        TOTAL FREE ENERGY PREDICTED BY IDOCK:   -2.44 KCAL/MOL
REMARK 923 INTER-LIGAND FREE ENERGY PREDICTED BY IDOCK:   -2.40 KCAL/MOL
REMARK 924 INTRA-LIGAND FREE ENERGY PREDICTED BY IDOCK:   -0.04 KCAL/MOL
REMARK 927      BINDING AFFINITY PREDICTED BY RF-SCORE:    0.00 PKD
ROOT
HETATM    1  C   UNL     1      -6.994  14.402  69.112  1.00  0.00    -0.123 C  
HETATM    2  C   UNL     1      -7.588  15.737  69.535  1.00  0.00    -0.177 C  
ENDROOT
BRANCH   2   3
HETATM    3  C   UNL     1      -9.005  15.919  68.992  1.00  0.00    -0.245 C  
BRANCH   3   4
HETATM    4  C   UNL     1      -9.370  17.398  68.881  1.00  0.00    -0.183 C  
BRANCH   4   5
HETATM    5  C   UNL     1      -9.525  17.835  67.428  1.00  0.00    -0.254 C  
BRANCH   5   6
HETATM    6  O   UNL     1     -10.739  18.575  67.315  1.00  0.00    -0.419 OA 
BRANCH   6   7
HETATM    7  N   UNL     1     -10.656  19.411  66.206  1.00  0.00    -0.473 NA 
HETATM    8  O   UNL     1     -10.901  18.789  65.167  1.00  0.00    -0.523 OA 
HETATM    9  H   UNL     1      -9.754  19.884  66.158  1.00  0.00     0.000 HD 
HETATM   10  H   UNL     1     -10.843  19.360  64.409  1.00  0.00     0.000 HD 
ENDBRANCH   6   7
ENDBRANCH   5   6
ENDBRANCH   4   5
ENDBRANCH   3   4
ENDBRANCH   2   3
TORSDOF 5
ENDMDL
MODEL      160
REMARK 921   NORMALIZED FREE ENERGY PREDICTED BY IDOCK:   -1.79 KCAL/MOL
REMARK 922        TOTAL FREE ENERGY PREDICTED BY IDOCK:   -2.44 KCAL/MOL
REMARK 923 INTER-LIGAND FREE ENERGY PREDICTED BY IDOCK:   -2.36 KCAL/MOL
REMARK 924 INTRA-LIGAND FREE ENERGY PREDICTED BY IDOCK:   -0.07 KCAL/MOL
REMARK 927      BINDING AFFINITY PREDICTED BY RF-SCORE:    0.00 PKD
ROOT
HETATM    1  C   UNL     1      -9.670  10.889  63.108  1.00  0.00    -0.396 C  
HETATM    2  C   UNL     1     -11.013  11.359  63.647  1.00  0.00    -0.443 C  
ENDROOT
BRANCH   2   3
HETATM    3  C   UNL     1     -10.889  11.898  65.071  1.00  0.00    -0.351 C  
BRANCH   3   4
HETATM    4  C   UNL     1     -10.410  10.814  66.034  1.00  0.00    -0.300 C  
BRANCH   4   5
HETATM    5  C   UNL     1     -10.228  11.354  67.450  1.00  0.00    -0.193 C  
BRANCH   5   6
HETATM    6  O   UNL     1      -8.896  11.064  67.867  1.00  0.00    -0.128 OA 
BRANCH   6   7
HETATM    7  N   UNL     1      -8.914  10.694  69.208  1.00  0.00    -0.339 NA 
HETATM    8  O   UNL     1      -9.995  10.177  69.507  1.00  0.00    -0.214 OA 
HETATM    9  H   UNL     1      -8.691  11.480  69.818  1.00  0.00     0.000 HD 
HETATM   10  H   UNL     1     -10.008   9.925  70.423  1.00  0.00     0.000 HD 
ENDBRANCH   6   7
ENDBRANCH   5   6
ENDBRANCH   4   5
ENDBRANCH   3   4
ENDBRANCH   2   3
TORSDOF 5
ENDMDL
MODEL      161
REMARK 921   NORMALIZED FREE ENERGY PREDICTED BY IDOCK:   -1.78 KCAL/MOL
REMARK 922        TOTAL FREE ENERGY PREDICTED BY IDOCK:   -2.43 KCAL/MOL
REMARK 923 INTER-LIGAND FREE ENERGY PREDICTED BY IDOCK:   -2.34 KCAL/MOL
REMARK 924 INTRA-LIGAND FREE ENERGY PREDICTED BY IDOCK:   -0.08 KCAL/MOL
REMARK 927      BINDING AFFINITY PREDICTED BY RF-SCORE:    0.00 PKD
ROOT
HETATM    1  C   UNL     1     -11.050   6.003  70.165  1.00  0.00    -0.432 C  
HETATM    2  C   UNL     1     -10.936   7.507  69.970  1.00  0.00    -0.252 C  
ENDROOT
BRANCH   2   3
HETATM    3  C   UNL     1     -11.172   8.263  71.278  1.00  0.00    -0.302 C  
BRANCH   3   4
HETATM    4  C   UNL     1      -9.969   9.129  71.643  1.00  0.00    -0.319 C  
BRANCH   4   5
HETATM    5  C   UNL     1      -8.916   9.130  70.539  1.00  0.00    -0.232 C  
BRANCH   5   6
HETATM    6  O   UNL     1      -7.670   9.515  71.116  1.00  0.00    -0.325 OA 
BRANCH   6   7
HETATM    7  N   UNL     1      -7.072  10.470  70.301  1.00  0.00    -0.419 NA 
HETATM    8  O   UNL     1      -5.845  10.329  70.283  1.00  0.00    -0.059 OA 
HETATM    9  H   UNL     1      -7.338  11.416  70.572  1.00  0.00     0.000 HD 
HETATM   10  H   UNL     1      -5.437  10.982  69.727  1.00  0.00     0.000 HD 
ENDBRANCH   6   7
ENDBRANCH   5   6
ENDBRANCH   4   5
ENDBRANCH   3   4
ENDBRANCH   2   3
TORSDOF 5
ENDMDL
MODEL      162
REMARK 921   NORMALIZED FREE ENERGY PREDICTED BY IDOCK:   -1.75 KCAL/MOL
REMARK 922        TOTAL FREE ENERGY PREDICTED BY IDOCK:   -2.40 KCAL/MOL
REMARK 923 INTER-LIGAND FREE ENERGY PREDICTED BY IDOCK:   -2.22 KCAL/MOL
REMARK 924 INTRA-LIGAND FREE ENERGY PREDICTED BY IDOCK:   -0.18 KCAL/MOL
REMARK 927      BINDING AFFINITY PREDICTED BY RF-SCORE:    0.00 PKD
ROOT
HETATM    1  C   UNL     1     -10.409  18.711  66.832  1.00  0.00    -0.444 C  
HETATM    2  C   UNL     1      -9.942  17.740  67.906  1.00  0.00    -0.322 C  
ENDROOT
BRANCH   2   3
HETATM    3  C   UNL     1      -8.430  17.523  67.848  1.00  0.00    -0.230 C  
BRANCH   3   4
HETATM    4  C   UNL     1      -7.993  17.028  66.471  1.00  0.00    -0.330 C  
BRANCH   4   5
HETATM    5  C   UNL     1      -6.735  17.741  65.985  1.00  0.00    -0.281 C  
BRANCH   5   6
HETATM    6  O   UNL     1      -6.546  18.903  66.789  1.00  0.00    -0.188 OA 
BRANCH   6   7
HETATM    7  N   UNL     1      -5.878  19.866  66.039  1.00  0.00    -0.163 NA 
HETATM    8  O   UNL     1      -6.513  20.148  65.018  1.00  0.00    -0.261 OA 
HETATM    9  H   UNL     1      -4.924  19.578  65.822  1.00  0.00     0.000 HD 
HETATM   10  H   UNL     1      -6.056  20.805  64.506  1.00  0.00     0.000 HD 
ENDBRANCH   6   7
ENDBRANCH   5   6
ENDBRANCH   4   5
ENDBRANCH   3   4
ENDBRANCH   2   3
TORSDOF 5
ENDMDL
MODEL      163
REMARK 921   NORMALIZED FREE ENERGY PREDICTED BY IDOCK:   -1.75 KCAL/MOL
REMARK 922        TOTAL FREE ENERGY PREDICTED BY IDOCK:   -2.39 KCAL/MOL
REMARK 923 INTER-LIGAND FREE ENERGY PREDICTED BY IDOCK:   -2.29 KCAL/MOL
REMARK 924 INTRA-LIGAND FREE ENERGY PREDICTED BY IDOCK:   -0.10 KCAL/MOL
REMARK 927      BINDING AFFINITY PREDICTED BY RF-SCORE:    0.00 PKD
ROOT
HETATM    1  C   UNL     1      -7.402   7.681  72.539  1.00  0.00    -0.089 C  
HETATM    2  C   UNL     1      -8.607   6.793  72.813  1.00  0.00    -0.129 C  
ENDROOT
BRANCH   2   3
HETATM    3  C   UNL     1      -9.885   7.615  72.974  1.00  0.00    -0.319 C  
BRANCH   3   4
HETATM    4  C   UNL     1      -9.993   8.690  71.894  1.00  0.00    -0.392 C  
BRANCH   4   5
HETATM    5  C   UNL     1     -11.016   8.318  70.825  1.00  0.00    -0.243 C  
BRANCH   5   6
HETATM    6  O   UNL     1     -11.149   9.425  69.936  1.00  0.00    -0.238 OA 
BRANCH   6   7
HETATM    7  N   UNL     1     -12.066  10.324  70.470  1.00  0.00    -0.297 NA 
HETATM    8  O   UNL     1     -13.190   9.817  70.539  1.00  0.00    -0.589 OA 
HETATM    9  H   UNL     1     -12.080  11.202  69.950  1.00  0.00     0.000 HD 
HETATM   10  H   UNL     1     -13.817  10.432  70.904  1.00  0.00     0.000 HD 
ENDBRANCH   6   7
ENDBRANCH   5   6
ENDBRANCH   4   5
ENDBRANCH   3   4
ENDBRANCH   2   3
TORSDOF 5
ENDMDL
MODEL      164
REMARK 921   NORMALIZED FREE ENERGY PREDICTED BY IDOCK:   -1.75 KCAL/MOL
REMARK 922        TOTAL FREE ENERGY PREDICTED BY IDOCK:   -2.39 KCAL/MOL
REMARK 923 INTER-LIGAND FREE ENERGY PREDICTED BY IDOCK:   -2.32 KCAL/MOL
REMARK 924 INTRA-LIGAND FREE ENERGY PREDICTED BY IDOCK:   -0.07 KCAL/MOL
REMARK 927      BINDING AFFINITY PREDICTED BY RF-SCORE:    0.00 PKD
ROOT
HETATM    1  C   UNL     1     -10.117   5.167  71.844  1.00  0.00    -0.255 C  
HETATM    2  C   UNL     1     -11.103   5.983  71.022  1.00  0.00    -0.348 C  
ENDROOT
BRANCH   2   3
HETATM    3  C   UNL     1     -10.581   6.236  69.608  1.00  0.00    -0.323 C  
BRANCH   3   4
HETATM    4  C   UNL     1     -10.168   7.695  69.422  1.00  0.00    -0.206 C  
BRANCH   4   5
HETATM    5  C   UNL     1     -11.148   8.651  70.095  1.00  0.00    -0.192 C  
BRANCH   5   6
HETATM    6  O   UNL     1     -10.712   9.984  69.840  1.00  0.00    -0.245 OA 
BRANCH   6   7
HETATM    7  N   UNL     1     -11.502  10.865  70.571  1.00  0.00    -0.433 NA 
HETATM    8  O   UNL     1     -11.795  11.858  69.897  1.00  0.00    -0.319 OA 
HETATM    9  H   UNL     1     -11.061  11.125  71.453  1.00  0.00     0.000 HD 
HETATM   10  H   UNL     1     -12.335  12.459  70.397  1.00  0.00     0.000 HD 
ENDBRANCH   6   7
ENDBRANCH   5   6
ENDBRANCH   4   5
ENDBRANCH   3   4
ENDBRANCH   2   3
TORSDOF 5
ENDMDL
MODEL      165
REMARK 921   NORMALIZED FREE ENERGY PREDICTED BY IDOCK:   -1.75 KCAL/MOL
REMARK 922        TOTAL FREE ENERGY PREDICTED BY IDOCK:   -2.39 KCAL/MOL
REMARK 923 INTER-LIGAND FREE ENERGY PREDICTED BY IDOCK:   -2.28 KCAL/MOL
REMARK 924 INTRA-LIGAND FREE ENERGY PREDICTED BY IDOCK:   -0.10 KCAL/MOL
REMARK 927      BINDING AFFINITY PREDICTED BY RF-SCORE:    0.00 PKD
ROOT
HETATM    1  C   UNL     1      -8.393   8.081  67.856  1.00  0.00    -0.129 C  
HETATM    2  C   UNL     1      -9.773   8.257  68.471  1.00  0.00    -0.165 C  
ENDROOT
BRANCH   2   3
HETATM    3  C   UNL     1      -9.767   9.320  69.569  1.00  0.00    -0.179 C  
BRANCH   3   4
HETATM    4  C   UNL     1      -8.835   8.930  70.713  1.00  0.00    -0.250 C  
BRANCH   4   5
HETATM    5  C   UNL     1      -9.595   8.285  71.868  1.00  0.00    -0.221 C  
BRANCH   5   6
HETATM    6  O   UNL     1     -10.740   9.087  72.148  1.00  0.00    -0.332 OA 
BRANCH   6   7
HETATM    7  N   UNL     1     -11.680   8.312  72.820  1.00  0.00    -0.456 NA 
HETATM    8  O   UNL     1     -12.808   8.808  72.726  1.00  0.00    -0.552 OA 
HETATM    9  H   UNL     1     -11.416   8.158  73.792  1.00  0.00     0.000 HD 
HETATM   10  H   UNL     1     -13.449   8.279  73.185  1.00  0.00     0.000 HD 
ENDBRANCH   6   7
ENDBRANCH   5   6
ENDBRANCH   4   5
ENDBRANCH   3   4
ENDBRANCH   2   3
TORSDOF 5
ENDMDL
MODEL      166
REMARK 921   NORMALIZED FREE ENERGY PREDICTED BY IDOCK:   -1.74 KCAL/MOL
REMARK 922        TOTAL FREE ENERGY PREDICTED BY IDOCK:   -2.38 KCAL/MOL
REMARK 923 INTER-LIGAND FREE ENERGY PREDICTED BY IDOCK:   -2.28 KCAL/MOL
REMARK 924 INTRA-LIGAND FREE ENERGY PREDICTED BY IDOCK:   -0.10 KCAL/MOL
REMARK 927      BINDING AFFINITY PREDICTED BY RF-SCORE:    0.00 PKD
ROOT
HETATM    1  C   UNL     1     -10.377   5.410  66.444  1.00  0.00    -0.298 C  
HETATM    2  C   UNL     1     -10.945   6.495  67.347  1.00  0.00    -0.458 C  
ENDROOT
BRANCH   2   3
HETATM    3  C   UNL     1     -10.422   7.877  66.961  1.00  0.00    -0.419 C  
BRANCH   3   4
HETATM    4  C   UNL     1      -9.499   8.442  68.039  1.00  0.00    -0.157 C  
BRANCH   4   5
HETATM    5  C   UNL     1     -10.282   8.956  69.243  1.00  0.00    -0.209 C  
BRANCH   5   6
HETATM    6  O   UNL     1      -9.942   8.151  70.369  1.00  0.00    -0.186 OA 
BRANCH   6   7
HETATM    7  N   UNL     1      -9.801   8.972  71.484  1.00  0.00    -0.315 NA 
HETATM    8  O   UNL     1      -8.875   9.774  71.325  1.00  0.00    -0.240 OA 
HETATM    9  H   UNL     1      -9.686   8.429  72.339  1.00  0.00     0.000 HD 
HETATM   10  H   UNL     1      -8.779  10.335  72.086  1.00  0.00     0.000 HD 
ENDBRANCH   6   7
ENDBRANCH   5   6
ENDBRANCH   4   5
ENDBRANCH   3   4
ENDBRANCH   2   3
TORSDOF 5
ENDMDL
MODEL      167
REMARK 921   NORMALIZED FREE ENERGY PREDICTED BY IDOCK:   -1.73 KCAL/MOL
REMARK 922        TOTAL FREE ENERGY PREDICTED BY IDOCK:   -2.36 KCAL/MOL
REMARK 923 INTER-LIGAND FREE ENERGY PREDICTED BY IDOCK:   -2.29 KCAL/MOL
REMARK 924 INTRA-LIGAND FREE ENERGY PREDICTED BY IDOCK:   -0.07 KCAL/MOL
REMARK 927      BINDING AFFINITY PREDICTED BY RF-SCORE:    0.00 PKD
ROOT
HETATM    1  C   UNL     1     -11.115   3.692  73.490  1.00  0.00    -0.320 C  
HETATM    2  C   UNL     1     -10.408   4.535  72.439  1.00  0.00    -0.256 C  
ENDROOT
BRANCH   2   3
HETATM    3  C   UNL     1     -11.093   5.888  72.251  1.00  0.00    -0.330 C  
BRANCH   3   4
HETATM    4  C   UNL     1     -10.081   6.978  71.903  1.00  0.00    -0.198 C  
BRANCH   4   5
HETATM    5  C   UNL     1      -9.799   7.890  73.093  1.00  0.00    -0.290 C  
BRANCH   5   6
HETATM    6  O   UNL     1      -8.699   8.732  72.753  1.00  0.00    -0.398 OA 
BRANCH   6   7
HETATM    7  N   UNL     1      -7.761   8.684  73.780  1.00  0.00    -0.417 NA 
HETATM    8  O   UNL     1      -7.014   7.709  73.648  1.00  0.00    -0.080 OA 
HETATM    9  H   UNL     1      -8.206   8.696  74.697  1.00  0.00     0.000 HD 
HETATM   10  H   UNL     1      -6.374   7.676  74.350  1.00  0.00     0.000 HD 
ENDBRANCH   6   7
ENDBRANCH   5   6
ENDBRANCH   4   5
ENDBRANCH   3   4
ENDBRANCH   2   3
TORSDOF 5
ENDMDL
MODEL      168
REMARK 921   NORMALIZED FREE ENERGY PREDICTED BY IDOCK:   -1.70 KCAL/MOL
REMARK 922        TOTAL FREE ENERGY PREDICTED BY IDOCK:   -2.32 KCAL/MOL
REMARK 923 INTER-LIGAND FREE ENERGY PREDICTED BY IDOCK:   -2.09 KCAL/MOL
REMARK 924 INTRA-LIGAND FREE ENERGY PREDICTED BY IDOCK:   -0.23 KCAL/MOL
REMARK 927      BINDING AFFINITY PREDICTED BY RF-SCORE:    0.00 PKD
ROOT
HETATM    1  C   UNL     1      -8.162   9.477  70.093  1.00  0.00    -0.192 C  
HETATM    2  C   UNL     1      -9.324   8.996  69.238  1.00  0.00    -0.150 C  
ENDROOT
BRANCH   2   3
HETATM    3  C   UNL     1     -10.652   9.582  69.715  1.00  0.00    -0.257 C  
BRANCH   3   4
HETATM    4  C   UNL     1     -10.748   9.570  71.239  1.00  0.00    -0.386 C  
BRANCH   4   5
HETATM    5  C   UNL     1     -11.726   8.510  71.737  1.00  0.00    -0.327 C  
BRANCH   5   6
HETATM    6  O   UNL     1     -11.022   7.638  72.619  1.00  0.00    -0.290 OA 
BRANCH   6   7
HETATM    7  N   UNL     1     -10.455   6.607  71.876  1.00  0.00    -0.200 NA 
HETATM    8  O   UNL     1     -11.300   6.067  71.156  1.00  0.00    -0.292 OA 
HETATM    9  H   UNL     1      -9.980   5.930  72.473  1.00  0.00     0.000 HD 
HETATM   10  H   UNL     1     -10.913   5.363  70.649  1.00  0.00     0.000 HD 
ENDBRANCH   6   7
ENDBRANCH   5   6
ENDBRANCH   4   5
ENDBRANCH   3   4
ENDBRANCH   2   3
TORSDOF 5
ENDMDL
MODEL      169
REMARK 921   NORMALIZED FREE ENERGY PREDICTED BY IDOCK:   -1.70 KCAL/MOL
REMARK 922        TOTAL FREE ENERGY PREDICTED BY IDOCK:   -2.32 KCAL/MOL
REMARK 923 INTER-LIGAND FREE ENERGY PREDICTED BY IDOCK:   -2.19 KCAL/MOL
REMARK 924 INTRA-LIGAND FREE ENERGY PREDICTED BY IDOCK:   -0.14 KCAL/MOL
REMARK 927      BINDING AFFINITY PREDICTED BY RF-SCORE:    0.00 PKD
ROOT
HETATM    1  C   UNL     1     -11.731   6.848  71.120  1.00  0.00    -0.381 C  
HETATM    2  C   UNL     1     -11.352   6.253  69.772  1.00  0.00    -0.506 C  
ENDROOT
BRANCH   2   3
HETATM    3  C   UNL     1     -10.324   5.132  69.923  1.00  0.00    -0.347 C  
BRANCH   3   4
HETATM    4  C   UNL     1      -9.090   5.392  69.062  1.00  0.00    -0.136 C  
BRANCH   4   5
HETATM    5  C   UNL     1      -9.114   6.787  68.445  1.00  0.00    -0.125 C  
BRANCH   5   6
HETATM    6  O   UNL     1      -8.168   6.815  67.377  1.00  0.00    -0.119 OA 
BRANCH   6   7
HETATM    7  N   UNL     1      -8.854   6.878  66.169  1.00  0.00    -0.151 NA 
HETATM    8  O   UNL     1      -9.908   7.510  66.294  1.00  0.00    -0.421 OA 
HETATM    9  H   UNL     1      -9.015   5.951  65.778  1.00  0.00     0.000 HD 
HETATM   10  H   UNL     1     -10.377   7.553  65.469  1.00  0.00     0.000 HD 
ENDBRANCH   6   7
ENDBRANCH   5   6
ENDBRANCH   4   5
ENDBRANCH   3   4
ENDBRANCH   2   3
TORSDOF 5
ENDMDL
MODEL      170
REMARK 921   NORMALIZED FREE ENERGY PREDICTED BY IDOCK:   -1.69 KCAL/MOL
REMARK 922        TOTAL FREE ENERGY PREDICTED BY IDOCK:   -2.32 KCAL/MOL
REMARK 923 INTER-LIGAND FREE ENERGY PREDICTED BY IDOCK:   -2.22 KCAL/MOL
REMARK 924 INTRA-LIGAND FREE ENERGY PREDICTED BY IDOCK:   -0.09 KCAL/MOL
REMARK 927      BINDING AFFINITY PREDICTED BY RF-SCORE:    0.00 PKD
ROOT
HETATM    1  C   UNL     1      -7.129   5.789  71.589  1.00  0.00    -0.081 C  
HETATM    2  C   UNL     1      -7.852   4.983  72.658  1.00  0.00    -0.098 C  
ENDROOT
BRANCH   2   3
HETATM    3  C   UNL     1      -9.184   4.438  72.144  1.00  0.00    -0.164 C  
BRANCH   3   4
HETATM    4  C   UNL     1     -10.126   4.098  73.297  1.00  0.00    -0.200 C  
BRANCH   4   5
HETATM    5  C   UNL     1     -11.447   4.853  73.191  1.00  0.00    -0.278 C  
BRANCH   5   6
HETATM    6  O   UNL     1     -11.159   6.250  73.172  1.00  0.00    -0.243 OA 
BRANCH   6   7
HETATM    7  N   UNL     1     -12.165   6.908  72.472  1.00  0.00    -0.500 NA 
HETATM    8  O   UNL     1     -12.399   8.013  72.972  1.00  0.00    -0.657 OA 
HETATM    9  H   UNL     1     -13.008   6.340  72.402  1.00  0.00     0.000 HD 
HETATM   10  H   UNL     1     -13.086   8.462  72.494  1.00  0.00     0.000 HD 
ENDBRANCH   6   7
ENDBRANCH   5   6
ENDBRANCH   4   5
ENDBRANCH   3   4
ENDBRANCH   2   3
TORSDOF 5
ENDMDL
MODEL      171
REMARK 921   NORMALIZED FREE ENERGY PREDICTED BY IDOCK:   -1.69 KCAL/MOL
REMARK 922        TOTAL FREE ENERGY PREDICTED BY IDOCK:   -2.31 KCAL/MOL
REMARK 923 INTER-LIGAND FREE ENERGY PREDICTED BY IDOCK:   -2.31 KCAL/MOL
REMARK 924 INTRA-LIGAND FREE ENERGY PREDICTED BY IDOCK:   -0.00 KCAL/MOL
REMARK 927      BINDING AFFINITY PREDICTED BY RF-SCORE:    0.00 PKD
ROOT
HETATM    1  C   UNL     1      -6.841  10.897  69.585  1.00  0.00    -0.137 C  
HETATM    2  C   UNL     1      -7.548   9.720  70.241  1.00  0.00    -0.184 C  
ENDROOT
BRANCH   2   3
HETATM    3  C   UNL     1      -8.803   9.317  69.467  1.00  0.00    -0.151 C  
BRANCH   3   4
HETATM    4  C   UNL     1      -9.239   7.897  69.820  1.00  0.00    -0.150 C  
BRANCH   4   5
HETATM    5  C   UNL     1     -10.716   7.666  69.518  1.00  0.00    -0.209 C  
BRANCH   5   6
HETATM    6  O   UNL     1     -10.848   6.387  68.901  1.00  0.00    -0.260 OA 
BRANCH   6   7
HETATM    7  N   UNL     1     -11.410   6.552  67.639  1.00  0.00    -0.702 NA 
HETATM    8  O   UNL     1     -11.140   7.666  67.179  1.00  0.00    -0.518 OA 
HETATM    9  H   UNL     1     -12.415   6.382  67.649  1.00  0.00     0.000 HD 
HETATM   10  H   UNL     1     -11.524   7.779  66.318  1.00  0.00     0.000 HD 
ENDBRANCH   6   7
ENDBRANCH   5   6
ENDBRANCH   4   5
ENDBRANCH   3   4
ENDBRANCH   2   3
TORSDOF 5
ENDMDL
MODEL      172
REMARK 921   NORMALIZED FREE ENERGY PREDICTED BY IDOCK:   -1.67 KCAL/MOL
REMARK 922        TOTAL FREE ENERGY PREDICTED BY IDOCK:   -2.29 KCAL/MOL
REMARK 923 INTER-LIGAND FREE ENERGY PREDICTED BY IDOCK:   -2.22 KCAL/MOL
REMARK 924 INTRA-LIGAND FREE ENERGY PREDICTED BY IDOCK:   -0.08 KCAL/MOL
REMARK 927      BINDING AFFINITY PREDICTED BY RF-SCORE:    0.00 PKD
ROOT
HETATM    1  C   UNL     1      -6.393   7.634  62.889  1.00  0.00    -0.063 C  
HETATM    2  C   UNL     1      -6.566   6.193  63.344  1.00  0.00    -0.033 C  
ENDROOT
BRANCH   2   3
HETATM    3  C   UNL     1      -7.063   6.116  64.787  1.00  0.00    -0.060 C  
BRANCH   3   4
HETATM    4  C   UNL     1      -7.757   4.784  65.064  1.00  0.00    -0.078 C  
BRANCH   4   5
HETATM    5  C   UNL     1      -9.246   4.841  64.737  1.00  0.00    -0.097 C  
BRANCH   5   6
HETATM    6  O   UNL     1      -9.906   5.531  65.796  1.00  0.00    -0.061 OA 
BRANCH   6   7
HETATM    7  N   UNL     1     -11.118   4.901  66.057  1.00  0.00    -0.756 NA 
HETATM    8  O   UNL     1     -11.580   4.391  65.031  1.00  0.00    -1.067 OA 
HETATM    9  H   UNL     1     -11.785   5.534  66.496  1.00  0.00     0.000 HD 
HETATM   10  H   UNL     1     -12.408   3.961  65.209  1.00  0.00     0.000 HD 
ENDBRANCH   6   7
ENDBRANCH   5   6
ENDBRANCH   4   5
ENDBRANCH   3   4
ENDBRANCH   2   3
TORSDOF 5
ENDMDL
MODEL      173
REMARK 921   NORMALIZED FREE ENERGY PREDICTED BY IDOCK:   -1.67 KCAL/MOL
REMARK 922        TOTAL FREE ENERGY PREDICTED BY IDOCK:   -2.29 KCAL/MOL
REMARK 923 INTER-LIGAND FREE ENERGY PREDICTED BY IDOCK:   -2.18 KCAL/MOL
REMARK 924 INTRA-LIGAND FREE ENERGY PREDICTED BY IDOCK:   -0.12 KCAL/MOL
REMARK 927      BINDING AFFINITY PREDICTED BY RF-SCORE:    0.00 PKD
ROOT
HETATM    1  C   UNL     1     -11.711  14.571  69.311  1.00  0.00    -0.350 C  
HETATM    2  C   UNL     1     -10.674  14.652  68.201  1.00  0.00    -0.242 C  
ENDROOT
BRANCH   2   3
HETATM    3  C   UNL     1     -11.313  14.480  66.823  1.00  0.00    -0.358 C  
BRANCH   3   4
HETATM    4  C   UNL     1     -10.269  14.115  65.770  1.00  0.00    -0.347 C  
BRANCH   4   5
HETATM    5  C   UNL     1     -10.629  12.825  65.039  1.00  0.00    -0.308 C  
BRANCH   5   6
HETATM    6  O   UNL     1      -9.417  12.147  64.713  1.00  0.00    -0.023 OA 
BRANCH   6   7
HETATM    7  N   UNL     1      -8.558  12.212  65.805  1.00  0.00    -0.236 NA 
HETATM    8  O   UNL     1      -7.927  11.157  65.932  1.00  0.00    -0.313 OA 
HETATM    9  H   UNL     1      -9.055  12.458  66.661  1.00  0.00     0.000 HD 
HETATM   10  H   UNL     1      -7.341  11.201  66.678  1.00  0.00     0.000 HD 
ENDBRANCH   6   7
ENDBRANCH   5   6
ENDBRANCH   4   5
ENDBRANCH   3   4
ENDBRANCH   2   3
TORSDOF 5
ENDMDL
MODEL      174
REMARK 921   NORMALIZED FREE ENERGY PREDICTED BY IDOCK:   -1.67 KCAL/MOL
REMARK 922        TOTAL FREE ENERGY PREDICTED BY IDOCK:   -2.29 KCAL/MOL
REMARK 923 INTER-LIGAND FREE ENERGY PREDICTED BY IDOCK:   -2.21 KCAL/MOL
REMARK 924 INTRA-LIGAND FREE ENERGY PREDICTED BY IDOCK:   -0.08 KCAL/MOL
REMARK 927      BINDING AFFINITY PREDICTED BY RF-SCORE:    0.00 PKD
ROOT
HETATM    1  C   UNL     1      -5.438  12.269  67.884  1.00  0.00    -0.075 C  
HETATM    2  C   UNL     1      -6.225  11.477  66.850  1.00  0.00    -0.143 C  
ENDROOT
BRANCH   2   3
HETATM    3  C   UNL     1      -7.667  11.246  67.299  1.00  0.00    -0.138 C  
BRANCH   3   4
HETATM    4  C   UNL     1      -8.368  12.566  67.613  1.00  0.00    -0.172 C  
BRANCH   4   5
HETATM    5  C   UNL     1      -9.844  12.360  67.938  1.00  0.00    -0.202 C  
BRANCH   5   6
HETATM    6  O   UNL     1     -10.613  12.856  66.844  1.00  0.00    -0.250 OA 
BRANCH   6   7
HETATM    7  N   UNL     1     -11.820  12.167  66.793  1.00  0.00    -0.606 NA 
HETATM    8  O   UNL     1     -12.000  11.516  67.827  1.00  0.00    -0.623 OA 
HETATM    9  H   UNL     1     -11.883  11.579  65.962  1.00  0.00     0.000 HD 
HETATM   10  H   UNL     1     -12.824  11.045  67.792  1.00  0.00     0.000 HD 
ENDBRANCH   6   7
ENDBRANCH   5   6
ENDBRANCH   4   5
ENDBRANCH   3   4
ENDBRANCH   2   3
TORSDOF 5
ENDMDL
MODEL      175
REMARK 921   NORMALIZED FREE ENERGY PREDICTED BY IDOCK:   -1.67 KCAL/MOL
REMARK 922        TOTAL FREE ENERGY PREDICTED BY IDOCK:   -2.29 KCAL/MOL
REMARK 923 INTER-LIGAND FREE ENERGY PREDICTED BY IDOCK:   -2.09 KCAL/MOL
REMARK 924 INTRA-LIGAND FREE ENERGY PREDICTED BY IDOCK:   -0.20 KCAL/MOL
REMARK 927      BINDING AFFINITY PREDICTED BY RF-SCORE:    0.00 PKD
ROOT
HETATM    1  C   UNL     1     -11.280   6.110  69.569  1.00  0.00    -0.482 C  
HETATM    2  C   UNL     1     -11.717   7.140  70.600  1.00  0.00    -0.348 C  
ENDROOT
BRANCH   2   3
HETATM    3  C   UNL     1     -12.351   6.478  71.822  1.00  0.00    -0.340 C  
BRANCH   3   4
HETATM    4  C   UNL     1     -11.361   5.553  72.527  1.00  0.00    -0.323 C  
BRANCH   4   5
HETATM    5  C   UNL     1     -10.354   6.335  73.365  1.00  0.00    -0.242 C  
BRANCH   5   6
HETATM    6  O   UNL     1      -9.091   5.681  73.263  1.00  0.00    -0.130 OA 
BRANCH   6   7
HETATM    7  N   UNL     1      -9.095   4.866  72.136  1.00  0.00    -0.130 NA 
HETATM    8  O   UNL     1      -7.943   4.573  71.799  1.00  0.00    -0.092 OA 
HETATM    9  H   UNL     1      -9.616   5.289  71.368  1.00  0.00     0.000 HD 
HETATM   10  H   UNL     1      -7.947   4.017  71.029  1.00  0.00     0.000 HD 
ENDBRANCH   6   7
ENDBRANCH   5   6
ENDBRANCH   4   5
ENDBRANCH   3   4
ENDBRANCH   2   3
TORSDOF 5
ENDMDL
MODEL      176
REMARK 921   NORMALIZED FREE ENERGY PREDICTED BY IDOCK:   -1.66 KCAL/MOL
REMARK 922        TOTAL FREE ENERGY PREDICTED BY IDOCK:   -2.28 KCAL/MOL
REMARK 923 INTER-LIGAND FREE ENERGY PREDICTED BY IDOCK:   -2.20 KCAL/MOL
REMARK 924 INTRA-LIGAND FREE ENERGY PREDICTED BY IDOCK:   -0.08 KCAL/MOL
REMARK 927      BINDING AFFINITY PREDICTED BY RF-SCORE:    0.00 PKD
ROOT
HETATM    1  C   UNL     1     -11.501   1.468  62.953  1.00  0.00    -0.252 C  
HETATM    2  C   UNL     1     -10.473   2.516  62.557  1.00  0.00    -0.127 C  
ENDROOT
BRANCH   2   3
HETATM    3  C   UNL     1      -9.455   2.754  63.671  1.00  0.00    -0.107 C  
BRANCH   3   4
HETATM    4  C   UNL     1      -9.261   4.245  63.937  1.00  0.00    -0.143 C  
BRANCH   4   5
HETATM    5  C   UNL     1      -9.385   4.577  65.421  1.00  0.00    -0.163 C  
BRANCH   5   6
HETATM    6  O   UNL     1     -10.748   4.398  65.802  1.00  0.00    -0.221 OA 
BRANCH   6   7
HETATM    7  N   UNL     1     -11.235   5.598  66.309  1.00  0.00    -0.749 NA 
HETATM    8  O   UNL     1     -10.376   6.484  66.245  1.00  0.00    -0.436 OA 
HETATM    9  H   UNL     1     -11.593   5.489  67.257  1.00  0.00     0.000 HD 
HETATM   10  H   UNL     1     -10.709   7.304  66.592  1.00  0.00     0.000 HD 
ENDBRANCH   6   7
ENDBRANCH   5   6
ENDBRANCH   4   5
ENDBRANCH   3   4
ENDBRANCH   2   3
TORSDOF 5
ENDMDL
MODEL      177
REMARK 921   NORMALIZED FREE ENERGY PREDICTED BY IDOCK:   -1.65 KCAL/MOL
REMARK 922        TOTAL FREE ENERGY PREDICTED BY IDOCK:   -2.27 KCAL/MOL
REMARK 923 INTER-LIGAND FREE ENERGY PREDICTED BY IDOCK:   -2.26 KCAL/MOL
REMARK 924 INTRA-LIGAND FREE ENERGY PREDICTED BY IDOCK:   -0.00 KCAL/MOL
REMARK 927      BINDING AFFINITY PREDICTED BY RF-SCORE:    0.00 PKD
ROOT
HETATM    1  C   UNL     1      -6.803  11.020  69.708  1.00  0.00    -0.116 C  
HETATM    2  C   UNL     1      -7.588   9.838  70.256  1.00  0.00    -0.184 C  
ENDROOT
BRANCH   2   3
HETATM    3  C   UNL     1      -8.956   9.712  69.585  1.00  0.00    -0.215 C  
BRANCH   3   4
HETATM    4  C   UNL     1      -8.960  10.372  68.208  1.00  0.00    -0.135 C  
BRANCH   4   5
HETATM    5  C   UNL     1     -10.296  10.187  67.495  1.00  0.00    -0.230 C  
BRANCH   5   6
HETATM    6  O   UNL     1     -10.710  11.456  66.993  1.00  0.00    -0.235 OA 
BRANCH   6   7
HETATM    7  N   UNL     1     -11.923  11.799  67.580  1.00  0.00    -0.606 NA 
HETATM    8  O   UNL     1     -12.037  11.276  68.693  1.00  0.00    -0.543 OA 
HETATM    9  H   UNL     1     -12.712  11.572  66.975  1.00  0.00     0.000 HD 
HETATM   10  H   UNL     1     -12.866  11.509  69.094  1.00  0.00     0.000 HD 
ENDBRANCH   6   7
ENDBRANCH   5   6
ENDBRANCH   4   5
ENDBRANCH   3   4
ENDBRANCH   2   3
TORSDOF 5
ENDMDL
MODEL      178
REMARK 921   NORMALIZED FREE ENERGY PREDICTED BY IDOCK:   -1.65 KCAL/MOL
REMARK 922        TOTAL FREE ENERGY PREDICTED BY IDOCK:   -2.26 KCAL/MOL
REMARK 923 INTER-LIGAND FREE ENERGY PREDICTED BY IDOCK:   -2.14 KCAL/MOL
REMARK 924 INTRA-LIGAND FREE ENERGY PREDICTED BY IDOCK:   -0.12 KCAL/MOL
REMARK 927      BINDING AFFINITY PREDICTED BY RF-SCORE:    0.00 PKD
ROOT
HETATM    1  C   UNL     1     -10.484   8.028  69.494  1.00  0.00    -0.226 C  
HETATM    2  C   UNL     1     -10.040   8.886  70.669  1.00  0.00    -0.262 C  
ENDROOT
BRANCH   2   3
HETATM    3  C   UNL     1      -8.555   9.235  70.579  1.00  0.00    -0.271 C  
BRANCH   3   4
HETATM    4  C   UNL     1      -8.179   9.701  69.175  1.00  0.00    -0.120 C  
BRANCH   4   5
HETATM    5  C   UNL     1      -7.175  10.850  69.209  1.00  0.00    -0.128 C  
BRANCH   5   6
HETATM    6  O   UNL     1      -6.714  10.996  70.550  1.00  0.00    -0.256 OA 
BRANCH   6   7
HETATM    7  N   UNL     1      -6.065  12.220  70.673  1.00  0.00    -0.524 NA 
HETATM    8  O   UNL     1      -6.678  13.106  70.067  1.00  0.00    -0.356 OA 
HETATM    9  H   UNL     1      -5.093  12.163  70.373  1.00  0.00     0.000 HD 
HETATM   10  H   UNL     1      -6.235  13.942  70.150  1.00  0.00     0.000 HD 
ENDBRANCH   6   7
ENDBRANCH   5   6
ENDBRANCH   4   5
ENDBRANCH   3   4
ENDBRANCH   2   3
TORSDOF 5
ENDMDL
MODEL      179
REMARK 921   NORMALIZED FREE ENERGY PREDICTED BY IDOCK:   -1.65 KCAL/MOL
REMARK 922        TOTAL FREE ENERGY PREDICTED BY IDOCK:   -2.26 KCAL/MOL
REMARK 923 INTER-LIGAND FREE ENERGY PREDICTED BY IDOCK:   -2.10 KCAL/MOL
REMARK 924 INTRA-LIGAND FREE ENERGY PREDICTED BY IDOCK:   -0.16 KCAL/MOL
REMARK 927      BINDING AFFINITY PREDICTED BY RF-SCORE:    0.00 PKD
ROOT
HETATM    1  C   UNL     1      -8.046   3.807  64.214  1.00  0.00    -0.089 C  
HETATM    2  C   UNL     1      -8.669   4.934  65.023  1.00  0.00    -0.149 C  
ENDROOT
BRANCH   2   3
HETATM    3  C   UNL     1      -7.769   5.358  66.183  1.00  0.00    -0.092 C  
BRANCH   3   4
HETATM    4  C   UNL     1      -7.854   6.862  66.430  1.00  0.00    -0.103 C  
BRANCH   4   5
HETATM    5  C   UNL     1      -9.289   7.371  66.338  1.00  0.00    -0.155 C  
BRANCH   5   6
HETATM    6  O   UNL     1      -9.953   7.050  67.558  1.00  0.00    -0.139 OA 
BRANCH   6   7
HETATM    7  N   UNL     1     -11.316   6.926  67.310  1.00  0.00    -0.704 NA 
HETATM    8  O   UNL     1     -11.533   6.038  66.479  1.00  0.00    -0.674 OA 
HETATM    9  H   UNL     1     -11.730   7.814  67.029  1.00  0.00     0.000 HD 
HETATM   10  H   UNL     1     -12.464   5.954  66.309  1.00  0.00     0.000 HD 
ENDBRANCH   6   7
ENDBRANCH   5   6
ENDBRANCH   4   5
ENDBRANCH   3   4
ENDBRANCH   2   3
TORSDOF 5
ENDMDL
MODEL      180
REMARK 921   NORMALIZED FREE ENERGY PREDICTED BY IDOCK:   -1.64 KCAL/MOL
REMARK 922        TOTAL FREE ENERGY PREDICTED BY IDOCK:   -2.25 KCAL/MOL
REMARK 923 INTER-LIGAND FREE ENERGY PREDICTED BY IDOCK:   -2.13 KCAL/MOL
REMARK 924 INTRA-LIGAND FREE ENERGY PREDICTED BY IDOCK:   -0.11 KCAL/MOL
REMARK 927      BINDING AFFINITY PREDICTED BY RF-SCORE:    0.00 PKD
ROOT
HETATM    1  C   UNL     1      -8.871  14.101  67.150  1.00  0.00    -0.241 C  
HETATM    2  C   UNL     1      -8.281  12.954  67.956  1.00  0.00    -0.168 C  
ENDROOT
BRANCH   2   3
HETATM    3  C   UNL     1      -7.947  11.757  67.066  1.00  0.00    -0.164 C  
BRANCH   3   4
HETATM    4  C   UNL     1      -8.956  10.626  67.257  1.00  0.00    -0.141 C  
BRANCH   4   5
HETATM    5  C   UNL     1      -9.789  10.393  66.000  1.00  0.00    -0.232 C  
BRANCH   5   6
HETATM    6  O   UNL     1     -10.380   9.098  66.095  1.00  0.00    -0.221 OA 
BRANCH   6   7
HETATM    7  N   UNL     1     -10.804   8.891  67.403  1.00  0.00    -0.439 NA 
HETATM    8  O   UNL     1     -11.148   7.717  67.574  1.00  0.00    -0.527 OA 
HETATM    9  H   UNL     1     -11.543   9.542  67.667  1.00  0.00     0.000 HD 
HETATM   10  H   UNL     1     -11.439   7.576  68.468  1.00  0.00     0.000 HD 
ENDBRANCH   6   7
ENDBRANCH   5   6
ENDBRANCH   4   5
ENDBRANCH   3   4
ENDBRANCH   2   3
TORSDOF 5
ENDMDL
MODEL      181
REMARK 921   NORMALIZED FREE ENERGY PREDICTED BY IDOCK:   -1.63 KCAL/MOL
REMARK 922        TOTAL FREE ENERGY PREDICTED BY IDOCK:   -2.24 KCAL/MOL
REMARK 923 INTER-LIGAND FREE ENERGY PREDICTED BY IDOCK:   -2.16 KCAL/MOL
REMARK 924 INTRA-LIGAND FREE ENERGY PREDICTED BY IDOCK:   -0.08 KCAL/MOL
REMARK 927      BINDING AFFINITY PREDICTED BY RF-SCORE:    0.00 PKD
ROOT
HETATM    1  C   UNL     1     -10.255   5.517  66.746  1.00  0.00    -0.277 C  
HETATM    2  C   UNL     1     -10.967   6.707  67.371  1.00  0.00    -0.434 C  
ENDROOT
BRANCH   2   3
HETATM    3  C   UNL     1     -10.449   8.030  66.806  1.00  0.00    -0.319 C  
BRANCH   3   4
HETATM    4  C   UNL     1      -9.079   8.380  67.382  1.00  0.00    -0.152 C  
BRANCH   4   5
HETATM    5  C   UNL     1      -8.921   9.883  67.595  1.00  0.00    -0.128 C  
BRANCH   5   6
HETATM    6  O   UNL     1      -7.983  10.369  66.637  1.00  0.00    -0.113 OA 
BRANCH   6   7
HETATM    7  N   UNL     1      -8.659  11.139  65.696  1.00  0.00    -0.330 NA 
HETATM    8  O   UNL     1      -8.784  12.304  66.088  1.00  0.00    -0.410 OA 
HETATM    9  H   UNL     1      -9.558  10.727  65.447  1.00  0.00     0.000 HD 
HETATM   10  H   UNL     1      -9.246  12.829  65.446  1.00  0.00     0.000 HD 
ENDBRANCH   6   7
ENDBRANCH   5   6
ENDBRANCH   4   5
ENDBRANCH   3   4
ENDBRANCH   2   3
TORSDOF 5
ENDMDL
MODEL      182
REMARK 921   NORMALIZED FREE ENERGY PREDICTED BY IDOCK:   -1.63 KCAL/MOL
REMARK 922        TOTAL FREE ENERGY PREDICTED BY IDOCK:   -2.23 KCAL/MOL
REMARK 923 INTER-LIGAND FREE ENERGY PREDICTED BY IDOCK:   -2.17 KCAL/MOL
REMARK 924 INTRA-LIGAND FREE ENERGY PREDICTED BY IDOCK:   -0.07 KCAL/MOL
REMARK 927      BINDING AFFINITY PREDICTED BY RF-SCORE:    0.00 PKD
ROOT
HETATM    1  C   UNL     1      -8.051  15.233  67.028  1.00  0.00    -0.253 C  
HETATM    2  C   UNL     1      -9.530  15.370  67.356  1.00  0.00    -0.207 C  
ENDROOT
BRANCH   2   3
HETATM    3  C   UNL     1     -10.179  14.009  67.605  1.00  0.00    -0.241 C  
BRANCH   3   4
HETATM    4  C   UNL     1     -10.302  13.209  66.310  1.00  0.00    -0.291 C  
BRANCH   4   5
HETATM    5  C   UNL     1      -9.705  11.812  66.448  1.00  0.00    -0.214 C  
BRANCH   5   6
HETATM    6  O   UNL     1      -9.762  11.178  65.172  1.00  0.00    -0.226 OA 
BRANCH   6   7
HETATM    7  N   UNL     1      -8.467  10.888  64.755  1.00  0.00    -0.369 NA 
HETATM    8  O   UNL     1      -7.647  11.165  65.637  1.00  0.00    -0.364 OA 
HETATM    9  H   UNL     1      -8.242  11.350  63.875  1.00  0.00     0.000 HD 
HETATM   10  H   UNL     1      -6.763  10.967  65.352  1.00  0.00     0.000 HD 
ENDBRANCH   6   7
ENDBRANCH   5   6
ENDBRANCH   4   5
ENDBRANCH   3   4
ENDBRANCH   2   3
TORSDOF 5
ENDMDL
MODEL      183
REMARK 921   NORMALIZED FREE ENERGY PREDICTED BY IDOCK:   -1.63 KCAL/MOL
REMARK 922        TOTAL FREE ENERGY PREDICTED BY IDOCK:   -2.23 KCAL/MOL
REMARK 923 INTER-LIGAND FREE ENERGY PREDICTED BY IDOCK:   -2.12 KCAL/MOL
REMARK 924 INTRA-LIGAND FREE ENERGY PREDICTED BY IDOCK:   -0.12 KCAL/MOL
REMARK 927      BINDING AFFINITY PREDICTED BY RF-SCORE:    0.00 PKD
ROOT
HETATM    1  C   UNL     1      -7.696   8.809  66.109  1.00  0.00    -0.101 C  
HETATM    2  C   UNL     1      -9.035   9.247  66.684  1.00  0.00    -0.165 C  
ENDROOT
BRANCH   2   3
HETATM    3  C   UNL     1      -9.097   9.024  68.195  1.00  0.00    -0.134 C  
BRANCH   3   4
HETATM    4  C   UNL     1      -9.773  10.198  68.900  1.00  0.00    -0.189 C  
BRANCH   4   5
HETATM    5  C   UNL     1     -10.455   9.764  70.194  1.00  0.00    -0.286 C  
BRANCH   5   6
HETATM    6  O   UNL     1     -10.305   8.352  70.322  1.00  0.00    -0.197 OA 
BRANCH   6   7
HETATM    7  N   UNL     1     -11.565   7.773  70.424  1.00  0.00    -0.456 NA 
HETATM    8  O   UNL     1     -11.704   6.870  69.592  1.00  0.00    -0.587 OA 
HETATM    9  H   UNL     1     -12.307   8.469  70.352  1.00  0.00     0.000 HD 
HETATM   10  H   UNL     1     -12.565   6.475  69.661  1.00  0.00     0.000 HD 
ENDBRANCH   6   7
ENDBRANCH   5   6
ENDBRANCH   4   5
ENDBRANCH   3   4
ENDBRANCH   2   3
TORSDOF 5
ENDMDL
MODEL      184
REMARK 921   NORMALIZED FREE ENERGY PREDICTED BY IDOCK:   -1.62 KCAL/MOL
REMARK 922        TOTAL FREE ENERGY PREDICTED BY IDOCK:   -2.22 KCAL/MOL
REMARK 923 INTER-LIGAND FREE ENERGY PREDICTED BY IDOCK:   -2.12 KCAL/MOL
REMARK 924 INTRA-LIGAND FREE ENERGY PREDICTED BY IDOCK:   -0.10 KCAL/MOL
REMARK 927      BINDING AFFINITY PREDICTED BY RF-SCORE:    0.00 PKD
ROOT
HETATM    1  C   UNL     1     -11.340  14.556  67.815  1.00  0.00    -0.335 C  
HETATM    2  C   UNL     1     -10.232  14.010  66.927  1.00  0.00    -0.260 C  
ENDROOT
BRANCH   2   3
HETATM    3  C   UNL     1     -10.797  13.261  65.721  1.00  0.00    -0.286 C  
BRANCH   3   4
HETATM    4  C   UNL     1     -11.403  11.921  66.135  1.00  0.00    -0.383 C  
BRANCH   4   5
HETATM    5  C   UNL     1     -10.470  10.756  65.820  1.00  0.00    -0.188 C  
BRANCH   5   6
HETATM    6  O   UNL     1     -10.033  10.891  64.469  1.00  0.00    -0.263 OA 
BRANCH   6   7
HETATM    7  N   UNL     1      -9.138   9.866  64.180  1.00  0.00    -0.239 NA 
HETATM    8  O   UNL     1      -8.770   9.299  65.214  1.00  0.00    -0.161 OA 
HETATM    9  H   UNL     1      -8.347  10.200  63.632  1.00  0.00     0.000 HD 
HETATM   10  H   UNL     1      -8.159   8.599  65.017  1.00  0.00     0.000 HD 
ENDBRANCH   6   7
ENDBRANCH   5   6
ENDBRANCH   4   5
ENDBRANCH   3   4
ENDBRANCH   2   3
TORSDOF 5
ENDMDL
MODEL      185
REMARK 921   NORMALIZED FREE ENERGY PREDICTED BY IDOCK:   -1.62 KCAL/MOL
REMARK 922        TOTAL FREE ENERGY PREDICTED BY IDOCK:   -2.22 KCAL/MOL
REMARK 923 INTER-LIGAND FREE ENERGY PREDICTED BY IDOCK:   -2.06 KCAL/MOL
REMARK 924 INTRA-LIGAND FREE ENERGY PREDICTED BY IDOCK:   -0.15 KCAL/MOL
REMARK 927      BINDING AFFINITY PREDICTED BY RF-SCORE:    0.00 PKD
ROOT
HETATM    1  C   UNL     1     -10.683  12.466  68.789  1.00  0.00    -0.242 C  
HETATM    2  C   UNL     1     -11.588  11.296  68.434  1.00  0.00    -0.378 C  
ENDROOT
BRANCH   2   3
HETATM    3  C   UNL     1     -11.007   9.969  68.921  1.00  0.00    -0.244 C  
BRANCH   3   4
HETATM    4  C   UNL     1      -9.484   9.960  68.818  1.00  0.00    -0.157 C  
BRANCH   4   5
HETATM    5  C   UNL     1      -9.001   9.138  67.627  1.00  0.00    -0.123 C  
BRANCH   5   6
HETATM    6  O   UNL     1     -10.136   8.802  66.832  1.00  0.00    -0.226 OA 
BRANCH   6   7
HETATM    7  N   UNL     1      -9.898   9.194  65.519  1.00  0.00    -0.452 NA 
HETATM    8  O   UNL     1      -9.788  10.422  65.439  1.00  0.00    -0.243 OA 
HETATM    9  H   UNL     1     -10.612   8.838  64.884  1.00  0.00     0.000 HD 
HETATM   10  H   UNL     1      -9.625  10.690  64.542  1.00  0.00     0.000 HD 
ENDBRANCH   6   7
ENDBRANCH   5   6
ENDBRANCH   4   5
ENDBRANCH   3   4
ENDBRANCH   2   3
TORSDOF 5
ENDMDL
MODEL      186
REMARK 921   NORMALIZED FREE ENERGY PREDICTED BY IDOCK:   -1.61 KCAL/MOL
REMARK 922        TOTAL FREE ENERGY PREDICTED BY IDOCK:   -2.21 KCAL/MOL
REMARK 923 INTER-LIGAND FREE ENERGY PREDICTED BY IDOCK:   -2.10 KCAL/MOL
REMARK 924 INTRA-LIGAND FREE ENERGY PREDICTED BY IDOCK:   -0.11 KCAL/MOL
REMARK 927      BINDING AFFINITY PREDICTED BY RF-SCORE:    0.00 PKD
ROOT
HETATM    1  C   UNL     1     -12.510   8.642  72.311  1.00  0.00    -0.460 C  
HETATM    2  C   UNL     1     -12.195   9.862  71.458  1.00  0.00    -0.505 C  
ENDROOT
BRANCH   2   3
HETATM    3  C   UNL     1     -10.842   9.724  70.761  1.00  0.00    -0.403 C  
BRANCH   3   4
HETATM    4  C   UNL     1     -10.633   8.308  70.230  1.00  0.00    -0.230 C  
BRANCH   4   5
HETATM    5  C   UNL     1      -9.223   7.798  70.515  1.00  0.00    -0.162 C  
BRANCH   5   6
HETATM    6  O   UNL     1      -8.637   7.402  69.276  1.00  0.00    -0.135 OA 
BRANCH   6   7
HETATM    7  N   UNL     1      -8.070   8.518  68.669  1.00  0.00    -0.120 NA 
HETATM    8  O   UNL     1      -7.186   8.185  67.874  1.00  0.00    -0.087 OA 
HETATM    9  H   UNL     1      -7.725   9.186  69.357  1.00  0.00     0.000 HD 
HETATM   10  H   UNL     1      -6.799   8.947  67.459  1.00  0.00     0.000 HD 
ENDBRANCH   6   7
ENDBRANCH   5   6
ENDBRANCH   4   5
ENDBRANCH   3   4
ENDBRANCH   2   3
TORSDOF 5
ENDMDL
MODEL      187
REMARK 921   NORMALIZED FREE ENERGY PREDICTED BY IDOCK:   -1.60 KCAL/MOL
REMARK 922        TOTAL FREE ENERGY PREDICTED BY IDOCK:   -2.20 KCAL/MOL
REMARK 923 INTER-LIGAND FREE ENERGY PREDICTED BY IDOCK:   -1.92 KCAL/MOL
REMARK 924 INTRA-LIGAND FREE ENERGY PREDICTED BY IDOCK:   -0.28 KCAL/MOL
REMARK 927      BINDING AFFINITY PREDICTED BY RF-SCORE:    0.00 PKD
ROOT
HETATM    1  C   UNL     1     -10.112  14.757  68.459  1.00  0.00    -0.230 C  
HETATM    2  C   UNL     1     -10.620  15.902  67.596  1.00  0.00    -0.307 C  
ENDROOT
BRANCH   2   3
HETATM    3  C   UNL     1     -11.159  17.051  68.448  1.00  0.00    -0.164 C  
BRANCH   3   4
HETATM    4  C   UNL     1     -10.482  18.372  68.090  1.00  0.00    -0.355 C  
BRANCH   4   5
HETATM    5  C   UNL     1      -9.426  18.191  67.004  1.00  0.00    -0.274 C  
BRANCH   5   6
HETATM    6  O   UNL     1      -8.164  18.575  67.545  1.00  0.00    -0.249 OA 
BRANCH   6   7
HETATM    7  N   UNL     1      -7.284  17.502  67.442  1.00  0.00    -0.166 NA 
HETATM    8  O   UNL     1      -7.113  16.966  68.541  1.00  0.00    -0.178 OA 
HETATM    9  H   UNL     1      -6.400  17.779  67.017  1.00  0.00     0.000 HD 
HETATM   10  H   UNL     1      -6.512  16.233  68.471  1.00  0.00     0.000 HD 
ENDBRANCH   6   7
ENDBRANCH   5   6
ENDBRANCH   4   5
ENDBRANCH   3   4
ENDBRANCH   2   3
TORSDOF 5
ENDMDL
MODEL      188
REMARK 921   NORMALIZED FREE ENERGY PREDICTED BY IDOCK:   -1.58 KCAL/MOL
REMARK 922        TOTAL FREE ENERGY PREDICTED BY IDOCK:   -2.17 KCAL/MOL
REMARK 923 INTER-LIGAND FREE ENERGY PREDICTED BY IDOCK:   -2.02 KCAL/MOL
REMARK 924 INTRA-LIGAND FREE ENERGY PREDICTED BY IDOCK:   -0.15 KCAL/MOL
REMARK 927      BINDING AFFINITY PREDICTED BY RF-SCORE:    0.00 PKD
ROOT
HETATM    1  C   UNL     1      -6.997   4.048  70.653  1.00  0.00    -0.033 C  
HETATM    2  C   UNL     1      -8.149   4.397  69.723  1.00  0.00    -0.061 C  
ENDROOT
BRANCH   2   3
HETATM    3  C   UNL     1      -9.208   5.239  70.433  1.00  0.00    -0.190 C  
BRANCH   3   4
HETATM    4  C   UNL     1      -9.220   6.673  69.908  1.00  0.00    -0.146 C  
BRANCH   4   5
HETATM    5  C   UNL     1     -10.459   6.957  69.064  1.00  0.00    -0.208 C  
BRANCH   5   6
HETATM    6  O   UNL     1     -11.533   6.168  69.574  1.00  0.00    -0.429 OA 
BRANCH   6   7
HETATM    7  N   UNL     1     -12.381   6.987  70.312  1.00  0.00    -0.610 NA 
HETATM    8  O   UNL     1     -12.461   6.597  71.482  1.00  0.00    -0.344 OA 
HETATM    9  H   UNL     1     -13.300   7.067  69.878  1.00  0.00     0.000 HD 
HETATM   10  H   UNL     1     -13.040   7.156  71.986  1.00  0.00     0.000 HD 
ENDBRANCH   6   7
ENDBRANCH   5   6
ENDBRANCH   4   5
ENDBRANCH   3   4
ENDBRANCH   2   3
TORSDOF 5
ENDMDL
MODEL      189
REMARK 921   NORMALIZED FREE ENERGY PREDICTED BY IDOCK:   -1.57 KCAL/MOL
REMARK 922        TOTAL FREE ENERGY PREDICTED BY IDOCK:   -2.16 KCAL/MOL
REMARK 923 INTER-LIGAND FREE ENERGY PREDICTED BY IDOCK:   -2.09 KCAL/MOL
REMARK 924 INTRA-LIGAND FREE ENERGY PREDICTED BY IDOCK:   -0.07 KCAL/MOL
REMARK 927      BINDING AFFINITY PREDICTED BY RF-SCORE:    0.00 PKD
ROOT
HETATM    1  C   UNL     1     -10.370  13.040  64.541  1.00  0.00    -0.386 C  
HETATM    2  C   UNL     1     -10.737  13.478  65.951  1.00  0.00    -0.279 C  
ENDROOT
BRANCH   2   3
HETATM    3  C   UNL     1      -9.494  13.703  66.811  1.00  0.00    -0.275 C  
BRANCH   3   4
HETATM    4  C   UNL     1      -9.703  14.848  67.799  1.00  0.00    -0.212 C  
BRANCH   4   5
HETATM    5  C   UNL     1      -8.708  15.983  67.569  1.00  0.00    -0.182 C  
BRANCH   5   6
HETATM    6  O   UNL     1      -9.360  17.212  67.881  1.00  0.00    -0.241 OA 
BRANCH   6   7
HETATM    7  N   UNL     1      -8.439  18.073  68.470  1.00  0.00    -0.310 NA 
HETATM    8  O   UNL     1      -7.283  17.698  68.250  1.00  0.00    -0.210 OA 
HETATM    9  H   UNL     1      -8.614  18.185  69.468  1.00  0.00     0.000 HD 
HETATM   10  H   UNL     1      -6.654  18.286  68.652  1.00  0.00     0.000 HD 
ENDBRANCH   6   7
ENDBRANCH   5   6
ENDBRANCH   4   5
ENDBRANCH   3   4
ENDBRANCH   2   3
TORSDOF 5
ENDMDL
MODEL      190
REMARK 921   NORMALIZED FREE ENERGY PREDICTED BY IDOCK:   -1.57 KCAL/MOL
REMARK 922        TOTAL FREE ENERGY PREDICTED BY IDOCK:   -2.16 KCAL/MOL
REMARK 923 INTER-LIGAND FREE ENERGY PREDICTED BY IDOCK:   -2.03 KCAL/MOL
REMARK 924 INTRA-LIGAND FREE ENERGY PREDICTED BY IDOCK:   -0.13 KCAL/MOL
REMARK 927      BINDING AFFINITY PREDICTED BY RF-SCORE:    0.00 PKD
ROOT
HETATM    1  C   UNL     1     -10.286   3.798  64.229  1.00  0.00    -0.240 C  
HETATM    2  C   UNL     1     -10.585   4.572  65.504  1.00  0.00    -0.218 C  
ENDROOT
BRANCH   2   3
HETATM    3  C   UNL     1      -9.593   4.230  66.615  1.00  0.00    -0.218 C  
BRANCH   3   4
HETATM    4  C   UNL     1      -9.614   5.283  67.720  1.00  0.00    -0.157 C  
BRANCH   4   5
HETATM    5  C   UNL     1     -10.821   6.207  67.599  1.00  0.00    -0.332 C  
BRANCH   5   6
HETATM    6  O   UNL     1     -11.391   6.364  68.898  1.00  0.00    -0.341 OA 
BRANCH   6   7
HETATM    7  N   UNL     1     -10.761   5.487  69.774  1.00  0.00    -0.324 NA 
HETATM    8  O   UNL     1     -11.223   5.596  70.915  1.00  0.00    -0.199 OA 
HETATM    9  H   UNL     1      -9.748   5.607  69.765  1.00  0.00     0.000 HD 
HETATM   10  H   UNL     1     -10.793   4.997  71.513  1.00  0.00     0.000 HD 
ENDBRANCH   6   7
ENDBRANCH   5   6
ENDBRANCH   4   5
ENDBRANCH   3   4
ENDBRANCH   2   3
TORSDOF 5
ENDMDL
MODEL      191
REMARK 921   NORMALIZED FREE ENERGY PREDICTED BY IDOCK:   -1.57 KCAL/MOL
REMARK 922        TOTAL FREE ENERGY PREDICTED BY IDOCK:   -2.16 KCAL/MOL
REMARK 923 INTER-LIGAND FREE ENERGY PREDICTED BY IDOCK:   -2.09 KCAL/MOL
REMARK 924 INTRA-LIGAND FREE ENERGY PREDICTED BY IDOCK:   -0.07 KCAL/MOL
REMARK 927      BINDING AFFINITY PREDICTED BY RF-SCORE:    0.00 PKD
ROOT
HETATM    1  C   UNL     1      -8.154   8.836  70.232  1.00  0.00    -0.116 C  
HETATM    2  C   UNL     1      -9.357   8.126  69.628  1.00  0.00    -0.159 C  
ENDROOT
BRANCH   2   3
HETATM    3  C   UNL     1     -10.386   9.121  69.093  1.00  0.00    -0.223 C  
BRANCH   3   4
HETATM    4  C   UNL     1     -10.460   9.075  67.569  1.00  0.00    -0.338 C  
BRANCH   4   5
HETATM    5  C   UNL     1      -9.467  10.037  66.924  1.00  0.00    -0.166 C  
BRANCH   5   6
HETATM    6  O   UNL     1     -10.136  10.723  65.868  1.00  0.00    -0.237 OA 
BRANCH   6   7
HETATM    7  N   UNL     1      -9.248  11.616  65.277  1.00  0.00    -0.408 NA 
HETATM    8  O   UNL     1      -9.227  12.688  65.891  1.00  0.00    -0.441 OA 
HETATM    9  H   UNL     1      -9.454  11.753  64.288  1.00  0.00     0.000 HD 
HETATM   10  H   UNL     1      -8.620  13.297  65.488  1.00  0.00     0.000 HD 
ENDBRANCH   6   7
ENDBRANCH   5   6
ENDBRANCH   4   5
ENDBRANCH   3   4
ENDBRANCH   2   3
TORSDOF 5
ENDMDL
MODEL      192
REMARK 921   NORMALIZED FREE ENERGY PREDICTED BY IDOCK:   -1.56 KCAL/MOL
REMARK 922        TOTAL FREE ENERGY PREDICTED BY IDOCK:   -2.14 KCAL/MOL
REMARK 923 INTER-LIGAND FREE ENERGY PREDICTED BY IDOCK:   -2.24 KCAL/MOL
REMARK 924 INTRA-LIGAND FREE ENERGY PREDICTED BY IDOCK:    0.10 KCAL/MOL
REMARK 927      BINDING AFFINITY PREDICTED BY RF-SCORE:    0.00 PKD
ROOT
HETATM    1  C   UNL     1      -8.049   2.282  70.797  1.00  0.00    -0.060 C  
HETATM    2  C   UNL     1      -8.429   3.698  70.391  1.00  0.00    -0.091 C  
ENDROOT
BRANCH   2   3
HETATM    3  C   UNL     1      -9.327   4.360  71.435  1.00  0.00    -0.206 C  
BRANCH   3   4
HETATM    4  C   UNL     1     -10.385   5.243  70.777  1.00  0.00    -0.309 C  
BRANCH   4   5
HETATM    5  C   UNL     1     -10.586   6.549  71.539  1.00  0.00    -0.229 C  
BRANCH   5   6
HETATM    6  O   UNL     1     -11.558   7.324  70.841  1.00  0.00    -0.282 OA 
BRANCH   6   7
HETATM    7  N   UNL     1     -11.702   6.813  69.555  1.00  0.00    -0.637 NA 
HETATM    8  O   UNL     1     -11.107   7.518  68.732  1.00  0.00    -0.427 OA 
HETATM    9  H   UNL     1     -12.683   6.690  69.306  1.00  0.00     0.000 HD 
HETATM   10  H   UNL     1     -11.206   7.169  67.854  1.00  0.00     0.000 HD 
ENDBRANCH   6   7
ENDBRANCH   5   6
ENDBRANCH   4   5
ENDBRANCH   3   4
ENDBRANCH   2   3
TORSDOF 5
ENDMDL
MODEL      193
REMARK 921   NORMALIZED FREE ENERGY PREDICTED BY IDOCK:   -1.56 KCAL/MOL
REMARK 922        TOTAL FREE ENERGY PREDICTED BY IDOCK:   -2.14 KCAL/MOL
REMARK 923 INTER-LIGAND FREE ENERGY PREDICTED BY IDOCK:   -2.04 KCAL/MOL
REMARK 924 INTRA-LIGAND FREE ENERGY PREDICTED BY IDOCK:   -0.10 KCAL/MOL
REMARK 927      BINDING AFFINITY PREDICTED BY RF-SCORE:    0.00 PKD
ROOT
HETATM    1  C   UNL     1      -7.652   8.123  74.334  1.00  0.00    -0.268 C  
HETATM    2  C   UNL     1      -7.325   8.174  72.849  1.00  0.00    -0.154 C  
ENDROOT
BRANCH   2   3
HETATM    3  C   UNL     1      -7.945   6.997  72.098  1.00  0.00    -0.093 C  
BRANCH   3   4
HETATM    4  C   UNL     1      -9.407   6.797  72.490  1.00  0.00    -0.151 C  
BRANCH   4   5
HETATM    5  C   UNL     1     -10.354   7.510  71.529  1.00  0.00    -0.196 C  
BRANCH   5   6
HETATM    6  O   UNL     1     -10.967   6.525  70.699  1.00  0.00    -0.250 OA 
BRANCH   6   7
HETATM    7  N   UNL     1     -11.298   7.107  69.480  1.00  0.00    -0.491 NA 
HETATM    8  O   UNL     1     -11.412   8.332  69.593  1.00  0.00    -0.439 OA 
HETATM    9  H   UNL     1     -12.135   6.687  69.077  1.00  0.00     0.000 HD 
HETATM   10  H   UNL     1     -11.639   8.730  68.761  1.00  0.00     0.000 HD 
ENDBRANCH   6   7
ENDBRANCH   5   6
ENDBRANCH   4   5
ENDBRANCH   3   4
ENDBRANCH   2   3
TORSDOF 5
ENDMDL
MODEL      194
REMARK 921   NORMALIZED FREE ENERGY PREDICTED BY IDOCK:   -1.55 KCAL/MOL
REMARK 922        TOTAL FREE ENERGY PREDICTED BY IDOCK:   -2.13 KCAL/MOL
REMARK 923 INTER-LIGAND FREE ENERGY PREDICTED BY IDOCK:   -2.09 KCAL/MOL
REMARK 924 INTRA-LIGAND FREE ENERGY PREDICTED BY IDOCK:   -0.04 KCAL/MOL
REMARK 927      BINDING AFFINITY PREDICTED BY RF-SCORE:    0.00 PKD
ROOT
HETATM    1  C   UNL     1     -11.597  15.438  69.377  1.00  0.00    -0.354 C  
HETATM    2  C   UNL     1     -10.215  15.050  68.875  1.00  0.00    -0.235 C  
ENDROOT
BRANCH   2   3
HETATM    3  C   UNL     1     -10.202  14.854  67.360  1.00  0.00    -0.234 C  
BRANCH   3   4
HETATM    4  C   UNL     1      -9.254  13.727  66.955  1.00  0.00    -0.263 C  
BRANCH   4   5
HETATM    5  C   UNL     1      -9.831  12.881  65.823  1.00  0.00    -0.209 C  
BRANCH   5   6
HETATM    6  O   UNL     1      -9.951  11.539  66.290  1.00  0.00    -0.208 OA 
BRANCH   6   7
HETATM    7  N   UNL     1     -10.606  10.783  65.324  1.00  0.00    -0.212 NA 
HETATM    8  O   UNL     1     -10.141   9.640  65.268  1.00  0.00    -0.379 OA 
HETATM    9  H   UNL     1     -10.590  11.240  64.413  1.00  0.00     0.000 HD 
HETATM   10  H   UNL     1     -10.588   9.124  64.608  1.00  0.00     0.000 HD 
ENDBRANCH   6   7
ENDBRANCH   5   6
ENDBRANCH   4   5
ENDBRANCH   3   4
ENDBRANCH   2   3
TORSDOF 5
ENDMDL
MODEL      195
REMARK 921   NORMALIZED FREE ENERGY PREDICTED BY IDOCK:   -1.55 KCAL/MOL
REMARK 922        TOTAL FREE ENERGY PREDICTED BY IDOCK:   -2.13 KCAL/MOL
REMARK 923 INTER-LIGAND FREE ENERGY PREDICTED BY IDOCK:   -1.97 KCAL/MOL
REMARK 924 INTRA-LIGAND FREE ENERGY PREDICTED BY IDOCK:   -0.17 KCAL/MOL
REMARK 927      BINDING AFFINITY PREDICTED BY RF-SCORE:    0.00 PKD
ROOT
HETATM    1  C   UNL     1     -12.359   8.527  72.554  1.00  0.00    -0.372 C  
HETATM    2  C   UNL     1     -11.211   8.481  71.557  1.00  0.00    -0.345 C  
ENDROOT
BRANCH   2   3
HETATM    3  C   UNL     1     -10.537   7.109  71.540  1.00  0.00    -0.228 C  
BRANCH   3   4
HETATM    4  C   UNL     1     -11.535   5.997  71.859  1.00  0.00    -0.328 C  
BRANCH   4   5
HETATM    5  C   UNL     1     -11.031   5.087  72.975  1.00  0.00    -0.295 C  
BRANCH   5   6
HETATM    6  O   UNL     1     -10.135   5.840  73.790  1.00  0.00    -0.182 OA 
BRANCH   6   7
HETATM    7  N   UNL     1      -9.034   5.047  74.099  1.00  0.00    -0.113 NA 
HETATM    8  O   UNL     1      -8.034   5.742  74.303  1.00  0.00    -0.104 OA 
HETATM    9  H   UNL     1      -8.864   4.343  73.382  1.00  0.00     0.000 HD 
HETATM   10  H   UNL     1      -7.283   5.201  74.514  1.00  0.00     0.000 HD 
ENDBRANCH   6   7
ENDBRANCH   5   6
ENDBRANCH   4   5
ENDBRANCH   3   4
ENDBRANCH   2   3
TORSDOF 5
ENDMDL
MODEL      196
REMARK 921   NORMALIZED FREE ENERGY PREDICTED BY IDOCK:   -1.55 KCAL/MOL
REMARK 922        TOTAL FREE ENERGY PREDICTED BY IDOCK:   -2.13 KCAL/MOL
REMARK 923 INTER-LIGAND FREE ENERGY PREDICTED BY IDOCK:   -2.06 KCAL/MOL
REMARK 924 INTRA-LIGAND FREE ENERGY PREDICTED BY IDOCK:   -0.07 KCAL/MOL
REMARK 927      BINDING AFFINITY PREDICTED BY RF-SCORE:    0.00 PKD
ROOT
HETATM    1  C   UNL     1      -6.366   7.233  66.104  1.00  0.00    -0.041 C  
HETATM    2  C   UNL     1      -7.525   8.024  66.690  1.00  0.00    -0.089 C  
ENDROOT
BRANCH   2   3
HETATM    3  C   UNL     1      -8.864   7.574  66.107  1.00  0.00    -0.185 C  
BRANCH   3   4
HETATM    4  C   UNL     1      -9.931   7.460  67.194  1.00  0.00    -0.281 C  
BRANCH   4   5
HETATM    5  C   UNL     1     -10.994   6.426  66.837  1.00  0.00    -0.341 C  
BRANCH   5   6
HETATM    6  O   UNL     1     -10.416   5.129  66.975  1.00  0.00    -0.231 OA 
BRANCH   6   7
HETATM    7  N   UNL     1     -10.612   4.421  65.794  1.00  0.00    -0.488 NA 
HETATM    8  O   UNL     1      -9.970   3.365  65.802  1.00  0.00    -0.402 OA 
HETATM    9  H   UNL     1     -10.396   4.987  64.974  1.00  0.00     0.000 HD 
HETATM   10  H   UNL     1     -10.105   2.882  64.996  1.00  0.00     0.000 HD 
ENDBRANCH   6   7
ENDBRANCH   5   6
ENDBRANCH   4   5
ENDBRANCH   3   4
ENDBRANCH   2   3
TORSDOF 5
ENDMDL
MODEL      197
REMARK 921   NORMALIZED FREE ENERGY PREDICTED BY IDOCK:   -1.54 KCAL/MOL
REMARK 922        TOTAL FREE ENERGY PREDICTED BY IDOCK:   -2.12 KCAL/MOL
REMARK 923 INTER-LIGAND FREE ENERGY PREDICTED BY IDOCK:   -1.90 KCAL/MOL
REMARK 924 INTRA-LIGAND FREE ENERGY PREDICTED BY IDOCK:   -0.22 KCAL/MOL
REMARK 927      BINDING AFFINITY PREDICTED BY RF-SCORE:    0.00 PKD
ROOT
HETATM    1  C   UNL     1      -8.860  11.308  68.290  1.00  0.00    -0.158 C  
HETATM    2  C   UNL     1     -10.315  11.506  67.895  1.00  0.00    -0.203 C  
ENDROOT
BRANCH   2   3
HETATM    3  C   UNL     1     -10.940  12.691  68.631  1.00  0.00    -0.292 C  
BRANCH   3   4
HETATM    4  C   UNL     1     -10.943  13.945  67.760  1.00  0.00    -0.271 C  
BRANCH   4   5
HETATM    5  C   UNL     1     -10.152  15.082  68.400  1.00  0.00    -0.225 C  
BRANCH   5   6
HETATM    6  O   UNL     1      -8.763  14.809  68.223  1.00  0.00    -0.157 OA 
BRANCH   6   7
HETATM    7  N   UNL     1      -8.069  15.266  69.339  1.00  0.00    -0.231 NA 
HETATM    8  O   UNL     1      -7.554  14.326  69.952  1.00  0.00    -0.363 OA 
HETATM    9  H   UNL     1      -8.661  15.832  69.945  1.00  0.00     0.000 HD 
HETATM   10  H   UNL     1      -7.080  14.638  70.714  1.00  0.00     0.000 HD 
ENDBRANCH   6   7
ENDBRANCH   5   6
ENDBRANCH   4   5
ENDBRANCH   3   4
ENDBRANCH   2   3
TORSDOF 5
ENDMDL
MODEL      198
REMARK 921   NORMALIZED FREE ENERGY PREDICTED BY IDOCK:   -1.53 KCAL/MOL
REMARK 922        TOTAL FREE ENERGY PREDICTED BY IDOCK:   -2.11 KCAL/MOL
REMARK 923 INTER-LIGAND FREE ENERGY PREDICTED BY IDOCK:   -1.95 KCAL/MOL
REMARK 924 INTRA-LIGAND FREE ENERGY PREDICTED BY IDOCK:   -0.16 KCAL/MOL
REMARK 927      BINDING AFFINITY PREDICTED BY RF-SCORE:    0.00 PKD
ROOT
HETATM    1  C   UNL     1      -9.603  10.032  65.621  1.00  0.00    -0.313 C  
HETATM    2  C   UNL     1     -10.475  10.482  66.784  1.00  0.00    -0.302 C  
ENDROOT
BRANCH   2   3
HETATM    3  C   UNL     1     -10.797   9.322  67.726  1.00  0.00    -0.192 C  
BRANCH   3   4
HETATM    4  C   UNL     1     -10.496   7.976  67.071  1.00  0.00    -0.410 C  
BRANCH   4   5
HETATM    5  C   UNL     1      -9.985   6.955  68.083  1.00  0.00    -0.155 C  
BRANCH   5   6
HETATM    6  O   UNL     1     -10.911   6.903  69.166  1.00  0.00    -0.233 OA 
BRANCH   6   7
HETATM    7  N   UNL     1     -10.205   6.769  70.357  1.00  0.00    -0.190 NA 
HETATM    8  O   UNL     1      -9.237   7.536  70.384  1.00  0.00    -0.156 OA 
HETATM    9  H   UNL     1      -9.924   5.803  70.521  1.00  0.00     0.000 HD 
HETATM   10  H   UNL     1      -8.755   7.444  71.197  1.00  0.00     0.000 HD 
ENDBRANCH   6   7
ENDBRANCH   5   6
ENDBRANCH   4   5
ENDBRANCH   3   4
ENDBRANCH   2   3
TORSDOF 5
ENDMDL
MODEL      199
REMARK 921   NORMALIZED FREE ENERGY PREDICTED BY IDOCK:   -1.52 KCAL/MOL
REMARK 922        TOTAL FREE ENERGY PREDICTED BY IDOCK:   -2.09 KCAL/MOL
REMARK 923 INTER-LIGAND FREE ENERGY PREDICTED BY IDOCK:   -1.99 KCAL/MOL
REMARK 924 INTRA-LIGAND FREE ENERGY PREDICTED BY IDOCK:   -0.10 KCAL/MOL
REMARK 927      BINDING AFFINITY PREDICTED BY RF-SCORE:    0.00 PKD
ROOT
HETATM    1  C   UNL     1      -9.787   4.550  65.662  1.00  0.00    -0.227 C  
HETATM    2  C   UNL     1      -9.798   4.370  67.172  1.00  0.00    -0.217 C  
ENDROOT
BRANCH   2   3
HETATM    3  C   UNL     1      -9.954   5.707  67.895  1.00  0.00    -0.174 C  
BRANCH   3   4
HETATM    4  C   UNL     1     -10.887   6.645  67.132  1.00  0.00    -0.471 C  
BRANCH   4   5
HETATM    5  C   UNL     1     -10.483   8.106  67.301  1.00  0.00    -0.309 C  
BRANCH   5   6
HETATM    6  O   UNL     1     -10.498   8.412  68.694  1.00  0.00    -0.208 OA 
BRANCH   6   7
HETATM    7  N   UNL     1      -9.417   9.238  68.985  1.00  0.00    -0.153 NA 
HETATM    8  O   UNL     1      -9.712  10.057  69.862  1.00  0.00    -0.235 OA 
HETATM    9  H   UNL     1      -9.056   9.695  68.149  1.00  0.00     0.000 HD 
HETATM   10  H   UNL     1      -8.974  10.621  70.060  1.00  0.00     0.000 HD 
ENDBRANCH   6   7
ENDBRANCH   5   6
ENDBRANCH   4   5
ENDBRANCH   3   4
ENDBRANCH   2   3
TORSDOF 5
ENDMDL
MODEL      200
REMARK 921   NORMALIZED FREE ENERGY PREDICTED BY IDOCK:   -1.52 KCAL/MOL
REMARK 922        TOTAL FREE ENERGY PREDICTED BY IDOCK:   -2.09 KCAL/MOL
REMARK 923 INTER-LIGAND FREE ENERGY PREDICTED BY IDOCK:   -1.94 KCAL/MOL
REMARK 924 INTRA-LIGAND FREE ENERGY PREDICTED BY IDOCK:   -0.15 KCAL/MOL
REMARK 927      BINDING AFFINITY PREDICTED BY RF-SCORE:    0.00 PKD
ROOT
HETATM    1  C   UNL     1     -12.840   7.201  71.598  1.00  0.00    -0.420 C  
HETATM    2  C   UNL     1     -11.566   6.372  71.524  1.00  0.00    -0.364 C  
ENDROOT
BRANCH   2   3
HETATM    3  C   UNL     1     -10.981   6.118  72.913  1.00  0.00    -0.294 C  
BRANCH   3   4
HETATM    4  C   UNL     1     -10.322   7.375  73.476  1.00  0.00    -0.405 C  
BRANCH   4   5
HETATM    5  C   UNL     1      -9.040   7.726  72.728  1.00  0.00    -0.186 C  
BRANCH   5   6
HETATM    6  O   UNL     1      -8.190   6.581  72.744  1.00  0.00    -0.109 OA 
BRANCH   6   7
HETATM    7  N   UNL     1      -7.054   6.873  73.492  1.00  0.00    -0.075 NA 
HETATM    8  O   UNL     1      -6.970   6.127  74.474  1.00  0.00    -0.086 OA 
HETATM    9  H   UNL     1      -7.024   7.856  73.762  1.00  0.00     0.000 HD 
HETATM   10  H   UNL     1      -6.195   6.327  74.985  1.00  0.00     0.000 HD 
ENDBRANCH   6   7
ENDBRANCH   5   6
ENDBRANCH   4   5
ENDBRANCH   3   4
ENDBRANCH   2   3
TORSDOF 5
ENDMDL
MODEL      201
REMARK 921   NORMALIZED FREE ENERGY PREDICTED BY IDOCK:   -1.50 KCAL/MOL
REMARK 922        TOTAL FREE ENERGY PREDICTED BY IDOCK:   -2.07 KCAL/MOL
REMARK 923 INTER-LIGAND FREE ENERGY PREDICTED BY IDOCK:   -2.01 KCAL/MOL
REMARK 924 INTRA-LIGAND FREE ENERGY PREDICTED BY IDOCK:   -0.06 KCAL/MOL
REMARK 927      BINDING AFFINITY PREDICTED BY RF-SCORE:    0.00 PKD
ROOT
HETATM    1  C   UNL     1      -7.606   7.897  73.729  1.00  0.00    -0.197 C  
HETATM    2  C   UNL     1      -8.483   8.209  72.526  1.00  0.00    -0.244 C  
ENDROOT
BRANCH   2   3
HETATM    3  C   UNL     1      -9.533   7.122  72.300  1.00  0.00    -0.157 C  
BRANCH   3   4
HETATM    4  C   UNL     1     -10.480   7.009  73.493  1.00  0.00    -0.413 C  
BRANCH   4   5
HETATM    5  C   UNL     1     -10.396   5.637  74.155  1.00  0.00    -0.281 C  
BRANCH   5   6
HETATM    6  O   UNL     1     -11.300   4.764  73.481  1.00  0.00    -0.332 OA 
BRANCH   6   7
HETATM    7  N   UNL     1     -10.659   3.553  73.239  1.00  0.00    -0.175 NA 
HETATM    8  O   UNL     1     -11.275   2.617  73.759  1.00  0.00    -0.208 OA 
HETATM    9  H   UNL     1      -9.685   3.576  73.538  1.00  0.00     0.000 HD 
HETATM   10  H   UNL     1     -10.837   1.791  73.594  1.00  0.00     0.000 HD 
ENDBRANCH   6   7
ENDBRANCH   5   6
ENDBRANCH   4   5
ENDBRANCH   3   4
ENDBRANCH   2   3
TORSDOF 5
ENDMDL
MODEL      202
REMARK 921   NORMALIZED FREE ENERGY PREDICTED BY IDOCK:   -1.49 KCAL/MOL
REMARK 922        TOTAL FREE ENERGY PREDICTED BY IDOCK:   -2.06 KCAL/MOL
REMARK 923 INTER-LIGAND FREE ENERGY PREDICTED BY IDOCK:   -1.90 KCAL/MOL
REMARK 924 INTRA-LIGAND FREE ENERGY PREDICTED BY IDOCK:   -0.16 KCAL/MOL
REMARK 927      BINDING AFFINITY PREDICTED BY RF-SCORE:    0.00 PKD
ROOT
HETATM    1  C   UNL     1      -8.975   9.338  65.466  1.00  0.00    -0.251 C  
HETATM    2  C   UNL     1     -10.283  10.042  65.794  1.00  0.00    -0.270 C  
ENDROOT
BRANCH   2   3
HETATM    3  C   UNL     1     -10.632   9.916  67.277  1.00  0.00    -0.316 C  
BRANCH   3   4
HETATM    4  C   UNL     1      -9.394   9.597  68.113  1.00  0.00    -0.140 C  
BRANCH   4   5
HETATM    5  C   UNL     1      -9.050  10.733  69.071  1.00  0.00    -0.143 C  
BRANCH   5   6
HETATM    6  O   UNL     1      -7.790  11.275  68.680  1.00  0.00    -0.126 OA 
BRANCH   6   7
HETATM    7  N   UNL     1      -7.854  12.663  68.757  1.00  0.00    -0.309 NA 
HETATM    8  O   UNL     1      -8.992  13.035  69.057  1.00  0.00    -0.342 OA 
HETATM    9  H   UNL     1      -7.527  13.103  67.897  1.00  0.00     0.000 HD 
HETATM   10  H   UNL     1      -9.036  13.983  69.109  1.00  0.00     0.000 HD 
ENDBRANCH   6   7
ENDBRANCH   5   6
ENDBRANCH   4   5
ENDBRANCH   3   4
ENDBRANCH   2   3
TORSDOF 5
ENDMDL
MODEL      203
REMARK 921   NORMALIZED FREE ENERGY PREDICTED BY IDOCK:   -1.49 KCAL/MOL
REMARK 922        TOTAL FREE ENERGY PREDICTED BY IDOCK:   -2.06 KCAL/MOL
REMARK 923 INTER-LIGAND FREE ENERGY PREDICTED BY IDOCK:   -1.94 KCAL/MOL
REMARK 924 INTRA-LIGAND FREE ENERGY PREDICTED BY IDOCK:   -0.12 KCAL/MOL
REMARK 927      BINDING AFFINITY PREDICTED BY RF-SCORE:    0.00 PKD
ROOT
HETATM    1  C   UNL     1      -9.896  11.343  68.465  1.00  0.00    -0.200 C  
HETATM    2  C   UNL     1      -8.956  10.173  68.710  1.00  0.00    -0.147 C  
ENDROOT
BRANCH   2   3
HETATM    3  C   UNL     1      -8.939   9.764  70.182  1.00  0.00    -0.235 C  
BRANCH   3   4
HETATM    4  C   UNL     1     -10.353   9.536  70.711  1.00  0.00    -0.377 C  
BRANCH   4   5
HETATM    5  C   UNL     1     -10.345   8.840  72.068  1.00  0.00    -0.340 C  
BRANCH   5   6
HETATM    6  O   UNL     1      -9.101   8.157  72.209  1.00  0.00    -0.157 OA 
BRANCH   6   7
HETATM    7  N   UNL     1      -8.869   7.917  73.559  1.00  0.00    -0.249 NA 
HETATM    8  O   UNL     1      -8.397   8.917  74.109  1.00  0.00    -0.235 OA 
HETATM    9  H   UNL     1      -8.281   7.097  73.700  1.00  0.00     0.000 HD 
HETATM   10  H   UNL     1      -8.239   8.753  75.031  1.00  0.00     0.000 HD 
ENDBRANCH   6   7
ENDBRANCH   5   6
ENDBRANCH   4   5
ENDBRANCH   3   4
ENDBRANCH   2   3
TORSDOF 5
ENDMDL
MODEL      204
REMARK 921   NORMALIZED FREE ENERGY PREDICTED BY IDOCK:   -1.49 KCAL/MOL
REMARK 922        TOTAL FREE ENERGY PREDICTED BY IDOCK:   -2.06 KCAL/MOL
REMARK 923 INTER-LIGAND FREE ENERGY PREDICTED BY IDOCK:   -1.95 KCAL/MOL
REMARK 924 INTRA-LIGAND FREE ENERGY PREDICTED BY IDOCK:   -0.11 KCAL/MOL
REMARK 927      BINDING AFFINITY PREDICTED BY RF-SCORE:    0.00 PKD
ROOT
HETATM    1  C   UNL     1      -6.707   7.576  65.970  1.00  0.00    -0.050 C  
HETATM    2  C   UNL     1      -7.533   8.411  66.938  1.00  0.00    -0.087 C  
ENDROOT
BRANCH   2   3
HETATM    3  C   UNL     1      -9.017   8.053  66.863  1.00  0.00    -0.160 C  
BRANCH   3   4
HETATM    4  C   UNL     1      -9.215   6.567  66.571  1.00  0.00    -0.179 C  
BRANCH   4   5
HETATM    5  C   UNL     1     -10.674   6.149  66.725  1.00  0.00    -0.299 C  
BRANCH   5   6
HETATM    6  O   UNL     1     -11.274   6.988  67.710  1.00  0.00    -0.125 OA 
BRANCH   6   7
HETATM    7  N   UNL     1     -11.450   6.255  68.879  1.00  0.00    -0.495 NA 
HETATM    8  O   UNL     1     -11.668   7.002  69.838  1.00  0.00    -0.553 OA 
HETATM    9  H   UNL     1     -10.661   5.634  69.056  1.00  0.00     0.000 HD 
HETATM   10  H   UNL     1     -11.788   6.501  70.637  1.00  0.00     0.000 HD 
ENDBRANCH   6   7
ENDBRANCH   5   6
ENDBRANCH   4   5
ENDBRANCH   3   4
ENDBRANCH   2   3
TORSDOF 5
ENDMDL
MODEL      205
REMARK 921   NORMALIZED FREE ENERGY PREDICTED BY IDOCK:   -1.48 KCAL/MOL
REMARK 922        TOTAL FREE ENERGY PREDICTED BY IDOCK:   -2.04 KCAL/MOL
REMARK 923 INTER-LIGAND FREE ENERGY PREDICTED BY IDOCK:   -1.95 KCAL/MOL
REMARK 924 INTRA-LIGAND FREE ENERGY PREDICTED BY IDOCK:   -0.10 KCAL/MOL
REMARK 927      BINDING AFFINITY PREDICTED BY RF-SCORE:    0.00 PKD
ROOT
HETATM    1  C   UNL     1      -6.207   6.572  67.212  1.00  0.00    -0.036 C  
HETATM    2  C   UNL     1      -6.297   7.784  68.127  1.00  0.00    -0.050 C  
ENDROOT
BRANCH   2   3
HETATM    3  C   UNL     1      -7.733   8.035  68.587  1.00  0.00    -0.105 C  
BRANCH   3   4
HETATM    4  C   UNL     1      -8.432   6.729  68.959  1.00  0.00    -0.128 C  
BRANCH   4   5
HETATM    5  C   UNL     1      -9.744   6.979  69.695  1.00  0.00    -0.157 C  
BRANCH   5   6
HETATM    6  O   UNL     1     -10.699   7.454  68.748  1.00  0.00    -0.194 OA 
BRANCH   6   7
HETATM    7  N   UNL     1     -11.322   6.363  68.150  1.00  0.00    -0.562 NA 
HETATM    8  O   UNL     1     -11.313   6.471  66.920  1.00  0.00    -0.716 OA 
HETATM    9  H   UNL     1     -12.266   6.224  68.509  1.00  0.00     0.000 HD 
HETATM   10  H   UNL     1     -11.738   5.726  66.512  1.00  0.00     0.000 HD 
ENDBRANCH   6   7
ENDBRANCH   5   6
ENDBRANCH   4   5
ENDBRANCH   3   4
ENDBRANCH   2   3
TORSDOF 5
ENDMDL
MODEL      206
REMARK 921   NORMALIZED FREE ENERGY PREDICTED BY IDOCK:   -1.47 KCAL/MOL
REMARK 922        TOTAL FREE ENERGY PREDICTED BY IDOCK:   -2.03 KCAL/MOL
REMARK 923 INTER-LIGAND FREE ENERGY PREDICTED BY IDOCK:   -1.94 KCAL/MOL
REMARK 924 INTRA-LIGAND FREE ENERGY PREDICTED BY IDOCK:   -0.08 KCAL/MOL
REMARK 927      BINDING AFFINITY PREDICTED BY RF-SCORE:    0.00 PKD
ROOT
HETATM    1  C   UNL     1      -9.829   2.536  71.682  1.00  0.00    -0.216 C  
HETATM    2  C   UNL     1      -9.571   3.713  72.611  1.00  0.00    -0.188 C  
ENDROOT
BRANCH   2   3
HETATM    3  C   UNL     1     -10.835   4.117  73.369  1.00  0.00    -0.331 C  
BRANCH   3   4
HETATM    4  C   UNL     1     -10.981   5.636  73.433  1.00  0.00    -0.293 C  
BRANCH   4   5
HETATM    5  C   UNL     1     -11.575   6.202  72.147  1.00  0.00    -0.317 C  
BRANCH   5   6
HETATM    6  O   UNL     1     -11.037   7.508  71.948  1.00  0.00    -0.230 OA 
BRANCH   6   7
HETATM    7  N   UNL     1     -10.504   7.585  70.665  1.00  0.00    -0.214 NA 
HETATM    8  O   UNL     1      -9.409   8.157  70.677  1.00  0.00    -0.152 OA 
HETATM    9  H   UNL     1     -11.152   8.026  70.014  1.00  0.00     0.000 HD 
HETATM   10  H   UNL     1      -9.045   8.209  69.801  1.00  0.00     0.000 HD 
ENDBRANCH   6   7
ENDBRANCH   5   6
ENDBRANCH   4   5
ENDBRANCH   3   4
ENDBRANCH   2   3
TORSDOF 5
ENDMDL
MODEL      207
REMARK 921   NORMALIZED FREE ENERGY PREDICTED BY IDOCK:   -1.46 KCAL/MOL
REMARK 922        TOTAL FREE ENERGY PREDICTED BY IDOCK:   -2.02 KCAL/MOL
REMARK 923 INTER-LIGAND FREE ENERGY PREDICTED BY IDOCK:   -1.90 KCAL/MOL
REMARK 924 INTRA-LIGAND FREE ENERGY PREDICTED BY IDOCK:   -0.12 KCAL/MOL
REMARK 927      BINDING AFFINITY PREDICTED BY RF-SCORE:    0.00 PKD
ROOT
HETATM    1  C   UNL     1      -9.851   4.653  65.708  1.00  0.00    -0.227 C  
HETATM    2  C   UNL     1      -9.925   4.233  67.168  1.00  0.00    -0.152 C  
ENDROOT
BRANCH   2   3
HETATM    3  C   UNL     1      -9.964   5.443  68.099  1.00  0.00    -0.207 C  
BRANCH   3   4
HETATM    4  C   UNL     1     -10.850   6.551  67.532  1.00  0.00    -0.433 C  
BRANCH   4   5
HETATM    5  C   UNL     1     -10.178   7.917  67.626  1.00  0.00    -0.226 C  
BRANCH   5   6
HETATM    6  O   UNL     1      -9.474   8.149  66.408  1.00  0.00    -0.204 OA 
BRANCH   6   7
HETATM    7  N   UNL     1      -9.819   9.406  65.920  1.00  0.00    -0.297 NA 
HETATM    8  O   UNL     1      -8.868   9.924  65.326  1.00  0.00    -0.158 OA 
HETATM    9  H   UNL     1     -10.176  10.011  66.659  1.00  0.00     0.000 HD 
HETATM   10  H   UNL     1      -9.103  10.782  64.994  1.00  0.00     0.000 HD 
ENDBRANCH   6   7
ENDBRANCH   5   6
ENDBRANCH   4   5
ENDBRANCH   3   4
ENDBRANCH   2   3
TORSDOF 5
ENDMDL
MODEL      208
REMARK 921   NORMALIZED FREE ENERGY PREDICTED BY IDOCK:   -1.44 KCAL/MOL
REMARK 922        TOTAL FREE ENERGY PREDICTED BY IDOCK:   -1.99 KCAL/MOL
REMARK 923 INTER-LIGAND FREE ENERGY PREDICTED BY IDOCK:   -1.92 KCAL/MOL
REMARK 924 INTRA-LIGAND FREE ENERGY PREDICTED BY IDOCK:   -0.07 KCAL/MOL
REMARK 927      BINDING AFFINITY PREDICTED BY RF-SCORE:    0.00 PKD
ROOT
HETATM    1  C   UNL     1     -10.548   6.565  69.649  1.00  0.00    -0.291 C  
HETATM    2  C   UNL     1     -10.526   6.434  68.134  1.00  0.00    -0.267 C  
ENDROOT
BRANCH   2   3
HETATM    3  C   UNL     1      -9.225   5.799  67.644  1.00  0.00    -0.105 C  
BRANCH   3   4
HETATM    4  C   UNL     1      -9.349   5.328  66.197  1.00  0.00    -0.164 C  
BRANCH   4   5
HETATM    5  C   UNL     1      -8.356   6.039  65.283  1.00  0.00    -0.148 C  
BRANCH   5   6
HETATM    6  O   UNL     1      -8.469   7.442  65.512  1.00  0.00    -0.144 OA 
BRANCH   6   7
HETATM    7  N   UNL     1      -8.423   8.104  64.289  1.00  0.00    -0.387 NA 
HETATM    8  O   UNL     1      -9.229   9.039  64.263  1.00  0.00    -0.416 OA 
HETATM    9  H   UNL     1      -8.564   7.463  63.509  1.00  0.00     0.000 HD 
HETATM   10  H   UNL     1      -9.198   9.490  63.428  1.00  0.00     0.000 HD 
ENDBRANCH   6   7
ENDBRANCH   5   6
ENDBRANCH   4   5
ENDBRANCH   3   4
ENDBRANCH   2   3
TORSDOF 5
ENDMDL
MODEL      209
REMARK 921   NORMALIZED FREE ENERGY PREDICTED BY IDOCK:   -1.43 KCAL/MOL
REMARK 922        TOTAL FREE ENERGY PREDICTED BY IDOCK:   -1.98 KCAL/MOL
REMARK 923 INTER-LIGAND FREE ENERGY PREDICTED BY IDOCK:   -1.86 KCAL/MOL
REMARK 924 INTRA-LIGAND FREE ENERGY PREDICTED BY IDOCK:   -0.12 KCAL/MOL
REMARK 927      BINDING AFFINITY PREDICTED BY RF-SCORE:    0.00 PKD
ROOT
HETATM    1  C   UNL     1      -6.083   5.911  69.418  1.00  0.00    -0.028 C  
HETATM    2  C   UNL     1      -7.139   6.558  68.535  1.00  0.00    -0.083 C  
ENDROOT
BRANCH   2   3
HETATM    3  C   UNL     1      -8.543   6.066  68.888  1.00  0.00    -0.116 C  
BRANCH   3   4
HETATM    4  C   UNL     1      -9.360   5.777  67.631  1.00  0.00    -0.108 C  
BRANCH   4   5
HETATM    5  C   UNL     1     -10.771   6.348  67.728  1.00  0.00    -0.303 C  
BRANCH   5   6
HETATM    6  O   UNL     1     -10.740   7.690  67.247  1.00  0.00    -0.306 OA 
BRANCH   6   7
HETATM    7  N   UNL     1      -9.947   7.741  66.105  1.00  0.00    -0.450 NA 
HETATM    8  O   UNL     1      -9.865   8.896  65.676  1.00  0.00    -0.469 OA 
HETATM    9  H   UNL     1     -10.278   7.095  65.388  1.00  0.00     0.000 HD 
HETATM   10  H   UNL     1      -9.324   8.930  64.896  1.00  0.00     0.000 HD 
ENDBRANCH   6   7
ENDBRANCH   5   6
ENDBRANCH   4   5
ENDBRANCH   3   4
ENDBRANCH   2   3
TORSDOF 5
ENDMDL
MODEL      210
REMARK 921   NORMALIZED FREE ENERGY PREDICTED BY IDOCK:   -1.43 KCAL/MOL
REMARK 922        TOTAL FREE ENERGY PREDICTED BY IDOCK:   -1.97 KCAL/MOL
REMARK 923 INTER-LIGAND FREE ENERGY PREDICTED BY IDOCK:   -1.84 KCAL/MOL
REMARK 924 INTRA-LIGAND FREE ENERGY PREDICTED BY IDOCK:   -0.13 KCAL/MOL
REMARK 927      BINDING AFFINITY PREDICTED BY RF-SCORE:    0.00 PKD
ROOT
HETATM    1  C   UNL     1      -8.923  10.543  67.448  1.00  0.00    -0.139 C  
HETATM    2  C   UNL     1     -10.058   9.672  66.933  1.00  0.00    -0.290 C  
ENDROOT
BRANCH   2   3
HETATM    3  C   UNL     1      -9.570   8.269  66.572  1.00  0.00    -0.312 C  
BRANCH   3   4
HETATM    4  C   UNL     1     -10.422   7.196  67.246  1.00  0.00    -0.372 C  
BRANCH   4   5
HETATM    5  C   UNL     1     -10.436   7.353  68.764  1.00  0.00    -0.199 C  
BRANCH   5   6
HETATM    6  O   UNL     1     -10.804   6.100  69.336  1.00  0.00    -0.277 OA 
BRANCH   6   7
HETATM    7  N   UNL     1     -10.210   5.078  68.602  1.00  0.00    -0.126 NA 
HETATM    8  O   UNL     1      -9.397   4.456  69.293  1.00  0.00    -0.126 OA 
HETATM    9  H   UNL     1      -9.786   5.428  67.744  1.00  0.00     0.000 HD 
HETATM   10  H   UNL     1      -8.991   3.758  68.792  1.00  0.00     0.000 HD 
ENDBRANCH   6   7
ENDBRANCH   5   6
ENDBRANCH   4   5
ENDBRANCH   3   4
ENDBRANCH   2   3
TORSDOF 5
ENDMDL
MODEL      211
REMARK 921   NORMALIZED FREE ENERGY PREDICTED BY IDOCK:   -1.42 KCAL/MOL
REMARK 922        TOTAL FREE ENERGY PREDICTED BY IDOCK:   -1.96 KCAL/MOL
REMARK 923 INTER-LIGAND FREE ENERGY PREDICTED BY IDOCK:   -1.88 KCAL/MOL
REMARK 924 INTRA-LIGAND FREE ENERGY PREDICTED BY IDOCK:   -0.09 KCAL/MOL
REMARK 927      BINDING AFFINITY PREDICTED BY RF-SCORE:    0.00 PKD
ROOT
HETATM    1  C   UNL     1      -7.116   7.723  72.504  1.00  0.00    -0.089 C  
HETATM    2  C   UNL     1      -8.568   7.489  72.892  1.00  0.00    -0.172 C  
ENDROOT
BRANCH   2   3
HETATM    3  C   UNL     1      -9.504   8.466  72.181  1.00  0.00    -0.360 C  
BRANCH   3   4
HETATM    4  C   UNL     1      -9.132   8.616  70.708  1.00  0.00    -0.214 C  
BRANCH   4   5
HETATM    5  C   UNL     1      -9.686   7.473  69.863  1.00  0.00    -0.171 C  
BRANCH   5   6
HETATM    6  O   UNL     1      -9.292   7.690  68.510  1.00  0.00    -0.147 OA 
BRANCH   6   7
HETATM    7  N   UNL     1     -10.392   7.490  67.683  1.00  0.00    -0.210 NA 
HETATM    8  O   UNL     1     -11.262   6.829  68.259  1.00  0.00    -0.512 OA 
HETATM    9  H   UNL     1     -10.124   7.067  66.795  1.00  0.00     0.000 HD 
HETATM   10  H   UNL     1     -12.013   6.692  67.694  1.00  0.00     0.000 HD 
ENDBRANCH   6   7
ENDBRANCH   5   6
ENDBRANCH   4   5
ENDBRANCH   3   4
ENDBRANCH   2   3
TORSDOF 5
ENDMDL
MODEL      212
REMARK 921   NORMALIZED FREE ENERGY PREDICTED BY IDOCK:   -1.42 KCAL/MOL
REMARK 922        TOTAL FREE ENERGY PREDICTED BY IDOCK:   -1.96 KCAL/MOL
REMARK 923 INTER-LIGAND FREE ENERGY PREDICTED BY IDOCK:   -1.88 KCAL/MOL
REMARK 924 INTRA-LIGAND FREE ENERGY PREDICTED BY IDOCK:   -0.09 KCAL/MOL
REMARK 927      BINDING AFFINITY PREDICTED BY RF-SCORE:    0.00 PKD
ROOT
HETATM    1  C   UNL     1     -10.232  10.397  65.815  1.00  0.00    -0.305 C  
HETATM    2  C   UNL     1     -10.173  10.503  67.332  1.00  0.00    -0.253 C  
ENDROOT
BRANCH   2   3
HETATM    3  C   UNL     1      -9.932   9.141  67.981  1.00  0.00    -0.213 C  
BRANCH   3   4
HETATM    4  C   UNL     1     -10.651   8.029  67.220  1.00  0.00    -0.360 C  
BRANCH   4   5
HETATM    5  C   UNL     1      -9.710   6.879  66.874  1.00  0.00    -0.171 C  
BRANCH   5   6
HETATM    6  O   UNL     1      -9.721   5.956  67.960  1.00  0.00    -0.114 OA 
BRANCH   6   7
HETATM    7  N   UNL     1      -9.770   4.662  67.451  1.00  0.00    -0.174 NA 
HETATM    8  O   UNL     1     -10.449   4.620  66.420  1.00  0.00    -0.287 OA 
HETATM    9  H   UNL     1     -10.101   3.995  68.148  1.00  0.00     0.000 HD 
HETATM   10  H   UNL     1     -10.483   3.737  66.073  1.00  0.00     0.000 HD 
ENDBRANCH   6   7
ENDBRANCH   5   6
ENDBRANCH   4   5
ENDBRANCH   3   4
ENDBRANCH   2   3
TORSDOF 5
ENDMDL
MODEL      213
REMARK 921   NORMALIZED FREE ENERGY PREDICTED BY IDOCK:   -1.41 KCAL/MOL
REMARK 922        TOTAL FREE ENERGY PREDICTED BY IDOCK:   -1.96 KCAL/MOL
REMARK 923 INTER-LIGAND FREE ENERGY PREDICTED BY IDOCK:   -1.84 KCAL/MOL
REMARK 924 INTRA-LIGAND FREE ENERGY PREDICTED BY IDOCK:   -0.12 KCAL/MOL
REMARK 927      BINDING AFFINITY PREDICTED BY RF-SCORE:    0.00 PKD
ROOT
HETATM    1  C   UNL     1      -7.034   5.401  73.674  1.00  0.00    -0.085 C  
HETATM    2  C   UNL     1      -8.424   5.841  73.242  1.00  0.00    -0.116 C  
ENDROOT
BRANCH   2   3
HETATM    3  C   UNL     1      -8.951   6.977  74.119  1.00  0.00    -0.233 C  
BRANCH   3   4
HETATM    4  C   UNL     1      -8.605   8.341  73.526  1.00  0.00    -0.269 C  
BRANCH   4   5
HETATM    5  C   UNL     1      -9.201   8.521  72.133  1.00  0.00    -0.266 C  
BRANCH   5   6
HETATM    6  O   UNL     1      -8.129   8.729  71.216  1.00  0.00    -0.136 OA 
BRANCH   6   7
HETATM    7  N   UNL     1      -8.290   9.970  70.609  1.00  0.00    -0.345 NA 
HETATM    8  O   UNL     1      -9.476  10.171  70.326  1.00  0.00    -0.389 OA 
HETATM    9  H   UNL     1      -7.686  10.071  69.793  1.00  0.00     0.000 HD 
HETATM   10  H   UNL     1      -9.586  11.018  69.911  1.00  0.00     0.000 HD 
ENDBRANCH   6   7
ENDBRANCH   5   6
ENDBRANCH   4   5
ENDBRANCH   3   4
ENDBRANCH   2   3
TORSDOF 5
ENDMDL
MODEL      214
REMARK 921   NORMALIZED FREE ENERGY PREDICTED BY IDOCK:   -1.41 KCAL/MOL
REMARK 922        TOTAL FREE ENERGY PREDICTED BY IDOCK:   -1.95 KCAL/MOL
REMARK 923 INTER-LIGAND FREE ENERGY PREDICTED BY IDOCK:   -1.87 KCAL/MOL
REMARK 924 INTRA-LIGAND FREE ENERGY PREDICTED BY IDOCK:   -0.08 KCAL/MOL
REMARK 927      BINDING AFFINITY PREDICTED BY RF-SCORE:    0.00 PKD
ROOT
HETATM    1  C   UNL     1      -9.946   8.406  69.177  1.00  0.00    -0.197 C  
HETATM    2  C   UNL     1      -8.677   8.468  68.341  1.00  0.00    -0.143 C  
ENDROOT
BRANCH   2   3
HETATM    3  C   UNL     1      -8.195   9.907  68.158  1.00  0.00    -0.109 C  
BRANCH   3   4
HETATM    4  C   UNL     1      -9.303  10.795  67.595  1.00  0.00    -0.156 C  
BRANCH   4   5
HETATM    5  C   UNL     1      -9.339  12.158  68.280  1.00  0.00    -0.198 C  
BRANCH   5   6
HETATM    6  O   UNL     1     -10.613  12.748  68.026  1.00  0.00    -0.214 OA 
BRANCH   6   7
HETATM    7  N   UNL     1     -10.894  12.644  66.667  1.00  0.00    -0.254 NA 
HETATM    8  O   UNL     1     -12.100  12.452  66.481  1.00  0.00    -0.599 OA 
HETATM    9  H   UNL     1     -10.325  11.926  66.219  1.00  0.00     0.000 HD 
HETATM   10  H   UNL     1     -12.292  12.381  65.553  1.00  0.00     0.000 HD 
ENDBRANCH   6   7
ENDBRANCH   5   6
ENDBRANCH   4   5
ENDBRANCH   3   4
ENDBRANCH   2   3
TORSDOF 5
ENDMDL
MODEL      215
REMARK 921   NORMALIZED FREE ENERGY PREDICTED BY IDOCK:   -1.40 KCAL/MOL
REMARK 922        TOTAL FREE ENERGY PREDICTED BY IDOCK:   -1.94 KCAL/MOL
REMARK 923 INTER-LIGAND FREE ENERGY PREDICTED BY IDOCK:   -1.88 KCAL/MOL
REMARK 924 INTRA-LIGAND FREE ENERGY PREDICTED BY IDOCK:   -0.06 KCAL/MOL
REMARK 927      BINDING AFFINITY PREDICTED BY RF-SCORE:    0.00 PKD
ROOT
HETATM    1  C   UNL     1      -7.171   9.503  70.598  1.00  0.00    -0.130 C  
HETATM    2  C   UNL     1      -6.464   9.410  69.255  1.00  0.00    -0.044 C  
ENDROOT
BRANCH   2   3
HETATM    3  C   UNL     1      -7.448   9.542  68.093  1.00  0.00    -0.079 C  
BRANCH   3   4
HETATM    4  C   UNL     1      -8.221   8.244  67.870  1.00  0.00    -0.128 C  
BRANCH   4   5
HETATM    5  C   UNL     1      -9.539   8.487  67.142  1.00  0.00    -0.178 C  
BRANCH   5   6
HETATM    6  O   UNL     1     -10.339   7.314  67.271  1.00  0.00    -0.219 OA 
BRANCH   6   7
HETATM    7  N   UNL     1     -10.252   6.578  66.094  1.00  0.00    -0.404 NA 
HETATM    8  O   UNL     1     -10.924   5.544  66.169  1.00  0.00    -0.698 OA 
HETATM    9  H   UNL     1      -9.283   6.379  65.845  1.00  0.00     0.000 HD 
HETATM   10  H   UNL     1     -10.864   5.041  65.366  1.00  0.00     0.000 HD 
ENDBRANCH   6   7
ENDBRANCH   5   6
ENDBRANCH   4   5
ENDBRANCH   3   4
ENDBRANCH   2   3
TORSDOF 5
ENDMDL
MODEL      216
REMARK 921   NORMALIZED FREE ENERGY PREDICTED BY IDOCK:   -1.40 KCAL/MOL
REMARK 922        TOTAL FREE ENERGY PREDICTED BY IDOCK:   -1.93 KCAL/MOL
REMARK 923 INTER-LIGAND FREE ENERGY PREDICTED BY IDOCK:   -1.83 KCAL/MOL
REMARK 924 INTRA-LIGAND FREE ENERGY PREDICTED BY IDOCK:   -0.10 KCAL/MOL
REMARK 927      BINDING AFFINITY PREDICTED BY RF-SCORE:    0.00 PKD
ROOT
HETATM    1  C   UNL     1      -5.795  12.133  68.514  1.00  0.00    -0.053 C  
HETATM    2  C   UNL     1      -7.132  12.555  67.925  1.00  0.00    -0.111 C  
ENDROOT
BRANCH   2   3
HETATM    3  C   UNL     1      -7.647  13.843  68.566  1.00  0.00    -0.134 C  
BRANCH   3   4
HETATM    4  C   UNL     1      -9.031  14.211  68.034  1.00  0.00    -0.183 C  
BRANCH   4   5
HETATM    5  C   UNL     1      -8.954  14.852  66.652  1.00  0.00    -0.270 C  
BRANCH   5   6
HETATM    6  O   UNL     1     -10.280  14.953  66.137  1.00  0.00    -0.273 OA 
BRANCH   6   7
HETATM    7  N   UNL     1     -11.125  14.163  66.909  1.00  0.00    -0.301 NA 
HETATM    8  O   UNL     1     -12.309  14.433  66.684  1.00  0.00    -0.506 OA 
HETATM    9  H   UNL     1     -10.904  14.234  67.902  1.00  0.00     0.000 HD 
HETATM   10  H   UNL     1     -12.886  13.894  67.212  1.00  0.00     0.000 HD 
ENDBRANCH   6   7
ENDBRANCH   5   6
ENDBRANCH   4   5
ENDBRANCH   3   4
ENDBRANCH   2   3
TORSDOF 5
ENDMDL
MODEL      217
REMARK 921   NORMALIZED FREE ENERGY PREDICTED BY IDOCK:   -1.39 KCAL/MOL
REMARK 922        TOTAL FREE ENERGY PREDICTED BY IDOCK:   -1.92 KCAL/MOL
REMARK 923 INTER-LIGAND FREE ENERGY PREDICTED BY IDOCK:   -1.85 KCAL/MOL
REMARK 924 INTRA-LIGAND FREE ENERGY PREDICTED BY IDOCK:   -0.08 KCAL/MOL
REMARK 927      BINDING AFFINITY PREDICTED BY RF-SCORE:    0.00 PKD
ROOT
HETATM    1  C   UNL     1      -8.257   7.838  73.966  1.00  0.00    -0.268 C  
HETATM    2  C   UNL     1      -9.673   8.006  73.436  1.00  0.00    -0.239 C  
ENDROOT
BRANCH   2   3
HETATM    3  C   UNL     1      -9.869   7.266  72.113  1.00  0.00    -0.185 C  
BRANCH   3   4
HETATM    4  C   UNL     1     -10.599   8.138  71.093  1.00  0.00    -0.242 C  
BRANCH   4   5
HETATM    5  C   UNL     1      -9.943   9.507  70.945  1.00  0.00    -0.238 C  
BRANCH   5   6
HETATM    6  O   UNL     1      -9.779   9.771  69.553  1.00  0.00    -0.186 OA 
BRANCH   6   7
HETATM    7  N   UNL     1      -8.874  10.816  69.396  1.00  0.00    -0.387 NA 
HETATM    8  O   UNL     1      -7.787  10.399  68.983  1.00  0.00    -0.100 OA 
HETATM    9  H   UNL     1      -8.769  11.355  70.255  1.00  0.00     0.000 HD 
HETATM   10  H   UNL     1      -7.169  11.112  68.876  1.00  0.00     0.000 HD 
ENDBRANCH   6   7
ENDBRANCH   5   6
ENDBRANCH   4   5
ENDBRANCH   3   4
ENDBRANCH   2   3
TORSDOF 5
ENDMDL
MODEL      218
REMARK 921   NORMALIZED FREE ENERGY PREDICTED BY IDOCK:   -1.38 KCAL/MOL
REMARK 922        TOTAL FREE ENERGY PREDICTED BY IDOCK:   -1.92 KCAL/MOL
REMARK 923 INTER-LIGAND FREE ENERGY PREDICTED BY IDOCK:   -1.73 KCAL/MOL
REMARK 924 INTRA-LIGAND FREE ENERGY PREDICTED BY IDOCK:   -0.18 KCAL/MOL
REMARK 927      BINDING AFFINITY PREDICTED BY RF-SCORE:    0.00 PKD
ROOT
HETATM    1  C   UNL     1     -10.063  10.176  67.692  1.00  0.00    -0.231 C  
HETATM    2  C   UNL     1     -10.211   9.059  66.671  1.00  0.00    -0.333 C  
ENDROOT
BRANCH   2   3
HETATM    3  C   UNL     1      -9.720   9.491  65.290  1.00  0.00    -0.268 C  
BRANCH   3   4
HETATM    4  C   UNL     1      -8.501   8.679  64.856  1.00  0.00    -0.180 C  
BRANCH   4   5
HETATM    5  C   UNL     1      -8.276   7.470  65.758  1.00  0.00    -0.137 C  
BRANCH   5   6
HETATM    6  O   UNL     1      -8.586   6.296  65.011  1.00  0.00    -0.099 OA 
BRANCH   6   7
HETATM    7  N   UNL     1      -9.632   5.626  65.638  1.00  0.00    -0.366 NA 
HETATM    8  O   UNL     1      -9.281   5.193  66.739  1.00  0.00    -0.119 OA 
HETATM    9  H   UNL     1     -10.015   4.889  65.047  1.00  0.00     0.000 HD 
HETATM   10  H   UNL     1      -9.995   4.736  67.167  1.00  0.00     0.000 HD 
ENDBRANCH   6   7
ENDBRANCH   5   6
ENDBRANCH   4   5
ENDBRANCH   3   4
ENDBRANCH   2   3
TORSDOF 5
ENDMDL
MODEL      219
REMARK 921   NORMALIZED FREE ENERGY PREDICTED BY IDOCK:   -1.36 KCAL/MOL
REMARK 922        TOTAL FREE ENERGY PREDICTED BY IDOCK:   -1.89 KCAL/MOL
REMARK 923 INTER-LIGAND FREE ENERGY PREDICTED BY IDOCK:   -1.77 KCAL/MOL
REMARK 924 INTRA-LIGAND FREE ENERGY PREDICTED BY IDOCK:   -0.12 KCAL/MOL
REMARK 927      BINDING AFFINITY PREDICTED BY RF-SCORE:    0.00 PKD
ROOT
HETATM    1  C   UNL     1      -5.806  11.588  66.770  1.00  0.00    -0.143 C  
HETATM    2  C   UNL     1      -6.586  11.181  68.011  1.00  0.00    -0.058 C  
ENDROOT
BRANCH   2   3
HETATM    3  C   UNL     1      -7.915  10.521  67.646  1.00  0.00    -0.106 C  
BRANCH   3   4
HETATM    4  C   UNL     1      -7.776   9.643  66.405  1.00  0.00    -0.101 C  
BRANCH   4   5
HETATM    5  C   UNL     1      -8.747   8.466  66.431  1.00  0.00    -0.139 C  
BRANCH   5   6
HETATM    6  O   UNL     1     -10.072   8.987  66.510  1.00  0.00    -0.272 OA 
BRANCH   6   7
HETATM    7  N   UNL     1     -10.757   8.324  67.523  1.00  0.00    -0.486 NA 
HETATM    8  O   UNL     1     -11.097   9.110  68.413  1.00  0.00    -0.464 OA 
HETATM    9  H   UNL     1     -10.215   7.544  67.896  1.00  0.00     0.000 HD 
HETATM   10  H   UNL     1     -11.564   8.657  69.105  1.00  0.00     0.000 HD 
ENDBRANCH   6   7
ENDBRANCH   5   6
ENDBRANCH   4   5
ENDBRANCH   3   4
ENDBRANCH   2   3
TORSDOF 5
ENDMDL
MODEL      220
REMARK 921   NORMALIZED FREE ENERGY PREDICTED BY IDOCK:   -1.36 KCAL/MOL
REMARK 922        TOTAL FREE ENERGY PREDICTED BY IDOCK:   -1.88 KCAL/MOL
REMARK 923 INTER-LIGAND FREE ENERGY PREDICTED BY IDOCK:   -1.84 KCAL/MOL
REMARK 924 INTRA-LIGAND FREE ENERGY PREDICTED BY IDOCK:   -0.04 KCAL/MOL
REMARK 927      BINDING AFFINITY PREDICTED BY RF-SCORE:    0.00 PKD
ROOT
HETATM    1  C   UNL     1      -7.854   8.362  72.034  1.00  0.00    -0.171 C  
HETATM    2  C   UNL     1      -7.506   8.768  70.609  1.00  0.00    -0.079 C  
ENDROOT
BRANCH   2   3
HETATM    3  C   UNL     1      -8.557   9.709  70.021  1.00  0.00    -0.237 C  
BRANCH   3   4
HETATM    4  C   UNL     1      -7.931  10.688  69.030  1.00  0.00    -0.140 C  
BRANCH   4   5
HETATM    5  C   UNL     1      -8.984  11.348  68.145  1.00  0.00    -0.169 C  
BRANCH   5   6
HETATM    6  O   UNL     1      -8.643  12.726  68.005  1.00  0.00    -0.169 OA 
BRANCH   6   7
HETATM    7  N   UNL     1      -8.273  12.967  66.686  1.00  0.00    -0.404 NA 
HETATM    8  O   UNL     1      -9.256  13.268  66.000  1.00  0.00    -0.471 OA 
HETATM    9  H   UNL     1      -7.764  12.178  66.287  1.00  0.00     0.000 HD 
HETATM   10  H   UNL     1      -9.003  13.432  65.100  1.00  0.00     0.000 HD 
ENDBRANCH   6   7
ENDBRANCH   5   6
ENDBRANCH   4   5
ENDBRANCH   3   4
ENDBRANCH   2   3
TORSDOF 5
ENDMDL
MODEL      221
REMARK 921   NORMALIZED FREE ENERGY PREDICTED BY IDOCK:   -1.35 KCAL/MOL
REMARK 922        TOTAL FREE ENERGY PREDICTED BY IDOCK:   -1.87 KCAL/MOL
REMARK 923 INTER-LIGAND FREE ENERGY PREDICTED BY IDOCK:   -1.73 KCAL/MOL
REMARK 924 INTRA-LIGAND FREE ENERGY PREDICTED BY IDOCK:   -0.14 KCAL/MOL
REMARK 927      BINDING AFFINITY PREDICTED BY RF-SCORE:    0.00 PKD
ROOT
HETATM    1  C   UNL     1      -6.263   3.858  72.350  1.00  0.00    -0.013 C  
HETATM    2  C   UNL     1      -7.423   4.249  71.447  1.00  0.00    -0.059 C  
ENDROOT
BRANCH   2   3
HETATM    3  C   UNL     1      -8.636   4.706  72.256  1.00  0.00    -0.122 C  
BRANCH   3   4
HETATM    4  C   UNL     1      -8.801   6.223  72.198  1.00  0.00    -0.137 C  
BRANCH   4   5
HETATM    5  C   UNL     1     -10.012   6.629  71.364  1.00  0.00    -0.183 C  
BRANCH   5   6
HETATM    6  O   UNL     1     -10.994   5.601  71.478  1.00  0.00    -0.252 OA 
BRANCH   6   7
HETATM    7  N   UNL     1     -11.968   6.007  72.385  1.00  0.00    -0.483 NA 
HETATM    8  O   UNL     1     -12.220   5.107  73.193  1.00  0.00    -0.481 OA 
HETATM    9  H   UNL     1     -12.809   6.335  71.912  1.00  0.00     0.000 HD 
HETATM   10  H   UNL     1     -12.885   5.384  73.811  1.00  0.00     0.000 HD 
ENDBRANCH   6   7
ENDBRANCH   5   6
ENDBRANCH   4   5
ENDBRANCH   3   4
ENDBRANCH   2   3
TORSDOF 5
ENDMDL
MODEL      222
REMARK 921   NORMALIZED FREE ENERGY PREDICTED BY IDOCK:   -1.34 KCAL/MOL
REMARK 922        TOTAL FREE ENERGY PREDICTED BY IDOCK:   -1.86 KCAL/MOL
REMARK 923 INTER-LIGAND FREE ENERGY PREDICTED BY IDOCK:   -1.80 KCAL/MOL
REMARK 924 INTRA-LIGAND FREE ENERGY PREDICTED BY IDOCK:   -0.06 KCAL/MOL
REMARK 927      BINDING AFFINITY PREDICTED BY RF-SCORE:    0.00 PKD
ROOT
HETATM    1  C   UNL     1     -11.317   6.546  70.116  1.00  0.00    -0.463 C  
HETATM    2  C   UNL     1     -10.679   7.927  70.129  1.00  0.00    -0.244 C  
ENDROOT
BRANCH   2   3
HETATM    3  C   UNL     1     -10.649   8.545  68.731  1.00  0.00    -0.162 C  
BRANCH   3   4
HETATM    4  C   UNL     1      -9.216   8.769  68.255  1.00  0.00    -0.143 C  
BRANCH   4   5
HETATM    5  C   UNL     1      -8.915   7.990  66.978  1.00  0.00    -0.138 C  
BRANCH   5   6
HETATM    6  O   UNL     1      -8.538   8.924  65.968  1.00  0.00    -0.130 OA 
BRANCH   6   7
HETATM    7  N   UNL     1      -8.728   8.338  64.720  1.00  0.00    -0.404 NA 
HETATM    8  O   UNL     1      -7.752   8.533  63.989  1.00  0.00    -0.121 OA 
HETATM    9  H   UNL     1      -9.595   8.653  64.284  1.00  0.00     0.000 HD 
HETATM   10  H   UNL     1      -7.883   8.134  63.137  1.00  0.00     0.000 HD 
ENDBRANCH   6   7
ENDBRANCH   5   6
ENDBRANCH   4   5
ENDBRANCH   3   4
ENDBRANCH   2   3
TORSDOF 5
ENDMDL
MODEL      223
REMARK 921   NORMALIZED FREE ENERGY PREDICTED BY IDOCK:   -1.33 KCAL/MOL
REMARK 922        TOTAL FREE ENERGY PREDICTED BY IDOCK:   -1.85 KCAL/MOL
REMARK 923 INTER-LIGAND FREE ENERGY PREDICTED BY IDOCK:   -1.70 KCAL/MOL
REMARK 924 INTRA-LIGAND FREE ENERGY PREDICTED BY IDOCK:   -0.15 KCAL/MOL
REMARK 927      BINDING AFFINITY PREDICTED BY RF-SCORE:    0.00 PKD
ROOT
HETATM    1  C   UNL     1      -6.778   8.585  64.138  1.00  0.00    -0.075 C  
HETATM    2  C   UNL     1      -7.346   7.983  65.414  1.00  0.00    -0.069 C  
ENDROOT
BRANCH   2   3
HETATM    3  C   UNL     1      -8.041   9.040  66.272  1.00  0.00    -0.110 C  
BRANCH   3   4
HETATM    4  C   UNL     1      -9.555   9.007  66.073  1.00  0.00    -0.342 C  
BRANCH   4   5
HETATM    5  C   UNL     1     -10.113  10.389  65.747  1.00  0.00    -0.262 C  
BRANCH   5   6
HETATM    6  O   UNL     1     -10.356  11.070  66.976  1.00  0.00    -0.209 OA 
BRANCH   6   7
HETATM    7  N   UNL     1      -9.687  12.290  66.956  1.00  0.00    -0.201 NA 
HETATM    8  O   UNL     1      -9.321  12.572  65.810  1.00  0.00    -0.434 OA 
HETATM    9  H   UNL     1      -8.908  12.303  67.614  1.00  0.00     0.000 HD 
HETATM   10  H   UNL     1      -8.863  13.404  65.796  1.00  0.00     0.000 HD 
ENDBRANCH   6   7
ENDBRANCH   5   6
ENDBRANCH   4   5
ENDBRANCH   3   4
ENDBRANCH   2   3
TORSDOF 5
ENDMDL
MODEL      224
REMARK 921   NORMALIZED FREE ENERGY PREDICTED BY IDOCK:   -1.30 KCAL/MOL
REMARK 922        TOTAL FREE ENERGY PREDICTED BY IDOCK:   -1.81 KCAL/MOL
REMARK 923 INTER-LIGAND FREE ENERGY PREDICTED BY IDOCK:   -1.73 KCAL/MOL
REMARK 924 INTRA-LIGAND FREE ENERGY PREDICTED BY IDOCK:   -0.08 KCAL/MOL
REMARK 927      BINDING AFFINITY PREDICTED BY RF-SCORE:    0.00 PKD
ROOT
HETATM    1  C   UNL     1      -7.017   6.024  69.373  1.00  0.00    -0.064 C  
HETATM    2  C   UNL     1      -7.023   7.526  69.613  1.00  0.00    -0.053 C  
ENDROOT
BRANCH   2   3
HETATM    3  C   UNL     1      -8.344   8.158  69.176  1.00  0.00    -0.131 C  
BRANCH   3   4
HETATM    4  C   UNL     1      -8.669   9.396  70.009  1.00  0.00    -0.227 C  
BRANCH   4   5
HETATM    5  C   UNL     1      -9.701  10.286  69.324  1.00  0.00    -0.225 C  
BRANCH   5   6
HETATM    6  O   UNL     1     -10.989   9.706  69.525  1.00  0.00    -0.232 OA 
BRANCH   6   7
HETATM    7  N   UNL     1     -11.586  10.305  70.629  1.00  0.00    -0.323 NA 
HETATM    8  O   UNL     1     -11.639  11.532  70.489  1.00  0.00    -0.479 OA 
HETATM    9  H   UNL     1     -11.119  10.046  71.497  1.00  0.00     0.000 HD 
HETATM   10  H   UNL     1     -12.047  11.941  71.243  1.00  0.00     0.000 HD 
ENDBRANCH   6   7
ENDBRANCH   5   6
ENDBRANCH   4   5
ENDBRANCH   3   4
ENDBRANCH   2   3
TORSDOF 5
ENDMDL
MODEL      225
REMARK 921   NORMALIZED FREE ENERGY PREDICTED BY IDOCK:   -1.29 KCAL/MOL
REMARK 922        TOTAL FREE ENERGY PREDICTED BY IDOCK:   -1.80 KCAL/MOL
REMARK 923 INTER-LIGAND FREE ENERGY PREDICTED BY IDOCK:   -1.74 KCAL/MOL
REMARK 924 INTRA-LIGAND FREE ENERGY PREDICTED BY IDOCK:   -0.06 KCAL/MOL
REMARK 927      BINDING AFFINITY PREDICTED BY RF-SCORE:    0.00 PKD
ROOT
HETATM    1  C   UNL     1      -7.100   6.071  69.461  1.00  0.00    -0.069 C  
HETATM    2  C   UNL     1      -7.193   7.434  70.131  1.00  0.00    -0.070 C  
ENDROOT
BRANCH   2   3
HETATM    3  C   UNL     1      -8.603   8.015  70.028  1.00  0.00    -0.134 C  
BRANCH   3   4
HETATM    4  C   UNL     1      -8.974   8.795  71.287  1.00  0.00    -0.295 C  
BRANCH   4   5
HETATM    5  C   UNL     1     -10.133   9.755  71.037  1.00  0.00     0.022 C  
BRANCH   5   6
HETATM    6  O   UNL     1     -11.331   8.987  70.938  1.00  0.00    -0.267 OA 
BRANCH   6   7
HETATM    7  N   UNL     1     -12.048   9.117  72.123  1.00  0.00    -0.348 NA 
HETATM    8  O   UNL     1     -12.017   8.067  72.774  1.00  0.00    -0.576 OA 
HETATM    9  H   UNL     1     -13.004   9.427  71.953  1.00  0.00     0.000 HD 
HETATM   10  H   UNL     1     -12.507   8.155  73.583  1.00  0.00     0.000 HD 
ENDBRANCH   6   7
ENDBRANCH   5   6
ENDBRANCH   4   5
ENDBRANCH   3   4
ENDBRANCH   2   3
TORSDOF 5
ENDMDL
MODEL      226
REMARK 921   NORMALIZED FREE ENERGY PREDICTED BY IDOCK:   -1.27 KCAL/MOL
REMARK 922        TOTAL FREE ENERGY PREDICTED BY IDOCK:   -1.78 KCAL/MOL
REMARK 923 INTER-LIGAND FREE ENERGY PREDICTED BY IDOCK:   -1.67 KCAL/MOL
REMARK 924 INTRA-LIGAND FREE ENERGY PREDICTED BY IDOCK:   -0.10 KCAL/MOL
REMARK 927      BINDING AFFINITY PREDICTED BY RF-SCORE:    0.00 PKD
ROOT
HETATM    1  C   UNL     1     -11.234   5.943  70.104  1.00  0.00    -0.338 C  
HETATM    2  C   UNL     1     -10.831   7.129  69.242  1.00  0.00    -0.204 C  
ENDROOT
BRANCH   2   3
HETATM    3  C   UNL     1      -9.341   7.099  68.906  1.00  0.00    -0.139 C  
BRANCH   3   4
HETATM    4  C   UNL     1      -8.796   8.508  68.678  1.00  0.00    -0.136 C  
BRANCH   4   5
HETATM    5  C   UNL     1      -8.706   9.299  69.979  1.00  0.00    -0.195 C  
BRANCH   5   6
HETATM    6  O   UNL     1      -7.919   8.547  70.901  1.00  0.00    -0.089 OA 
BRANCH   6   7
HETATM    7  N   UNL     1      -6.868   9.340  71.348  1.00  0.00    -0.275 NA 
HETATM    8  O   UNL     1      -6.785   9.308  72.580  1.00  0.00    -0.299 OA 
HETATM    9  H   UNL     1      -6.943  10.296  71.001  1.00  0.00     0.000 HD 
HETATM   10  H   UNL     1      -6.067   9.850  72.885  1.00  0.00     0.000 HD 
ENDBRANCH   6   7
ENDBRANCH   5   6
ENDBRANCH   4   5
ENDBRANCH   3   4
ENDBRANCH   2   3
TORSDOF 5
ENDMDL
MODEL      227
REMARK 921   NORMALIZED FREE ENERGY PREDICTED BY IDOCK:   -1.27 KCAL/MOL
REMARK 922        TOTAL FREE ENERGY PREDICTED BY IDOCK:   -1.77 KCAL/MOL
REMARK 923 INTER-LIGAND FREE ENERGY PREDICTED BY IDOCK:   -1.71 KCAL/MOL
REMARK 924 INTRA-LIGAND FREE ENERGY PREDICTED BY IDOCK:   -0.06 KCAL/MOL
REMARK 927      BINDING AFFINITY PREDICTED BY RF-SCORE:    0.00 PKD
ROOT
HETATM    1  C   UNL     1     -10.795  11.999  68.798  1.00  0.00    -0.267 C  
HETATM    2  C   UNL     1     -11.618  10.858  68.218  1.00  0.00    -0.335 C  
ENDROOT
BRANCH   2   3
HETATM    3  C   UNL     1     -11.013   9.498  68.564  1.00  0.00    -0.109 C  
BRANCH   3   4
HETATM    4  C   UNL     1     -10.292   8.891  67.362  1.00  0.00    -0.337 C  
BRANCH   4   5
HETATM    5  C   UNL     1     -10.894   7.548  66.960  1.00  0.00    -0.194 C  
BRANCH   5   6
HETATM    6  O   UNL     1      -9.823   6.656  66.657  1.00  0.00    -0.173 OA 
BRANCH   6   7
HETATM    7  N   UNL     1     -10.123   5.400  67.174  1.00  0.00    -0.176 NA 
HETATM    8  O   UNL     1      -9.386   5.128  68.127  1.00  0.00    -0.113 OA 
HETATM    9  H   UNL     1     -10.090   4.678  66.455  1.00  0.00     0.000 HD 
HETATM   10  H   UNL     1      -9.590   4.271  68.480  1.00  0.00     0.000 HD 
ENDBRANCH   6   7
ENDBRANCH   5   6
ENDBRANCH   4   5
ENDBRANCH   3   4
ENDBRANCH   2   3
TORSDOF 5
ENDMDL
MODEL      228
REMARK 921   NORMALIZED FREE ENERGY PREDICTED BY IDOCK:   -1.26 KCAL/MOL
REMARK 922        TOTAL FREE ENERGY PREDICTED BY IDOCK:   -1.76 KCAL/MOL
REMARK 923 INTER-LIGAND FREE ENERGY PREDICTED BY IDOCK:   -1.54 KCAL/MOL
REMARK 924 INTRA-LIGAND FREE ENERGY PREDICTED BY IDOCK:   -0.22 KCAL/MOL
REMARK 927      BINDING AFFINITY PREDICTED BY RF-SCORE:    0.00 PKD
ROOT
HETATM    1  C   UNL     1     -11.317   6.546  70.116  1.00  0.00    -0.463 C  
HETATM    2  C   UNL     1     -10.679   7.927  70.129  1.00  0.00    -0.244 C  
ENDROOT
BRANCH   2   3
HETATM    3  C   UNL     1     -10.649   8.545  68.731  1.00  0.00    -0.162 C  
BRANCH   3   4
HETATM    4  C   UNL     1      -9.216   8.769  68.255  1.00  0.00    -0.143 C  
BRANCH   4   5
HETATM    5  C   UNL     1      -8.915   7.990  66.978  1.00  0.00    -0.138 C  
BRANCH   5   6
HETATM    6  O   UNL     1      -8.485   6.682  67.349  1.00  0.00    -0.120 OA 
BRANCH   6   7
HETATM    7  N   UNL     1      -9.255   5.745  66.669  1.00  0.00    -0.133 NA 
HETATM    8  O   UNL     1      -9.636   4.850  67.431  1.00  0.00    -0.135 OA 
HETATM    9  H   UNL     1      -8.762   5.366  65.861  1.00  0.00     0.000 HD 
HETATM   10  H   UNL     1     -10.162   4.210  66.966  1.00  0.00     0.000 HD 
ENDBRANCH   6   7
ENDBRANCH   5   6
ENDBRANCH   4   5
ENDBRANCH   3   4
ENDBRANCH   2   3
TORSDOF 5
ENDMDL
MODEL      229
REMARK 921   NORMALIZED FREE ENERGY PREDICTED BY IDOCK:   -1.25 KCAL/MOL
REMARK 922        TOTAL FREE ENERGY PREDICTED BY IDOCK:   -1.75 KCAL/MOL
REMARK 923 INTER-LIGAND FREE ENERGY PREDICTED BY IDOCK:   -1.59 KCAL/MOL
REMARK 924 INTRA-LIGAND FREE ENERGY PREDICTED BY IDOCK:   -0.17 KCAL/MOL
REMARK 927      BINDING AFFINITY PREDICTED BY RF-SCORE:    0.00 PKD
ROOT
HETATM    1  C   UNL     1     -11.340   1.730  62.839  1.00  0.00    -0.261 C  
HETATM    2  C   UNL     1     -10.898   3.028  63.498  1.00  0.00    -0.204 C  
ENDROOT
BRANCH   2   3
HETATM    3  C   UNL     1      -9.375   3.136  63.558  1.00  0.00    -0.096 C  
BRANCH   3   4
HETATM    4  C   UNL     1      -8.931   4.107  64.650  1.00  0.00    -0.141 C  
BRANCH   4   5
HETATM    5  C   UNL     1     -10.032   4.344  65.679  1.00  0.00    -0.236 C  
BRANCH   5   6
HETATM    6  O   UNL     1      -9.490   4.089  66.973  1.00  0.00    -0.174 OA 
BRANCH   6   7
HETATM    7  N   UNL     1      -9.580   2.726  67.239  1.00  0.00    -0.398 NA 
HETATM    8  O   UNL     1      -8.616   2.343  67.908  1.00  0.00    -0.076 OA 
HETATM    9  H   UNL     1      -9.685   2.182  66.383  1.00  0.00     0.000 HD 
HETATM   10  H   UNL     1      -8.678   1.412  68.089  1.00  0.00     0.000 HD 
ENDBRANCH   6   7
ENDBRANCH   5   6
ENDBRANCH   4   5
ENDBRANCH   3   4
ENDBRANCH   2   3
TORSDOF 5
ENDMDL
MODEL      230
REMARK 921   NORMALIZED FREE ENERGY PREDICTED BY IDOCK:   -1.23 KCAL/MOL
REMARK 922        TOTAL FREE ENERGY PREDICTED BY IDOCK:   -1.72 KCAL/MOL
REMARK 923 INTER-LIGAND FREE ENERGY PREDICTED BY IDOCK:   -1.64 KCAL/MOL
REMARK 924 INTRA-LIGAND FREE ENERGY PREDICTED BY IDOCK:   -0.08 KCAL/MOL
REMARK 927      BINDING AFFINITY PREDICTED BY RF-SCORE:    0.00 PKD
ROOT
HETATM    1  C   UNL     1      -9.667  10.785  67.913  1.00  0.00    -0.181 C  
HETATM    2  C   UNL     1      -9.382  10.310  69.330  1.00  0.00    -0.221 C  
ENDROOT
BRANCH   2   3
HETATM    3  C   UNL     1     -10.674  10.072  70.112  1.00  0.00    -0.361 C  
BRANCH   3   4
HETATM    4  C   UNL     1     -10.736   8.648  70.658  1.00  0.00    -0.259 C  
BRANCH   4   5
HETATM    5  C   UNL     1     -10.689   7.610  69.540  1.00  0.00    -0.209 C  
BRANCH   5   6
HETATM    6  O   UNL     1     -10.108   6.419  70.067  1.00  0.00    -0.167 OA 
BRANCH   6   7
HETATM    7  N   UNL     1      -9.558   5.686  69.020  1.00  0.00    -0.129 NA 
HETATM    8  O   UNL     1     -10.444   5.170  68.330  1.00  0.00    -0.118 OA 
HETATM    9  H   UNL     1      -8.890   4.992  69.356  1.00  0.00     0.000 HD 
HETATM   10  H   UNL     1     -10.068   4.669  67.616  1.00  0.00     0.000 HD 
ENDBRANCH   6   7
ENDBRANCH   5   6
ENDBRANCH   4   5
ENDBRANCH   3   4
ENDBRANCH   2   3
TORSDOF 5
ENDMDL
MODEL      231
REMARK 921   NORMALIZED FREE ENERGY PREDICTED BY IDOCK:   -1.22 KCAL/MOL
REMARK 922        TOTAL FREE ENERGY PREDICTED BY IDOCK:   -1.71 KCAL/MOL
REMARK 923 INTER-LIGAND FREE ENERGY PREDICTED BY IDOCK:   -1.56 KCAL/MOL
REMARK 924 INTRA-LIGAND FREE ENERGY PREDICTED BY IDOCK:   -0.15 KCAL/MOL
REMARK 927      BINDING AFFINITY PREDICTED BY RF-SCORE:    0.00 PKD
ROOT
HETATM    1  C   UNL     1     -11.343   6.227  69.721  1.00  0.00    -0.506 C  
HETATM    2  C   UNL     1     -10.687   6.619  71.036  1.00  0.00    -0.278 C  
ENDROOT
BRANCH   2   3
HETATM    3  C   UNL     1     -10.741   5.479  72.052  1.00  0.00    -0.293 C  
BRANCH   3   4
HETATM    4  C   UNL     1      -9.967   4.259  71.557  1.00  0.00    -0.243 C  
BRANCH   4   5
HETATM    5  C   UNL     1      -8.483   4.355  71.894  1.00  0.00    -0.111 C  
BRANCH   5   6
HETATM    6  O   UNL     1      -7.743   4.200  70.684  1.00  0.00    -0.047 OA 
BRANCH   6   7
HETATM    7  N   UNL     1      -7.153   5.417  70.359  1.00  0.00    -0.060 NA 
HETATM    8  O   UNL     1      -5.946   5.406  70.625  1.00  0.00    -0.020 OA 
HETATM    9  H   UNL     1      -7.630   6.199  70.807  1.00  0.00     0.000 HD 
HETATM   10  H   UNL     1      -5.543   6.238  70.403  1.00  0.00     0.000 HD 
ENDBRANCH   6   7
ENDBRANCH   5   6
ENDBRANCH   4   5
ENDBRANCH   3   4
ENDBRANCH   2   3
TORSDOF 5
ENDMDL
MODEL      232
REMARK 921   NORMALIZED FREE ENERGY PREDICTED BY IDOCK:   -1.22 KCAL/MOL
REMARK 922        TOTAL FREE ENERGY PREDICTED BY IDOCK:   -1.71 KCAL/MOL
REMARK 923 INTER-LIGAND FREE ENERGY PREDICTED BY IDOCK:   -1.49 KCAL/MOL
REMARK 924 INTRA-LIGAND FREE ENERGY PREDICTED BY IDOCK:   -0.22 KCAL/MOL
REMARK 927      BINDING AFFINITY PREDICTED BY RF-SCORE:    0.00 PKD
ROOT
HETATM    1  C   UNL     1      -7.839   7.826  70.922  1.00  0.00    -0.089 C  
HETATM    2  C   UNL     1      -9.023   6.980  70.480  1.00  0.00    -0.155 C  
ENDROOT
BRANCH   2   3
HETATM    3  C   UNL     1     -10.296   7.817  70.356  1.00  0.00    -0.212 C  
BRANCH   3   4
HETATM    4  C   UNL     1     -10.735   7.946  68.899  1.00  0.00    -0.098 C  
BRANCH   4   5
HETATM    5  C   UNL     1     -10.309   9.281  68.295  1.00  0.00    -0.217 C  
BRANCH   5   6
HETATM    6  O   UNL     1      -9.108   9.069  67.555  1.00  0.00    -0.131 OA 
BRANCH   6   7
HETATM    7  N   UNL     1      -9.262   7.937  66.761  1.00  0.00    -0.156 NA 
HETATM    8  O   UNL     1      -9.462   8.250  65.583  1.00  0.00    -0.429 OA 
HETATM    9  H   UNL     1      -9.995   7.324  67.117  1.00  0.00     0.000 HD 
HETATM   10  H   UNL     1      -9.567   7.477  65.041  1.00  0.00     0.000 HD 
ENDBRANCH   6   7
ENDBRANCH   5   6
ENDBRANCH   4   5
ENDBRANCH   3   4
ENDBRANCH   2   3
TORSDOF 5
ENDMDL
MODEL      233
REMARK 921   NORMALIZED FREE ENERGY PREDICTED BY IDOCK:   -1.19 KCAL/MOL
REMARK 922        TOTAL FREE ENERGY PREDICTED BY IDOCK:   -1.66 KCAL/MOL
REMARK 923 INTER-LIGAND FREE ENERGY PREDICTED BY IDOCK:   -1.61 KCAL/MOL
REMARK 924 INTRA-LIGAND FREE ENERGY PREDICTED BY IDOCK:   -0.05 KCAL/MOL
REMARK 927      BINDING AFFINITY PREDICTED BY RF-SCORE:    0.00 PKD
ROOT
HETATM    1  C   UNL     1      -8.848  14.798  67.472  1.00  0.00    -0.197 C  
HETATM    2  C   UNL     1      -7.780  13.852  68.003  1.00  0.00    -0.151 C  
ENDROOT
BRANCH   2   3
HETATM    3  C   UNL     1      -8.145  12.391  67.741  1.00  0.00    -0.162 C  
BRANCH   3   4
HETATM    4  C   UNL     1      -6.903  11.502  67.741  1.00  0.00    -0.077 C  
BRANCH   4   5
HETATM    5  C   UNL     1      -6.800  10.673  66.465  1.00  0.00    -0.124 C  
BRANCH   5   6
HETATM    6  O   UNL     1      -5.856  11.304  65.602  1.00  0.00    -0.096 OA 
BRANCH   6   7
HETATM    7  N   UNL     1      -5.838  10.631  64.385  1.00  0.00    -0.352 NA 
HETATM    8  O   UNL     1      -5.253  11.294  63.523  1.00  0.00    -0.452 OA 
HETATM    9  H   UNL     1      -6.777  10.370  64.085  1.00  0.00     0.000 HD 
HETATM   10  H   UNL     1      -5.241  10.835  62.692  1.00  0.00     0.000 HD 
ENDBRANCH   6   7
ENDBRANCH   5   6
ENDBRANCH   4   5
ENDBRANCH   3   4
ENDBRANCH   2   3
TORSDOF 5
ENDMDL
MODEL      234
REMARK 921   NORMALIZED FREE ENERGY PREDICTED BY IDOCK:   -1.17 KCAL/MOL
REMARK 922        TOTAL FREE ENERGY PREDICTED BY IDOCK:   -1.64 KCAL/MOL
REMARK 923 INTER-LIGAND FREE ENERGY PREDICTED BY IDOCK:   -1.57 KCAL/MOL
REMARK 924 INTRA-LIGAND FREE ENERGY PREDICTED BY IDOCK:   -0.07 KCAL/MOL
REMARK 927      BINDING AFFINITY PREDICTED BY RF-SCORE:    0.00 PKD
ROOT
HETATM    1  C   UNL     1      -6.036  12.155  67.331  1.00  0.00    -0.143 C  
HETATM    2  C   UNL     1      -6.625  10.784  67.626  1.00  0.00    -0.061 C  
ENDROOT
BRANCH   2   3
HETATM    3  C   UNL     1      -7.396  10.777  68.946  1.00  0.00    -0.104 C  
BRANCH   3   4
HETATM    4  C   UNL     1      -8.844  10.340  68.740  1.00  0.00    -0.148 C  
BRANCH   4   5
HETATM    5  C   UNL     1      -9.485   9.868  70.041  1.00  0.00    -0.202 C  
BRANCH   5   6
HETATM    6  O   UNL     1     -10.888  10.113  69.959  1.00  0.00    -0.266 OA 
BRANCH   6   7
HETATM    7  N   UNL     1     -11.569   8.976  70.380  1.00  0.00    -0.429 NA 
HETATM    8  O   UNL     1     -10.779   8.074  70.678  1.00  0.00    -0.220 OA 
HETATM    9  H   UNL     1     -12.250   8.666  69.687  1.00  0.00     0.000 HD 
HETATM   10  H   UNL     1     -11.244   7.298  70.966  1.00  0.00     0.000 HD 
ENDBRANCH   6   7
ENDBRANCH   5   6
ENDBRANCH   4   5
ENDBRANCH   3   4
ENDBRANCH   2   3
TORSDOF 5
ENDMDL
MODEL      235
REMARK 921   NORMALIZED FREE ENERGY PREDICTED BY IDOCK:   -1.15 KCAL/MOL
REMARK 922        TOTAL FREE ENERGY PREDICTED BY IDOCK:   -1.62 KCAL/MOL
REMARK 923 INTER-LIGAND FREE ENERGY PREDICTED BY IDOCK:   -1.50 KCAL/MOL
REMARK 924 INTRA-LIGAND FREE ENERGY PREDICTED BY IDOCK:   -0.12 KCAL/MOL
REMARK 927      BINDING AFFINITY PREDICTED BY RF-SCORE:    0.00 PKD
ROOT
HETATM    1  C   UNL     1      -6.060   9.947  67.078  1.00  0.00    -0.059 C  
HETATM    2  C   UNL     1      -6.559   8.573  66.656  1.00  0.00    -0.060 C  
ENDROOT
BRANCH   2   3
HETATM    3  C   UNL     1      -7.489   8.660  65.447  1.00  0.00    -0.086 C  
BRANCH   3   4
HETATM    4  C   UNL     1      -8.950   8.489  65.858  1.00  0.00    -0.235 C  
BRANCH   4   5
HETATM    5  C   UNL     1      -9.784   9.718  65.511  1.00  0.00    -0.312 C  
BRANCH   5   6
HETATM    6  O   UNL     1      -9.841  10.555  66.665  1.00  0.00    -0.186 OA 
BRANCH   6   7
HETATM    7  N   UNL     1     -11.174  10.757  67.009  1.00  0.00    -0.310 NA 
HETATM    8  O   UNL     1     -11.278  11.082  68.196  1.00  0.00    -0.253 OA 
HETATM    9  H   UNL     1     -11.747   9.943  66.789  1.00  0.00     0.000 HD 
HETATM   10  H   UNL     1     -12.188  11.220  68.430  1.00  0.00     0.000 HD 
ENDBRANCH   6   7
ENDBRANCH   5   6
ENDBRANCH   4   5
ENDBRANCH   3   4
ENDBRANCH   2   3
TORSDOF 5
ENDMDL
MODEL      236
REMARK 921   NORMALIZED FREE ENERGY PREDICTED BY IDOCK:   -1.15 KCAL/MOL
REMARK 922        TOTAL FREE ENERGY PREDICTED BY IDOCK:   -1.61 KCAL/MOL
REMARK 923 INTER-LIGAND FREE ENERGY PREDICTED BY IDOCK:   -1.49 KCAL/MOL
REMARK 924 INTRA-LIGAND FREE ENERGY PREDICTED BY IDOCK:   -0.12 KCAL/MOL
REMARK 927      BINDING AFFINITY PREDICTED BY RF-SCORE:    0.00 PKD
ROOT
HETATM    1  C   UNL     1     -11.019   6.872  70.102  1.00  0.00    -0.322 C  
HETATM    2  C   UNL     1     -10.616   8.283  69.704  1.00  0.00    -0.222 C  
ENDROOT
BRANCH   2   3
HETATM    3  C   UNL     1     -10.484   8.423  68.188  1.00  0.00    -0.228 C  
BRANCH   3   4
HETATM    4  C   UNL     1     -10.460   9.890  67.766  1.00  0.00    -0.292 C  
BRANCH   4   5
HETATM    5  C   UNL     1      -9.263  10.204  66.875  1.00  0.00    -0.146 C  
BRANCH   5   6
HETATM    6  O   UNL     1      -8.188  10.630  67.710  1.00  0.00    -0.110 OA 
BRANCH   6   7
HETATM    7  N   UNL     1      -7.155   9.703  67.623  1.00  0.00    -0.087 NA 
HETATM    8  O   UNL     1      -6.891   9.448  66.443  1.00  0.00    -0.081 OA 
HETATM    9  H   UNL     1      -7.362   8.857  68.154  1.00  0.00     0.000 HD 
HETATM   10  H   UNL     1      -6.186   8.814  66.384  1.00  0.00     0.000 HD 
ENDBRANCH   6   7
ENDBRANCH   5   6
ENDBRANCH   4   5
ENDBRANCH   3   4
ENDBRANCH   2   3
TORSDOF 5
ENDMDL
MODEL      237
REMARK 921   NORMALIZED FREE ENERGY PREDICTED BY IDOCK:   -1.13 KCAL/MOL
REMARK 922        TOTAL FREE ENERGY PREDICTED BY IDOCK:   -1.59 KCAL/MOL
REMARK 923 INTER-LIGAND FREE ENERGY PREDICTED BY IDOCK:   -1.59 KCAL/MOL
REMARK 924 INTRA-LIGAND FREE ENERGY PREDICTED BY IDOCK:    0.01 KCAL/MOL
REMARK 927      BINDING AFFINITY PREDICTED BY RF-SCORE:    0.00 PKD
ROOT
HETATM    1  C   UNL     1      -7.712   7.582  72.440  1.00  0.00    -0.105 C  
HETATM    2  C   UNL     1      -8.490   6.641  73.348  1.00  0.00    -0.129 C  
ENDROOT
BRANCH   2   3
HETATM    3  C   UNL     1      -9.981   6.975  73.359  1.00  0.00    -0.296 C  
BRANCH   3   4
HETATM    4  C   UNL     1     -10.749   6.115  72.359  1.00  0.00    -0.267 C  
BRANCH   4   5
HETATM    5  C   UNL     1     -10.675   6.685  70.945  1.00  0.00    -0.235 C  
BRANCH   5   6
HETATM    6  O   UNL     1     -11.189   5.706  70.045  1.00  0.00    -0.267 OA 
BRANCH   6   7
HETATM    7  N   UNL     1     -10.285   4.651  69.964  1.00  0.00    -0.195 NA 
HETATM    8  O   UNL     1      -9.281   4.980  69.323  1.00  0.00    -0.099 OA 
HETATM    9  H   UNL     1     -10.719   3.812  69.580  1.00  0.00     0.000 HD 
HETATM   10  H   UNL     1      -8.665   4.259  69.268  1.00  0.00     0.000 HD 
ENDBRANCH   6   7
ENDBRANCH   5   6
ENDBRANCH   4   5
ENDBRANCH   3   4
ENDBRANCH   2   3
TORSDOF 5
ENDMDL
MODEL      238
REMARK 921   NORMALIZED FREE ENERGY PREDICTED BY IDOCK:   -1.12 KCAL/MOL
REMARK 922        TOTAL FREE ENERGY PREDICTED BY IDOCK:   -1.58 KCAL/MOL
REMARK 923 INTER-LIGAND FREE ENERGY PREDICTED BY IDOCK:   -1.45 KCAL/MOL
REMARK 924 INTRA-LIGAND FREE ENERGY PREDICTED BY IDOCK:   -0.13 KCAL/MOL
REMARK 927      BINDING AFFINITY PREDICTED BY RF-SCORE:    0.00 PKD
ROOT
HETATM    1  C   UNL     1     -11.313   6.217  69.639  1.00  0.00    -0.492 C  
HETATM    2  C   UNL     1     -10.397   6.619  70.785  1.00  0.00    -0.232 C  
ENDROOT
BRANCH   2   3
HETATM    3  C   UNL     1     -10.167   5.459  71.753  1.00  0.00    -0.263 C  
BRANCH   3   4
HETATM    4  C   UNL     1      -9.843   4.168  71.004  1.00  0.00    -0.247 C  
BRANCH   4   5
HETATM    5  C   UNL     1      -8.360   4.069  70.661  1.00  0.00    -0.069 C  
BRANCH   5   6
HETATM    6  O   UNL     1      -7.904   2.771  71.035  1.00  0.00    -0.045 OA 
BRANCH   6   7
HETATM    7  N   UNL     1      -7.897   2.679  72.423  1.00  0.00    -0.053 NA 
HETATM    8  O   UNL     1      -8.258   1.557  72.792  1.00  0.00    -0.050 OA 
HETATM    9  H   UNL     1      -8.457   3.415  72.852  1.00  0.00     0.000 HD 
HETATM   10  H   UNL     1      -8.254   1.494  73.740  1.00  0.00     0.000 HD 
ENDBRANCH   6   7
ENDBRANCH   5   6
ENDBRANCH   4   5
ENDBRANCH   3   4
ENDBRANCH   2   3
TORSDOF 5
ENDMDL
MODEL      239
REMARK 921   NORMALIZED FREE ENERGY PREDICTED BY IDOCK:   -1.12 KCAL/MOL
REMARK 922        TOTAL FREE ENERGY PREDICTED BY IDOCK:   -1.58 KCAL/MOL
REMARK 923 INTER-LIGAND FREE ENERGY PREDICTED BY IDOCK:   -1.47 KCAL/MOL
REMARK 924 INTRA-LIGAND FREE ENERGY PREDICTED BY IDOCK:   -0.10 KCAL/MOL
REMARK 927      BINDING AFFINITY PREDICTED BY RF-SCORE:    0.00 PKD
ROOT
HETATM    1  C   UNL     1      -6.712   8.593  64.151  1.00  0.00    -0.075 C  
HETATM    2  C   UNL     1      -7.070   8.139  65.557  1.00  0.00    -0.067 C  
ENDROOT
BRANCH   2   3
HETATM    3  C   UNL     1      -7.403   9.324  66.462  1.00  0.00    -0.092 C  
BRANCH   3   4
HETATM    4  C   UNL     1      -8.913   9.519  66.588  1.00  0.00    -0.168 C  
BRANCH   4   5
HETATM    5  C   UNL     1      -9.259  10.839  67.271  1.00  0.00    -0.147 C  
BRANCH   5   6
HETATM    6  O   UNL     1      -9.168  10.645  68.681  1.00  0.00    -0.164 OA 
BRANCH   6   7
HETATM    7  N   UNL     1      -8.263  11.563  69.204  1.00  0.00    -0.374 NA 
HETATM    8  O   UNL     1      -7.508  11.022  70.018  1.00  0.00    -0.387 OA 
HETATM    9  H   UNL     1      -8.736  12.371  69.608  1.00  0.00     0.000 HD 
HETATM   10  H   UNL     1      -6.890  11.649  70.375  1.00  0.00     0.000 HD 
ENDBRANCH   6   7
ENDBRANCH   5   6
ENDBRANCH   4   5
ENDBRANCH   3   4
ENDBRANCH   2   3
TORSDOF 5
ENDMDL
MODEL      240
REMARK 921   NORMALIZED FREE ENERGY PREDICTED BY IDOCK:   -1.09 KCAL/MOL
REMARK 922        TOTAL FREE ENERGY PREDICTED BY IDOCK:   -1.53 KCAL/MOL
REMARK 923 INTER-LIGAND FREE ENERGY PREDICTED BY IDOCK:   -1.46 KCAL/MOL
REMARK 924 INTRA-LIGAND FREE ENERGY PREDICTED BY IDOCK:   -0.07 KCAL/MOL
REMARK 927      BINDING AFFINITY PREDICTED BY RF-SCORE:    0.00 PKD
ROOT
HETATM    1  C   UNL     1      -8.200   8.194  64.284  1.00  0.00    -0.095 C  
HETATM    2  C   UNL     1      -7.758   7.663  65.639  1.00  0.00    -0.099 C  
ENDROOT
BRANCH   2   3
HETATM    3  C   UNL     1      -8.956   7.309  66.521  1.00  0.00    -0.175 C  
BRANCH   3   4
HETATM    4  C   UNL     1      -8.593   7.377  68.002  1.00  0.00    -0.122 C  
BRANCH   4   5
HETATM    5  C   UNL     1      -9.655   6.717  68.877  1.00  0.00    -0.137 C  
BRANCH   5   6
HETATM    6  O   UNL     1     -10.832   7.520  68.825  1.00  0.00    -0.140 OA 
BRANCH   6   7
HETATM    7  N   UNL     1     -10.553   8.765  69.380  1.00  0.00    -0.253 NA 
HETATM    8  O   UNL     1     -11.591   9.331  69.738  1.00  0.00    -0.441 OA 
HETATM    9  H   UNL     1     -10.006   9.347  68.746  1.00  0.00     0.000 HD 
HETATM   10  H   UNL     1     -11.400  10.180  70.117  1.00  0.00     0.000 HD 
ENDBRANCH   6   7
ENDBRANCH   5   6
ENDBRANCH   4   5
ENDBRANCH   3   4
ENDBRANCH   2   3
TORSDOF 5
ENDMDL
MODEL      241
REMARK 921   NORMALIZED FREE ENERGY PREDICTED BY IDOCK:   -1.08 KCAL/MOL
REMARK 922        TOTAL FREE ENERGY PREDICTED BY IDOCK:   -1.53 KCAL/MOL
REMARK 923 INTER-LIGAND FREE ENERGY PREDICTED BY IDOCK:   -1.46 KCAL/MOL
REMARK 924 INTRA-LIGAND FREE ENERGY PREDICTED BY IDOCK:   -0.07 KCAL/MOL
REMARK 927      BINDING AFFINITY PREDICTED BY RF-SCORE:    0.00 PKD
ROOT
HETATM    1  C   UNL     1     -10.279   3.855  64.283  1.00  0.00    -0.234 C  
HETATM    2  C   UNL     1     -10.392   4.335  65.722  1.00  0.00    -0.180 C  
ENDROOT
BRANCH   2   3
HETATM    3  C   UNL     1      -9.378   3.636  66.627  1.00  0.00    -0.206 C  
BRANCH   3   4
HETATM    4  C   UNL     1      -9.330   4.284  68.009  1.00  0.00    -0.200 C  
BRANCH   4   5
HETATM    5  C   UNL     1     -10.385   5.376  68.160  1.00  0.00    -0.145 C  
BRANCH   5   6
HETATM    6  O   UNL     1      -9.713   6.629  68.271  1.00  0.00    -0.131 OA 
BRANCH   6   7
HETATM    7  N   UNL     1     -10.069   7.429  67.191  1.00  0.00    -0.217 NA 
HETATM    8  O   UNL     1      -9.505   8.526  67.250  1.00  0.00    -0.146 OA 
HETATM    9  H   UNL     1     -11.081   7.530  67.114  1.00  0.00     0.000 HD 
HETATM   10  H   UNL     1      -9.749   9.073  66.512  1.00  0.00     0.000 HD 
ENDBRANCH   6   7
ENDBRANCH   5   6
ENDBRANCH   4   5
ENDBRANCH   3   4
ENDBRANCH   2   3
TORSDOF 5
ENDMDL
MODEL      242
REMARK 921   NORMALIZED FREE ENERGY PREDICTED BY IDOCK:   -1.08 KCAL/MOL
REMARK 922        TOTAL FREE ENERGY PREDICTED BY IDOCK:   -1.52 KCAL/MOL
REMARK 923 INTER-LIGAND FREE ENERGY PREDICTED BY IDOCK:   -1.44 KCAL/MOL
REMARK 924 INTRA-LIGAND FREE ENERGY PREDICTED BY IDOCK:   -0.08 KCAL/MOL
REMARK 927      BINDING AFFINITY PREDICTED BY RF-SCORE:    0.00 PKD
ROOT
HETATM    1  C   UNL     1      -8.317   6.910  69.687  1.00  0.00    -0.133 C  
HETATM    2  C   UNL     1      -9.173   7.304  70.881  1.00  0.00    -0.155 C  
ENDROOT
BRANCH   2   3
HETATM    3  C   UNL     1     -10.037   6.138  71.362  1.00  0.00    -0.230 C  
BRANCH   3   4
HETATM    4  C   UNL     1      -9.948   5.970  72.877  1.00  0.00    -0.187 C  
BRANCH   4   5
HETATM    5  C   UNL     1     -11.134   5.186  73.430  1.00  0.00    -0.320 C  
BRANCH   5   6
HETATM    6  O   UNL     1     -10.990   3.824  73.034  1.00  0.00    -0.155 OA 
BRANCH   6   7
HETATM    7  N   UNL     1     -10.797   3.043  74.169  1.00  0.00    -0.179 NA 
HETATM    8  O   UNL     1      -9.615   2.700  74.272  1.00  0.00    -0.084 OA 
HETATM    9  H   UNL     1     -11.425   2.240  74.184  1.00  0.00     0.000 HD 
HETATM   10  H   UNL     1      -9.484   2.166  75.047  1.00  0.00     0.000 HD 
ENDBRANCH   6   7
ENDBRANCH   5   6
ENDBRANCH   4   5
ENDBRANCH   3   4
ENDBRANCH   2   3
TORSDOF 5
ENDMDL
MODEL      243
REMARK 921   NORMALIZED FREE ENERGY PREDICTED BY IDOCK:   -1.07 KCAL/MOL
REMARK 922        TOTAL FREE ENERGY PREDICTED BY IDOCK:   -1.52 KCAL/MOL
REMARK 923 INTER-LIGAND FREE ENERGY PREDICTED BY IDOCK:   -1.44 KCAL/MOL
REMARK 924 INTRA-LIGAND FREE ENERGY PREDICTED BY IDOCK:   -0.07 KCAL/MOL
REMARK 927      BINDING AFFINITY PREDICTED BY RF-SCORE:    0.00 PKD
ROOT
HETATM    1  C   UNL     1      -7.634   6.116  68.220  1.00  0.00    -0.098 C  
HETATM    2  C   UNL     1      -8.337   7.239  68.967  1.00  0.00    -0.126 C  
ENDROOT
BRANCH   2   3
HETATM    3  C   UNL     1      -9.545   6.724  69.748  1.00  0.00    -0.153 C  
BRANCH   3   4
HETATM    4  C   UNL     1      -9.292   6.767  71.253  1.00  0.00    -0.165 C  
BRANCH   4   5
HETATM    5  C   UNL     1     -10.516   7.257  72.020  1.00  0.00    -0.201 C  
BRANCH   5   6
HETATM    6  O   UNL     1     -11.479   6.205  72.036  1.00  0.00    -0.290 OA 
BRANCH   6   7
HETATM    7  N   UNL     1     -11.983   6.076  73.326  1.00  0.00     0.015 NA 
HETATM    8  O   UNL     1     -11.269   5.329  74.004  1.00  0.00    -0.425 OA 
HETATM    9  H   UNL     1     -12.954   5.767  73.322  1.00  0.00     0.000 HD 
HETATM   10  H   UNL     1     -11.613   5.240  74.885  1.00  0.00     0.000 HD 
ENDBRANCH   6   7
ENDBRANCH   5   6
ENDBRANCH   4   5
ENDBRANCH   3   4
ENDBRANCH   2   3
TORSDOF 5
ENDMDL
MODEL      244
REMARK 921   NORMALIZED FREE ENERGY PREDICTED BY IDOCK:   -1.04 KCAL/MOL
REMARK 922        TOTAL FREE ENERGY PREDICTED BY IDOCK:   -1.48 KCAL/MOL
REMARK 923 INTER-LIGAND FREE ENERGY PREDICTED BY IDOCK:   -1.40 KCAL/MOL
REMARK 924 INTRA-LIGAND FREE ENERGY PREDICTED BY IDOCK:   -0.08 KCAL/MOL
REMARK 927      BINDING AFFINITY PREDICTED BY RF-SCORE:    0.00 PKD
ROOT
HETATM    1  C   UNL     1      -9.154   7.737  73.578  1.00  0.00    -0.342 C  
HETATM    2  C   UNL     1     -10.009   7.216  72.433  1.00  0.00    -0.190 C  
ENDROOT
BRANCH   2   3
HETATM    3  C   UNL     1      -9.201   6.331  71.486  1.00  0.00    -0.149 C  
BRANCH   3   4
HETATM    4  C   UNL     1      -9.844   4.955  71.329  1.00  0.00    -0.253 C  
BRANCH   4   5
HETATM    5  C   UNL     1      -9.261   4.188  70.146  1.00  0.00    -0.140 C  
BRANCH   5   6
HETATM    6  O   UNL     1      -9.443   4.978  68.973  1.00  0.00    -0.118 OA 
BRANCH   6   7
HETATM    7  N   UNL     1      -8.901   4.301  67.886  1.00  0.00    -0.106 NA 
HETATM    8  O   UNL     1      -8.893   3.082  68.085  1.00  0.00    -0.098 OA 
HETATM    9  H   UNL     1      -7.972   4.650  67.650  1.00  0.00     0.000 HD 
HETATM   10  H   UNL     1      -8.522   2.620  67.343  1.00  0.00     0.000 HD 
ENDBRANCH   6   7
ENDBRANCH   5   6
ENDBRANCH   4   5
ENDBRANCH   3   4
ENDBRANCH   2   3
TORSDOF 5
ENDMDL
MODEL      245
REMARK 921   NORMALIZED FREE ENERGY PREDICTED BY IDOCK:   -1.04 KCAL/MOL
REMARK 922        TOTAL FREE ENERGY PREDICTED BY IDOCK:   -1.48 KCAL/MOL
REMARK 923 INTER-LIGAND FREE ENERGY PREDICTED BY IDOCK:   -1.39 KCAL/MOL
REMARK 924 INTRA-LIGAND FREE ENERGY PREDICTED BY IDOCK:   -0.09 KCAL/MOL
REMARK 927      BINDING AFFINITY PREDICTED BY RF-SCORE:    0.00 PKD
ROOT
HETATM    1  C   UNL     1     -10.041  10.328  67.690  1.00  0.00    -0.229 C  
HETATM    2  C   UNL     1     -10.424   9.790  66.319  1.00  0.00    -0.160 C  
ENDROOT
BRANCH   2   3
HETATM    3  C   UNL     1     -10.026  10.757  65.205  1.00  0.00    -0.342 C  
BRANCH   3   4
HETATM    4  C   UNL     1      -8.963  10.147  64.294  1.00  0.00    -0.267 C  
BRANCH   4   5
HETATM    5  C   UNL     1      -8.594   8.730  64.724  1.00  0.00    -0.134 C  
BRANCH   5   6
HETATM    6  O   UNL     1      -7.194   8.701  64.995  1.00  0.00    -0.082 OA 
BRANCH   6   7
HETATM    7  N   UNL     1      -6.760   9.994  65.265  1.00  0.00    -0.111 NA 
HETATM    8  O   UNL     1      -6.374  10.094  66.435  1.00  0.00    -0.069 OA 
HETATM    9  H   UNL     1      -7.476  10.686  65.045  1.00  0.00     0.000 HD 
HETATM   10  H   UNL     1      -6.078  10.977  66.619  1.00  0.00     0.000 HD 
ENDBRANCH   6   7
ENDBRANCH   5   6
ENDBRANCH   4   5
ENDBRANCH   3   4
ENDBRANCH   2   3
TORSDOF 5
ENDMDL
MODEL      246
REMARK 921   NORMALIZED FREE ENERGY PREDICTED BY IDOCK:   -1.03 KCAL/MOL
REMARK 922        TOTAL FREE ENERGY PREDICTED BY IDOCK:   -1.46 KCAL/MOL
REMARK 923 INTER-LIGAND FREE ENERGY PREDICTED BY IDOCK:   -1.33 KCAL/MOL
REMARK 924 INTRA-LIGAND FREE ENERGY PREDICTED BY IDOCK:   -0.12 KCAL/MOL
REMARK 927      BINDING AFFINITY PREDICTED BY RF-SCORE:    0.00 PKD
ROOT
HETATM    1  C   UNL     1      -5.436  12.035  68.721  1.00  0.00    -0.049 C  
HETATM    2  C   UNL     1      -6.594  12.966  69.047  1.00  0.00    -0.102 C  
ENDROOT
BRANCH   2   3
HETATM    3  C   UNL     1      -6.159  14.099  69.976  1.00  0.00    -0.149 C  
BRANCH   3   4
HETATM    4  C   UNL     1      -6.791  15.427  69.564  1.00  0.00    -0.181 C  
BRANCH   4   5
HETATM    5  C   UNL     1      -6.212  15.946  68.251  1.00  0.00    -0.112 C  
BRANCH   5   6
HETATM    6  O   UNL     1      -6.942  17.112  67.875  1.00  0.00    -0.158 OA 
BRANCH   6   7
HETATM    7  N   UNL     1      -8.100  17.185  68.643  1.00  0.00    -0.260 NA 
HETATM    8  O   UNL     1      -8.585  18.320  68.602  1.00  0.00    -0.320 OA 
HETATM    9  H   UNL     1      -7.936  16.880  69.602  1.00  0.00     0.000 HD 
HETATM   10  H   UNL     1      -9.375  18.370  69.126  1.00  0.00     0.000 HD 
ENDBRANCH   6   7
ENDBRANCH   5   6
ENDBRANCH   4   5
ENDBRANCH   3   4
ENDBRANCH   2   3
TORSDOF 5
ENDMDL
MODEL      247
REMARK 921   NORMALIZED FREE ENERGY PREDICTED BY IDOCK:   -0.90 KCAL/MOL
REMARK 922        TOTAL FREE ENERGY PREDICTED BY IDOCK:   -1.29 KCAL/MOL
REMARK 923 INTER-LIGAND FREE ENERGY PREDICTED BY IDOCK:   -1.45 KCAL/MOL
REMARK 924 INTRA-LIGAND FREE ENERGY PREDICTED BY IDOCK:    0.16 KCAL/MOL
REMARK 927      BINDING AFFINITY PREDICTED BY RF-SCORE:    0.00 PKD
ROOT
HETATM    1  C   UNL     1     -11.318   6.204  69.646  1.00  0.00    -0.442 C  
HETATM    2  C   UNL     1     -10.424   6.580  70.818  1.00  0.00    -0.262 C  
ENDROOT
BRANCH   2   3
HETATM    3  C   UNL     1     -10.221   5.402  71.770  1.00  0.00    -0.263 C  
BRANCH   3   4
HETATM    4  C   UNL     1      -8.747   5.224  72.126  1.00  0.00    -0.131 C  
BRANCH   4   5
HETATM    5  C   UNL     1      -8.331   6.125  73.285  1.00  0.00    -0.117 C  
BRANCH   5   6
HETATM    6  O   UNL     1      -7.581   5.339  74.210  1.00  0.00    -0.089 OA 
BRANCH   6   7
HETATM    7  N   UNL     1      -8.333   4.223  74.565  1.00  0.00    -0.090 NA 
HETATM    8  O   UNL     1      -7.775   3.183  74.202  1.00  0.00    -0.062 OA 
HETATM    9  H   UNL     1      -9.286   4.283  74.210  1.00  0.00     0.000 HD 
HETATM   10  H   UNL     1      -8.288   2.421  74.444  1.00  0.00     0.000 HD 
ENDBRANCH   6   7
ENDBRANCH   5   6
ENDBRANCH   4   5
ENDBRANCH   3   4
ENDBRANCH   2   3
TORSDOF 5
ENDMDL
MODEL      248
REMARK 921   NORMALIZED FREE ENERGY PREDICTED BY IDOCK:   -0.72 KCAL/MOL
REMARK 922        TOTAL FREE ENERGY PREDICTED BY IDOCK:   -1.06 KCAL/MOL
REMARK 923 INTER-LIGAND FREE ENERGY PREDICTED BY IDOCK:   -0.97 KCAL/MOL
REMARK 924 INTRA-LIGAND FREE ENERGY PREDICTED BY IDOCK:   -0.09 KCAL/MOL
REMARK 927      BINDING AFFINITY PREDICTED BY RF-SCORE:    0.00 PKD
ROOT
HETATM    1  C   UNL     1      -6.387  10.534  67.242  1.00  0.00    -0.062 C  
HETATM    2  C   UNL     1      -7.239   9.827  68.286  1.00  0.00    -0.078 C  
ENDROOT
BRANCH   2   3
HETATM    3  C   UNL     1      -8.333   8.980  67.637  1.00  0.00    -0.117 C  
BRANCH   3   4
HETATM    4  C   UNL     1      -7.747   7.751  66.947  1.00  0.00    -0.103 C  
BRANCH   4   5
HETATM    5  C   UNL     1      -8.084   6.465  67.697  1.00  0.00    -0.114 C  
BRANCH   5   6
HETATM    6  O   UNL     1      -9.503   6.321  67.712  1.00  0.00    -0.120 OA 
BRANCH   6   7
HETATM    7  N   UNL     1      -9.925   6.163  69.028  1.00  0.00    -0.146 NA 
HETATM    8  O   UNL     1     -10.682   7.080  69.362  1.00  0.00    -0.226 OA 
HETATM    9  H   UNL     1      -9.137   6.073  69.669  1.00  0.00     0.000 HD 
HETATM   10  H   UNL     1     -10.970   6.972  70.261  1.00  0.00     0.000 HD 
ENDBRANCH   6   7
ENDBRANCH   5   6
ENDBRANCH   4   5
ENDBRANCH   3   4
ENDBRANCH   2   3
TORSDOF 5
ENDMDL
MODEL      249
REMARK 921   NORMALIZED FREE ENERGY PREDICTED BY IDOCK:   -0.67 KCAL/MOL
REMARK 922        TOTAL FREE ENERGY PREDICTED BY IDOCK:   -1.00 KCAL/MOL
REMARK 923 INTER-LIGAND FREE ENERGY PREDICTED BY IDOCK:   -0.91 KCAL/MOL
REMARK 924 INTRA-LIGAND FREE ENERGY PREDICTED BY IDOCK:   -0.09 KCAL/MOL
REMARK 927      BINDING AFFINITY PREDICTED BY RF-SCORE:    0.00 PKD
ROOT
HETATM    1  C   UNL     1     -10.876   6.024  68.883  1.00  0.00    -0.400 C  
HETATM    2  C   UNL     1      -9.739   6.732  69.605  1.00  0.00    -0.160 C  
ENDROOT
BRANCH   2   3
HETATM    3  C   UNL     1      -8.867   5.746  70.380  1.00  0.00    -0.146 C  
BRANCH   3   4
HETATM    4  C   UNL     1      -7.410   6.201  70.412  1.00  0.00    -0.089 C  
BRANCH   4   5
HETATM    5  C   UNL     1      -6.446   5.021  70.330  1.00  0.00    -0.031 C  
BRANCH   5   6
HETATM    6  O   UNL     1      -7.155   3.843  70.707  1.00  0.00    -0.033 OA 
BRANCH   6   7
HETATM    7  N   UNL     1      -6.342   2.736  70.481  1.00  0.00    -0.023 NA 
HETATM    8  O   UNL     1      -6.125   2.589  69.274  1.00  0.00    -0.023 OA 
HETATM    9  H   UNL     1      -6.731   1.892  70.900  1.00  0.00     0.000 HD 
HETATM   10  H   UNL     1      -5.571   1.833  69.120  1.00  0.00     0.000 HD 
ENDBRANCH   6   7
ENDBRANCH   5   6
ENDBRANCH   4   5
ENDBRANCH   3   4
ENDBRANCH   2   3
TORSDOF 5
ENDMDL
MODEL      250
REMARK 921   NORMALIZED FREE ENERGY PREDICTED BY IDOCK:   -0.64 KCAL/MOL
REMARK 922        TOTAL FREE ENERGY PREDICTED BY IDOCK:   -0.96 KCAL/MOL
REMARK 923 INTER-LIGAND FREE ENERGY PREDICTED BY IDOCK:   -0.87 KCAL/MOL
REMARK 924 INTRA-LIGAND FREE ENERGY PREDICTED BY IDOCK:   -0.09 KCAL/MOL
REMARK 927      BINDING AFFINITY PREDICTED BY RF-SCORE:    0.00 PKD
ROOT
HETATM    1  C   UNL     1      -6.466  10.544  67.193  1.00  0.00    -0.073 C  
HETATM    2  C   UNL     1      -7.640   9.935  67.944  1.00  0.00    -0.090 C  
ENDROOT
BRANCH   2   3
HETATM    3  C   UNL     1      -8.742   9.477  66.989  1.00  0.00    -0.135 C  
BRANCH   3   4
HETATM    4  C   UNL     1      -8.338   8.205  66.248  1.00  0.00    -0.119 C  
BRANCH   4   5
HETATM    5  C   UNL     1      -9.290   7.050  66.544  1.00  0.00    -0.159 C  
BRANCH   5   6
HETATM    6  O   UNL     1      -8.753   6.302  67.633  1.00  0.00    -0.114 OA 
BRANCH   6   7
HETATM    7  N   UNL     1      -8.549   4.989  67.220  1.00  0.00    -0.105 NA 
HETATM    8  O   UNL     1      -7.357   4.678  67.313  1.00  0.00    -0.072 OA 
HETATM    9  H   UNL     1      -8.906   4.831  66.278  1.00  0.00     0.000 HD 
HETATM   10  H   UNL     1      -7.218   3.782  67.031  1.00  0.00     0.000 HD 
ENDBRANCH   6   7
ENDBRANCH   5   6
ENDBRANCH   4   5
ENDBRANCH   3   4
ENDBRANCH   2   3
TORSDOF 5
ENDMDL
MODEL      251
REMARK 921   NORMALIZED FREE ENERGY PREDICTED BY IDOCK:   -0.56 KCAL/MOL
REMARK 922        TOTAL FREE ENERGY PREDICTED BY IDOCK:   -0.86 KCAL/MOL
REMARK 923 INTER-LIGAND FREE ENERGY PREDICTED BY IDOCK:   -0.68 KCAL/MOL
REMARK 924 INTRA-LIGAND FREE ENERGY PREDICTED BY IDOCK:   -0.17 KCAL/MOL
REMARK 927      BINDING AFFINITY PREDICTED BY RF-SCORE:    0.00 PKD
ROOT
HETATM    1  C   UNL     1      -5.861  14.057  70.591  1.00  0.00    -0.192 C  
HETATM    2  C   UNL     1      -6.496  12.894  69.843  1.00  0.00     0.046 C  
ENDROOT
BRANCH   2   3
HETATM    3  C   UNL     1      -5.571  11.678  69.805  1.00  0.00    -0.084 C  
BRANCH   3   4
HETATM    4  C   UNL     1      -5.367  11.182  68.375  1.00  0.00    -0.043 C  
BRANCH   4   5
HETATM    5  C   UNL     1      -6.641  11.303  67.545  1.00  0.00    -0.073 C  
BRANCH   5   6
HETATM    6  O   UNL     1      -7.181   9.994  67.369  1.00  0.00    -0.084 OA 
BRANCH   6   7
HETATM    7  N   UNL     1      -8.533  10.017  67.695  1.00  0.00    -0.115 NA 
HETATM    8  O   UNL     1      -8.697  10.365  68.869  1.00  0.00    -0.139 OA 
HETATM    9  H   UNL     1      -8.983   9.123  67.501  1.00  0.00     0.000 HD 
HETATM   10  H   UNL     1      -9.621  10.380  69.092  1.00  0.00     0.000 HD 
ENDBRANCH   6   7
ENDBRANCH   5   6
ENDBRANCH   4   5
ENDBRANCH   3   4
ENDBRANCH   2   3
TORSDOF 5
ENDMDL
