MODEL        1
REMARK 921   NORMALIZED FREE ENERGY PREDICTED BY IDOCK:   -5.10 KCAL/MOL
REMARK 922        TOTAL FREE ENERGY PREDICTED BY IDOCK:   -6.62 KCAL/MOL
REMARK 923 INTER-LIGAND FREE ENERGY PREDICTED BY IDOCK:   -6.30 KCAL/MOL
REMARK 924 INTRA-LIGAND FREE ENERGY PREDICTED BY IDOCK:   -0.32 KCAL/MOL
REMARK 927      BINDING AFFINITY PREDICTED BY RF-SCORE:    0.00 PKD
ROOT
HETATM    1  C   UNL     1     -13.531  15.494  72.981  1.00  0.00    -0.632 C  
HETATM    2  C   UNL     1     -13.526  14.058  72.477  1.00  0.00    -0.661 C  
ENDROOT
BRANCH   2   3
HETATM    3  C   UNL     1     -12.495  13.848  71.367  1.00  0.00    -0.424 C  
BRANCH   3   4
HETATM    4  C   UNL     1     -12.631  12.449  70.755  1.00  0.00    -0.298 C  
BRANCH   4   5
HETATM    5  C   UNL     1     -13.138  11.393  71.747  1.00  0.00    -0.523 C  
BRANCH   5   6
HETATM    6  C   UNL     1     -12.509  10.030  71.567  1.00  0.00    -0.516 A  
HETATM    7  C   UNL     1     -11.471   9.858  70.637  1.00  0.00    -0.411 A  
HETATM    8  C   UNL     1     -10.921   8.595  70.402  1.00  0.00    -0.256 A  
HETATM    9  C   UNL     1     -11.386   7.480  71.103  1.00  0.00    -0.288 A  
HETATM   10  C   UNL     1     -10.837   6.111  70.825  1.00  0.00    -0.350 C  
HETATM   11  C   UNL     1     -12.387   7.650  72.067  1.00  0.00    -0.312 A  
HETATM   12  C   UNL     1     -12.940   8.913  72.290  1.00  0.00    -0.419 A  
HETATM   13  O   UNL     1     -13.931   9.064  73.219  1.00  0.00    -1.205 OA 
HETATM   14  H   UNL     1     -14.224   8.305  73.710  1.00  0.00     0.000 HD 
ENDBRANCH   5   6
ENDBRANCH   4   5
ENDBRANCH   3   4
ENDBRANCH   2   3
TORSDOF 4
ENDMDL
MODEL        2
REMARK 921   NORMALIZED FREE ENERGY PREDICTED BY IDOCK:   -5.06 KCAL/MOL
REMARK 922        TOTAL FREE ENERGY PREDICTED BY IDOCK:   -6.56 KCAL/MOL
REMARK 923 INTER-LIGAND FREE ENERGY PREDICTED BY IDOCK:   -6.25 KCAL/MOL
REMARK 924 INTRA-LIGAND FREE ENERGY PREDICTED BY IDOCK:   -0.31 KCAL/MOL
REMARK 927      BINDING AFFINITY PREDICTED BY RF-SCORE:    0.00 PKD
ROOT
HETATM    1  C   UNL     1     -10.363  19.795  66.254  1.00  0.00    -0.626 C  
HETATM    2  C   UNL     1     -10.552  19.490  67.732  1.00  0.00    -0.542 C  
ENDROOT
BRANCH   2   3
HETATM    3  C   UNL     1      -9.873  18.180  68.135  1.00  0.00    -0.350 C  
BRANCH   3   4
HETATM    4  C   UNL     1     -10.641  16.974  67.583  1.00  0.00    -0.333 C  
BRANCH   4   5
HETATM    5  C   UNL     1      -9.837  16.149  66.568  1.00  0.00    -0.283 C  
BRANCH   5   6
HETATM    6  C   UNL     1     -10.658  15.113  65.833  1.00  0.00    -0.347 A  
HETATM    7  C   UNL     1     -10.729  13.801  66.326  1.00  0.00    -0.285 A  
HETATM    8  C   UNL     1     -11.422  12.809  65.627  1.00  0.00    -0.379 A  
HETATM    9  C   UNL     1     -12.074  13.113  64.429  1.00  0.00    -0.471 A  
HETATM   10  C   UNL     1     -12.781  12.047  63.645  1.00  0.00    -0.550 C  
HETATM   11  C   UNL     1     -12.049  14.429  63.955  1.00  0.00    -0.312 A  
HETATM   12  C   UNL     1     -11.344  15.414  64.653  1.00  0.00    -0.355 A  
HETATM   13  O   UNL     1     -11.310  16.692  64.170  1.00  0.00    -1.419 OA 
HETATM   14  H   UNL     1     -11.777  16.896  63.368  1.00  0.00     0.000 HD 
ENDBRANCH   5   6
ENDBRANCH   4   5
ENDBRANCH   3   4
ENDBRANCH   2   3
TORSDOF 4
ENDMDL
MODEL        3
REMARK 921   NORMALIZED FREE ENERGY PREDICTED BY IDOCK:   -4.99 KCAL/MOL
REMARK 922        TOTAL FREE ENERGY PREDICTED BY IDOCK:   -6.48 KCAL/MOL
REMARK 923 INTER-LIGAND FREE ENERGY PREDICTED BY IDOCK:   -6.20 KCAL/MOL
REMARK 924 INTRA-LIGAND FREE ENERGY PREDICTED BY IDOCK:   -0.28 KCAL/MOL
REMARK 927      BINDING AFFINITY PREDICTED BY RF-SCORE:    0.00 PKD
ROOT
HETATM    1  C   UNL     1     -12.353  15.364  73.498  1.00  0.00    -0.659 C  
HETATM    2  C   UNL     1     -13.654  15.753  72.811  1.00  0.00    -0.662 C  
ENDROOT
BRANCH   2   3
HETATM    3  C   UNL     1     -14.130  14.674  71.838  1.00  0.00    -0.606 C  
BRANCH   3   4
HETATM    4  C   UNL     1     -13.553  13.305  72.217  1.00  0.00    -0.703 C  
BRANCH   4   5
HETATM    5  C   UNL     1     -12.690  12.677  71.114  1.00  0.00    -0.347 C  
BRANCH   5   6
HETATM    6  C   UNL     1     -12.545  11.176  71.228  1.00  0.00    -0.503 A  
HETATM    7  C   UNL     1     -13.422  10.451  72.050  1.00  0.00    -0.360 A  
HETATM    8  C   UNL     1     -13.265   9.074  72.228  1.00  0.00    -0.519 A  
HETATM    9  C   UNL     1     -12.237   8.390  71.573  1.00  0.00    -0.340 A  
HETATM   10  C   UNL     1     -12.029   6.920  71.793  1.00  0.00    -0.372 C  
HETATM   11  C   UNL     1     -11.388   9.096  70.713  1.00  0.00    -0.337 A  
HETATM   12  C   UNL     1     -11.544  10.475  70.549  1.00  0.00    -0.350 A  
HETATM   13  O   UNL     1     -10.696  11.158  69.722  1.00  0.00    -0.439 OA 
HETATM   14  H   UNL     1     -10.016  10.681  69.261  1.00  0.00     0.000 HD 
ENDBRANCH   5   6
ENDBRANCH   4   5
ENDBRANCH   3   4
ENDBRANCH   2   3
TORSDOF 4
ENDMDL
MODEL        4
REMARK 921   NORMALIZED FREE ENERGY PREDICTED BY IDOCK:   -4.90 KCAL/MOL
REMARK 922        TOTAL FREE ENERGY PREDICTED BY IDOCK:   -6.38 KCAL/MOL
REMARK 923 INTER-LIGAND FREE ENERGY PREDICTED BY IDOCK:   -5.71 KCAL/MOL
REMARK 924 INTRA-LIGAND FREE ENERGY PREDICTED BY IDOCK:   -0.66 KCAL/MOL
REMARK 927      BINDING AFFINITY PREDICTED BY RF-SCORE:    0.00 PKD
ROOT
HETATM    1  C   UNL     1     -10.270  11.026  64.824  1.00  0.00    -0.381 C  
HETATM    2  C   UNL     1     -10.441  11.588  63.420  1.00  0.00    -0.466 C  
ENDROOT
BRANCH   2   3
HETATM    3  C   UNL     1     -11.596  12.588  63.344  1.00  0.00    -0.547 C  
BRANCH   3   4
HETATM    4  C   UNL     1     -12.467  12.513  64.602  1.00  0.00    -0.539 C  
BRANCH   4   5
HETATM    5  C   UNL     1     -12.755  13.884  65.231  1.00  0.00    -0.485 C  
BRANCH   5   6
HETATM    6  C   UNL     1     -11.515  14.629  65.670  1.00  0.00    -0.340 A  
HETATM    7  C   UNL     1     -10.782  14.174  66.777  1.00  0.00    -0.286 A  
HETATM    8  C   UNL     1      -9.674  14.884  67.246  1.00  0.00    -0.228 A  
HETATM    9  C   UNL     1      -9.265  16.058  66.606  1.00  0.00    -0.276 A  
HETATM   10  C   UNL     1      -8.106  16.855  67.128  1.00  0.00    -0.214 C  
HETATM   11  C   UNL     1      -9.961  16.493  65.472  1.00  0.00    -0.137 A  
HETATM   12  C   UNL     1     -11.074  15.784  65.016  1.00  0.00    -0.370 A  
HETATM   13  O   UNL     1     -11.758  16.229  63.919  1.00  0.00    -1.441 OA 
HETATM   14  H   UNL     1     -11.458  17.013  63.475  1.00  0.00     0.000 HD 
ENDBRANCH   5   6
ENDBRANCH   4   5
ENDBRANCH   3   4
ENDBRANCH   2   3
TORSDOF 4
ENDMDL
MODEL        5
REMARK 921   NORMALIZED FREE ENERGY PREDICTED BY IDOCK:   -4.90 KCAL/MOL
REMARK 922        TOTAL FREE ENERGY PREDICTED BY IDOCK:   -6.38 KCAL/MOL
REMARK 923 INTER-LIGAND FREE ENERGY PREDICTED BY IDOCK:   -6.06 KCAL/MOL
REMARK 924 INTRA-LIGAND FREE ENERGY PREDICTED BY IDOCK:   -0.32 KCAL/MOL
REMARK 927      BINDING AFFINITY PREDICTED BY RF-SCORE:    0.00 PKD
ROOT
HETATM    1  C   UNL     1     -12.445  16.134  74.507  1.00  0.00    -0.626 C  
HETATM    2  C   UNL     1     -12.826  15.049  73.511  1.00  0.00    -0.636 C  
ENDROOT
BRANCH   2   3
HETATM    3  C   UNL     1     -13.901  15.525  72.534  1.00  0.00    -0.669 C  
BRANCH   3   4
HETATM    4  C   UNL     1     -13.499  15.218  71.087  1.00  0.00    -0.559 C  
BRANCH   4   5
HETATM    5  C   UNL     1     -12.258  14.321  70.973  1.00  0.00    -0.428 C  
BRANCH   5   6
HETATM    6  C   UNL     1     -12.022  13.774  69.583  1.00  0.00    -0.399 A  
HETATM    7  C   UNL     1     -12.160  14.617  68.469  1.00  0.00    -0.229 A  
HETATM    8  C   UNL     1     -12.017  14.119  67.172  1.00  0.00    -0.460 A  
HETATM    9  C   UNL     1     -11.715  12.771  66.961  1.00  0.00    -0.440 A  
HETATM   10  C   UNL     1     -11.606  12.215  65.572  1.00  0.00    -0.398 C  
HETATM   11  C   UNL     1     -11.528  11.934  68.067  1.00  0.00    -0.389 A  
HETATM   12  C   UNL     1     -11.684  12.436  69.362  1.00  0.00    -0.322 A  
HETATM   13  O   UNL     1     -11.518  11.605  70.434  1.00  0.00    -0.501 OA 
HETATM   14  H   UNL     1     -11.288  10.695  70.283  1.00  0.00     0.000 HD 
ENDBRANCH   5   6
ENDBRANCH   4   5
ENDBRANCH   3   4
ENDBRANCH   2   3
TORSDOF 4
ENDMDL
MODEL        6
REMARK 921   NORMALIZED FREE ENERGY PREDICTED BY IDOCK:   -4.90 KCAL/MOL
REMARK 922        TOTAL FREE ENERGY PREDICTED BY IDOCK:   -6.37 KCAL/MOL
REMARK 923 INTER-LIGAND FREE ENERGY PREDICTED BY IDOCK:   -5.87 KCAL/MOL
REMARK 924 INTRA-LIGAND FREE ENERGY PREDICTED BY IDOCK:   -0.50 KCAL/MOL
REMARK 927      BINDING AFFINITY PREDICTED BY RF-SCORE:    0.00 PKD
ROOT
HETATM    1  C   UNL     1      -7.579  19.299  68.589  1.00  0.00    -0.385 C  
HETATM    2  C   UNL     1      -9.064  19.341  68.913  1.00  0.00    -0.368 C  
ENDROOT
BRANCH   2   3
HETATM    3  C   UNL     1      -9.865  20.053  67.821  1.00  0.00    -0.545 C  
BRANCH   3   4
HETATM    4  C   UNL     1     -10.862  19.094  67.162  1.00  0.00    -0.507 C  
BRANCH   4   5
HETATM    5  C   UNL     1     -10.239  18.222  66.063  1.00  0.00    -0.334 C  
BRANCH   5   6
HETATM    6  C   UNL     1     -10.595  16.756  66.168  1.00  0.00    -0.212 A  
HETATM    7  C   UNL     1     -10.405  16.076  67.381  1.00  0.00    -0.294 A  
HETATM    8  C   UNL     1     -10.660  14.706  67.484  1.00  0.00    -0.257 A  
HETATM    9  C   UNL     1     -11.127  13.990  66.379  1.00  0.00    -0.316 A  
HETATM   10  C   UNL     1     -11.359  12.510  66.463  1.00  0.00    -0.387 C  
HETATM   11  C   UNL     1     -11.366  14.669  65.179  1.00  0.00    -0.375 A  
HETATM   12  C   UNL     1     -11.099  16.036  65.080  1.00  0.00    -0.336 A  
HETATM   13  O   UNL     1     -11.317  16.685  63.897  1.00  0.00    -1.558 OA 
HETATM   14  H   UNL     1     -11.659  16.196  63.157  1.00  0.00     0.000 HD 
ENDBRANCH   5   6
ENDBRANCH   4   5
ENDBRANCH   3   4
ENDBRANCH   2   3
TORSDOF 4
ENDMDL
MODEL        7
REMARK 921   NORMALIZED FREE ENERGY PREDICTED BY IDOCK:   -4.90 KCAL/MOL
REMARK 922        TOTAL FREE ENERGY PREDICTED BY IDOCK:   -6.37 KCAL/MOL
REMARK 923 INTER-LIGAND FREE ENERGY PREDICTED BY IDOCK:   -5.88 KCAL/MOL
REMARK 924 INTRA-LIGAND FREE ENERGY PREDICTED BY IDOCK:   -0.49 KCAL/MOL
REMARK 927      BINDING AFFINITY PREDICTED BY RF-SCORE:    0.00 PKD
ROOT
HETATM    1  C   UNL     1     -10.824  11.970  63.817  1.00  0.00    -0.481 C  
HETATM    2  C   UNL     1     -12.090  12.768  63.545  1.00  0.00    -0.642 C  
ENDROOT
BRANCH   2   3
HETATM    3  C   UNL     1     -12.065  14.130  64.240  1.00  0.00    -0.471 C  
BRANCH   3   4
HETATM    4  C   UNL     1     -12.704  14.045  65.631  1.00  0.00    -0.515 C  
BRANCH   4   5
HETATM    5  C   UNL     1     -11.735  14.388  66.772  1.00  0.00    -0.415 C  
BRANCH   5   6
HETATM    6  C   UNL     1     -11.823  13.449  67.954  1.00  0.00    -0.392 A  
HETATM    7  C   UNL     1     -11.604  12.074  67.772  1.00  0.00    -0.400 A  
HETATM    8  C   UNL     1     -11.749  11.177  68.833  1.00  0.00    -0.406 A  
HETATM    9  C   UNL     1     -12.101  11.638  70.104  1.00  0.00    -0.414 A  
HETATM   10  C   UNL     1     -12.307  10.681  71.241  1.00  0.00    -0.488 C  
HETATM   11  C   UNL     1     -12.274  13.012  70.307  1.00  0.00    -0.368 A  
HETATM   12  C   UNL     1     -12.138  13.903  69.239  1.00  0.00    -0.339 A  
HETATM   13  O   UNL     1     -12.329  15.241  69.444  1.00  0.00    -0.548 OA 
HETATM   14  H   UNL     1     -12.542  15.548  70.317  1.00  0.00     0.000 HD 
ENDBRANCH   5   6
ENDBRANCH   4   5
ENDBRANCH   3   4
ENDBRANCH   2   3
TORSDOF 4
ENDMDL
MODEL        8
REMARK 921   NORMALIZED FREE ENERGY PREDICTED BY IDOCK:   -4.85 KCAL/MOL
REMARK 922        TOTAL FREE ENERGY PREDICTED BY IDOCK:   -6.31 KCAL/MOL
REMARK 923 INTER-LIGAND FREE ENERGY PREDICTED BY IDOCK:   -5.89 KCAL/MOL
REMARK 924 INTRA-LIGAND FREE ENERGY PREDICTED BY IDOCK:   -0.42 KCAL/MOL
REMARK 927      BINDING AFFINITY PREDICTED BY RF-SCORE:    0.00 PKD
ROOT
HETATM    1  C   UNL     1     -12.382  15.531  74.472  1.00  0.00    -0.756 C  
HETATM    2  C   UNL     1     -12.515  15.939  73.013  1.00  0.00    -0.599 C  
ENDROOT
BRANCH   2   3
HETATM    3  C   UNL     1     -13.845  15.483  72.412  1.00  0.00    -0.662 C  
BRANCH   3   4
HETATM    4  C   UNL     1     -13.617  14.471  71.284  1.00  0.00    -0.423 C  
BRANCH   4   5
HETATM    5  C   UNL     1     -12.137  14.287  70.916  1.00  0.00    -0.417 C  
BRANCH   5   6
HETATM    6  C   UNL     1     -11.824  14.588  69.468  1.00  0.00    -0.374 A  
HETATM    7  C   UNL     1     -12.013  13.597  68.492  1.00  0.00    -0.396 A  
HETATM    8  C   UNL     1     -11.665  13.826  67.159  1.00  0.00    -0.417 A  
HETATM    9  C   UNL     1     -11.134  15.059  66.770  1.00  0.00    -0.326 A  
HETATM   10  C   UNL     1     -10.712  15.302  65.351  1.00  0.00    -0.407 C  
HETATM   11  C   UNL     1     -10.987  16.070  67.727  1.00  0.00    -0.307 A  
HETATM   12  C   UNL     1     -11.327  15.830  69.060  1.00  0.00    -0.354 A  
HETATM   13  O   UNL     1     -11.160  16.818  69.990  1.00  0.00    -0.449 OA 
HETATM   14  H   UNL     1     -10.823  17.661  69.713  1.00  0.00     0.000 HD 
ENDBRANCH   5   6
ENDBRANCH   4   5
ENDBRANCH   3   4
ENDBRANCH   2   3
TORSDOF 4
ENDMDL
MODEL        9
REMARK 921   NORMALIZED FREE ENERGY PREDICTED BY IDOCK:   -4.83 KCAL/MOL
REMARK 922        TOTAL FREE ENERGY PREDICTED BY IDOCK:   -6.29 KCAL/MOL
REMARK 923 INTER-LIGAND FREE ENERGY PREDICTED BY IDOCK:   -5.93 KCAL/MOL
REMARK 924 INTRA-LIGAND FREE ENERGY PREDICTED BY IDOCK:   -0.36 KCAL/MOL
REMARK 927      BINDING AFFINITY PREDICTED BY RF-SCORE:    0.00 PKD
ROOT
HETATM    1  C   UNL     1     -12.173  12.009  63.282  1.00  0.00    -0.531 C  
HETATM    2  C   UNL     1     -12.150  13.295  64.093  1.00  0.00    -0.494 C  
ENDROOT
BRANCH   2   3
HETATM    3  C   UNL     1     -12.535  13.054  65.554  1.00  0.00    -0.496 C  
BRANCH   3   4
HETATM    4  C   UNL     1     -11.941  14.138  66.461  1.00  0.00    -0.466 C  
BRANCH   4   5
HETATM    5  C   UNL     1     -10.597  14.686  65.961  1.00  0.00    -0.314 C  
BRANCH   5   6
HETATM    6  C   UNL     1     -10.329  16.118  66.366  1.00  0.00    -0.321 A  
HETATM    7  C   UNL     1      -9.751  16.394  67.615  1.00  0.00    -0.238 A  
HETATM    8  C   UNL     1      -9.559  17.710  68.042  1.00  0.00    -0.289 A  
HETATM    9  C   UNL     1      -9.926  18.780  67.221  1.00  0.00    -0.372 A  
HETATM   10  C   UNL     1      -9.769  20.197  67.687  1.00  0.00    -0.551 C  
HETATM   11  C   UNL     1     -10.458  18.514  65.954  1.00  0.00    -0.379 A  
HETATM   12  C   UNL     1     -10.658  17.195  65.538  1.00  0.00    -0.150 A  
HETATM   13  O   UNL     1     -11.197  16.948  64.306  1.00  0.00    -1.325 OA 
HETATM   14  H   UNL     1     -11.420  17.680  63.744  1.00  0.00     0.000 HD 
ENDBRANCH   5   6
ENDBRANCH   4   5
ENDBRANCH   3   4
ENDBRANCH   2   3
TORSDOF 4
ENDMDL
MODEL       10
REMARK 921   NORMALIZED FREE ENERGY PREDICTED BY IDOCK:   -4.81 KCAL/MOL
REMARK 922        TOTAL FREE ENERGY PREDICTED BY IDOCK:   -6.26 KCAL/MOL
REMARK 923 INTER-LIGAND FREE ENERGY PREDICTED BY IDOCK:   -6.01 KCAL/MOL
REMARK 924 INTRA-LIGAND FREE ENERGY PREDICTED BY IDOCK:   -0.25 KCAL/MOL
REMARK 927      BINDING AFFINITY PREDICTED BY RF-SCORE:    0.00 PKD
ROOT
HETATM    1  C   UNL     1     -12.069  12.919  63.489  1.00  0.00    -0.633 C  
HETATM    2  C   UNL     1     -12.565  12.610  64.894  1.00  0.00    -0.525 C  
ENDROOT
BRANCH   2   3
HETATM    3  C   UNL     1     -12.609  13.862  65.771  1.00  0.00    -0.533 C  
BRANCH   3   4
HETATM    4  C   UNL     1     -11.905  13.616  67.110  1.00  0.00    -0.435 C  
BRANCH   4   5
HETATM    5  C   UNL     1     -11.424  14.904  67.795  1.00  0.00    -0.353 C  
BRANCH   5   6
HETATM    6  C   UNL     1     -11.674  14.935  69.286  1.00  0.00    -0.344 A  
HETATM    7  C   UNL     1     -12.261  13.828  69.918  1.00  0.00    -0.383 A  
HETATM    8  C   UNL     1     -12.566  13.859  71.281  1.00  0.00    -0.450 A  
HETATM    9  C   UNL     1     -12.275  14.993  72.045  1.00  0.00    -0.436 A  
HETATM   10  C   UNL     1     -12.640  15.057  73.498  1.00  0.00    -0.664 C  
HETATM   11  C   UNL     1     -11.645  16.082  71.433  1.00  0.00    -0.520 A  
HETATM   12  C   UNL     1     -11.352  16.049  70.067  1.00  0.00    -0.352 A  
HETATM   13  O   UNL     1     -10.755  17.127  69.476  1.00  0.00    -0.376 OA 
HETATM   14  H   UNL     1     -10.537  17.884  70.007  1.00  0.00     0.000 HD 
ENDBRANCH   5   6
ENDBRANCH   4   5
ENDBRANCH   3   4
ENDBRANCH   2   3
TORSDOF 4
ENDMDL
MODEL       11
REMARK 921   NORMALIZED FREE ENERGY PREDICTED BY IDOCK:   -4.81 KCAL/MOL
REMARK 922        TOTAL FREE ENERGY PREDICTED BY IDOCK:   -6.25 KCAL/MOL
REMARK 923 INTER-LIGAND FREE ENERGY PREDICTED BY IDOCK:   -5.91 KCAL/MOL
REMARK 924 INTRA-LIGAND FREE ENERGY PREDICTED BY IDOCK:   -0.35 KCAL/MOL
REMARK 927      BINDING AFFINITY PREDICTED BY RF-SCORE:    0.00 PKD
ROOT
HETATM    1  C   UNL     1     -12.655  16.151  74.444  1.00  0.00    -0.590 C  
HETATM    2  C   UNL     1     -11.959  15.397  73.321  1.00  0.00    -0.566 C  
ENDROOT
BRANCH   2   3
HETATM    3  C   UNL     1     -11.786  16.265  72.073  1.00  0.00    -0.568 C  
BRANCH   3   4
HETATM    4  C   UNL     1     -11.755  15.401  70.807  1.00  0.00    -0.385 C  
BRANCH   4   5
HETATM    5  C   UNL     1     -13.003  14.524  70.633  1.00  0.00    -0.358 C  
BRANCH   5   6
HETATM    6  C   UNL     1     -12.754  13.050  70.864  1.00  0.00    -0.299 A  
HETATM    7  C   UNL     1     -11.871  12.353  70.026  1.00  0.00    -0.363 A  
HETATM    8  C   UNL     1     -11.677  10.977  70.174  1.00  0.00    -0.442 A  
HETATM    9  C   UNL     1     -12.351  10.272  71.175  1.00  0.00    -0.501 A  
HETATM   10  C   UNL     1     -12.189   8.787  71.314  1.00  0.00    -0.332 C  
HETATM   11  C   UNL     1     -13.196  10.969  72.046  1.00  0.00    -0.447 A  
HETATM   12  C   UNL     1     -13.394  12.342  71.886  1.00  0.00    -0.349 A  
HETATM   13  O   UNL     1     -14.237  13.009  72.730  1.00  0.00    -0.708 OA 
HETATM   14  H   UNL     1     -14.672  12.527  73.424  1.00  0.00     0.000 HD 
ENDBRANCH   5   6
ENDBRANCH   4   5
ENDBRANCH   3   4
ENDBRANCH   2   3
TORSDOF 4
ENDMDL
MODEL       12
REMARK 921   NORMALIZED FREE ENERGY PREDICTED BY IDOCK:   -4.79 KCAL/MOL
REMARK 922        TOTAL FREE ENERGY PREDICTED BY IDOCK:   -6.23 KCAL/MOL
REMARK 923 INTER-LIGAND FREE ENERGY PREDICTED BY IDOCK:   -5.81 KCAL/MOL
REMARK 924 INTRA-LIGAND FREE ENERGY PREDICTED BY IDOCK:   -0.42 KCAL/MOL
REMARK 927      BINDING AFFINITY PREDICTED BY RF-SCORE:    0.00 PKD
ROOT
HETATM    1  C   UNL     1     -12.391  16.272  74.539  1.00  0.00    -0.584 C  
HETATM    2  C   UNL     1     -12.441  15.811  73.091  1.00  0.00    -0.599 C  
ENDROOT
BRANCH   2   3
HETATM    3  C   UNL     1     -13.836  15.325  72.696  1.00  0.00    -0.585 C  
BRANCH   3   4
HETATM    4  C   UNL     1     -13.928  15.100  71.182  1.00  0.00    -0.487 C  
BRANCH   4   5
HETATM    5  C   UNL     1     -12.567  15.151  70.472  1.00  0.00    -0.429 C  
BRANCH   5   6
HETATM    6  C   UNL     1     -12.233  13.896  69.697  1.00  0.00    -0.374 A  
HETATM    7  C   UNL     1     -12.096  12.674  70.374  1.00  0.00    -0.381 A  
HETATM    8  C   UNL     1     -11.718  11.515  69.691  1.00  0.00    -0.419 A  
HETATM    9  C   UNL     1     -11.486  11.550  68.314  1.00  0.00    -0.368 A  
HETATM   10  C   UNL     1     -11.034  10.323  67.578  1.00  0.00    -0.344 C  
HETATM   11  C   UNL     1     -11.667  12.754  67.623  1.00  0.00    -0.422 A  
HETATM   12  C   UNL     1     -12.034  13.911  68.313  1.00  0.00    -0.357 A  
HETATM   13  O   UNL     1     -12.189  15.086  67.631  1.00  0.00    -0.464 OA 
HETATM   14  H   UNL     1     -12.054  15.096  66.691  1.00  0.00     0.000 HD 
ENDBRANCH   5   6
ENDBRANCH   4   5
ENDBRANCH   3   4
ENDBRANCH   2   3
TORSDOF 4
ENDMDL
MODEL       13
REMARK 921   NORMALIZED FREE ENERGY PREDICTED BY IDOCK:   -4.73 KCAL/MOL
REMARK 922        TOTAL FREE ENERGY PREDICTED BY IDOCK:   -6.15 KCAL/MOL
REMARK 923 INTER-LIGAND FREE ENERGY PREDICTED BY IDOCK:   -5.65 KCAL/MOL
REMARK 924 INTRA-LIGAND FREE ENERGY PREDICTED BY IDOCK:   -0.50 KCAL/MOL
REMARK 927      BINDING AFFINITY PREDICTED BY RF-SCORE:    0.00 PKD
ROOT
HETATM    1  C   UNL     1     -12.785  15.038  73.531  1.00  0.00    -0.667 C  
HETATM    2  C   UNL     1     -12.143  16.167  72.740  1.00  0.00    -0.653 C  
ENDROOT
BRANCH   2   3
HETATM    3  C   UNL     1     -11.537  15.670  71.427  1.00  0.00    -0.499 C  
BRANCH   3   4
HETATM    4  C   UNL     1     -12.575  14.899  70.604  1.00  0.00    -0.420 C  
BRANCH   4   5
HETATM    5  C   UNL     1     -11.963  13.804  69.718  1.00  0.00    -0.406 C  
BRANCH   5   6
HETATM    6  C   UNL     1     -12.156  12.403  70.254  1.00  0.00    -0.377 A  
HETATM    7  C   UNL     1     -13.016  12.183  71.341  1.00  0.00    -0.357 A  
HETATM    8  C   UNL     1     -13.158  10.910  71.899  1.00  0.00    -0.537 A  
HETATM    9  C   UNL     1     -12.454   9.825  71.370  1.00  0.00    -0.482 A  
HETATM   10  C   UNL     1     -12.560   8.463  71.989  1.00  0.00    -0.400 C  
HETATM   11  C   UNL     1     -11.632  10.025  70.255  1.00  0.00    -0.354 A  
HETATM   12  C   UNL     1     -11.486  11.303  69.709  1.00  0.00    -0.310 A  
HETATM   13  O   UNL     1     -10.665  11.490  68.633  1.00  0.00    -0.190 OA 
HETATM   14  H   UNL     1     -10.210  10.742  68.263  1.00  0.00     0.000 HD 
ENDBRANCH   5   6
ENDBRANCH   4   5
ENDBRANCH   3   4
ENDBRANCH   2   3
TORSDOF 4
ENDMDL
MODEL       14
REMARK 921   NORMALIZED FREE ENERGY PREDICTED BY IDOCK:   -4.69 KCAL/MOL
REMARK 922        TOTAL FREE ENERGY PREDICTED BY IDOCK:   -6.11 KCAL/MOL
REMARK 923 INTER-LIGAND FREE ENERGY PREDICTED BY IDOCK:   -5.81 KCAL/MOL
REMARK 924 INTRA-LIGAND FREE ENERGY PREDICTED BY IDOCK:   -0.30 KCAL/MOL
REMARK 927      BINDING AFFINITY PREDICTED BY RF-SCORE:    0.00 PKD
ROOT
HETATM    1  C   UNL     1     -14.127   7.146  71.545  1.00  0.00    -0.467 C  
HETATM    2  C   UNL     1     -12.615   7.210  71.387  1.00  0.00    -0.432 C  
ENDROOT
BRANCH   2   3
HETATM    3  C   UNL     1     -11.989   8.253  72.314  1.00  0.00    -0.448 C  
BRANCH   3   4
HETATM    4  C   UNL     1     -11.775   9.580  71.577  1.00  0.00    -0.472 C  
BRANCH   4   5
HETATM    5  C   UNL     1     -12.899  10.600  71.813  1.00  0.00    -0.549 C  
BRANCH   5   6
HETATM    6  C   UNL     1     -12.681  11.924  71.116  1.00  0.00    -0.384 A  
HETATM    7  C   UNL     1     -11.902  11.979  69.950  1.00  0.00    -0.405 A  
HETATM    8  C   UNL     1     -11.627  13.200  69.328  1.00  0.00    -0.370 A  
HETATM    9  C   UNL     1     -12.141  14.390  69.850  1.00  0.00    -0.398 A  
HETATM   10  C   UNL     1     -11.814  15.711  69.219  1.00  0.00    -0.378 C  
HETATM   11  C   UNL     1     -12.959  14.339  70.984  1.00  0.00    -0.411 A  
HETATM   12  C   UNL     1     -13.220  13.117  71.608  1.00  0.00    -0.346 A  
HETATM   13  O   UNL     1     -14.004  13.081  72.727  1.00  0.00    -0.745 OA 
HETATM   14  H   UNL     1     -14.370  13.892  73.060  1.00  0.00     0.000 HD 
ENDBRANCH   5   6
ENDBRANCH   4   5
ENDBRANCH   3   4
ENDBRANCH   2   3
TORSDOF 4
ENDMDL
MODEL       15
REMARK 921   NORMALIZED FREE ENERGY PREDICTED BY IDOCK:   -4.66 KCAL/MOL
REMARK 922        TOTAL FREE ENERGY PREDICTED BY IDOCK:   -6.08 KCAL/MOL
REMARK 923 INTER-LIGAND FREE ENERGY PREDICTED BY IDOCK:   -5.82 KCAL/MOL
REMARK 924 INTRA-LIGAND FREE ENERGY PREDICTED BY IDOCK:   -0.26 KCAL/MOL
REMARK 927      BINDING AFFINITY PREDICTED BY RF-SCORE:    0.00 PKD
ROOT
HETATM    1  C   UNL     1     -12.348  12.276  63.950  1.00  0.00    -0.606 C  
HETATM    2  C   UNL     1     -12.325  13.015  65.279  1.00  0.00    -0.537 C  
ENDROOT
BRANCH   2   3
HETATM    3  C   UNL     1     -11.640  12.195  66.374  1.00  0.00    -0.429 C  
BRANCH   3   4
HETATM    4  C   UNL     1     -11.411  13.045  67.629  1.00  0.00    -0.342 C  
BRANCH   4   5
HETATM    5  C   UNL     1     -11.798  12.329  68.932  1.00  0.00    -0.355 C  
BRANCH   5   6
HETATM    6  C   UNL     1     -12.282  13.259  70.022  1.00  0.00    -0.345 A  
HETATM    7  C   UNL     1     -12.156  14.648  69.861  1.00  0.00    -0.385 A  
HETATM    8  C   UNL     1     -12.531  15.525  70.882  1.00  0.00    -0.494 A  
HETATM    9  C   UNL     1     -13.057  15.033  72.079  1.00  0.00    -0.440 A  
HETATM   10  C   UNL     1     -13.419  15.961  73.201  1.00  0.00    -0.650 C  
HETATM   11  C   UNL     1     -13.232  13.652  72.229  1.00  0.00    -0.565 A  
HETATM   12  C   UNL     1     -12.844  12.780  71.209  1.00  0.00    -0.262 A  
HETATM   13  O   UNL     1     -13.001  11.432  71.374  1.00  0.00    -0.412 OA 
HETATM   14  H   UNL     1     -13.383  11.107  72.181  1.00  0.00     0.000 HD 
ENDBRANCH   5   6
ENDBRANCH   4   5
ENDBRANCH   3   4
ENDBRANCH   2   3
TORSDOF 4
ENDMDL
MODEL       16
REMARK 921   NORMALIZED FREE ENERGY PREDICTED BY IDOCK:   -4.66 KCAL/MOL
REMARK 922        TOTAL FREE ENERGY PREDICTED BY IDOCK:   -6.07 KCAL/MOL
REMARK 923 INTER-LIGAND FREE ENERGY PREDICTED BY IDOCK:   -5.56 KCAL/MOL
REMARK 924 INTRA-LIGAND FREE ENERGY PREDICTED BY IDOCK:   -0.52 KCAL/MOL
REMARK 927      BINDING AFFINITY PREDICTED BY RF-SCORE:    0.00 PKD
ROOT
HETATM    1  C   UNL     1     -11.586   9.850  70.935  1.00  0.00    -0.456 C  
HETATM    2  C   UNL     1     -10.863  10.296  69.673  1.00  0.00    -0.311 C  
ENDROOT
BRANCH   2   3
HETATM    3  C   UNL     1     -11.751  11.171  68.787  1.00  0.00    -0.394 C  
BRANCH   3   4
HETATM    4  C   UNL     1     -11.192  12.595  68.691  1.00  0.00    -0.323 C  
BRANCH   4   5
HETATM    5  C   UNL     1     -12.243  13.684  68.951  1.00  0.00    -0.221 C  
BRANCH   5   6
HETATM    6  C   UNL     1     -12.248  14.206  70.370  1.00  0.00    -0.427 A  
HETATM    7  C   UNL     1     -13.027  13.567  71.347  1.00  0.00    -0.421 A  
HETATM    8  C   UNL     1     -13.104  14.071  72.647  1.00  0.00    -0.553 A  
HETATM    9  C   UNL     1     -12.388  15.217  73.004  1.00  0.00    -0.525 A  
HETATM   10  C   UNL     1     -12.498  15.796  74.383  1.00  0.00    -0.790 C  
HETATM   11  C   UNL     1     -11.569  15.833  72.050  1.00  0.00    -0.541 A  
HETATM   12  C   UNL     1     -11.506  15.329  70.748  1.00  0.00    -0.325 A  
HETATM   13  O   UNL     1     -10.719  15.951  69.819  1.00  0.00    -0.270 OA 
HETATM   14  H   UNL     1     -10.215  16.714  70.076  1.00  0.00     0.000 HD 
ENDBRANCH   5   6
ENDBRANCH   4   5
ENDBRANCH   3   4
ENDBRANCH   2   3
TORSDOF 4
ENDMDL
MODEL       17
REMARK 921   NORMALIZED FREE ENERGY PREDICTED BY IDOCK:   -4.63 KCAL/MOL
REMARK 922        TOTAL FREE ENERGY PREDICTED BY IDOCK:   -6.04 KCAL/MOL
REMARK 923 INTER-LIGAND FREE ENERGY PREDICTED BY IDOCK:   -5.45 KCAL/MOL
REMARK 924 INTRA-LIGAND FREE ENERGY PREDICTED BY IDOCK:   -0.59 KCAL/MOL
REMARK 927      BINDING AFFINITY PREDICTED BY RF-SCORE:    0.00 PKD
ROOT
HETATM    1  C   UNL     1     -10.780   5.554  69.584  1.00  0.00    -0.349 C  
HETATM    2  C   UNL     1      -9.759   5.239  70.668  1.00  0.00    -0.249 C  
ENDROOT
BRANCH   2   3
HETATM    3  C   UNL     1     -10.390   5.238  72.061  1.00  0.00    -0.273 C  
BRANCH   3   4
HETATM    4  C   UNL     1     -11.664   6.090  72.084  1.00  0.00    -0.335 C  
BRANCH   4   5
HETATM    5  C   UNL     1     -11.519   7.387  72.894  1.00  0.00    -0.269 C  
BRANCH   5   6
HETATM    6  C   UNL     1     -11.731   8.644  72.080  1.00  0.00    -0.442 A  
HETATM    7  C   UNL     1     -10.779   9.023  71.121  1.00  0.00    -0.358 A  
HETATM    8  C   UNL     1     -10.916  10.215  70.406  1.00  0.00    -0.386 A  
HETATM    9  C   UNL     1     -12.018  11.047  70.625  1.00  0.00    -0.464 A  
HETATM   10  C   UNL     1     -12.152  12.353  69.899  1.00  0.00    -0.317 C  
HETATM   11  C   UNL     1     -12.996  10.653  71.544  1.00  0.00    -0.566 A  
HETATM   12  C   UNL     1     -12.848   9.465  72.263  1.00  0.00    -0.375 A  
HETATM   13  O   UNL     1     -13.800   9.100  73.173  1.00  0.00    -1.065 OA 
HETATM   14  H   UNL     1     -14.559   9.658  73.297  1.00  0.00     0.000 HD 
ENDBRANCH   5   6
ENDBRANCH   4   5
ENDBRANCH   3   4
ENDBRANCH   2   3
TORSDOF 4
ENDMDL
MODEL       18
REMARK 921   NORMALIZED FREE ENERGY PREDICTED BY IDOCK:   -4.58 KCAL/MOL
REMARK 922        TOTAL FREE ENERGY PREDICTED BY IDOCK:   -5.98 KCAL/MOL
REMARK 923 INTER-LIGAND FREE ENERGY PREDICTED BY IDOCK:   -5.73 KCAL/MOL
REMARK 924 INTRA-LIGAND FREE ENERGY PREDICTED BY IDOCK:   -0.25 KCAL/MOL
REMARK 927      BINDING AFFINITY PREDICTED BY RF-SCORE:    0.00 PKD
ROOT
HETATM    1  C   UNL     1     -13.837  15.584  72.607  1.00  0.00    -0.654 C  
HETATM    2  C   UNL     1     -13.490  15.221  71.171  1.00  0.00    -0.559 C  
ENDROOT
BRANCH   2   3
HETATM    3  C   UNL     1     -12.097  15.717  70.779  1.00  0.00    -0.454 C  
BRANCH   3   4
HETATM    4  C   UNL     1     -11.876  15.584  69.268  1.00  0.00    -0.372 C  
BRANCH   4   5
HETATM    5  C   UNL     1     -11.217  14.258  68.859  1.00  0.00    -0.289 C  
BRANCH   5   6
HETATM    6  C   UNL     1     -11.387  13.915  67.397  1.00  0.00    -0.349 A  
HETATM    7  C   UNL     1     -11.140  14.889  66.417  1.00  0.00    -0.342 A  
HETATM    8  C   UNL     1     -11.357  14.618  65.064  1.00  0.00    -0.390 A  
HETATM    9  C   UNL     1     -11.810  13.360  64.660  1.00  0.00    -0.430 A  
HETATM   10  C   UNL     1     -12.092  13.071  63.215  1.00  0.00    -0.499 C  
HETATM   11  C   UNL     1     -12.012  12.366  65.625  1.00  0.00    -0.449 A  
HETATM   12  C   UNL     1     -11.804  12.648  66.977  1.00  0.00    -0.345 A  
HETATM   13  O   UNL     1     -12.024  11.676  67.913  1.00  0.00    -0.599 OA 
HETATM   14  H   UNL     1     -12.307  10.815  67.628  1.00  0.00     0.000 HD 
ENDBRANCH   5   6
ENDBRANCH   4   5
ENDBRANCH   3   4
ENDBRANCH   2   3
TORSDOF 4
ENDMDL
MODEL       19
REMARK 921   NORMALIZED FREE ENERGY PREDICTED BY IDOCK:   -4.57 KCAL/MOL
REMARK 922        TOTAL FREE ENERGY PREDICTED BY IDOCK:   -5.97 KCAL/MOL
REMARK 923 INTER-LIGAND FREE ENERGY PREDICTED BY IDOCK:   -5.51 KCAL/MOL
REMARK 924 INTRA-LIGAND FREE ENERGY PREDICTED BY IDOCK:   -0.46 KCAL/MOL
REMARK 927      BINDING AFFINITY PREDICTED BY RF-SCORE:    0.00 PKD
ROOT
HETATM    1  C   UNL     1     -11.945   6.676  71.567  1.00  0.00    -0.402 C  
HETATM    2  C   UNL     1     -12.155   8.170  71.755  1.00  0.00    -0.357 C  
ENDROOT
BRANCH   2   3
HETATM    3  C   UNL     1     -10.831   8.935  71.765  1.00  0.00    -0.436 C  
BRANCH   3   4
HETATM    4  C   UNL     1     -10.739   9.885  70.565  1.00  0.00    -0.382 C  
BRANCH   4   5
HETATM    5  C   UNL     1     -12.101  10.432  70.113  1.00  0.00    -0.334 C  
BRANCH   5   6
HETATM    6  C   UNL     1     -12.455  11.772  70.718  1.00  0.00    -0.405 A  
HETATM    7  C   UNL     1     -13.220  11.827  71.893  1.00  0.00    -0.468 A  
HETATM    8  C   UNL     1     -13.620  13.052  72.432  1.00  0.00    -0.628 A  
HETATM    9  C   UNL     1     -13.248  14.250  71.816  1.00  0.00    -0.444 A  
HETATM   10  C   UNL     1     -13.710  15.570  72.358  1.00  0.00    -0.655 C  
HETATM   11  C   UNL     1     -12.444  14.206  70.672  1.00  0.00    -0.432 A  
HETATM   12  C   UNL     1     -12.057  12.977  70.131  1.00  0.00    -0.307 A  
HETATM   13  O   UNL     1     -11.288  12.946  69.001  1.00  0.00    -0.261 OA 
HETATM   14  H   UNL     1     -11.018  13.765  68.604  1.00  0.00     0.000 HD 
ENDBRANCH   5   6
ENDBRANCH   4   5
ENDBRANCH   3   4
ENDBRANCH   2   3
TORSDOF 4
ENDMDL
MODEL       20
REMARK 921   NORMALIZED FREE ENERGY PREDICTED BY IDOCK:   -4.56 KCAL/MOL
REMARK 922        TOTAL FREE ENERGY PREDICTED BY IDOCK:   -5.95 KCAL/MOL
REMARK 923 INTER-LIGAND FREE ENERGY PREDICTED BY IDOCK:   -5.64 KCAL/MOL
REMARK 924 INTRA-LIGAND FREE ENERGY PREDICTED BY IDOCK:   -0.31 KCAL/MOL
REMARK 927      BINDING AFFINITY PREDICTED BY RF-SCORE:    0.00 PKD
ROOT
HETATM    1  C   UNL     1     -10.559  12.048  63.552  1.00  0.00    -0.514 C  
HETATM    2  C   UNL     1     -12.072  12.186  63.626  1.00  0.00    -0.648 C  
ENDROOT
BRANCH   2   3
HETATM    3  C   UNL     1     -12.533  12.673  65.001  1.00  0.00    -0.556 C  
BRANCH   3   4
HETATM    4  C   UNL     1     -11.345  12.800  65.961  1.00  0.00    -0.363 C  
BRANCH   4   5
HETATM    5  C   UNL     1     -11.344  11.744  67.076  1.00  0.00    -0.387 C  
BRANCH   5   6
HETATM    6  C   UNL     1     -11.815  12.265  68.415  1.00  0.00    -0.358 A  
HETATM    7  C   UNL     1     -12.026  13.641  68.593  1.00  0.00    -0.395 A  
HETATM    8  C   UNL     1     -12.393  14.155  69.839  1.00  0.00    -0.382 A  
HETATM    9  C   UNL     1     -12.574  13.301  70.931  1.00  0.00    -0.386 A  
HETATM   10  C   UNL     1     -12.921  13.845  72.285  1.00  0.00    -0.450 C  
HETATM   11  C   UNL     1     -12.413  11.922  70.750  1.00  0.00    -0.384 A  
HETATM   12  C   UNL     1     -12.035  11.416  69.504  1.00  0.00    -0.341 A  
HETATM   13  O   UNL     1     -11.861  10.070  69.345  1.00  0.00    -0.474 OA 
HETATM   14  H   UNL     1     -12.010   9.493  70.085  1.00  0.00     0.000 HD 
ENDBRANCH   5   6
ENDBRANCH   4   5
ENDBRANCH   3   4
ENDBRANCH   2   3
TORSDOF 4
ENDMDL
MODEL       21
REMARK 921   NORMALIZED FREE ENERGY PREDICTED BY IDOCK:   -4.56 KCAL/MOL
REMARK 922        TOTAL FREE ENERGY PREDICTED BY IDOCK:   -5.95 KCAL/MOL
REMARK 923 INTER-LIGAND FREE ENERGY PREDICTED BY IDOCK:   -5.58 KCAL/MOL
REMARK 924 INTRA-LIGAND FREE ENERGY PREDICTED BY IDOCK:   -0.37 KCAL/MOL
REMARK 927      BINDING AFFINITY PREDICTED BY RF-SCORE:    0.00 PKD
ROOT
HETATM    1  C   UNL     1     -11.009   6.399  67.282  1.00  0.00    -0.474 C  
HETATM    2  C   UNL     1     -10.233   5.979  68.522  1.00  0.00    -0.227 C  
ENDROOT
BRANCH   2   3
HETATM    3  C   UNL     1     -11.127   5.919  69.761  1.00  0.00    -0.422 C  
BRANCH   3   4
HETATM    4  C   UNL     1     -10.842   7.099  70.697  1.00  0.00    -0.268 C  
BRANCH   4   5
HETATM    5  C   UNL     1     -12.099   7.655  71.382  1.00  0.00    -0.342 C  
BRANCH   5   6
HETATM    6  C   UNL     1     -12.258   9.153  71.250  1.00  0.00    -0.395 A  
HETATM    7  C   UNL     1     -11.494   9.855  70.306  1.00  0.00    -0.349 A  
HETATM    8  C   UNL     1     -11.570  11.247  70.213  1.00  0.00    -0.366 A  
HETATM    9  C   UNL     1     -12.426  11.965  71.052  1.00  0.00    -0.390 A  
HETATM   10  C   UNL     1     -12.482  13.463  70.995  1.00  0.00    -0.437 C  
HETATM   11  C   UNL     1     -13.227  11.269  71.964  1.00  0.00    -0.437 A  
HETATM   12  C   UNL     1     -13.138   9.878  72.059  1.00  0.00    -0.448 A  
HETATM   13  O   UNL     1     -13.911   9.210  72.967  1.00  0.00    -1.026 OA 
HETATM   14  H   UNL     1     -14.509   9.703  73.516  1.00  0.00     0.000 HD 
ENDBRANCH   5   6
ENDBRANCH   4   5
ENDBRANCH   3   4
ENDBRANCH   2   3
TORSDOF 4
ENDMDL
MODEL       22
REMARK 921   NORMALIZED FREE ENERGY PREDICTED BY IDOCK:   -4.55 KCAL/MOL
REMARK 922        TOTAL FREE ENERGY PREDICTED BY IDOCK:   -5.94 KCAL/MOL
REMARK 923 INTER-LIGAND FREE ENERGY PREDICTED BY IDOCK:   -5.50 KCAL/MOL
REMARK 924 INTRA-LIGAND FREE ENERGY PREDICTED BY IDOCK:   -0.44 KCAL/MOL
REMARK 927      BINDING AFFINITY PREDICTED BY RF-SCORE:    0.00 PKD
ROOT
HETATM    1  C   UNL     1     -12.231  14.873  70.163  1.00  0.00    -0.387 C  
HETATM    2  C   UNL     1     -11.843  14.039  68.951  1.00  0.00    -0.390 C  
ENDROOT
BRANCH   2   3
HETATM    3  C   UNL     1     -10.960  14.823  67.979  1.00  0.00    -0.276 C  
BRANCH   3   4
HETATM    4  C   UNL     1     -11.685  15.057  66.649  1.00  0.00    -0.144 C  
BRANCH   4   5
HETATM    5  C   UNL     1     -12.522  13.854  66.188  1.00  0.00    -0.478 C  
BRANCH   5   6
HETATM    6  C   UNL     1     -11.751  12.853  65.357  1.00  0.00    -0.413 A  
HETATM    7  C   UNL     1     -11.033  11.827  65.990  1.00  0.00    -0.355 A  
HETATM    8  C   UNL     1     -10.256  10.932  65.248  1.00  0.00    -0.351 A  
HETATM    9  C   UNL     1     -10.194  11.036  63.856  1.00  0.00    -0.425 A  
HETATM   10  C   UNL     1      -9.327  10.113  63.053  1.00  0.00    -0.330 C  
HETATM   11  C   UNL     1     -10.946  12.027  63.213  1.00  0.00    -0.399 A  
HETATM   12  C   UNL     1     -11.712  12.924  63.961  1.00  0.00    -0.434 A  
HETATM   13  O   UNL     1     -12.426  13.901  63.324  1.00  0.00    -1.113 OA 
HETATM   14  H   UNL     1     -12.399  13.948  62.376  1.00  0.00     0.000 HD 
ENDBRANCH   5   6
ENDBRANCH   4   5
ENDBRANCH   3   4
ENDBRANCH   2   3
TORSDOF 4
ENDMDL
MODEL       23
REMARK 921   NORMALIZED FREE ENERGY PREDICTED BY IDOCK:   -4.54 KCAL/MOL
REMARK 922        TOTAL FREE ENERGY PREDICTED BY IDOCK:   -5.93 KCAL/MOL
REMARK 923 INTER-LIGAND FREE ENERGY PREDICTED BY IDOCK:   -5.58 KCAL/MOL
REMARK 924 INTRA-LIGAND FREE ENERGY PREDICTED BY IDOCK:   -0.35 KCAL/MOL
REMARK 927      BINDING AFFINITY PREDICTED BY RF-SCORE:    0.00 PKD
ROOT
HETATM    1  C   UNL     1     -11.870   6.691  72.110  1.00  0.00    -0.337 C  
HETATM    2  C   UNL     1     -11.507   8.144  72.373  1.00  0.00    -0.462 C  
ENDROOT
BRANCH   2   3
HETATM    3  C   UNL     1     -10.197   8.537  71.687  1.00  0.00    -0.336 C  
BRANCH   3   4
HETATM    4  C   UNL     1     -10.435   9.633  70.643  1.00  0.00    -0.379 C  
BRANCH   4   5
HETATM    5  C   UNL     1     -11.921   9.928  70.392  1.00  0.00    -0.271 C  
BRANCH   5   6
HETATM    6  C   UNL     1     -12.326  11.351  70.708  1.00  0.00    -0.483 A  
HETATM    7  C   UNL     1     -11.851  12.404  69.912  1.00  0.00    -0.376 A  
HETATM    8  C   UNL     1     -12.153  13.732  70.224  1.00  0.00    -0.425 A  
HETATM    9  C   UNL     1     -12.950  14.034  71.331  1.00  0.00    -0.427 A  
HETATM   10  C   UNL     1     -13.242  15.457  71.706  1.00  0.00    -0.544 C  
HETATM   11  C   UNL     1     -13.468  12.987  72.103  1.00  0.00    -0.638 A  
HETATM   12  C   UNL     1     -13.154  11.662  71.791  1.00  0.00    -0.382 A  
HETATM   13  O   UNL     1     -13.649  10.648  72.563  1.00  0.00    -0.518 OA 
HETATM   14  H   UNL     1     -14.211  10.860  73.299  1.00  0.00     0.000 HD 
ENDBRANCH   5   6
ENDBRANCH   4   5
ENDBRANCH   3   4
ENDBRANCH   2   3
TORSDOF 4
ENDMDL
MODEL       24
REMARK 921   NORMALIZED FREE ENERGY PREDICTED BY IDOCK:   -4.54 KCAL/MOL
REMARK 922        TOTAL FREE ENERGY PREDICTED BY IDOCK:   -5.92 KCAL/MOL
REMARK 923 INTER-LIGAND FREE ENERGY PREDICTED BY IDOCK:   -5.52 KCAL/MOL
REMARK 924 INTRA-LIGAND FREE ENERGY PREDICTED BY IDOCK:   -0.40 KCAL/MOL
REMARK 927      BINDING AFFINITY PREDICTED BY RF-SCORE:    0.00 PKD
ROOT
HETATM    1  C   UNL     1     -13.674  15.044  71.288  1.00  0.00    -0.523 C  
HETATM    2  C   UNL     1     -12.369  14.299  71.052  1.00  0.00    -0.431 C  
ENDROOT
BRANCH   2   3
HETATM    3  C   UNL     1     -11.283  15.218  70.489  1.00  0.00    -0.338 C  
BRANCH   3   4
HETATM    4  C   UNL     1     -11.759  15.899  69.201  1.00  0.00    -0.369 C  
BRANCH   4   5
HETATM    5  C   UNL     1     -10.713  15.880  68.077  1.00  0.00    -0.301 C  
BRANCH   5   6
HETATM    6  C   UNL     1     -11.109  15.037  66.886  1.00  0.00    -0.331 A  
HETATM    7  C   UNL     1     -11.706  13.783  67.087  1.00  0.00    -0.417 A  
HETATM    8  C   UNL     1     -12.017  12.954  66.005  1.00  0.00    -0.505 A  
HETATM    9  C   UNL     1     -11.752  13.370  64.698  1.00  0.00    -0.406 A  
HETATM   10  C   UNL     1     -12.036  12.471  63.531  1.00  0.00    -0.653 C  
HETATM   11  C   UNL     1     -11.201  14.640  64.486  1.00  0.00    -0.290 A  
HETATM   12  C   UNL     1     -10.883  15.458  65.572  1.00  0.00    -0.374 A  
HETATM   13  O   UNL     1     -10.327  16.688  65.354  1.00  0.00    -0.584 OA 
HETATM   14  H   UNL     1     -10.174  16.974  64.461  1.00  0.00     0.000 HD 
ENDBRANCH   5   6
ENDBRANCH   4   5
ENDBRANCH   3   4
ENDBRANCH   2   3
TORSDOF 4
ENDMDL
MODEL       25
REMARK 921   NORMALIZED FREE ENERGY PREDICTED BY IDOCK:   -4.48 KCAL/MOL
REMARK 922        TOTAL FREE ENERGY PREDICTED BY IDOCK:   -5.86 KCAL/MOL
REMARK 923 INTER-LIGAND FREE ENERGY PREDICTED BY IDOCK:   -5.46 KCAL/MOL
REMARK 924 INTRA-LIGAND FREE ENERGY PREDICTED BY IDOCK:   -0.40 KCAL/MOL
REMARK 927      BINDING AFFINITY PREDICTED BY RF-SCORE:    0.00 PKD
ROOT
HETATM    1  C   UNL     1      -9.469  19.924  66.194  1.00  0.00    -0.466 C  
HETATM    2  C   UNL     1      -9.083  20.012  67.662  1.00  0.00    -0.441 C  
ENDROOT
BRANCH   2   3
HETATM    3  C   UNL     1      -9.981  19.139  68.540  1.00  0.00    -0.496 C  
BRANCH   3   4
HETATM    4  C   UNL     1     -10.754  18.123  67.691  1.00  0.00    -0.364 C  
BRANCH   4   5
HETATM    5  C   UNL     1     -10.505  16.665  68.103  1.00  0.00    -0.321 C  
BRANCH   5   6
HETATM    6  C   UNL     1     -10.854  15.657  67.030  1.00  0.00    -0.294 A  
HETATM    7  C   UNL     1     -10.216  15.718  65.782  1.00  0.00    -0.394 A  
HETATM    8  C   UNL     1     -10.570  14.843  64.751  1.00  0.00    -0.336 A  
HETATM    9  C   UNL     1     -11.560  13.878  64.954  1.00  0.00    -0.365 A  
HETATM   10  C   UNL     1     -11.983  12.964  63.842  1.00  0.00    -0.550 C  
HETATM   11  C   UNL     1     -12.167  13.778  66.211  1.00  0.00    -0.489 A  
HETATM   12  C   UNL     1     -11.815  14.663  67.233  1.00  0.00    -0.351 A  
HETATM   13  O   UNL     1     -12.429  14.569  68.451  1.00  0.00    -0.592 OA 
HETATM   14  H   UNL     1     -13.083  13.893  68.588  1.00  0.00     0.000 HD 
ENDBRANCH   5   6
ENDBRANCH   4   5
ENDBRANCH   3   4
ENDBRANCH   2   3
TORSDOF 4
ENDMDL
MODEL       26
REMARK 921   NORMALIZED FREE ENERGY PREDICTED BY IDOCK:   -4.48 KCAL/MOL
REMARK 922        TOTAL FREE ENERGY PREDICTED BY IDOCK:   -5.86 KCAL/MOL
REMARK 923 INTER-LIGAND FREE ENERGY PREDICTED BY IDOCK:   -5.51 KCAL/MOL
REMARK 924 INTRA-LIGAND FREE ENERGY PREDICTED BY IDOCK:   -0.34 KCAL/MOL
REMARK 927      BINDING AFFINITY PREDICTED BY RF-SCORE:    0.00 PKD
ROOT
HETATM    1  C   UNL     1     -14.109   7.391  71.692  1.00  0.00    -0.552 C  
HETATM    2  C   UNL     1     -13.038   8.470  71.745  1.00  0.00    -0.383 C  
ENDROOT
BRANCH   2   3
HETATM    3  C   UNL     1     -13.599   9.806  72.232  1.00  0.00    -0.397 C  
BRANCH   3   4
HETATM    4  C   UNL     1     -12.805  10.978  71.644  1.00  0.00    -0.540 C  
BRANCH   4   5
HETATM    5  C   UNL     1     -11.792  10.555  70.571  1.00  0.00    -0.442 C  
BRANCH   5   6
HETATM    6  C   UNL     1     -11.732  11.488  69.382  1.00  0.00    -0.413 A  
HETATM    7  C   UNL     1     -11.933  12.865  69.566  1.00  0.00    -0.346 A  
HETATM    8  C   UNL     1     -11.952  13.739  68.476  1.00  0.00    -0.402 A  
HETATM    9  C   UNL     1     -11.755  13.256  67.180  1.00  0.00    -0.425 A  
HETATM   10  C   UNL     1     -11.821  14.176  65.997  1.00  0.00    -0.409 C  
HETATM   11  C   UNL     1     -11.506  11.892  66.992  1.00  0.00    -0.384 A  
HETATM   12  C   UNL     1     -11.499  11.022  68.085  1.00  0.00    -0.302 A  
HETATM   13  O   UNL     1     -11.274   9.688  67.888  1.00  0.00    -0.519 OA 
HETATM   14  H   UNL     1     -11.115   9.371  67.006  1.00  0.00     0.000 HD 
ENDBRANCH   5   6
ENDBRANCH   4   5
ENDBRANCH   3   4
ENDBRANCH   2   3
TORSDOF 4
ENDMDL
MODEL       27
REMARK 921   NORMALIZED FREE ENERGY PREDICTED BY IDOCK:   -4.48 KCAL/MOL
REMARK 922        TOTAL FREE ENERGY PREDICTED BY IDOCK:   -5.85 KCAL/MOL
REMARK 923 INTER-LIGAND FREE ENERGY PREDICTED BY IDOCK:   -5.41 KCAL/MOL
REMARK 924 INTRA-LIGAND FREE ENERGY PREDICTED BY IDOCK:   -0.44 KCAL/MOL
REMARK 927      BINDING AFFINITY PREDICTED BY RF-SCORE:    0.00 PKD
ROOT
HETATM    1  C   UNL     1     -10.905  16.164  64.977  1.00  0.00    -0.380 C  
HETATM    2  C   UNL     1     -10.721  14.658  64.866  1.00  0.00    -0.447 C  
ENDROOT
BRANCH   2   3
HETATM    3  C   UNL     1     -12.060  13.929  64.748  1.00  0.00    -0.443 C  
BRANCH   3   4
HETATM    4  C   UNL     1     -12.266  12.972  65.928  1.00  0.00    -0.493 C  
BRANCH   4   5
HETATM    5  C   UNL     1     -11.129  13.019  66.960  1.00  0.00    -0.311 C  
BRANCH   5   6
HETATM    6  C   UNL     1     -11.605  13.083  68.394  1.00  0.00    -0.370 A  
HETATM    7  C   UNL     1     -11.672  11.910  69.160  1.00  0.00    -0.380 A  
HETATM    8  C   UNL     1     -12.175  11.932  70.464  1.00  0.00    -0.426 A  
HETATM    9  C   UNL     1     -12.606  13.133  71.034  1.00  0.00    -0.397 A  
HETATM   10  C   UNL     1     -13.192  13.162  72.415  1.00  0.00    -0.519 C  
HETATM   11  C   UNL     1     -12.497  14.316  70.295  1.00  0.00    -0.422 A  
HETATM   12  C   UNL     1     -12.004  14.285  68.988  1.00  0.00    -0.325 A  
HETATM   13  O   UNL     1     -11.921  15.443  68.267  1.00  0.00    -0.500 OA 
HETATM   14  H   UNL     1     -12.192  16.259  68.672  1.00  0.00     0.000 HD 
ENDBRANCH   5   6
ENDBRANCH   4   5
ENDBRANCH   3   4
ENDBRANCH   2   3
TORSDOF 4
ENDMDL
MODEL       28
REMARK 921   NORMALIZED FREE ENERGY PREDICTED BY IDOCK:   -4.46 KCAL/MOL
REMARK 922        TOTAL FREE ENERGY PREDICTED BY IDOCK:   -5.83 KCAL/MOL
REMARK 923 INTER-LIGAND FREE ENERGY PREDICTED BY IDOCK:   -5.28 KCAL/MOL
REMARK 924 INTRA-LIGAND FREE ENERGY PREDICTED BY IDOCK:   -0.55 KCAL/MOL
REMARK 927      BINDING AFFINITY PREDICTED BY RF-SCORE:    0.00 PKD
ROOT
HETATM    1  C   UNL     1      -9.679  14.968  67.955  1.00  0.00    -0.213 C  
HETATM    2  C   UNL     1      -9.449  15.793  69.213  1.00  0.00    -0.270 C  
ENDROOT
BRANCH   2   3
HETATM    3  C   UNL     1     -10.716  16.531  69.650  1.00  0.00    -0.323 C  
BRANCH   3   4
HETATM    4  C   UNL     1     -11.966  15.703  69.331  1.00  0.00    -0.349 C  
BRANCH   4   5
HETATM    5  C   UNL     1     -12.732  15.245  70.581  1.00  0.00    -0.470 C  
BRANCH   5   6
HETATM    6  C   UNL     1     -12.690  13.751  70.812  1.00  0.00    -0.361 A  
HETATM    7  C   UNL     1     -11.958  12.930  69.940  1.00  0.00    -0.377 A  
HETATM    8  C   UNL     1     -11.961  11.541  70.090  1.00  0.00    -0.452 A  
HETATM    9  C   UNL     1     -12.684  10.944  71.126  1.00  0.00    -0.530 A  
HETATM   10  C   UNL     1     -12.734   9.451  71.270  1.00  0.00    -0.391 C  
HETATM   11  C   UNL     1     -13.378  11.758  72.029  1.00  0.00    -0.417 A  
HETATM   12  C   UNL     1     -13.379  13.145  71.867  1.00  0.00    -0.455 A  
HETATM   13  O   UNL     1     -14.077  13.929  72.743  1.00  0.00    -0.668 OA 
HETATM   14  H   UNL     1     -14.545  13.516  73.460  1.00  0.00     0.000 HD 
ENDBRANCH   5   6
ENDBRANCH   4   5
ENDBRANCH   3   4
ENDBRANCH   2   3
TORSDOF 4
ENDMDL
MODEL       29
REMARK 921   NORMALIZED FREE ENERGY PREDICTED BY IDOCK:   -4.46 KCAL/MOL
REMARK 922        TOTAL FREE ENERGY PREDICTED BY IDOCK:   -5.83 KCAL/MOL
REMARK 923 INTER-LIGAND FREE ENERGY PREDICTED BY IDOCK:   -5.52 KCAL/MOL
REMARK 924 INTRA-LIGAND FREE ENERGY PREDICTED BY IDOCK:   -0.31 KCAL/MOL
REMARK 927      BINDING AFFINITY PREDICTED BY RF-SCORE:    0.00 PKD
ROOT
HETATM    1  C   UNL     1     -13.206  10.038  71.712  1.00  0.00    -0.540 C  
HETATM    2  C   UNL     1     -11.831   9.392  71.638  1.00  0.00    -0.464 C  
ENDROOT
BRANCH   2   3
HETATM    3  C   UNL     1     -10.949  10.050  70.575  1.00  0.00    -0.392 C  
BRANCH   3   4
HETATM    4  C   UNL     1     -11.780  10.962  69.665  1.00  0.00    -0.403 C  
BRANCH   4   5
HETATM    5  C   UNL     1     -10.969  12.108  69.042  1.00  0.00    -0.255 C  
BRANCH   5   6
HETATM    6  C   UNL     1     -11.301  12.374  67.591  1.00  0.00    -0.371 A  
HETATM    7  C   UNL     1     -10.870  11.478  66.600  1.00  0.00    -0.335 A  
HETATM    8  C   UNL     1     -11.103  11.738  65.247  1.00  0.00    -0.333 A  
HETATM    9  C   UNL     1     -11.787  12.893  64.857  1.00  0.00    -0.409 A  
HETATM   10  C   UNL     1     -12.001  13.208  63.406  1.00  0.00    -0.552 C  
HETATM   11  C   UNL     1     -12.263  13.768  65.841  1.00  0.00    -0.501 A  
HETATM   12  C   UNL     1     -12.017  13.507  67.191  1.00  0.00    -0.381 A  
HETATM   13  O   UNL     1     -12.469  14.379  68.143  1.00  0.00    -0.579 OA 
HETATM   14  H   UNL     1     -12.956  15.148  67.870  1.00  0.00     0.000 HD 
ENDBRANCH   5   6
ENDBRANCH   4   5
ENDBRANCH   3   4
ENDBRANCH   2   3
TORSDOF 4
ENDMDL
MODEL       30
REMARK 921   NORMALIZED FREE ENERGY PREDICTED BY IDOCK:   -4.45 KCAL/MOL
REMARK 922        TOTAL FREE ENERGY PREDICTED BY IDOCK:   -5.81 KCAL/MOL
REMARK 923 INTER-LIGAND FREE ENERGY PREDICTED BY IDOCK:   -5.35 KCAL/MOL
REMARK 924 INTRA-LIGAND FREE ENERGY PREDICTED BY IDOCK:   -0.46 KCAL/MOL
REMARK 927      BINDING AFFINITY PREDICTED BY RF-SCORE:    0.00 PKD
ROOT
HETATM    1  C   UNL     1     -10.914  11.780  68.894  1.00  0.00    -0.288 C  
HETATM    2  C   UNL     1     -11.493  10.988  67.731  1.00  0.00    -0.339 C  
ENDROOT
BRANCH   2   3
HETATM    3  C   UNL     1     -11.214  11.663  66.387  1.00  0.00    -0.349 C  
BRANCH   3   4
HETATM    4  C   UNL     1     -12.111  12.890  66.195  1.00  0.00    -0.458 C  
BRANCH   4   5
HETATM    5  C   UNL     1     -11.558  13.901  65.181  1.00  0.00    -0.340 C  
BRANCH   5   6
HETATM    6  C   UNL     1     -11.103  15.204  65.800  1.00  0.00    -0.330 A  
HETATM    7  C   UNL     1     -10.772  15.251  67.163  1.00  0.00    -0.316 A  
HETATM    8  C   UNL     1     -10.417  16.456  67.775  1.00  0.00    -0.300 A  
HETATM    9  C   UNL     1     -10.371  17.638  67.031  1.00  0.00    -0.330 A  
HETATM   10  C   UNL     1     -10.038  18.947  67.686  1.00  0.00    -0.425 C  
HETATM   11  C   UNL     1     -10.652  17.593  65.661  1.00  0.00    -0.137 A  
HETATM   12  C   UNL     1     -11.017  16.386  65.058  1.00  0.00    -0.252 A  
HETATM   13  O   UNL     1     -11.309  16.357  63.723  1.00  0.00    -1.487 OA 
HETATM   14  H   UNL     1     -11.250  17.160  63.220  1.00  0.00     0.000 HD 
ENDBRANCH   5   6
ENDBRANCH   4   5
ENDBRANCH   3   4
ENDBRANCH   2   3
TORSDOF 4
ENDMDL
MODEL       31
REMARK 921   NORMALIZED FREE ENERGY PREDICTED BY IDOCK:   -4.42 KCAL/MOL
REMARK 922        TOTAL FREE ENERGY PREDICTED BY IDOCK:   -5.78 KCAL/MOL
REMARK 923 INTER-LIGAND FREE ENERGY PREDICTED BY IDOCK:   -5.45 KCAL/MOL
REMARK 924 INTRA-LIGAND FREE ENERGY PREDICTED BY IDOCK:   -0.33 KCAL/MOL
REMARK 927      BINDING AFFINITY PREDICTED BY RF-SCORE:    0.00 PKD
ROOT
HETATM    1  C   UNL     1     -10.842  12.032  63.481  1.00  0.00    -0.509 C  
HETATM    2  C   UNL     1     -12.331  12.239  63.716  1.00  0.00    -0.637 C  
ENDROOT
BRANCH   2   3
HETATM    3  C   UNL     1     -12.607  12.896  65.070  1.00  0.00    -0.538 C  
BRANCH   3   4
HETATM    4  C   UNL     1     -11.352  12.882  65.949  1.00  0.00    -0.348 C  
BRANCH   4   5
HETATM    5  C   UNL     1     -11.563  12.198  67.307  1.00  0.00    -0.404 C  
BRANCH   5   6
HETATM    6  C   UNL     1     -11.803  13.161  68.449  1.00  0.00    -0.386 A  
HETATM    7  C   UNL     1     -11.702  14.543  68.228  1.00  0.00    -0.368 A  
HETATM    8  C   UNL     1     -11.850  15.450  69.281  1.00  0.00    -0.365 A  
HETATM    9  C   UNL     1     -12.119  14.994  70.574  1.00  0.00    -0.379 A  
HETATM   10  C   UNL     1     -12.233  15.954  71.721  1.00  0.00    -0.551 C  
HETATM   11  C   UNL     1     -12.269  13.620  70.794  1.00  0.00    -0.424 A  
HETATM   12  C   UNL     1     -12.109  12.718  69.739  1.00  0.00    -0.237 A  
HETATM   13  O   UNL     1     -12.239  11.376  69.969  1.00  0.00    -0.309 OA 
HETATM   14  H   UNL     1     -12.447  11.076  70.846  1.00  0.00     0.000 HD 
ENDBRANCH   5   6
ENDBRANCH   4   5
ENDBRANCH   3   4
ENDBRANCH   2   3
TORSDOF 4
ENDMDL
MODEL       32
REMARK 921   NORMALIZED FREE ENERGY PREDICTED BY IDOCK:   -4.42 KCAL/MOL
REMARK 922        TOTAL FREE ENERGY PREDICTED BY IDOCK:   -5.78 KCAL/MOL
REMARK 923 INTER-LIGAND FREE ENERGY PREDICTED BY IDOCK:   -5.35 KCAL/MOL
REMARK 924 INTRA-LIGAND FREE ENERGY PREDICTED BY IDOCK:   -0.43 KCAL/MOL
REMARK 927      BINDING AFFINITY PREDICTED BY RF-SCORE:    0.00 PKD
ROOT
HETATM    1  C   UNL     1     -10.612  11.971  63.620  1.00  0.00    -0.503 C  
HETATM    2  C   UNL     1     -12.128  12.088  63.559  1.00  0.00    -0.628 C  
ENDROOT
BRANCH   2   3
HETATM    3  C   UNL     1     -12.700  12.736  64.820  1.00  0.00    -0.469 C  
BRANCH   3   4
HETATM    4  C   UNL     1     -11.775  12.507  66.020  1.00  0.00    -0.472 C  
BRANCH   4   5
HETATM    5  C   UNL     1     -12.026  13.480  67.181  1.00  0.00    -0.426 C  
BRANCH   5   6
HETATM    6  C   UNL     1     -11.226  14.760  67.092  1.00  0.00    -0.346 A  
HETATM    7  C   UNL     1     -10.252  14.907  66.092  1.00  0.00    -0.314 A  
HETATM    8  C   UNL     1      -9.452  16.050  66.032  1.00  0.00    -0.384 A  
HETATM    9  C   UNL     1      -9.619  17.080  66.962  1.00  0.00    -0.257 A  
HETATM   10  C   UNL     1      -8.735  18.291  66.937  1.00  0.00    -0.273 C  
HETATM   11  C   UNL     1     -10.621  16.964  67.933  1.00  0.00    -0.361 A  
HETATM   12  C   UNL     1     -11.410  15.813  67.994  1.00  0.00    -0.310 A  
HETATM   13  O   UNL     1     -12.372  15.701  68.960  1.00  0.00    -0.602 OA 
HETATM   14  H   UNL     1     -12.496  16.417  69.572  1.00  0.00     0.000 HD 
ENDBRANCH   5   6
ENDBRANCH   4   5
ENDBRANCH   3   4
ENDBRANCH   2   3
TORSDOF 4
ENDMDL
MODEL       33
REMARK 921   NORMALIZED FREE ENERGY PREDICTED BY IDOCK:   -4.39 KCAL/MOL
REMARK 922        TOTAL FREE ENERGY PREDICTED BY IDOCK:   -5.74 KCAL/MOL
REMARK 923 INTER-LIGAND FREE ENERGY PREDICTED BY IDOCK:   -5.32 KCAL/MOL
REMARK 924 INTRA-LIGAND FREE ENERGY PREDICTED BY IDOCK:   -0.42 KCAL/MOL
REMARK 927      BINDING AFFINITY PREDICTED BY RF-SCORE:    0.00 PKD
ROOT
HETATM    1  C   UNL     1      -7.998   6.182  73.614  1.00  0.00    -0.101 C  
HETATM    2  C   UNL     1      -8.962   7.348  73.457  1.00  0.00    -0.243 C  
ENDROOT
BRANCH   2   3
HETATM    3  C   UNL     1     -10.418   6.909  73.621  1.00  0.00    -0.400 C  
BRANCH   3   4
HETATM    4  C   UNL     1     -11.039   6.562  72.263  1.00  0.00    -0.297 C  
BRANCH   4   5
HETATM    5  C   UNL     1     -12.447   7.142  72.067  1.00  0.00    -0.277 C  
BRANCH   5   6
HETATM    6  C   UNL     1     -12.460   8.599  71.665  1.00  0.00    -0.382 A  
HETATM    7  C   UNL     1     -11.569   9.061  70.684  1.00  0.00    -0.265 A  
HETATM    8  C   UNL     1     -11.512  10.415  70.345  1.00  0.00    -0.420 A  
HETATM    9  C   UNL     1     -12.359  11.335  70.970  1.00  0.00    -0.472 A  
HETATM   10  C   UNL     1     -12.275  12.798  70.650  1.00  0.00    -0.374 C  
HETATM   11  C   UNL     1     -13.284  10.877  71.914  1.00  0.00    -0.508 A  
HETATM   12  C   UNL     1     -13.328   9.523  72.256  1.00  0.00    -0.441 A  
HETATM   13  O   UNL     1     -14.222   9.090  73.195  1.00  0.00    -1.142 OA 
HETATM   14  H   UNL     1     -14.812   9.718  73.596  1.00  0.00     0.000 HD 
ENDBRANCH   5   6
ENDBRANCH   4   5
ENDBRANCH   3   4
ENDBRANCH   2   3
TORSDOF 4
ENDMDL
MODEL       34
REMARK 921   NORMALIZED FREE ENERGY PREDICTED BY IDOCK:   -4.37 KCAL/MOL
REMARK 922        TOTAL FREE ENERGY PREDICTED BY IDOCK:   -5.72 KCAL/MOL
REMARK 923 INTER-LIGAND FREE ENERGY PREDICTED BY IDOCK:   -5.37 KCAL/MOL
REMARK 924 INTRA-LIGAND FREE ENERGY PREDICTED BY IDOCK:   -0.34 KCAL/MOL
REMARK 927      BINDING AFFINITY PREDICTED BY RF-SCORE:    0.00 PKD
ROOT
HETATM    1  C   UNL     1     -11.116   6.206  69.499  1.00  0.00    -0.490 C  
HETATM    2  C   UNL     1     -11.026   7.666  69.919  1.00  0.00    -0.208 C  
ENDROOT
BRANCH   2   3
HETATM    3  C   UNL     1     -10.859   7.814  71.432  1.00  0.00    -0.257 C  
BRANCH   3   4
HETATM    4  C   UNL     1     -11.426   9.153  71.916  1.00  0.00    -0.423 C  
BRANCH   4   5
HETATM    5  C   UNL     1     -12.472   9.754  70.966  1.00  0.00    -0.414 C  
BRANCH   5   6
HETATM    6  C   UNL     1     -12.566  11.262  71.032  1.00  0.00    -0.495 A  
HETATM    7  C   UNL     1     -13.283  11.872  72.073  1.00  0.00    -0.461 A  
HETATM    8  C   UNL     1     -13.443  13.259  72.117  1.00  0.00    -0.655 A  
HETATM    9  C   UNL     1     -12.876  14.068  71.129  1.00  0.00    -0.427 A  
HETATM   10  C   UNL     1     -13.081  15.554  71.138  1.00  0.00    -0.573 C  
HETATM   11  C   UNL     1     -12.118  13.472  70.114  1.00  0.00    -0.425 A  
HETATM   12  C   UNL     1     -11.971  12.083  70.070  1.00  0.00    -0.324 A  
HETATM   13  O   UNL     1     -11.246  11.511  69.062  1.00  0.00    -0.222 OA 
HETATM   14  H   UNL     1     -10.842  12.069  68.409  1.00  0.00     0.000 HD 
ENDBRANCH   5   6
ENDBRANCH   4   5
ENDBRANCH   3   4
ENDBRANCH   2   3
TORSDOF 4
ENDMDL
MODEL       35
REMARK 921   NORMALIZED FREE ENERGY PREDICTED BY IDOCK:   -4.35 KCAL/MOL
REMARK 922        TOTAL FREE ENERGY PREDICTED BY IDOCK:   -5.70 KCAL/MOL
REMARK 923 INTER-LIGAND FREE ENERGY PREDICTED BY IDOCK:   -5.42 KCAL/MOL
REMARK 924 INTRA-LIGAND FREE ENERGY PREDICTED BY IDOCK:   -0.28 KCAL/MOL
REMARK 927      BINDING AFFINITY PREDICTED BY RF-SCORE:    0.00 PKD
ROOT
HETATM    1  C   UNL     1     -10.410  11.033  65.943  1.00  0.00    -0.315 C  
HETATM    2  C   UNL     1     -10.329   9.817  66.853  1.00  0.00    -0.301 C  
ENDROOT
BRANCH   2   3
HETATM    3  C   UNL     1     -10.093  10.211  68.312  1.00  0.00    -0.179 C  
BRANCH   3   4
HETATM    4  C   UNL     1     -11.020  11.360  68.723  1.00  0.00    -0.272 C  
BRANCH   4   5
HETATM    5  C   UNL     1     -11.912  11.026  69.927  1.00  0.00    -0.427 C  
BRANCH   5   6
HETATM    6  C   UNL     1     -12.405  12.241  70.681  1.00  0.00    -0.375 A  
HETATM    7  C   UNL     1     -12.077  13.527  70.224  1.00  0.00    -0.425 A  
HETATM    8  C   UNL     1     -12.460  14.663  70.941  1.00  0.00    -0.406 A  
HETATM    9  C   UNL     1     -13.194  14.538  72.123  1.00  0.00    -0.455 A  
HETATM   10  C   UNL     1     -13.570  15.747  72.928  1.00  0.00    -0.660 C  
HETATM   11  C   UNL     1     -13.567  13.262  72.561  1.00  0.00    -0.637 A  
HETATM   12  C   UNL     1     -13.172  12.130  71.845  1.00  0.00    -0.369 A  
HETATM   13  O   UNL     1     -13.525  10.887  72.293  1.00  0.00    -0.599 OA 
HETATM   14  H   UNL     1     -14.046  10.812  73.084  1.00  0.00     0.000 HD 
ENDBRANCH   5   6
ENDBRANCH   4   5
ENDBRANCH   3   4
ENDBRANCH   2   3
TORSDOF 4
ENDMDL
MODEL       36
REMARK 921   NORMALIZED FREE ENERGY PREDICTED BY IDOCK:   -4.35 KCAL/MOL
REMARK 922        TOTAL FREE ENERGY PREDICTED BY IDOCK:   -5.69 KCAL/MOL
REMARK 923 INTER-LIGAND FREE ENERGY PREDICTED BY IDOCK:   -5.32 KCAL/MOL
REMARK 924 INTRA-LIGAND FREE ENERGY PREDICTED BY IDOCK:   -0.37 KCAL/MOL
REMARK 927      BINDING AFFINITY PREDICTED BY RF-SCORE:    0.00 PKD
ROOT
HETATM    1  C   UNL     1      -7.204  16.308  69.047  1.00  0.00    -0.204 C  
HETATM    2  C   UNL     1      -8.187  15.417  68.303  1.00  0.00    -0.145 C  
ENDROOT
BRANCH   2   3
HETATM    3  C   UNL     1      -8.137  15.651  66.792  1.00  0.00    -0.280 C  
BRANCH   3   4
HETATM    4  C   UNL     1      -9.239  16.621  66.353  1.00  0.00    -0.318 C  
BRANCH   4   5
HETATM    5  C   UNL     1     -10.650  16.168  66.756  1.00  0.00    -0.277 C  
BRANCH   5   6
HETATM    6  C   UNL     1     -11.201  15.047  65.902  1.00  0.00    -0.313 A  
HETATM    7  C   UNL     1     -11.307  13.753  66.434  1.00  0.00    -0.327 A  
HETATM    8  C   UNL     1     -11.746  12.687  65.645  1.00  0.00    -0.458 A  
HETATM    9  C   UNL     1     -12.105  12.896  64.310  1.00  0.00    -0.487 A  
HETATM   10  C   UNL     1     -12.532  11.753  63.439  1.00  0.00    -0.490 C  
HETATM   11  C   UNL     1     -12.048  14.193  63.786  1.00  0.00    -0.192 A  
HETATM   12  C   UNL     1     -11.598  15.252  64.577  1.00  0.00    -0.312 A  
HETATM   13  O   UNL     1     -11.528  16.511  64.049  1.00  0.00    -1.513 OA 
HETATM   14  H   UNL     1     -11.798  16.649  63.148  1.00  0.00     0.000 HD 
ENDBRANCH   5   6
ENDBRANCH   4   5
ENDBRANCH   3   4
ENDBRANCH   2   3
TORSDOF 4
ENDMDL
MODEL       37
REMARK 921   NORMALIZED FREE ENERGY PREDICTED BY IDOCK:   -4.34 KCAL/MOL
REMARK 922        TOTAL FREE ENERGY PREDICTED BY IDOCK:   -5.68 KCAL/MOL
REMARK 923 INTER-LIGAND FREE ENERGY PREDICTED BY IDOCK:   -5.44 KCAL/MOL
REMARK 924 INTRA-LIGAND FREE ENERGY PREDICTED BY IDOCK:   -0.24 KCAL/MOL
REMARK 927      BINDING AFFINITY PREDICTED BY RF-SCORE:    0.00 PKD
ROOT
HETATM    1  C   UNL     1     -14.405   7.196  71.675  1.00  0.00    -0.528 C  
HETATM    2  C   UNL     1     -13.043   7.873  71.686  1.00  0.00    -0.361 C  
ENDROOT
BRANCH   2   3
HETATM    3  C   UNL     1     -13.117   9.292  72.251  1.00  0.00    -0.517 C  
BRANCH   3   4
HETATM    4  C   UNL     1     -13.117  10.330  71.123  1.00  0.00    -0.481 C  
BRANCH   4   5
HETATM    5  C   UNL     1     -11.712  10.677  70.609  1.00  0.00    -0.454 C  
BRANCH   5   6
HETATM    6  C   UNL     1     -11.708  11.601  69.413  1.00  0.00    -0.405 A  
HETATM    7  C   UNL     1     -11.609  11.067  68.118  1.00  0.00    -0.345 A  
HETATM    8  C   UNL     1     -11.532  11.902  67.001  1.00  0.00    -0.384 A  
HETATM    9  C   UNL     1     -11.569  13.291  67.153  1.00  0.00    -0.402 A  
HETATM   10  C   UNL     1     -11.440  14.199  65.967  1.00  0.00    -0.343 C  
HETATM   11  C   UNL     1     -11.717  13.831  68.436  1.00  0.00    -0.393 A  
HETATM   12  C   UNL     1     -11.782  12.991  69.550  1.00  0.00    -0.317 A  
HETATM   13  O   UNL     1     -11.906  13.530  70.800  1.00  0.00    -0.508 OA 
HETATM   14  H   UNL     1     -11.957  14.474  70.892  1.00  0.00     0.000 HD 
ENDBRANCH   5   6
ENDBRANCH   4   5
ENDBRANCH   3   4
ENDBRANCH   2   3
TORSDOF 4
ENDMDL
MODEL       38
REMARK 921   NORMALIZED FREE ENERGY PREDICTED BY IDOCK:   -4.34 KCAL/MOL
REMARK 922        TOTAL FREE ENERGY PREDICTED BY IDOCK:   -5.68 KCAL/MOL
REMARK 923 INTER-LIGAND FREE ENERGY PREDICTED BY IDOCK:   -5.45 KCAL/MOL
REMARK 924 INTRA-LIGAND FREE ENERGY PREDICTED BY IDOCK:   -0.23 KCAL/MOL
REMARK 927      BINDING AFFINITY PREDICTED BY RF-SCORE:    0.00 PKD
ROOT
HETATM    1  C   UNL     1     -10.918  12.117  64.445  1.00  0.00    -0.375 C  
HETATM    2  C   UNL     1     -11.465  12.202  65.862  1.00  0.00    -0.418 C  
ENDROOT
BRANCH   2   3
HETATM    3  C   UNL     1     -10.493  12.911  66.806  1.00  0.00    -0.262 C  
BRANCH   3   4
HETATM    4  C   UNL     1     -11.052  12.955  68.233  1.00  0.00    -0.294 C  
BRANCH   4   5
HETATM    5  C   UNL     1     -11.936  14.180  68.506  1.00  0.00    -0.367 C  
BRANCH   5   6
HETATM    6  C   UNL     1     -12.047  14.542  69.970  1.00  0.00    -0.395 A  
HETATM    7  C   UNL     1     -12.698  13.670  70.857  1.00  0.00    -0.382 A  
HETATM    8  C   UNL     1     -12.875  14.014  72.200  1.00  0.00    -0.410 A  
HETATM    9  C   UNL     1     -12.390  15.230  72.688  1.00  0.00    -0.482 A  
HETATM   10  C   UNL     1     -12.615  15.631  74.116  1.00  0.00    -0.763 C  
HETATM   11  C   UNL     1     -11.696  16.083  71.822  1.00  0.00    -0.593 A  
HETATM   12  C   UNL     1     -11.532  15.739  70.478  1.00  0.00    -0.381 A  
HETATM   13  O   UNL     1     -10.871  16.589  69.637  1.00  0.00    -0.328 OA 
HETATM   14  H   UNL     1     -10.522  17.402  69.983  1.00  0.00     0.000 HD 
ENDBRANCH   5   6
ENDBRANCH   4   5
ENDBRANCH   3   4
ENDBRANCH   2   3
TORSDOF 4
ENDMDL
MODEL       39
REMARK 921   NORMALIZED FREE ENERGY PREDICTED BY IDOCK:   -4.34 KCAL/MOL
REMARK 922        TOTAL FREE ENERGY PREDICTED BY IDOCK:   -5.67 KCAL/MOL
REMARK 923 INTER-LIGAND FREE ENERGY PREDICTED BY IDOCK:   -5.34 KCAL/MOL
REMARK 924 INTRA-LIGAND FREE ENERGY PREDICTED BY IDOCK:   -0.34 KCAL/MOL
REMARK 927      BINDING AFFINITY PREDICTED BY RF-SCORE:    0.00 PKD
ROOT
HETATM    1  C   UNL     1     -12.232  15.785  73.455  1.00  0.00    -0.632 C  
HETATM    2  C   UNL     1     -13.639  15.803  72.878  1.00  0.00    -0.660 C  
ENDROOT
BRANCH   2   3
HETATM    3  C   UNL     1     -13.649  15.446  71.391  1.00  0.00    -0.604 C  
BRANCH   3   4
HETATM    4  C   UNL     1     -12.231  15.151  70.890  1.00  0.00    -0.398 C  
BRANCH   4   5
HETATM    5  C   UNL     1     -12.093  15.223  69.363  1.00  0.00    -0.301 C  
BRANCH   5   6
HETATM    6  C   UNL     1     -11.767  13.897  68.713  1.00  0.00    -0.392 A  
HETATM    7  C   UNL     1     -11.705  12.734  69.495  1.00  0.00    -0.383 A  
HETATM    8  C   UNL     1     -11.338  11.509  68.932  1.00  0.00    -0.331 A  
HETATM    9  C   UNL     1     -11.040  11.419  67.569  1.00  0.00    -0.339 A  
HETATM   10  C   UNL     1     -10.598  10.121  66.962  1.00  0.00    -0.290 C  
HETATM   11  C   UNL     1     -11.147  12.565  66.772  1.00  0.00    -0.323 A  
HETATM   12  C   UNL     1     -11.504  13.788  67.344  1.00  0.00    -0.345 A  
HETATM   13  O   UNL     1     -11.586  14.905  66.560  1.00  0.00    -0.339 OA 
HETATM   14  H   UNL     1     -11.407  14.830  65.630  1.00  0.00     0.000 HD 
ENDBRANCH   5   6
ENDBRANCH   4   5
ENDBRANCH   3   4
ENDBRANCH   2   3
TORSDOF 4
ENDMDL
MODEL       40
REMARK 921   NORMALIZED FREE ENERGY PREDICTED BY IDOCK:   -4.31 KCAL/MOL
REMARK 922        TOTAL FREE ENERGY PREDICTED BY IDOCK:   -5.64 KCAL/MOL
REMARK 923 INTER-LIGAND FREE ENERGY PREDICTED BY IDOCK:   -4.98 KCAL/MOL
REMARK 924 INTRA-LIGAND FREE ENERGY PREDICTED BY IDOCK:   -0.67 KCAL/MOL
REMARK 927      BINDING AFFINITY PREDICTED BY RF-SCORE:    0.00 PKD
ROOT
HETATM    1  C   UNL     1     -12.722  11.849  63.673  1.00  0.00    -0.509 C  
HETATM    2  C   UNL     1     -11.859  13.091  63.505  1.00  0.00    -0.582 C  
ENDROOT
BRANCH   2   3
HETATM    3  C   UNL     1     -11.920  13.997  64.735  1.00  0.00    -0.432 C  
BRANCH   3   4
HETATM    4  C   UNL     1     -12.404  13.218  65.964  1.00  0.00    -0.449 C  
BRANCH   4   5
HETATM    5  C   UNL     1     -11.294  12.934  66.986  1.00  0.00    -0.355 C  
BRANCH   5   6
HETATM    6  C   UNL     1     -10.695  11.550  66.872  1.00  0.00    -0.304 A  
HETATM    7  C   UNL     1      -9.635  11.319  65.981  1.00  0.00    -0.245 A  
HETATM    8  C   UNL     1      -9.112  10.036  65.805  1.00  0.00    -0.201 A  
HETATM    9  C   UNL     1      -9.627   8.958  66.531  1.00  0.00    -0.297 A  
HETATM   10  C   UNL     1      -9.106   7.567  66.317  1.00  0.00    -0.198 C  
HETATM   11  C   UNL     1     -10.650   9.188  67.458  1.00  0.00    -0.317 A  
HETATM   12  C   UNL     1     -11.177  10.472  67.620  1.00  0.00    -0.265 A  
HETATM   13  O   UNL     1     -12.190  10.680  68.513  1.00  0.00    -0.822 OA 
HETATM   14  H   UNL     1     -12.517   9.947  69.021  1.00  0.00     0.000 HD 
ENDBRANCH   5   6
ENDBRANCH   4   5
ENDBRANCH   3   4
ENDBRANCH   2   3
TORSDOF 4
ENDMDL
MODEL       41
REMARK 921   NORMALIZED FREE ENERGY PREDICTED BY IDOCK:   -4.31 KCAL/MOL
REMARK 922        TOTAL FREE ENERGY PREDICTED BY IDOCK:   -5.64 KCAL/MOL
REMARK 923 INTER-LIGAND FREE ENERGY PREDICTED BY IDOCK:   -5.35 KCAL/MOL
REMARK 924 INTRA-LIGAND FREE ENERGY PREDICTED BY IDOCK:   -0.29 KCAL/MOL
REMARK 927      BINDING AFFINITY PREDICTED BY RF-SCORE:    0.00 PKD
ROOT
HETATM    1  C   UNL     1     -14.252   7.363  71.335  1.00  0.00    -0.508 C  
HETATM    2  C   UNL     1     -14.411   8.683  72.074  1.00  0.00    -0.512 C  
ENDROOT
BRANCH   2   3
HETATM    3  C   UNL     1     -13.071   9.394  72.265  1.00  0.00    -0.509 C  
BRANCH   3   4
HETATM    4  C   UNL     1     -13.089  10.780  71.610  1.00  0.00    -0.551 C  
BRANCH   4   5
HETATM    5  C   UNL     1     -12.438  10.809  70.219  1.00  0.00    -0.395 C  
BRANCH   5   6
HETATM    6  C   UNL     1     -12.080  12.197  69.739  1.00  0.00    -0.306 A  
HETATM    7  C   UNL     1     -11.938  13.241  70.666  1.00  0.00    -0.268 A  
HETATM    8  C   UNL     1     -11.677  14.547  70.242  1.00  0.00    -0.356 A  
HETATM    9  C   UNL     1     -11.535  14.833  68.882  1.00  0.00    -0.321 A  
HETATM   10  C   UNL     1     -11.302  16.238  68.410  1.00  0.00    -0.312 C  
HETATM   11  C   UNL     1     -11.627  13.789  67.953  1.00  0.00    -0.376 A  
HETATM   12  C   UNL     1     -11.899  12.488  68.384  1.00  0.00    -0.304 A  
HETATM   13  O   UNL     1     -12.006  11.480  67.466  1.00  0.00    -0.629 OA 
HETATM   14  H   UNL     1     -11.883  11.678  66.546  1.00  0.00     0.000 HD 
ENDBRANCH   5   6
ENDBRANCH   4   5
ENDBRANCH   3   4
ENDBRANCH   2   3
TORSDOF 4
ENDMDL
MODEL       42
REMARK 921   NORMALIZED FREE ENERGY PREDICTED BY IDOCK:   -4.30 KCAL/MOL
REMARK 922        TOTAL FREE ENERGY PREDICTED BY IDOCK:   -5.63 KCAL/MOL
REMARK 923 INTER-LIGAND FREE ENERGY PREDICTED BY IDOCK:   -5.31 KCAL/MOL
REMARK 924 INTRA-LIGAND FREE ENERGY PREDICTED BY IDOCK:   -0.33 KCAL/MOL
REMARK 927      BINDING AFFINITY PREDICTED BY RF-SCORE:    0.00 PKD
ROOT
HETATM    1  C   UNL     1     -12.439  12.180  63.576  1.00  0.00    -0.666 C  
HETATM    2  C   UNL     1     -12.097  12.468  65.030  1.00  0.00    -0.504 C  
ENDROOT
BRANCH   2   3
HETATM    3  C   UNL     1     -12.254  13.951  65.370  1.00  0.00    -0.463 C  
BRANCH   3   4
HETATM    4  C   UNL     1     -12.036  14.194  66.867  1.00  0.00    -0.479 C  
BRANCH   4   5
HETATM    5  C   UNL     1     -11.021  13.231  67.503  1.00  0.00    -0.281 C  
BRANCH   5   6
HETATM    6  C   UNL     1     -11.576  12.433  68.661  1.00  0.00    -0.365 A  
HETATM    7  C   UNL     1     -11.991  13.092  69.828  1.00  0.00    -0.382 A  
HETATM    8  C   UNL     1     -12.441  12.372  70.938  1.00  0.00    -0.367 A  
HETATM    9  C   UNL     1     -12.502  10.977  70.897  1.00  0.00    -0.509 A  
HETATM   10  C   UNL     1     -12.937  10.190  72.097  1.00  0.00    -0.436 C  
HETATM   11  C   UNL     1     -12.136  10.313  69.720  1.00  0.00    -0.126 A  
HETATM   12  C   UNL     1     -11.676  11.039  68.618  1.00  0.00    -0.296 A  
HETATM   13  O   UNL     1     -11.303  10.379  67.481  1.00  0.00    -0.434 OA 
HETATM   14  H   UNL     1     -11.371   9.432  67.452  1.00  0.00     0.000 HD 
ENDBRANCH   5   6
ENDBRANCH   4   5
ENDBRANCH   3   4
ENDBRANCH   2   3
TORSDOF 4
ENDMDL
MODEL       43
REMARK 921   NORMALIZED FREE ENERGY PREDICTED BY IDOCK:   -4.28 KCAL/MOL
REMARK 922        TOTAL FREE ENERGY PREDICTED BY IDOCK:   -5.61 KCAL/MOL
REMARK 923 INTER-LIGAND FREE ENERGY PREDICTED BY IDOCK:   -5.26 KCAL/MOL
REMARK 924 INTRA-LIGAND FREE ENERGY PREDICTED BY IDOCK:   -0.35 KCAL/MOL
REMARK 927      BINDING AFFINITY PREDICTED BY RF-SCORE:    0.00 PKD
ROOT
HETATM    1  C   UNL     1     -11.579  12.082  63.679  1.00  0.00    -0.578 C  
HETATM    2  C   UNL     1     -11.833  13.315  64.532  1.00  0.00    -0.433 C  
ENDROOT
BRANCH   2   3
HETATM    3  C   UNL     1     -11.959  12.965  66.016  1.00  0.00    -0.505 C  
BRANCH   3   4
HETATM    4  C   UNL     1     -12.154  14.229  66.860  1.00  0.00    -0.440 C  
BRANCH   4   5
HETATM    5  C   UNL     1     -10.869  14.709  67.551  1.00  0.00    -0.286 C  
BRANCH   5   6
HETATM    6  C   UNL     1     -10.656  16.204  67.479  1.00  0.00    -0.314 A  
HETATM    7  C   UNL     1     -10.452  16.822  66.235  1.00  0.00    -0.264 A  
HETATM    8  C   UNL     1     -10.183  18.190  66.149  1.00  0.00    -0.372 A  
HETATM    9  C   UNL     1     -10.129  18.974  67.305  1.00  0.00    -0.436 A  
HETATM   10  C   UNL     1      -9.794  20.434  67.229  1.00  0.00    -0.597 C  
HETATM   11  C   UNL     1     -10.379  18.376  68.545  1.00  0.00    -0.326 A  
HETATM   12  C   UNL     1     -10.637  17.005  68.625  1.00  0.00    -0.362 A  
HETATM   13  O   UNL     1     -10.860  16.428  69.844  1.00  0.00    -0.344 OA 
HETATM   14  H   UNL     1     -10.847  16.973  70.623  1.00  0.00     0.000 HD 
ENDBRANCH   5   6
ENDBRANCH   4   5
ENDBRANCH   3   4
ENDBRANCH   2   3
TORSDOF 4
ENDMDL
MODEL       44
REMARK 921   NORMALIZED FREE ENERGY PREDICTED BY IDOCK:   -4.27 KCAL/MOL
REMARK 922        TOTAL FREE ENERGY PREDICTED BY IDOCK:   -5.59 KCAL/MOL
REMARK 923 INTER-LIGAND FREE ENERGY PREDICTED BY IDOCK:   -5.10 KCAL/MOL
REMARK 924 INTRA-LIGAND FREE ENERGY PREDICTED BY IDOCK:   -0.49 KCAL/MOL
REMARK 927      BINDING AFFINITY PREDICTED BY RF-SCORE:    0.00 PKD
ROOT
HETATM    1  C   UNL     1     -10.797  11.494  66.029  1.00  0.00    -0.330 C  
HETATM    2  C   UNL     1     -11.908  12.486  66.336  1.00  0.00    -0.445 C  
ENDROOT
BRANCH   2   3
HETATM    3  C   UNL     1     -11.355  13.851  66.749  1.00  0.00    -0.347 C  
BRANCH   3   4
HETATM    4  C   UNL     1     -10.770  13.797  68.165  1.00  0.00    -0.258 C  
BRANCH   4   5
HETATM    5  C   UNL     1     -11.803  14.081  69.266  1.00  0.00    -0.389 C  
BRANCH   5   6
HETATM    6  C   UNL     1     -12.132  12.879  70.122  1.00  0.00    -0.373 A  
HETATM    7  C   UNL     1     -11.719  11.600  69.718  1.00  0.00    -0.425 A  
HETATM    8  C   UNL     1     -12.071  10.466  70.455  1.00  0.00    -0.402 A  
HETATM    9  C   UNL     1     -12.829  10.589  71.622  1.00  0.00    -0.581 A  
HETATM   10  C   UNL     1     -13.253   9.376  72.396  1.00  0.00    -0.483 C  
HETATM   11  C   UNL     1     -13.203  11.865  72.059  1.00  0.00    -0.461 A  
HETATM   12  C   UNL     1     -12.858  12.994  71.312  1.00  0.00    -0.281 A  
HETATM   13  O   UNL     1     -13.246  14.233  71.737  1.00  0.00    -0.328 OA 
HETATM   14  H   UNL     1     -13.739  14.311  72.546  1.00  0.00     0.000 HD 
ENDBRANCH   5   6
ENDBRANCH   4   5
ENDBRANCH   3   4
ENDBRANCH   2   3
TORSDOF 4
ENDMDL
MODEL       45
REMARK 921   NORMALIZED FREE ENERGY PREDICTED BY IDOCK:   -4.26 KCAL/MOL
REMARK 922        TOTAL FREE ENERGY PREDICTED BY IDOCK:   -5.57 KCAL/MOL
REMARK 923 INTER-LIGAND FREE ENERGY PREDICTED BY IDOCK:   -5.14 KCAL/MOL
REMARK 924 INTRA-LIGAND FREE ENERGY PREDICTED BY IDOCK:   -0.44 KCAL/MOL
REMARK 927      BINDING AFFINITY PREDICTED BY RF-SCORE:    0.00 PKD
ROOT
HETATM    1  C   UNL     1      -9.713  11.223  63.033  1.00  0.00    -0.389 C  
HETATM    2  C   UNL     1     -10.932  11.387  63.927  1.00  0.00    -0.442 C  
ENDROOT
BRANCH   2   3
HETATM    3  C   UNL     1     -11.931  12.391  63.351  1.00  0.00    -0.595 C  
BRANCH   3   4
HETATM    4  C   UNL     1     -12.098  13.594  64.287  1.00  0.00    -0.480 C  
BRANCH   4   5
HETATM    5  C   UNL     1     -10.872  13.852  65.176  1.00  0.00    -0.364 C  
BRANCH   5   6
HETATM    6  C   UNL     1     -11.187  13.900  66.654  1.00  0.00    -0.328 A  
HETATM    7  C   UNL     1     -11.543  12.722  67.330  1.00  0.00    -0.420 A  
HETATM    8  C   UNL     1     -11.906  12.751  68.679  1.00  0.00    -0.341 A  
HETATM    9  C   UNL     1     -11.904  13.957  69.385  1.00  0.00    -0.384 A  
HETATM   10  C   UNL     1     -12.338  14.009  70.820  1.00  0.00    -0.443 C  
HETATM   11  C   UNL     1     -11.503  15.128  68.732  1.00  0.00    -0.335 A  
HETATM   12  C   UNL     1     -11.152  15.094  67.380  1.00  0.00    -0.325 A  
HETATM   13  O   UNL     1     -10.782  16.248  66.748  1.00  0.00    -0.293 OA 
HETATM   14  H   UNL     1     -10.758  17.059  67.242  1.00  0.00     0.000 HD 
ENDBRANCH   5   6
ENDBRANCH   4   5
ENDBRANCH   3   4
ENDBRANCH   2   3
TORSDOF 4
ENDMDL
MODEL       46
REMARK 921   NORMALIZED FREE ENERGY PREDICTED BY IDOCK:   -4.25 KCAL/MOL
REMARK 922        TOTAL FREE ENERGY PREDICTED BY IDOCK:   -5.57 KCAL/MOL
REMARK 923 INTER-LIGAND FREE ENERGY PREDICTED BY IDOCK:   -5.22 KCAL/MOL
REMARK 924 INTRA-LIGAND FREE ENERGY PREDICTED BY IDOCK:   -0.35 KCAL/MOL
REMARK 927      BINDING AFFINITY PREDICTED BY RF-SCORE:    0.00 PKD
ROOT
HETATM    1  C   UNL     1     -10.299   9.755  70.243  1.00  0.00    -0.348 C  
HETATM    2  C   UNL     1     -11.567  10.549  70.520  1.00  0.00    -0.441 C  
ENDROOT
BRANCH   2   3
HETATM    3  C   UNL     1     -12.153  11.150  69.242  1.00  0.00    -0.377 C  
BRANCH   3   4
HETATM    4  C   UNL     1     -11.393  12.418  68.835  1.00  0.00    -0.342 C  
BRANCH   4   5
HETATM    5  C   UNL     1     -11.870  13.018  67.505  1.00  0.00    -0.408 C  
BRANCH   5   6
HETATM    6  C   UNL     1     -11.324  12.313  66.284  1.00  0.00    -0.395 A  
HETATM    7  C   UNL     1     -10.146  11.556  66.384  1.00  0.00    -0.250 A  
HETATM    8  C   UNL     1      -9.583  10.954  65.256  1.00  0.00    -0.276 A  
HETATM    9  C   UNL     1     -10.194  11.083  64.006  1.00  0.00    -0.420 A  
HETATM   10  C   UNL     1      -9.574  10.481  62.780  1.00  0.00    -0.323 C  
HETATM   11  C   UNL     1     -11.395  11.796  63.906  1.00  0.00    -0.494 A  
HETATM   12  C   UNL     1     -11.947  12.404  65.035  1.00  0.00    -0.402 A  
HETATM   13  O   UNL     1     -13.109  13.115  64.922  1.00  0.00    -0.744 OA 
HETATM   14  H   UNL     1     -13.532  13.176  64.074  1.00  0.00     0.000 HD 
ENDBRANCH   5   6
ENDBRANCH   4   5
ENDBRANCH   3   4
ENDBRANCH   2   3
TORSDOF 4
ENDMDL
MODEL       47
REMARK 921   NORMALIZED FREE ENERGY PREDICTED BY IDOCK:   -4.23 KCAL/MOL
REMARK 922        TOTAL FREE ENERGY PREDICTED BY IDOCK:   -5.54 KCAL/MOL
REMARK 923 INTER-LIGAND FREE ENERGY PREDICTED BY IDOCK:   -5.38 KCAL/MOL
REMARK 924 INTRA-LIGAND FREE ENERGY PREDICTED BY IDOCK:   -0.16 KCAL/MOL
REMARK 927      BINDING AFFINITY PREDICTED BY RF-SCORE:    0.00 PKD
ROOT
HETATM    1  C   UNL     1     -13.618  15.656  72.677  1.00  0.00    -0.667 C  
HETATM    2  C   UNL     1     -14.110  14.527  71.784  1.00  0.00    -0.578 C  
ENDROOT
BRANCH   2   3
HETATM    3  C   UNL     1     -13.707  13.155  72.326  1.00  0.00    -0.647 C  
BRANCH   3   4
HETATM    4  C   UNL     1     -12.776  12.433  71.345  1.00  0.00    -0.346 C  
BRANCH   4   5
HETATM    5  C   UNL     1     -12.982  10.911  71.312  1.00  0.00    -0.492 C  
BRANCH   5   6
HETATM    6  C   UNL     1     -11.790  10.142  70.790  1.00  0.00    -0.443 A  
HETATM    7  C   UNL     1     -10.949   9.465  71.687  1.00  0.00    -0.382 A  
HETATM    8  C   UNL     1      -9.802   8.806  71.237  1.00  0.00    -0.336 A  
HETATM    9  C   UNL     1      -9.480   8.797  69.877  1.00  0.00    -0.174 A  
HETATM   10  C   UNL     1      -8.226   8.135  69.387  1.00  0.00    -0.121 C  
HETATM   11  C   UNL     1     -10.338   9.429  68.970  1.00  0.00    -0.224 A  
HETATM   12  C   UNL     1     -11.478  10.095  69.428  1.00  0.00    -0.142 A  
HETATM   13  O   UNL     1     -12.298  10.726  68.535  1.00  0.00    -0.825 OA 
HETATM   14  H   UNL     1     -12.086  10.693  67.609  1.00  0.00     0.000 HD 
ENDBRANCH   5   6
ENDBRANCH   4   5
ENDBRANCH   3   4
ENDBRANCH   2   3
TORSDOF 4
ENDMDL
MODEL       48
REMARK 921   NORMALIZED FREE ENERGY PREDICTED BY IDOCK:   -4.20 KCAL/MOL
REMARK 922        TOTAL FREE ENERGY PREDICTED BY IDOCK:   -5.50 KCAL/MOL
REMARK 923 INTER-LIGAND FREE ENERGY PREDICTED BY IDOCK:   -5.01 KCAL/MOL
REMARK 924 INTRA-LIGAND FREE ENERGY PREDICTED BY IDOCK:   -0.49 KCAL/MOL
REMARK 927      BINDING AFFINITY PREDICTED BY RF-SCORE:    0.00 PKD
ROOT
HETATM    1  C   UNL     1     -10.946  11.500  63.687  1.00  0.00    -0.482 C  
HETATM    2  C   UNL     1     -12.340  12.105  63.630  1.00  0.00    -0.673 C  
ENDROOT
BRANCH   2   3
HETATM    3  C   UNL     1     -12.655  12.928  64.880  1.00  0.00    -0.525 C  
BRANCH   3   4
HETATM    4  C   UNL     1     -11.477  12.904  65.861  1.00  0.00    -0.387 C  
BRANCH   4   5
HETATM    5  C   UNL     1     -11.905  12.968  67.334  1.00  0.00    -0.411 C  
BRANCH   5   6
HETATM    6  C   UNL     1     -11.508  11.752  68.141  1.00  0.00    -0.382 A  
HETATM    7  C   UNL     1     -11.002  10.616  67.489  1.00  0.00    -0.371 A  
HETATM    8  C   UNL     1     -10.694   9.456  68.204  1.00  0.00    -0.230 A  
HETATM    9  C   UNL     1     -10.870   9.413  69.590  1.00  0.00    -0.245 A  
HETATM   10  C   UNL     1     -10.589   8.158  70.362  1.00  0.00    -0.226 C  
HETATM   11  C   UNL     1     -11.328  10.556  70.254  1.00  0.00    -0.407 A  
HETATM   12  C   UNL     1     -11.644  11.710  69.532  1.00  0.00    -0.331 A  
HETATM   13  O   UNL     1     -12.109  12.814  70.189  1.00  0.00    -0.342 OA 
HETATM   14  H   UNL     1     -12.201  12.785  71.134  1.00  0.00     0.000 HD 
ENDBRANCH   5   6
ENDBRANCH   4   5
ENDBRANCH   3   4
ENDBRANCH   2   3
TORSDOF 4
ENDMDL
MODEL       49
REMARK 921   NORMALIZED FREE ENERGY PREDICTED BY IDOCK:   -4.17 KCAL/MOL
REMARK 922        TOTAL FREE ENERGY PREDICTED BY IDOCK:   -5.47 KCAL/MOL
REMARK 923 INTER-LIGAND FREE ENERGY PREDICTED BY IDOCK:   -5.25 KCAL/MOL
REMARK 924 INTRA-LIGAND FREE ENERGY PREDICTED BY IDOCK:   -0.22 KCAL/MOL
REMARK 927      BINDING AFFINITY PREDICTED BY RF-SCORE:    0.00 PKD
ROOT
HETATM    1  C   UNL     1     -13.752   9.159  72.165  1.00  0.00    -0.531 C  
HETATM    2  C   UNL     1     -13.062  10.463  71.798  1.00  0.00    -0.567 C  
ENDROOT
BRANCH   2   3
HETATM    3  C   UNL     1     -12.041  10.271  70.675  1.00  0.00    -0.433 C  
BRANCH   3   4
HETATM    4  C   UNL     1     -11.980  11.510  69.775  1.00  0.00    -0.415 C  
BRANCH   4   5
HETATM    5  C   UNL     1     -10.746  11.544  68.862  1.00  0.00    -0.245 C  
BRANCH   5   6
HETATM    6  C   UNL     1     -11.048  11.954  67.438  1.00  0.00    -0.336 A  
HETATM    7  C   UNL     1     -11.879  13.058  67.191  1.00  0.00    -0.431 A  
HETATM    8  C   UNL     1     -12.230  13.414  65.886  1.00  0.00    -0.502 A  
HETATM    9  C   UNL     1     -11.744  12.683  64.799  1.00  0.00    -0.402 A  
HETATM   10  C   UNL     1     -12.151  13.026  63.397  1.00  0.00    -0.591 C  
HETATM   11  C   UNL     1     -10.875  11.611  65.034  1.00  0.00    -0.346 A  
HETATM   12  C   UNL     1     -10.537  11.254  66.341  1.00  0.00    -0.266 A  
HETATM   13  O   UNL     1      -9.704  10.192  66.559  1.00  0.00    -0.182 OA 
HETATM   14  H   UNL     1      -9.357   9.716  65.814  1.00  0.00     0.000 HD 
ENDBRANCH   5   6
ENDBRANCH   4   5
ENDBRANCH   3   4
ENDBRANCH   2   3
TORSDOF 4
ENDMDL
MODEL       50
REMARK 921   NORMALIZED FREE ENERGY PREDICTED BY IDOCK:   -4.15 KCAL/MOL
REMARK 922        TOTAL FREE ENERGY PREDICTED BY IDOCK:   -5.44 KCAL/MOL
REMARK 923 INTER-LIGAND FREE ENERGY PREDICTED BY IDOCK:   -4.86 KCAL/MOL
REMARK 924 INTRA-LIGAND FREE ENERGY PREDICTED BY IDOCK:   -0.59 KCAL/MOL
REMARK 927      BINDING AFFINITY PREDICTED BY RF-SCORE:    0.00 PKD
ROOT
HETATM    1  C   UNL     1      -8.769  14.279  67.266  1.00  0.00    -0.230 C  
HETATM    2  C   UNL     1      -9.301  15.333  66.308  1.00  0.00    -0.345 C  
ENDROOT
BRANCH   2   3
HETATM    3  C   UNL     1     -10.795  15.588  66.513  1.00  0.00    -0.284 C  
BRANCH   3   4
HETATM    4  C   UNL     1     -11.578  15.309  65.225  1.00  0.00    -0.139 C  
BRANCH   4   5
HETATM    5  C   UNL     1     -12.468  14.060  65.307  1.00  0.00    -0.495 C  
BRANCH   5   6
HETATM    6  C   UNL     1     -11.697  12.761  65.370  1.00  0.00    -0.425 A  
HETATM    7  C   UNL     1     -11.468  12.144  66.610  1.00  0.00    -0.426 A  
HETATM    8  C   UNL     1     -10.698  10.981  66.701  1.00  0.00    -0.305 A  
HETATM    9  C   UNL     1     -10.155  10.401  65.552  1.00  0.00    -0.352 A  
HETATM   10  C   UNL     1      -9.288   9.180  65.642  1.00  0.00    -0.300 C  
HETATM   11  C   UNL     1     -10.420  10.982  64.306  1.00  0.00    -0.427 A  
HETATM   12  C   UNL     1     -11.181  12.151  64.223  1.00  0.00    -0.347 A  
HETATM   13  O   UNL     1     -11.415  12.720  63.002  1.00  0.00    -0.780 OA 
HETATM   14  H   UNL     1     -11.064  12.305  62.223  1.00  0.00     0.000 HD 
ENDBRANCH   5   6
ENDBRANCH   4   5
ENDBRANCH   3   4
ENDBRANCH   2   3
TORSDOF 4
ENDMDL
MODEL       51
REMARK 921   NORMALIZED FREE ENERGY PREDICTED BY IDOCK:   -4.15 KCAL/MOL
REMARK 922        TOTAL FREE ENERGY PREDICTED BY IDOCK:   -5.44 KCAL/MOL
REMARK 923 INTER-LIGAND FREE ENERGY PREDICTED BY IDOCK:   -5.16 KCAL/MOL
REMARK 924 INTRA-LIGAND FREE ENERGY PREDICTED BY IDOCK:   -0.27 KCAL/MOL
REMARK 927      BINDING AFFINITY PREDICTED BY RF-SCORE:    0.00 PKD
ROOT
HETATM    1  C   UNL     1     -12.593  15.504  73.845  1.00  0.00    -0.767 C  
HETATM    2  C   UNL     1     -13.636  15.588  72.742  1.00  0.00    -0.653 C  
ENDROOT
BRANCH   2   3
HETATM    3  C   UNL     1     -14.091  14.203  72.280  1.00  0.00    -0.630 C  
BRANCH   3   4
HETATM    4  C   UNL     1     -13.156  13.655  71.196  1.00  0.00    -0.306 C  
BRANCH   4   5
HETATM    5  C   UNL     1     -12.800  12.173  71.386  1.00  0.00    -0.378 C  
BRANCH   5   6
HETATM    6  C   UNL     1     -11.956  11.597  70.272  1.00  0.00    -0.445 A  
HETATM    7  C   UNL     1     -11.924  12.233  69.021  1.00  0.00    -0.300 A  
HETATM    8  C   UNL     1     -11.208  11.683  67.954  1.00  0.00    -0.334 A  
HETATM    9  C   UNL     1     -10.494  10.493  68.122  1.00  0.00    -0.217 A  
HETATM   10  C   UNL     1      -9.760   9.868  66.972  1.00  0.00    -0.230 C  
HETATM   11  C   UNL     1     -10.480   9.879  69.379  1.00  0.00    -0.250 A  
HETATM   12  C   UNL     1     -11.207  10.428  70.438  1.00  0.00    -0.321 A  
HETATM   13  O   UNL     1     -11.203   9.808  71.656  1.00  0.00    -0.331 OA 
HETATM   14  H   UNL     1     -10.694   9.014  71.769  1.00  0.00     0.000 HD 
ENDBRANCH   5   6
ENDBRANCH   4   5
ENDBRANCH   3   4
ENDBRANCH   2   3
TORSDOF 4
ENDMDL
MODEL       52
REMARK 921   NORMALIZED FREE ENERGY PREDICTED BY IDOCK:   -4.14 KCAL/MOL
REMARK 922        TOTAL FREE ENERGY PREDICTED BY IDOCK:   -5.43 KCAL/MOL
REMARK 923 INTER-LIGAND FREE ENERGY PREDICTED BY IDOCK:   -5.14 KCAL/MOL
REMARK 924 INTRA-LIGAND FREE ENERGY PREDICTED BY IDOCK:   -0.29 KCAL/MOL
REMARK 927      BINDING AFFINITY PREDICTED BY RF-SCORE:    0.00 PKD
ROOT
HETATM    1  C   UNL     1     -12.065  16.153  72.857  1.00  0.00    -0.643 C  
HETATM    2  C   UNL     1     -13.211  15.183  72.612  1.00  0.00    -0.536 C  
ENDROOT
BRANCH   2   3
HETATM    3  C   UNL     1     -13.420  14.913  71.121  1.00  0.00    -0.474 C  
BRANCH   3   4
HETATM    4  C   UNL     1     -12.179  14.255  70.507  1.00  0.00    -0.427 C  
BRANCH   4   5
HETATM    5  C   UNL     1     -11.626  15.008  69.289  1.00  0.00    -0.338 C  
BRANCH   5   6
HETATM    6  C   UNL     1     -11.313  14.117  68.108  1.00  0.00    -0.316 A  
HETATM    7  C   UNL     1     -12.252  13.971  67.076  1.00  0.00    -0.387 A  
HETATM    8  C   UNL     1     -12.017  13.099  66.009  1.00  0.00    -0.488 A  
HETATM    9  C   UNL     1     -10.827  12.368  65.943  1.00  0.00    -0.305 A  
HETATM   10  C   UNL     1     -10.583  11.395  64.829  1.00  0.00    -0.377 C  
HETATM   11  C   UNL     1      -9.864  12.545  66.943  1.00  0.00    -0.229 A  
HETATM   12  C   UNL     1     -10.110  13.410  68.012  1.00  0.00    -0.241 A  
HETATM   13  O   UNL     1      -9.170  13.559  68.993  1.00  0.00    -0.382 OA 
HETATM   14  H   UNL     1      -8.354  13.078  68.928  1.00  0.00     0.000 HD 
ENDBRANCH   5   6
ENDBRANCH   4   5
ENDBRANCH   3   4
ENDBRANCH   2   3
TORSDOF 4
ENDMDL
MODEL       53
REMARK 921   NORMALIZED FREE ENERGY PREDICTED BY IDOCK:   -4.14 KCAL/MOL
REMARK 922        TOTAL FREE ENERGY PREDICTED BY IDOCK:   -5.43 KCAL/MOL
REMARK 923 INTER-LIGAND FREE ENERGY PREDICTED BY IDOCK:   -5.06 KCAL/MOL
REMARK 924 INTRA-LIGAND FREE ENERGY PREDICTED BY IDOCK:   -0.37 KCAL/MOL
REMARK 927      BINDING AFFINITY PREDICTED BY RF-SCORE:    0.00 PKD
ROOT
HETATM    1  C   UNL     1     -12.583  12.712  64.770  1.00  0.00    -0.530 C  
HETATM    2  C   UNL     1     -11.903  12.659  66.129  1.00  0.00    -0.477 C  
ENDROOT
BRANCH   2   3
HETATM    3  C   UNL     1     -11.937  14.014  66.837  1.00  0.00    -0.479 C  
BRANCH   3   4
HETATM    4  C   UNL     1     -11.996  13.835  68.358  1.00  0.00    -0.395 C  
BRANCH   4   5
HETATM    5  C   UNL     1     -11.098  12.702  68.876  1.00  0.00    -0.307 C  
BRANCH   5   6
HETATM    6  C   UNL     1     -11.792  11.758  69.832  1.00  0.00    -0.423 A  
HETATM    7  C   UNL     1     -12.510  12.272  70.923  1.00  0.00    -0.371 A  
HETATM    8  C   UNL     1     -13.101  11.420  71.859  1.00  0.00    -0.505 A  
HETATM    9  C   UNL     1     -13.000  10.034  71.715  1.00  0.00    -0.560 A  
HETATM   10  C   UNL     1     -13.589   9.109  72.739  1.00  0.00    -0.271 C  
HETATM   11  C   UNL     1     -12.328   9.512  70.604  1.00  0.00    -0.147 A  
HETATM   12  C   UNL     1     -11.730  10.370  69.677  1.00  0.00    -0.212 A  
HETATM   13  O   UNL     1     -11.059   9.849  68.607  1.00  0.00    -0.380 OA 
HETATM   14  H   UNL     1     -11.017   8.905  68.502  1.00  0.00     0.000 HD 
ENDBRANCH   5   6
ENDBRANCH   4   5
ENDBRANCH   3   4
ENDBRANCH   2   3
TORSDOF 4
ENDMDL
MODEL       54
REMARK 921   NORMALIZED FREE ENERGY PREDICTED BY IDOCK:   -4.14 KCAL/MOL
REMARK 922        TOTAL FREE ENERGY PREDICTED BY IDOCK:   -5.43 KCAL/MOL
REMARK 923 INTER-LIGAND FREE ENERGY PREDICTED BY IDOCK:   -4.77 KCAL/MOL
REMARK 924 INTRA-LIGAND FREE ENERGY PREDICTED BY IDOCK:   -0.66 KCAL/MOL
REMARK 927      BINDING AFFINITY PREDICTED BY RF-SCORE:    0.00 PKD
ROOT
HETATM    1  C   UNL     1     -12.120  14.147  64.465  1.00  0.00    -0.489 C  
HETATM    2  C   UNL     1     -12.646  12.877  65.117  1.00  0.00    -0.536 C  
ENDROOT
BRANCH   2   3
HETATM    3  C   UNL     1     -11.551  12.136  65.886  1.00  0.00    -0.425 C  
BRANCH   3   4
HETATM    4  C   UNL     1     -11.630  12.449  67.385  1.00  0.00    -0.433 C  
BRANCH   4   5
HETATM    5  C   UNL     1     -10.363  13.117  67.938  1.00  0.00    -0.232 C  
BRANCH   5   6
HETATM    6  C   UNL     1     -10.346  14.621  67.786  1.00  0.00    -0.237 A  
HETATM    7  C   UNL     1     -11.057  15.423  68.692  1.00  0.00    -0.290 A  
HETATM    8  C   UNL     1     -11.115  16.810  68.532  1.00  0.00    -0.260 A  
HETATM    9  C   UNL     1     -10.449  17.426  67.470  1.00  0.00    -0.354 A  
HETATM   10  C   UNL     1     -10.542  18.909  67.259  1.00  0.00    -0.529 C  
HETATM   11  C   UNL     1      -9.697  16.640  66.589  1.00  0.00    -0.280 A  
HETATM   12  C   UNL     1      -9.652  15.253  66.748  1.00  0.00    -0.241 A  
HETATM   13  O   UNL     1      -8.932  14.493  65.870  1.00  0.00    -0.461 OA 
HETATM   14  H   UNL     1      -8.461  14.922  65.166  1.00  0.00     0.000 HD 
ENDBRANCH   5   6
ENDBRANCH   4   5
ENDBRANCH   3   4
ENDBRANCH   2   3
TORSDOF 4
ENDMDL
MODEL       55
REMARK 921   NORMALIZED FREE ENERGY PREDICTED BY IDOCK:   -4.11 KCAL/MOL
REMARK 922        TOTAL FREE ENERGY PREDICTED BY IDOCK:   -5.40 KCAL/MOL
REMARK 923 INTER-LIGAND FREE ENERGY PREDICTED BY IDOCK:   -4.95 KCAL/MOL
REMARK 924 INTRA-LIGAND FREE ENERGY PREDICTED BY IDOCK:   -0.45 KCAL/MOL
REMARK 927      BINDING AFFINITY PREDICTED BY RF-SCORE:    0.00 PKD
ROOT
HETATM    1  C   UNL     1      -9.970  16.449  66.121  1.00  0.00    -0.360 C  
HETATM    2  C   UNL     1     -10.001  14.929  66.152  1.00  0.00    -0.323 C  
ENDROOT
BRANCH   2   3
HETATM    3  C   UNL     1     -11.413  14.383  65.932  1.00  0.00    -0.341 C  
BRANCH   3   4
HETATM    4  C   UNL     1     -11.638  13.106  66.749  1.00  0.00    -0.414 C  
BRANCH   4   5
HETATM    5  C   UNL     1     -10.900  13.102  68.095  1.00  0.00    -0.271 C  
BRANCH   5   6
HETATM    6  C   UNL     1     -11.698  13.697  69.234  1.00  0.00    -0.376 A  
HETATM    7  C   UNL     1     -11.940  15.079  69.268  1.00  0.00    -0.322 A  
HETATM    8  C   UNL     1     -12.613  15.663  70.344  1.00  0.00    -0.376 A  
HETATM    9  C   UNL     1     -13.073  14.874  71.402  1.00  0.00    -0.441 A  
HETATM   10  C   UNL     1     -13.755  15.495  72.585  1.00  0.00    -0.667 C  
HETATM   11  C   UNL     1     -12.879  13.489  71.353  1.00  0.00    -0.440 A  
HETATM   12  C   UNL     1     -12.195  12.913  70.279  1.00  0.00    -0.289 A  
HETATM   13  O   UNL     1     -11.993  11.561  70.251  1.00  0.00    -0.333 OA 
HETATM   14  H   UNL     1     -12.331  11.029  70.962  1.00  0.00     0.000 HD 
ENDBRANCH   5   6
ENDBRANCH   4   5
ENDBRANCH   3   4
ENDBRANCH   2   3
TORSDOF 4
ENDMDL
MODEL       56
REMARK 921   NORMALIZED FREE ENERGY PREDICTED BY IDOCK:   -4.10 KCAL/MOL
REMARK 922        TOTAL FREE ENERGY PREDICTED BY IDOCK:   -5.38 KCAL/MOL
REMARK 923 INTER-LIGAND FREE ENERGY PREDICTED BY IDOCK:   -4.72 KCAL/MOL
REMARK 924 INTRA-LIGAND FREE ENERGY PREDICTED BY IDOCK:   -0.66 KCAL/MOL
REMARK 927      BINDING AFFINITY PREDICTED BY RF-SCORE:    0.00 PKD
ROOT
HETATM    1  C   UNL     1     -14.033   8.924  72.262  1.00  0.00    -0.531 C  
HETATM    2  C   UNL     1     -13.710   9.852  71.101  1.00  0.00    -0.117 C  
ENDROOT
BRANCH   2   3
HETATM    3  C   UNL     1     -12.431  10.652  71.351  1.00  0.00    -0.496 C  
BRANCH   3   4
HETATM    4  C   UNL     1     -11.422  10.437  70.218  1.00  0.00    -0.406 C  
BRANCH   4   5
HETATM    5  C   UNL     1     -10.208   9.592  70.631  1.00  0.00    -0.364 C  
BRANCH   5   6
HETATM    6  C   UNL     1     -10.568   8.315  71.357  1.00  0.00    -0.279 A  
HETATM    7  C   UNL     1     -10.348   8.211  72.739  1.00  0.00    -0.384 A  
HETATM    8  C   UNL     1     -10.607   7.019  73.419  1.00  0.00    -0.399 A  
HETATM    9  C   UNL     1     -11.108   5.908  72.734  1.00  0.00    -0.321 A  
HETATM   10  C   UNL     1     -11.344   4.608  73.444  1.00  0.00    -0.394 C  
HETATM   11  C   UNL     1     -11.376   6.018  71.365  1.00  0.00    -0.301 A  
HETATM   12  C   UNL     1     -11.105   7.210  70.688  1.00  0.00    -0.267 A  
HETATM   13  O   UNL     1     -11.353   7.299  69.347  1.00  0.00    -0.467 OA 
HETATM   14  H   UNL     1     -11.717   6.548  68.894  1.00  0.00     0.000 HD 
ENDBRANCH   5   6
ENDBRANCH   4   5
ENDBRANCH   3   4
ENDBRANCH   2   3
TORSDOF 4
ENDMDL
MODEL       57
REMARK 921   NORMALIZED FREE ENERGY PREDICTED BY IDOCK:   -4.10 KCAL/MOL
REMARK 922        TOTAL FREE ENERGY PREDICTED BY IDOCK:   -5.38 KCAL/MOL
REMARK 923 INTER-LIGAND FREE ENERGY PREDICTED BY IDOCK:   -4.98 KCAL/MOL
REMARK 924 INTRA-LIGAND FREE ENERGY PREDICTED BY IDOCK:   -0.40 KCAL/MOL
REMARK 927      BINDING AFFINITY PREDICTED BY RF-SCORE:    0.00 PKD
ROOT
HETATM    1  C   UNL     1     -10.482  16.074  66.188  1.00  0.00    -0.334 C  
HETATM    2  C   UNL     1     -10.410  15.075  67.333  1.00  0.00    -0.238 C  
ENDROOT
BRANCH   2   3
HETATM    3  C   UNL     1     -11.795  14.564  67.732  1.00  0.00    -0.390 C  
BRANCH   3   4
HETATM    4  C   UNL     1     -12.014  13.132  67.231  1.00  0.00    -0.389 C  
BRANCH   4   5
HETATM    5  C   UNL     1     -12.274  13.045  65.720  1.00  0.00    -0.511 C  
BRANCH   5   6
HETATM    6  C   UNL     1     -11.351  12.094  64.992  1.00  0.00    -0.379 A  
HETATM    7  C   UNL     1     -10.658  11.107  65.711  1.00  0.00    -0.289 A  
HETATM    8  C   UNL     1      -9.746  10.262  65.074  1.00  0.00    -0.370 A  
HETATM    9  C   UNL     1      -9.519  10.375  63.700  1.00  0.00    -0.353 A  
HETATM   10  C   UNL     1      -8.508   9.506  63.012  1.00  0.00    -0.198 C  
HETATM   11  C   UNL     1     -10.241  11.324  62.966  1.00  0.00    -0.293 A  
HETATM   12  C   UNL     1     -11.144  12.173  63.612  1.00  0.00    -0.457 A  
HETATM   13  O   UNL     1     -11.829  13.109  62.889  1.00  0.00    -0.775 OA 
HETATM   14  H   UNL     1     -11.688  13.163  61.951  1.00  0.00     0.000 HD 
ENDBRANCH   5   6
ENDBRANCH   4   5
ENDBRANCH   3   4
ENDBRANCH   2   3
TORSDOF 4
ENDMDL
MODEL       58
REMARK 921   NORMALIZED FREE ENERGY PREDICTED BY IDOCK:   -4.07 KCAL/MOL
REMARK 922        TOTAL FREE ENERGY PREDICTED BY IDOCK:   -5.35 KCAL/MOL
REMARK 923 INTER-LIGAND FREE ENERGY PREDICTED BY IDOCK:   -4.85 KCAL/MOL
REMARK 924 INTRA-LIGAND FREE ENERGY PREDICTED BY IDOCK:   -0.50 KCAL/MOL
REMARK 927      BINDING AFFINITY PREDICTED BY RF-SCORE:    0.00 PKD
ROOT
HETATM    1  C   UNL     1     -11.901  15.894  71.920  1.00  0.00    -0.595 C  
HETATM    2  C   UNL     1     -12.878  14.788  71.550  1.00  0.00    -0.406 C  
ENDROOT
BRANCH   2   3
HETATM    3  C   UNL     1     -12.330  13.891  70.439  1.00  0.00    -0.433 C  
BRANCH   3   4
HETATM    4  C   UNL     1     -11.103  14.529  69.778  1.00  0.00    -0.239 C  
BRANCH   4   5
HETATM    5  C   UNL     1     -11.260  14.736  68.265  1.00  0.00    -0.299 C  
BRANCH   5   6
HETATM    6  C   UNL     1     -10.765  16.078  67.774  1.00  0.00    -0.323 A  
HETATM    7  C   UNL     1     -10.585  17.131  68.685  1.00  0.00    -0.352 A  
HETATM    8  C   UNL     1     -10.196  18.399  68.248  1.00  0.00    -0.412 A  
HETATM    9  C   UNL     1      -9.962  18.638  66.891  1.00  0.00    -0.373 A  
HETATM   10  C   UNL     1      -9.591  20.007  66.402  1.00  0.00    -0.536 C  
HETATM   11  C   UNL     1     -10.092  17.581  65.982  1.00  0.00    -0.270 A  
HETATM   12  C   UNL     1     -10.492  16.318  66.424  1.00  0.00    -0.294 A  
HETATM   13  O   UNL     1     -10.635  15.299  65.525  1.00  0.00    -0.319 OA 
HETATM   14  H   UNL     1     -10.449  15.463  64.607  1.00  0.00     0.000 HD 
ENDBRANCH   5   6
ENDBRANCH   4   5
ENDBRANCH   3   4
ENDBRANCH   2   3
TORSDOF 4
ENDMDL
MODEL       59
REMARK 921   NORMALIZED FREE ENERGY PREDICTED BY IDOCK:   -4.06 KCAL/MOL
REMARK 922        TOTAL FREE ENERGY PREDICTED BY IDOCK:   -5.33 KCAL/MOL
REMARK 923 INTER-LIGAND FREE ENERGY PREDICTED BY IDOCK:   -4.92 KCAL/MOL
REMARK 924 INTRA-LIGAND FREE ENERGY PREDICTED BY IDOCK:   -0.40 KCAL/MOL
REMARK 927      BINDING AFFINITY PREDICTED BY RF-SCORE:    0.00 PKD
ROOT
HETATM    1  C   UNL     1     -10.228   8.783  67.262  1.00  0.00    -0.332 C  
HETATM    2  C   UNL     1     -10.860  10.105  67.673  1.00  0.00    -0.346 C  
ENDROOT
BRANCH   2   3
HETATM    3  C   UNL     1     -10.882  11.108  66.519  1.00  0.00    -0.302 C  
BRANCH   3   4
HETATM    4  C   UNL     1     -11.612  12.393  66.927  1.00  0.00    -0.437 C  
BRANCH   4   5
HETATM    5  C   UNL     1     -10.768  13.322  67.812  1.00  0.00    -0.256 C  
BRANCH   5   6
HETATM    6  C   UNL     1     -11.505  13.854  69.021  1.00  0.00    -0.341 A  
HETATM    7  C   UNL     1     -11.970  12.964  70.002  1.00  0.00    -0.380 A  
HETATM    8  C   UNL     1     -12.715  13.423  71.091  1.00  0.00    -0.411 A  
HETATM    9  C   UNL     1     -12.997  14.785  71.232  1.00  0.00    -0.413 A  
HETATM   10  C   UNL     1     -13.835  15.284  72.371  1.00  0.00    -0.641 C  
HETATM   11  C   UNL     1     -12.496  15.685  70.284  1.00  0.00    -0.369 A  
HETATM   12  C   UNL     1     -11.761  15.218  69.191  1.00  0.00    -0.335 A  
HETATM   13  O   UNL     1     -11.294  16.104  68.261  1.00  0.00    -0.361 OA 
HETATM   14  H   UNL     1     -11.468  17.031  68.377  1.00  0.00     0.000 HD 
ENDBRANCH   5   6
ENDBRANCH   4   5
ENDBRANCH   3   4
ENDBRANCH   2   3
TORSDOF 4
ENDMDL
MODEL       60
REMARK 921   NORMALIZED FREE ENERGY PREDICTED BY IDOCK:   -4.01 KCAL/MOL
REMARK 922        TOTAL FREE ENERGY PREDICTED BY IDOCK:   -5.28 KCAL/MOL
REMARK 923 INTER-LIGAND FREE ENERGY PREDICTED BY IDOCK:   -4.99 KCAL/MOL
REMARK 924 INTRA-LIGAND FREE ENERGY PREDICTED BY IDOCK:   -0.28 KCAL/MOL
REMARK 927      BINDING AFFINITY PREDICTED BY RF-SCORE:    0.00 PKD
ROOT
HETATM    1  C   UNL     1     -14.132  13.635  72.159  1.00  0.00    -0.553 C  
HETATM    2  C   UNL     1     -13.049  14.486  72.804  1.00  0.00    -0.589 C  
ENDROOT
BRANCH   2   3
HETATM    3  C   UNL     1     -11.956  14.870  71.806  1.00  0.00    -0.435 C  
BRANCH   3   4
HETATM    4  C   UNL     1     -12.466  14.750  70.365  1.00  0.00    -0.405 C  
BRANCH   4   5
HETATM    5  C   UNL     1     -11.361  14.422  69.350  1.00  0.00    -0.319 C  
BRANCH   5   6
HETATM    6  C   UNL     1     -10.897  15.614  68.543  1.00  0.00    -0.282 A  
HETATM    7  C   UNL     1     -10.577  16.815  69.194  1.00  0.00    -0.343 A  
HETATM    8  C   UNL     1     -10.214  17.951  68.465  1.00  0.00    -0.393 A  
HETATM    9  C   UNL     1     -10.148  17.904  67.070  1.00  0.00    -0.340 A  
HETATM   10  C   UNL     1      -9.806  19.129  66.274  1.00  0.00    -0.437 C  
HETATM   11  C   UNL     1     -10.418  16.697  66.416  1.00  0.00    -0.266 A  
HETATM   12  C   UNL     1     -10.791  15.568  67.150  1.00  0.00    -0.316 A  
HETATM   13  O   UNL     1     -11.072  14.400  66.499  1.00  0.00    -0.317 OA 
HETATM   14  H   UNL     1     -10.999  14.369  65.552  1.00  0.00     0.000 HD 
ENDBRANCH   5   6
ENDBRANCH   4   5
ENDBRANCH   3   4
ENDBRANCH   2   3
TORSDOF 4
ENDMDL
MODEL       61
REMARK 921   NORMALIZED FREE ENERGY PREDICTED BY IDOCK:   -4.00 KCAL/MOL
REMARK 922        TOTAL FREE ENERGY PREDICTED BY IDOCK:   -5.26 KCAL/MOL
REMARK 923 INTER-LIGAND FREE ENERGY PREDICTED BY IDOCK:   -4.98 KCAL/MOL
REMARK 924 INTRA-LIGAND FREE ENERGY PREDICTED BY IDOCK:   -0.29 KCAL/MOL
REMARK 927      BINDING AFFINITY PREDICTED BY RF-SCORE:    0.00 PKD
ROOT
HETATM    1  C   UNL     1     -13.466  13.099  72.096  1.00  0.00    -0.653 C  
HETATM    2  C   UNL     1     -12.530  12.888  70.916  1.00  0.00    -0.383 C  
ENDROOT
BRANCH   2   3
HETATM    3  C   UNL     1     -12.173  11.413  70.729  1.00  0.00    -0.475 C  
BRANCH   3   4
HETATM    4  C   UNL     1     -13.281  10.509  71.281  1.00  0.00    -0.399 C  
BRANCH   4   5
HETATM    5  C   UNL     1     -12.803   9.564  72.393  1.00  0.00    -0.361 C  
BRANCH   5   6
HETATM    6  C   UNL     1     -11.931   8.430  71.902  1.00  0.00    -0.397 A  
HETATM    7  C   UNL     1     -10.540   8.492  72.078  1.00  0.00    -0.408 A  
HETATM    8  C   UNL     1      -9.707   7.491  71.571  1.00  0.00    -0.184 A  
HETATM    9  C   UNL     1     -10.250   6.398  70.891  1.00  0.00    -0.226 A  
HETATM   10  C   UNL     1      -9.364   5.341  70.301  1.00  0.00    -0.207 C  
HETATM   11  C   UNL     1     -11.640   6.303  70.754  1.00  0.00    -0.347 A  
HETATM   12  C   UNL     1     -12.466   7.313  71.253  1.00  0.00    -0.366 A  
HETATM   13  O   UNL     1     -13.821   7.220  71.095  1.00  0.00    -0.570 OA 
HETATM   14  H   UNL     1     -14.183   6.460  70.654  1.00  0.00     0.000 HD 
ENDBRANCH   5   6
ENDBRANCH   4   5
ENDBRANCH   3   4
ENDBRANCH   2   3
TORSDOF 4
ENDMDL
MODEL       62
REMARK 921   NORMALIZED FREE ENERGY PREDICTED BY IDOCK:   -3.99 KCAL/MOL
REMARK 922        TOTAL FREE ENERGY PREDICTED BY IDOCK:   -5.25 KCAL/MOL
REMARK 923 INTER-LIGAND FREE ENERGY PREDICTED BY IDOCK:   -4.94 KCAL/MOL
REMARK 924 INTRA-LIGAND FREE ENERGY PREDICTED BY IDOCK:   -0.31 KCAL/MOL
REMARK 927      BINDING AFFINITY PREDICTED BY RF-SCORE:    0.00 PKD
ROOT
HETATM    1  C   UNL     1      -9.320  19.597  66.290  1.00  0.00    -0.453 C  
HETATM    2  C   UNL     1      -8.923  18.167  66.624  1.00  0.00    -0.292 C  
ENDROOT
BRANCH   2   3
HETATM    3  C   UNL     1     -10.145  17.269  66.823  1.00  0.00    -0.302 C  
BRANCH   3   4
HETATM    4  C   UNL     1     -10.744  17.464  68.220  1.00  0.00    -0.327 C  
BRANCH   4   5
HETATM    5  C   UNL     1     -10.077  16.598  69.298  1.00  0.00    -0.257 C  
BRANCH   5   6
HETATM    6  C   UNL     1     -11.043  15.721  70.064  1.00  0.00    -0.348 A  
HETATM    7  C   UNL     1     -11.671  16.216  71.217  1.00  0.00    -0.480 A  
HETATM    8  C   UNL     1     -12.512  15.402  71.981  1.00  0.00    -0.450 A  
HETATM    9  C   UNL     1     -12.756  14.081  71.598  1.00  0.00    -0.422 A  
HETATM   10  C   UNL     1     -13.619  13.183  72.435  1.00  0.00    -0.667 C  
HETATM   11  C   UNL     1     -12.172  13.594  70.422  1.00  0.00    -0.434 A  
HETATM   12  C   UNL     1     -11.324  14.409  69.669  1.00  0.00    -0.263 A  
HETATM   13  O   UNL     1     -10.744  13.917  68.534  1.00  0.00    -0.243 OA 
HETATM   14  H   UNL     1     -10.935  13.026  68.266  1.00  0.00     0.000 HD 
ENDBRANCH   5   6
ENDBRANCH   4   5
ENDBRANCH   3   4
ENDBRANCH   2   3
TORSDOF 4
ENDMDL
MODEL       63
REMARK 921   NORMALIZED FREE ENERGY PREDICTED BY IDOCK:   -3.99 KCAL/MOL
REMARK 922        TOTAL FREE ENERGY PREDICTED BY IDOCK:   -5.24 KCAL/MOL
REMARK 923 INTER-LIGAND FREE ENERGY PREDICTED BY IDOCK:   -4.98 KCAL/MOL
REMARK 924 INTRA-LIGAND FREE ENERGY PREDICTED BY IDOCK:   -0.26 KCAL/MOL
REMARK 927      BINDING AFFINITY PREDICTED BY RF-SCORE:    0.00 PKD
ROOT
HETATM    1  C   UNL     1      -9.840  20.477  67.176  1.00  0.00    -0.567 C  
HETATM    2  C   UNL     1      -9.571  18.980  67.206  1.00  0.00    -0.363 C  
ENDROOT
BRANCH   2   3
HETATM    3  C   UNL     1     -10.440  18.225  66.199  1.00  0.00    -0.403 C  
BRANCH   3   4
HETATM    4  C   UNL     1      -9.804  16.880  65.831  1.00  0.00    -0.241 C  
BRANCH   4   5
HETATM    5  C   UNL     1     -10.772  15.917  65.129  1.00  0.00    -0.449 C  
BRANCH   5   6
HETATM    6  C   UNL     1     -10.915  14.579  65.820  1.00  0.00    -0.319 A  
HETATM    7  C   UNL     1      -9.935  14.155  66.730  1.00  0.00    -0.267 A  
HETATM    8  C   UNL     1     -10.008  12.895  67.328  1.00  0.00    -0.224 A  
HETATM    9  C   UNL     1     -11.074  12.037  67.041  1.00  0.00    -0.351 A  
HETATM   10  C   UNL     1     -11.139  10.663  67.640  1.00  0.00    -0.385 C  
HETATM   11  C   UNL     1     -12.081  12.471  66.172  1.00  0.00    -0.357 A  
HETATM   12  C   UNL     1     -11.996  13.728  65.569  1.00  0.00    -0.384 A  
HETATM   13  O   UNL     1     -12.976  14.134  64.706  1.00  0.00    -0.674 OA 
HETATM   14  H   UNL     1     -13.710  13.555  64.536  1.00  0.00     0.000 HD 
ENDBRANCH   5   6
ENDBRANCH   4   5
ENDBRANCH   3   4
ENDBRANCH   2   3
TORSDOF 4
ENDMDL
MODEL       64
REMARK 921   NORMALIZED FREE ENERGY PREDICTED BY IDOCK:   -3.97 KCAL/MOL
REMARK 922        TOTAL FREE ENERGY PREDICTED BY IDOCK:   -5.23 KCAL/MOL
REMARK 923 INTER-LIGAND FREE ENERGY PREDICTED BY IDOCK:   -4.63 KCAL/MOL
REMARK 924 INTRA-LIGAND FREE ENERGY PREDICTED BY IDOCK:   -0.59 KCAL/MOL
REMARK 927      BINDING AFFINITY PREDICTED BY RF-SCORE:    0.00 PKD
ROOT
HETATM    1  C   UNL     1     -14.332   8.612  71.868  1.00  0.00    -0.492 C  
HETATM    2  C   UNL     1     -13.788   7.247  71.472  1.00  0.00    -0.463 C  
ENDROOT
BRANCH   2   3
HETATM    3  C   UNL     1     -12.266   7.261  71.323  1.00  0.00    -0.389 C  
BRANCH   3   4
HETATM    4  C   UNL     1     -11.641   8.342  72.212  1.00  0.00    -0.449 C  
BRANCH   4   5
HETATM    5  C   UNL     1     -10.355   8.946  71.629  1.00  0.00    -0.416 C  
BRANCH   5   6
HETATM    6  C   UNL     1     -10.589   9.869  70.455  1.00  0.00    -0.359 A  
HETATM    7  C   UNL     1     -11.604  10.836  70.519  1.00  0.00    -0.425 A  
HETATM    8  C   UNL     1     -11.886  11.654  69.422  1.00  0.00    -0.408 A  
HETATM    9  C   UNL     1     -11.147  11.534  68.242  1.00  0.00    -0.295 A  
HETATM   10  C   UNL     1     -11.471  12.373  67.042  1.00  0.00    -0.423 C  
HETATM   11  C   UNL     1     -10.100  10.606  68.186  1.00  0.00    -0.179 A  
HETATM   12  C   UNL     1      -9.831   9.784  69.283  1.00  0.00    -0.199 A  
HETATM   13  O   UNL     1      -8.819   8.867  69.210  1.00  0.00    -0.136 OA 
HETATM   14  H   UNL     1      -8.305   8.809  68.414  1.00  0.00     0.000 HD 
ENDBRANCH   5   6
ENDBRANCH   4   5
ENDBRANCH   3   4
ENDBRANCH   2   3
TORSDOF 4
ENDMDL
MODEL       65
REMARK 921   NORMALIZED FREE ENERGY PREDICTED BY IDOCK:   -3.97 KCAL/MOL
REMARK 922        TOTAL FREE ENERGY PREDICTED BY IDOCK:   -5.23 KCAL/MOL
REMARK 923 INTER-LIGAND FREE ENERGY PREDICTED BY IDOCK:   -4.95 KCAL/MOL
REMARK 924 INTRA-LIGAND FREE ENERGY PREDICTED BY IDOCK:   -0.27 KCAL/MOL
REMARK 927      BINDING AFFINITY PREDICTED BY RF-SCORE:    0.00 PKD
ROOT
HETATM    1  C   UNL     1     -10.247  19.206  67.850  1.00  0.00    -0.494 C  
HETATM    2  C   UNL     1      -9.885  17.796  68.288  1.00  0.00    -0.340 C  
ENDROOT
BRANCH   2   3
HETATM    3  C   UNL     1     -11.049  16.823  68.098  1.00  0.00    -0.254 C  
BRANCH   3   4
HETATM    4  C   UNL     1     -10.548  15.375  68.041  1.00  0.00    -0.263 C  
BRANCH   4   5
HETATM    5  C   UNL     1     -11.616  14.375  67.575  1.00  0.00    -0.398 C  
BRANCH   5   6
HETATM    6  C   UNL     1     -11.899  13.272  68.571  1.00  0.00    -0.384 A  
HETATM    7  C   UNL     1     -12.155  13.593  69.913  1.00  0.00    -0.406 A  
HETATM    8  C   UNL     1     -12.349  12.589  70.865  1.00  0.00    -0.349 A  
HETATM    9  C   UNL     1     -12.308  11.243  70.492  1.00  0.00    -0.446 A  
HETATM   10  C   UNL     1     -12.467  10.156  71.513  1.00  0.00    -0.526 C  
HETATM   11  C   UNL     1     -12.102  10.916  69.147  1.00  0.00    -0.292 A  
HETATM   12  C   UNL     1     -11.897  11.924  68.202  1.00  0.00    -0.270 A  
HETATM   13  O   UNL     1     -11.676  11.591  66.894  1.00  0.00    -0.533 OA 
HETATM   14  H   UNL     1     -11.675  10.675  66.644  1.00  0.00     0.000 HD 
ENDBRANCH   5   6
ENDBRANCH   4   5
ENDBRANCH   3   4
ENDBRANCH   2   3
TORSDOF 4
ENDMDL
MODEL       66
REMARK 921   NORMALIZED FREE ENERGY PREDICTED BY IDOCK:   -3.97 KCAL/MOL
REMARK 922        TOTAL FREE ENERGY PREDICTED BY IDOCK:   -5.22 KCAL/MOL
REMARK 923 INTER-LIGAND FREE ENERGY PREDICTED BY IDOCK:   -4.76 KCAL/MOL
REMARK 924 INTRA-LIGAND FREE ENERGY PREDICTED BY IDOCK:   -0.47 KCAL/MOL
REMARK 927      BINDING AFFINITY PREDICTED BY RF-SCORE:    0.00 PKD
ROOT
HETATM    1  C   UNL     1     -11.079   6.553  68.595  1.00  0.00    -0.348 C  
HETATM    2  C   UNL     1     -11.180   6.216  70.075  1.00  0.00    -0.471 C  
ENDROOT
BRANCH   2   3
HETATM    3  C   UNL     1     -11.675   7.407  70.898  1.00  0.00    -0.325 C  
BRANCH   3   4
HETATM    4  C   UNL     1     -10.797   8.640  70.655  1.00  0.00    -0.265 C  
BRANCH   4   5
HETATM    5  C   UNL     1     -11.521   9.968  70.919  1.00  0.00    -0.452 C  
BRANCH   5   6
HETATM    6  C   UNL     1     -11.567  10.890  69.721  1.00  0.00    -0.399 A  
HETATM    7  C   UNL     1     -11.231  10.399  68.450  1.00  0.00    -0.318 A  
HETATM    8  C   UNL     1     -11.198  11.246  67.339  1.00  0.00    -0.370 A  
HETATM    9  C   UNL     1     -11.517  12.600  67.474  1.00  0.00    -0.397 A  
HETATM   10  C   UNL     1     -11.439  13.530  66.299  1.00  0.00    -0.350 C  
HETATM   11  C   UNL     1     -11.902  13.088  68.728  1.00  0.00    -0.355 A  
HETATM   12  C   UNL     1     -11.922  12.237  69.836  1.00  0.00    -0.306 A  
HETATM   13  O   UNL     1     -12.280  12.729  71.061  1.00  0.00    -0.401 OA 
HETATM   14  H   UNL     1     -12.520  13.645  71.139  1.00  0.00     0.000 HD 
ENDBRANCH   5   6
ENDBRANCH   4   5
ENDBRANCH   3   4
ENDBRANCH   2   3
TORSDOF 4
ENDMDL
MODEL       67
REMARK 921   NORMALIZED FREE ENERGY PREDICTED BY IDOCK:   -3.97 KCAL/MOL
REMARK 922        TOTAL FREE ENERGY PREDICTED BY IDOCK:   -5.22 KCAL/MOL
REMARK 923 INTER-LIGAND FREE ENERGY PREDICTED BY IDOCK:   -4.55 KCAL/MOL
REMARK 924 INTRA-LIGAND FREE ENERGY PREDICTED BY IDOCK:   -0.68 KCAL/MOL
REMARK 927      BINDING AFFINITY PREDICTED BY RF-SCORE:    0.00 PKD
ROOT
HETATM    1  C   UNL     1      -9.020  10.762  64.146  1.00  0.00    -0.167 C  
HETATM    2  C   UNL     1      -9.934  11.544  63.214  1.00  0.00    -0.435 C  
ENDROOT
BRANCH   2   3
HETATM    3  C   UNL     1     -11.388  11.517  63.688  1.00  0.00    -0.412 C  
BRANCH   3   4
HETATM    4  C   UNL     1     -12.059  12.877  63.466  1.00  0.00    -0.633 C  
BRANCH   4   5
HETATM    5  C   UNL     1     -12.493  13.566  64.768  1.00  0.00    -0.402 C  
BRANCH   5   6
HETATM    6  C   UNL     1     -11.347  13.905  65.694  1.00  0.00    -0.310 A  
HETATM    7  C   UNL     1     -10.424  14.897  65.328  1.00  0.00    -0.427 A  
HETATM    8  C   UNL     1      -9.318  15.180  66.133  1.00  0.00    -0.346 A  
HETATM    9  C   UNL     1      -9.119  14.487  67.330  1.00  0.00    -0.217 A  
HETATM   10  C   UNL     1      -7.910  14.748  68.179  1.00  0.00    -0.125 C  
HETATM   11  C   UNL     1     -10.061  13.530  67.727  1.00  0.00    -0.236 A  
HETATM   12  C   UNL     1     -11.159  13.245  66.912  1.00  0.00    -0.289 A  
HETATM   13  O   UNL     1     -12.061  12.294  67.300  1.00  0.00    -0.548 OA 
HETATM   14  H   UNL     1     -11.933  11.846  68.128  1.00  0.00     0.000 HD 
ENDBRANCH   5   6
ENDBRANCH   4   5
ENDBRANCH   3   4
ENDBRANCH   2   3
TORSDOF 4
ENDMDL
MODEL       68
REMARK 921   NORMALIZED FREE ENERGY PREDICTED BY IDOCK:   -3.97 KCAL/MOL
REMARK 922        TOTAL FREE ENERGY PREDICTED BY IDOCK:   -5.22 KCAL/MOL
REMARK 923 INTER-LIGAND FREE ENERGY PREDICTED BY IDOCK:   -4.85 KCAL/MOL
REMARK 924 INTRA-LIGAND FREE ENERGY PREDICTED BY IDOCK:   -0.36 KCAL/MOL
REMARK 927      BINDING AFFINITY PREDICTED BY RF-SCORE:    0.00 PKD
ROOT
HETATM    1  C   UNL     1     -10.236  19.017  68.557  1.00  0.00    -0.422 C  
HETATM    2  C   UNL     1      -9.798  17.784  67.782  1.00  0.00    -0.295 C  
ENDROOT
BRANCH   2   3
HETATM    3  C   UNL     1     -10.372  17.767  66.365  1.00  0.00    -0.351 C  
BRANCH   3   4
HETATM    4  C   UNL     1      -9.980  16.479  65.632  1.00  0.00    -0.234 C  
BRANCH   4   5
HETATM    5  C   UNL     1     -11.184  15.631  65.199  1.00  0.00    -0.286 C  
BRANCH   5   6
HETATM    6  C   UNL     1     -11.206  14.244  65.802  1.00  0.00    -0.317 A  
HETATM    7  C   UNL     1     -11.776  14.042  67.068  1.00  0.00    -0.425 A  
HETATM    8  C   UNL     1     -11.745  12.784  67.677  1.00  0.00    -0.422 A  
HETATM    9  C   UNL     1     -11.157  11.698  67.023  1.00  0.00    -0.359 A  
HETATM   10  C   UNL     1     -11.075  10.354  67.686  1.00  0.00    -0.361 C  
HETATM   11  C   UNL     1     -10.629  11.879  65.740  1.00  0.00    -0.309 A  
HETATM   12  C   UNL     1     -10.654  13.141  65.142  1.00  0.00    -0.319 A  
HETATM   13  O   UNL     1     -10.118  13.311  63.896  1.00  0.00    -0.754 OA 
HETATM   14  H   UNL     1      -9.743  12.562  63.448  1.00  0.00     0.000 HD 
ENDBRANCH   5   6
ENDBRANCH   4   5
ENDBRANCH   3   4
ENDBRANCH   2   3
TORSDOF 4
ENDMDL
MODEL       69
REMARK 921   NORMALIZED FREE ENERGY PREDICTED BY IDOCK:   -3.96 KCAL/MOL
REMARK 922        TOTAL FREE ENERGY PREDICTED BY IDOCK:   -5.21 KCAL/MOL
REMARK 923 INTER-LIGAND FREE ENERGY PREDICTED BY IDOCK:   -4.79 KCAL/MOL
REMARK 924 INTRA-LIGAND FREE ENERGY PREDICTED BY IDOCK:   -0.42 KCAL/MOL
REMARK 927      BINDING AFFINITY PREDICTED BY RF-SCORE:    0.00 PKD
ROOT
HETATM    1  C   UNL     1      -8.774  19.974  67.368  1.00  0.00    -0.417 C  
HETATM    2  C   UNL     1      -8.724  18.912  68.455  1.00  0.00    -0.382 C  
ENDROOT
BRANCH   2   3
HETATM    3  C   UNL     1     -10.097  18.286  68.705  1.00  0.00    -0.407 C  
BRANCH   3   4
HETATM    4  C   UNL     1      -9.978  16.771  68.906  1.00  0.00    -0.271 C  
BRANCH   4   5
HETATM    5  C   UNL     1      -9.239  16.058  67.764  1.00  0.00    -0.205 C  
BRANCH   5   6
HETATM    6  C   UNL     1     -10.135  15.214  66.887  1.00  0.00    -0.256 A  
HETATM    7  C   UNL     1     -10.454  13.902  67.272  1.00  0.00    -0.271 A  
HETATM    8  C   UNL     1     -11.222  13.078  66.445  1.00  0.00    -0.332 A  
HETATM    9  C   UNL     1     -11.701  13.555  65.221  1.00  0.00    -0.341 A  
HETATM   10  C   UNL     1     -12.486  12.665  64.303  1.00  0.00    -0.494 C  
HETATM   11  C   UNL     1     -11.428  14.877  64.852  1.00  0.00    -0.407 A  
HETATM   12  C   UNL     1     -10.651  15.692  65.678  1.00  0.00    -0.378 A  
HETATM   13  O   UNL     1     -10.374  16.975  65.297  1.00  0.00    -0.626 OA 
HETATM   14  H   UNL     1     -10.725  17.299  64.476  1.00  0.00     0.000 HD 
ENDBRANCH   5   6
ENDBRANCH   4   5
ENDBRANCH   3   4
ENDBRANCH   2   3
TORSDOF 4
ENDMDL
MODEL       70
REMARK 921   NORMALIZED FREE ENERGY PREDICTED BY IDOCK:   -3.95 KCAL/MOL
REMARK 922        TOTAL FREE ENERGY PREDICTED BY IDOCK:   -5.20 KCAL/MOL
REMARK 923 INTER-LIGAND FREE ENERGY PREDICTED BY IDOCK:   -4.90 KCAL/MOL
REMARK 924 INTRA-LIGAND FREE ENERGY PREDICTED BY IDOCK:   -0.31 KCAL/MOL
REMARK 927      BINDING AFFINITY PREDICTED BY RF-SCORE:    0.00 PKD
ROOT
HETATM    1  C   UNL     1     -10.756  11.451  65.455  1.00  0.00    -0.313 C  
HETATM    2  C   UNL     1     -10.939  12.660  66.360  1.00  0.00    -0.304 C  
ENDROOT
BRANCH   2   3
HETATM    3  C   UNL     1     -11.844  12.347  67.552  1.00  0.00    -0.354 C  
BRANCH   3   4
HETATM    4  C   UNL     1     -11.043  12.338  68.859  1.00  0.00    -0.291 C  
BRANCH   4   5
HETATM    5  C   UNL     1     -11.915  12.171  70.112  1.00  0.00    -0.394 C  
BRANCH   5   6
HETATM    6  C   UNL     1     -11.917  10.767  70.674  1.00  0.00    -0.466 A  
HETATM    7  C   UNL     1     -11.043   9.803  70.148  1.00  0.00    -0.335 A  
HETATM    8  C   UNL     1     -11.075   8.482  70.602  1.00  0.00    -0.280 A  
HETATM    9  C   UNL     1     -11.971   8.100  71.604  1.00  0.00    -0.340 A  
HETATM   10  C   UNL     1     -12.048   6.675  72.066  1.00  0.00    -0.353 C  
HETATM   11  C   UNL     1     -12.813   9.066  72.168  1.00  0.00    -0.478 A  
HETATM   12  C   UNL     1     -12.783  10.383  71.702  1.00  0.00    -0.455 A  
HETATM   13  O   UNL     1     -13.624  11.313  72.247  1.00  0.00    -0.534 OA 
HETATM   14  H   UNL     1     -14.212  11.051  72.945  1.00  0.00     0.000 HD 
ENDBRANCH   5   6
ENDBRANCH   4   5
ENDBRANCH   3   4
ENDBRANCH   2   3
TORSDOF 4
ENDMDL
MODEL       71
REMARK 921   NORMALIZED FREE ENERGY PREDICTED BY IDOCK:   -3.95 KCAL/MOL
REMARK 922        TOTAL FREE ENERGY PREDICTED BY IDOCK:   -5.20 KCAL/MOL
REMARK 923 INTER-LIGAND FREE ENERGY PREDICTED BY IDOCK:   -4.77 KCAL/MOL
REMARK 924 INTRA-LIGAND FREE ENERGY PREDICTED BY IDOCK:   -0.43 KCAL/MOL
REMARK 927      BINDING AFFINITY PREDICTED BY RF-SCORE:    0.00 PKD
ROOT
HETATM    1  C   UNL     1      -8.935   9.767  66.957  1.00  0.00    -0.152 C  
HETATM    2  C   UNL     1     -10.119   9.639  66.010  1.00  0.00    -0.318 C  
ENDROOT
BRANCH   2   3
HETATM    3  C   UNL     1     -10.187  10.803  65.021  1.00  0.00    -0.373 C  
BRANCH   3   4
HETATM    4  C   UNL     1     -10.246  12.145  65.761  1.00  0.00    -0.282 C  
BRANCH   4   5
HETATM    5  C   UNL     1     -11.675  12.599  66.092  1.00  0.00    -0.461 C  
BRANCH   5   6
HETATM    6  C   UNL     1     -11.803  13.289  67.432  1.00  0.00    -0.413 A  
HETATM    7  C   UNL     1     -11.744  14.689  67.504  1.00  0.00    -0.403 A  
HETATM    8  C   UNL     1     -11.789  15.347  68.736  1.00  0.00    -0.339 A  
HETATM    9  C   UNL     1     -11.912  14.617  69.922  1.00  0.00    -0.381 A  
HETATM   10  C   UNL     1     -11.914  15.308  71.254  1.00  0.00    -0.409 C  
HETATM   11  C   UNL     1     -12.021  13.223  69.856  1.00  0.00    -0.400 A  
HETATM   12  C   UNL     1     -11.964  12.572  68.621  1.00  0.00    -0.224 A  
HETATM   13  O   UNL     1     -12.051  11.209  68.570  1.00  0.00    -0.618 OA 
HETATM   14  H   UNL     1     -12.160  10.722  69.379  1.00  0.00     0.000 HD 
ENDBRANCH   5   6
ENDBRANCH   4   5
ENDBRANCH   3   4
ENDBRANCH   2   3
TORSDOF 4
ENDMDL
MODEL       72
REMARK 921   NORMALIZED FREE ENERGY PREDICTED BY IDOCK:   -3.95 KCAL/MOL
REMARK 922        TOTAL FREE ENERGY PREDICTED BY IDOCK:   -5.20 KCAL/MOL
REMARK 923 INTER-LIGAND FREE ENERGY PREDICTED BY IDOCK:   -4.92 KCAL/MOL
REMARK 924 INTRA-LIGAND FREE ENERGY PREDICTED BY IDOCK:   -0.28 KCAL/MOL
REMARK 927      BINDING AFFINITY PREDICTED BY RF-SCORE:    0.00 PKD
ROOT
HETATM    1  C   UNL     1     -13.984  15.190  72.270  1.00  0.00    -0.631 C  
HETATM    2  C   UNL     1     -13.062  15.181  71.060  1.00  0.00    -0.513 C  
ENDROOT
BRANCH   2   3
HETATM    3  C   UNL     1     -11.629  15.563  71.434  1.00  0.00    -0.481 C  
BRANCH   3   4
HETATM    4  C   UNL     1     -10.705  15.472  70.214  1.00  0.00    -0.352 C  
BRANCH   4   5
HETATM    5  C   UNL     1     -11.244  16.210  68.981  1.00  0.00    -0.347 C  
BRANCH   5   6
HETATM    6  C   UNL     1     -10.166  16.786  68.091  1.00  0.00    -0.301 A  
HETATM    7  C   UNL     1      -9.590  15.991  67.088  1.00  0.00    -0.224 A  
HETATM    8  C   UNL     1      -8.543  16.476  66.300  1.00  0.00    -0.367 A  
HETATM    9  C   UNL     1      -8.062  17.775  66.486  1.00  0.00    -0.305 A  
HETATM   10  C   UNL     1      -6.908  18.292  65.679  1.00  0.00    -0.264 C  
HETATM   11  C   UNL     1      -8.663  18.592  67.451  1.00  0.00    -0.270 A  
HETATM   12  C   UNL     1      -9.702  18.096  68.243  1.00  0.00    -0.337 A  
HETATM   13  O   UNL     1     -10.268  18.897  69.196  1.00  0.00    -0.526 OA 
HETATM   14  H   UNL     1      -9.952  19.787  69.299  1.00  0.00     0.000 HD 
ENDBRANCH   5   6
ENDBRANCH   4   5
ENDBRANCH   3   4
ENDBRANCH   2   3
TORSDOF 4
ENDMDL
MODEL       73
REMARK 921   NORMALIZED FREE ENERGY PREDICTED BY IDOCK:   -3.93 KCAL/MOL
REMARK 922        TOTAL FREE ENERGY PREDICTED BY IDOCK:   -5.17 KCAL/MOL
REMARK 923 INTER-LIGAND FREE ENERGY PREDICTED BY IDOCK:   -4.46 KCAL/MOL
REMARK 924 INTRA-LIGAND FREE ENERGY PREDICTED BY IDOCK:   -0.71 KCAL/MOL
REMARK 927      BINDING AFFINITY PREDICTED BY RF-SCORE:    0.00 PKD
ROOT
HETATM    1  C   UNL     1      -8.124  13.841  68.108  1.00  0.00    -0.155 C  
HETATM    2  C   UNL     1      -8.709  12.522  67.626  1.00  0.00    -0.177 C  
ENDROOT
BRANCH   2   3
HETATM    3  C   UNL     1      -9.692  12.723  66.472  1.00  0.00    -0.255 C  
BRANCH   3   4
HETATM    4  C   UNL     1     -11.122  12.384  66.907  1.00  0.00    -0.335 C  
BRANCH   4   5
HETATM    5  C   UNL     1     -12.008  13.621  67.116  1.00  0.00    -0.434 C  
BRANCH   5   6
HETATM    6  C   UNL     1     -11.894  14.231  68.495  1.00  0.00    -0.382 A  
HETATM    7  C   UNL     1     -12.321  13.504  69.617  1.00  0.00    -0.220 A  
HETATM    8  C   UNL     1     -12.291  14.071  70.894  1.00  0.00    -0.443 A  
HETATM    9  C   UNL     1     -11.818  15.373  71.077  1.00  0.00    -0.406 A  
HETATM   10  C   UNL     1     -11.825  16.010  72.435  1.00  0.00    -0.639 C  
HETATM   11  C   UNL     1     -11.344  16.087  69.971  1.00  0.00    -0.353 A  
HETATM   12  C   UNL     1     -11.387  15.518  68.696  1.00  0.00    -0.344 A  
HETATM   13  O   UNL     1     -10.940  16.233  67.620  1.00  0.00    -0.315 OA 
HETATM   14  H   UNL     1     -10.596  17.108  67.757  1.00  0.00     0.000 HD 
ENDBRANCH   5   6
ENDBRANCH   4   5
ENDBRANCH   3   4
ENDBRANCH   2   3
TORSDOF 4
ENDMDL
MODEL       74
REMARK 921   NORMALIZED FREE ENERGY PREDICTED BY IDOCK:   -3.92 KCAL/MOL
REMARK 922        TOTAL FREE ENERGY PREDICTED BY IDOCK:   -5.16 KCAL/MOL
REMARK 923 INTER-LIGAND FREE ENERGY PREDICTED BY IDOCK:   -4.65 KCAL/MOL
REMARK 924 INTRA-LIGAND FREE ENERGY PREDICTED BY IDOCK:   -0.52 KCAL/MOL
REMARK 927      BINDING AFFINITY PREDICTED BY RF-SCORE:    0.00 PKD
ROOT
HETATM    1  C   UNL     1     -12.227  12.050  70.473  1.00  0.00    -0.414 C  
HETATM    2  C   UNL     1     -12.915  11.413  71.671  1.00  0.00    -0.523 C  
ENDROOT
BRANCH   2   3
HETATM    3  C   UNL     1     -13.367   9.982  71.373  1.00  0.00    -0.432 C  
BRANCH   3   4
HETATM    4  C   UNL     1     -12.680   8.986  72.314  1.00  0.00    -0.457 C  
BRANCH   4   5
HETATM    5  C   UNL     1     -11.199   8.752  71.982  1.00  0.00    -0.443 C  
BRANCH   5   6
HETATM    6  C   UNL     1     -10.971   8.028  70.674  1.00  0.00    -0.250 A  
HETATM    7  C   UNL     1     -10.571   8.750  69.538  1.00  0.00    -0.224 A  
HETATM    8  C   UNL     1     -10.422   8.116  68.302  1.00  0.00    -0.210 A  
HETATM    9  C   UNL     1     -10.654   6.744  68.178  1.00  0.00    -0.279 A  
HETATM   10  C   UNL     1     -10.544   6.061  66.847  1.00  0.00    -0.384 C  
HETATM   11  C   UNL     1     -11.005   6.008  69.316  1.00  0.00    -0.436 A  
HETATM   12  C   UNL     1     -11.163   6.649  70.547  1.00  0.00    -0.334 A  
HETATM   13  O   UNL     1     -11.527   5.924  71.647  1.00  0.00    -0.259 OA 
HETATM   14  H   UNL     1     -11.657   4.987  71.560  1.00  0.00     0.000 HD 
ENDBRANCH   5   6
ENDBRANCH   4   5
ENDBRANCH   3   4
ENDBRANCH   2   3
TORSDOF 4
ENDMDL
MODEL       75
REMARK 921   NORMALIZED FREE ENERGY PREDICTED BY IDOCK:   -3.91 KCAL/MOL
REMARK 922        TOTAL FREE ENERGY PREDICTED BY IDOCK:   -5.15 KCAL/MOL
REMARK 923 INTER-LIGAND FREE ENERGY PREDICTED BY IDOCK:   -4.72 KCAL/MOL
REMARK 924 INTRA-LIGAND FREE ENERGY PREDICTED BY IDOCK:   -0.43 KCAL/MOL
REMARK 927      BINDING AFFINITY PREDICTED BY RF-SCORE:    0.00 PKD
ROOT
HETATM    1  C   UNL     1     -10.123  16.360  65.982  1.00  0.00    -0.373 C  
HETATM    2  C   UNL     1     -10.516  15.598  67.238  1.00  0.00    -0.292 C  
ENDROOT
BRANCH   2   3
HETATM    3  C   UNL     1     -11.741  14.712  67.008  1.00  0.00    -0.379 C  
BRANCH   3   4
HETATM    4  C   UNL     1     -11.938  14.431  65.514  1.00  0.00    -0.358 C  
BRANCH   4   5
HETATM    5  C   UNL     1     -12.443  13.011  65.219  1.00  0.00    -0.555 C  
BRANCH   5   6
HETATM    6  C   UNL     1     -11.340  12.009  64.964  1.00  0.00    -0.365 A  
HETATM    7  C   UNL     1     -10.744  11.934  63.695  1.00  0.00    -0.502 A  
HETATM    8  C   UNL     1      -9.773  10.970  63.414  1.00  0.00    -0.383 A  
HETATM    9  C   UNL     1      -9.364  10.070  64.402  1.00  0.00    -0.348 A  
HETATM   10  C   UNL     1      -8.357   9.000  64.100  1.00  0.00    -0.178 C  
HETATM   11  C   UNL     1      -9.917  10.169  65.684  1.00  0.00    -0.348 A  
HETATM   12  C   UNL     1     -10.896  11.128  65.955  1.00  0.00    -0.166 A  
HETATM   13  O   UNL     1     -11.444  11.202  67.206  1.00  0.00    -0.473 OA 
HETATM   14  H   UNL     1     -11.142  10.604  67.879  1.00  0.00     0.000 HD 
ENDBRANCH   5   6
ENDBRANCH   4   5
ENDBRANCH   3   4
ENDBRANCH   2   3
TORSDOF 4
ENDMDL
MODEL       76
REMARK 921   NORMALIZED FREE ENERGY PREDICTED BY IDOCK:   -3.91 KCAL/MOL
REMARK 922        TOTAL FREE ENERGY PREDICTED BY IDOCK:   -5.14 KCAL/MOL
REMARK 923 INTER-LIGAND FREE ENERGY PREDICTED BY IDOCK:   -4.50 KCAL/MOL
REMARK 924 INTRA-LIGAND FREE ENERGY PREDICTED BY IDOCK:   -0.64 KCAL/MOL
REMARK 927      BINDING AFFINITY PREDICTED BY RF-SCORE:    0.00 PKD
ROOT
HETATM    1  C   UNL     1      -6.857  17.623  66.401  1.00  0.00    -0.297 C  
HETATM    2  C   UNL     1      -6.749  19.122  66.640  1.00  0.00    -0.203 C  
ENDROOT
BRANCH   2   3
HETATM    3  C   UNL     1      -7.859  19.894  65.927  1.00  0.00    -0.313 C  
BRANCH   3   4
HETATM    4  C   UNL     1      -8.914  20.382  66.926  1.00  0.00    -0.383 C  
BRANCH   4   5
HETATM    5  C   UNL     1     -10.319  19.823  66.656  1.00  0.00    -0.614 C  
BRANCH   5   6
HETATM    6  C   UNL     1     -10.414  18.319  66.778  1.00  0.00    -0.387 A  
HETATM    7  C   UNL     1     -10.495  17.529  65.622  1.00  0.00    -0.156 A  
HETATM    8  C   UNL     1     -10.655  16.143  65.709  1.00  0.00    -0.347 A  
HETATM    9  C   UNL     1     -10.721  15.517  66.956  1.00  0.00    -0.321 A  
HETATM   10  C   UNL     1     -10.940  14.037  67.064  1.00  0.00    -0.302 C  
HETATM   11  C   UNL     1     -10.593  16.292  68.115  1.00  0.00    -0.307 A  
HETATM   12  C   UNL     1     -10.444  17.678  68.020  1.00  0.00    -0.394 A  
HETATM   13  O   UNL     1     -10.340  18.427  69.159  1.00  0.00    -0.477 OA 
HETATM   14  H   UNL     1     -10.360  17.990  70.003  1.00  0.00     0.000 HD 
ENDBRANCH   5   6
ENDBRANCH   4   5
ENDBRANCH   3   4
ENDBRANCH   2   3
TORSDOF 4
ENDMDL
MODEL       77
REMARK 921   NORMALIZED FREE ENERGY PREDICTED BY IDOCK:   -3.88 KCAL/MOL
REMARK 922        TOTAL FREE ENERGY PREDICTED BY IDOCK:   -5.11 KCAL/MOL
REMARK 923 INTER-LIGAND FREE ENERGY PREDICTED BY IDOCK:   -4.83 KCAL/MOL
REMARK 924 INTRA-LIGAND FREE ENERGY PREDICTED BY IDOCK:   -0.28 KCAL/MOL
REMARK 927      BINDING AFFINITY PREDICTED BY RF-SCORE:    0.00 PKD
ROOT
HETATM    1  C   UNL     1      -8.793   8.659  65.474  1.00  0.00    -0.220 C  
HETATM    2  C   UNL     1      -9.587   9.297  66.603  1.00  0.00    -0.263 C  
ENDROOT
BRANCH   2   3
HETATM    3  C   UNL     1     -10.413  10.489  66.116  1.00  0.00    -0.237 C  
BRANCH   3   4
HETATM    4  C   UNL     1     -10.774  11.416  67.283  1.00  0.00    -0.283 C  
BRANCH   4   5
HETATM    5  C   UNL     1     -11.320  10.672  68.510  1.00  0.00    -0.348 C  
BRANCH   5   6
HETATM    6  C   UNL     1     -11.964  11.575  69.538  1.00  0.00    -0.402 A  
HETATM    7  C   UNL     1     -11.903  12.968  69.379  1.00  0.00    -0.380 A  
HETATM    8  C   UNL     1     -12.429  13.824  70.350  1.00  0.00    -0.384 A  
HETATM    9  C   UNL     1     -13.043  13.305  71.492  1.00  0.00    -0.414 A  
HETATM   10  C   UNL     1     -13.570  14.213  72.564  1.00  0.00    -0.644 C  
HETATM   11  C   UNL     1     -13.152  11.917  71.635  1.00  0.00    -0.433 A  
HETATM   12  C   UNL     1     -12.614  11.066  70.666  1.00  0.00    -0.338 A  
HETATM   13  O   UNL     1     -12.709   9.712  70.826  1.00  0.00    -0.486 OA 
HETATM   14  H   UNL     1     -13.151   9.367  71.593  1.00  0.00     0.000 HD 
ENDBRANCH   5   6
ENDBRANCH   4   5
ENDBRANCH   3   4
ENDBRANCH   2   3
TORSDOF 4
ENDMDL
MODEL       78
REMARK 921   NORMALIZED FREE ENERGY PREDICTED BY IDOCK:   -3.88 KCAL/MOL
REMARK 922        TOTAL FREE ENERGY PREDICTED BY IDOCK:   -5.11 KCAL/MOL
REMARK 923 INTER-LIGAND FREE ENERGY PREDICTED BY IDOCK:   -4.90 KCAL/MOL
REMARK 924 INTRA-LIGAND FREE ENERGY PREDICTED BY IDOCK:   -0.21 KCAL/MOL
REMARK 927      BINDING AFFINITY PREDICTED BY RF-SCORE:    0.00 PKD
ROOT
HETATM    1  C   UNL     1     -10.335   6.914  67.037  1.00  0.00    -0.348 C  
HETATM    2  C   UNL     1      -9.450   7.871  66.252  1.00  0.00    -0.220 C  
ENDROOT
BRANCH   2   3
HETATM    3  C   UNL     1      -9.973   9.307  66.308  1.00  0.00    -0.357 C  
BRANCH   3   4
HETATM    4  C   UNL     1      -9.603  10.073  65.034  1.00  0.00    -0.362 C  
BRANCH   4   5
HETATM    5  C   UNL     1     -10.711  11.016  64.542  1.00  0.00    -0.335 C  
BRANCH   5   6
HETATM    6  C   UNL     1     -10.919  12.229  65.420  1.00  0.00    -0.341 A  
HETATM    7  C   UNL     1      -9.848  12.740  66.169  1.00  0.00    -0.269 A  
HETATM    8  C   UNL     1     -10.031  13.816  67.042  1.00  0.00    -0.251 A  
HETATM    9  C   UNL     1     -11.287  14.414  67.171  1.00  0.00    -0.356 A  
HETATM   10  C   UNL     1     -11.507  15.539  68.140  1.00  0.00    -0.332 C  
HETATM   11  C   UNL     1     -12.350  13.942  66.392  1.00  0.00    -0.468 A  
HETATM   12  C   UNL     1     -12.162  12.859  65.530  1.00  0.00    -0.474 A  
HETATM   13  O   UNL     1     -13.212  12.394  64.789  1.00  0.00    -0.784 OA 
HETATM   14  H   UNL     1     -14.057  12.823  64.864  1.00  0.00     0.000 HD 
ENDBRANCH   5   6
ENDBRANCH   4   5
ENDBRANCH   3   4
ENDBRANCH   2   3
TORSDOF 4
ENDMDL
MODEL       79
REMARK 921   NORMALIZED FREE ENERGY PREDICTED BY IDOCK:   -3.88 KCAL/MOL
REMARK 922        TOTAL FREE ENERGY PREDICTED BY IDOCK:   -5.11 KCAL/MOL
REMARK 923 INTER-LIGAND FREE ENERGY PREDICTED BY IDOCK:   -4.78 KCAL/MOL
REMARK 924 INTRA-LIGAND FREE ENERGY PREDICTED BY IDOCK:   -0.34 KCAL/MOL
REMARK 927      BINDING AFFINITY PREDICTED BY RF-SCORE:    0.00 PKD
ROOT
HETATM    1  C   UNL     1     -10.513   7.910  70.707  1.00  0.00    -0.218 C  
HETATM    2  C   UNL     1     -10.684   9.320  71.254  1.00  0.00    -0.422 C  
ENDROOT
BRANCH   2   3
HETATM    3  C   UNL     1     -12.153   9.745  71.284  1.00  0.00    -0.470 C  
BRANCH   3   4
HETATM    4  C   UNL     1     -12.311  11.195  70.816  1.00  0.00    -0.504 C  
BRANCH   4   5
HETATM    5  C   UNL     1     -12.222  11.360  69.292  1.00  0.00    -0.271 C  
BRANCH   5   6
HETATM    6  C   UNL     1     -11.817  12.747  68.847  1.00  0.00    -0.351 A  
HETATM    7  C   UNL     1     -11.540  13.734  69.806  1.00  0.00    -0.324 A  
HETATM    8  C   UNL     1     -11.232  15.042  69.422  1.00  0.00    -0.299 A  
HETATM    9  C   UNL     1     -11.177  15.386  68.069  1.00  0.00    -0.326 A  
HETATM   10  C   UNL     1     -10.895  16.797  67.644  1.00  0.00    -0.252 C  
HETATM   11  C   UNL     1     -11.403  14.397  67.105  1.00  0.00    -0.356 A  
HETATM   12  C   UNL     1     -11.722  13.094  67.496  1.00  0.00    -0.366 A  
HETATM   13  O   UNL     1     -11.960  12.141  66.546  1.00  0.00    -0.618 OA 
HETATM   14  H   UNL     1     -11.896  12.377  65.628  1.00  0.00     0.000 HD 
ENDBRANCH   5   6
ENDBRANCH   4   5
ENDBRANCH   3   4
ENDBRANCH   2   3
TORSDOF 4
ENDMDL
MODEL       80
REMARK 921   NORMALIZED FREE ENERGY PREDICTED BY IDOCK:   -3.88 KCAL/MOL
REMARK 922        TOTAL FREE ENERGY PREDICTED BY IDOCK:   -5.11 KCAL/MOL
REMARK 923 INTER-LIGAND FREE ENERGY PREDICTED BY IDOCK:   -4.62 KCAL/MOL
REMARK 924 INTRA-LIGAND FREE ENERGY PREDICTED BY IDOCK:   -0.48 KCAL/MOL
REMARK 927      BINDING AFFINITY PREDICTED BY RF-SCORE:    0.00 PKD
ROOT
HETATM    1  C   UNL     1     -10.762   5.626  69.823  1.00  0.00    -0.401 C  
HETATM    2  C   UNL     1     -10.310   5.178  71.204  1.00  0.00    -0.276 C  
ENDROOT
BRANCH   2   3
HETATM    3  C   UNL     1     -11.334   5.536  72.283  1.00  0.00    -0.257 C  
BRANCH   3   4
HETATM    4  C   UNL     1     -12.111   6.801  71.900  1.00  0.00    -0.375 C  
BRANCH   4   5
HETATM    5  C   UNL     1     -11.512   8.088  72.487  1.00  0.00    -0.471 C  
BRANCH   5   6
HETATM    6  C   UNL     1     -11.547   9.267  71.541  1.00  0.00    -0.452 A  
HETATM    7  C   UNL     1     -12.648  10.137  71.550  1.00  0.00    -0.537 A  
HETATM    8  C   UNL     1     -12.737  11.192  70.638  1.00  0.00    -0.350 A  
HETATM    9  C   UNL     1     -11.717  11.409  69.708  1.00  0.00    -0.418 A  
HETATM   10  C   UNL     1     -11.822  12.509  68.693  1.00  0.00    -0.340 C  
HETATM   11  C   UNL     1     -10.592  10.576  69.724  1.00  0.00    -0.274 A  
HETATM   12  C   UNL     1     -10.515   9.517  70.631  1.00  0.00    -0.308 A  
HETATM   13  O   UNL     1      -9.421   8.697  70.624  1.00  0.00    -0.164 OA 
HETATM   14  H   UNL     1      -8.720   8.867  70.006  1.00  0.00     0.000 HD 
ENDBRANCH   5   6
ENDBRANCH   4   5
ENDBRANCH   3   4
ENDBRANCH   2   3
TORSDOF 4
ENDMDL
MODEL       81
REMARK 921   NORMALIZED FREE ENERGY PREDICTED BY IDOCK:   -3.86 KCAL/MOL
REMARK 922        TOTAL FREE ENERGY PREDICTED BY IDOCK:   -5.09 KCAL/MOL
REMARK 923 INTER-LIGAND FREE ENERGY PREDICTED BY IDOCK:   -4.71 KCAL/MOL
REMARK 924 INTRA-LIGAND FREE ENERGY PREDICTED BY IDOCK:   -0.38 KCAL/MOL
REMARK 927      BINDING AFFINITY PREDICTED BY RF-SCORE:    0.00 PKD
ROOT
HETATM    1  C   UNL     1      -9.970  18.356  68.030  1.00  0.00    -0.374 C  
HETATM    2  C   UNL     1      -9.767  16.900  68.419  1.00  0.00    -0.263 C  
ENDROOT
BRANCH   2   3
HETATM    3  C   UNL     1     -10.940  16.361  69.239  1.00  0.00    -0.322 C  
BRANCH   3   4
HETATM    4  C   UNL     1     -11.111  14.853  69.021  1.00  0.00    -0.260 C  
BRANCH   4   5
HETATM    5  C   UNL     1     -12.150  14.504  67.946  1.00  0.00    -0.261 C  
BRANCH   5   6
HETATM    6  C   UNL     1     -11.621  13.603  66.852  1.00  0.00    -0.397 A  
HETATM    7  C   UNL     1     -10.391  12.949  67.020  1.00  0.00    -0.245 A  
HETATM    8  C   UNL     1      -9.847  12.168  65.997  1.00  0.00    -0.260 A  
HETATM    9  C   UNL     1     -10.532  12.010  64.789  1.00  0.00    -0.335 A  
HETATM   10  C   UNL     1      -9.938  11.214  63.666  1.00  0.00    -0.411 C  
HETATM   11  C   UNL     1     -11.783  12.619  64.631  1.00  0.00    -0.411 A  
HETATM   12  C   UNL     1     -12.315  13.407  65.654  1.00  0.00    -0.470 A  
HETATM   13  O   UNL     1     -13.528  14.013  65.481  1.00  0.00    -0.705 OA 
HETATM   14  H   UNL     1     -13.999  13.880  64.666  1.00  0.00     0.000 HD 
ENDBRANCH   5   6
ENDBRANCH   4   5
ENDBRANCH   3   4
ENDBRANCH   2   3
TORSDOF 4
ENDMDL
MODEL       82
REMARK 921   NORMALIZED FREE ENERGY PREDICTED BY IDOCK:   -3.85 KCAL/MOL
REMARK 922        TOTAL FREE ENERGY PREDICTED BY IDOCK:   -5.08 KCAL/MOL
REMARK 923 INTER-LIGAND FREE ENERGY PREDICTED BY IDOCK:   -4.81 KCAL/MOL
REMARK 924 INTRA-LIGAND FREE ENERGY PREDICTED BY IDOCK:   -0.27 KCAL/MOL
REMARK 927      BINDING AFFINITY PREDICTED BY RF-SCORE:    0.00 PKD
ROOT
HETATM    1  C   UNL     1      -8.033   8.872  62.669  1.00  0.00    -0.145 C  
HETATM    2  C   UNL     1      -8.183  10.298  63.177  1.00  0.00    -0.163 C  
ENDROOT
BRANCH   2   3
HETATM    3  C   UNL     1      -9.416  10.985  62.588  1.00  0.00    -0.322 C  
BRANCH   3   4
HETATM    4  C   UNL     1     -10.532  11.094  63.634  1.00  0.00    -0.438 C  
BRANCH   4   5
HETATM    5  C   UNL     1     -11.132  12.503  63.746  1.00  0.00    -0.503 C  
BRANCH   5   6
HETATM    6  C   UNL     1     -11.279  12.995  65.168  1.00  0.00    -0.321 A  
HETATM    7  C   UNL     1     -11.523  12.078  66.202  1.00  0.00    -0.401 A  
HETATM    8  C   UNL     1     -11.732  12.514  67.513  1.00  0.00    -0.439 A  
HETATM    9  C   UNL     1     -11.686  13.877  67.820  1.00  0.00    -0.401 A  
HETATM   10  C   UNL     1     -11.957  14.361  69.214  1.00  0.00    -0.362 C  
HETATM   11  C   UNL     1     -11.396  14.794  66.804  1.00  0.00    -0.347 A  
HETATM   12  C   UNL     1     -11.198  14.352  65.493  1.00  0.00    -0.330 A  
HETATM   13  O   UNL     1     -10.935  15.260  64.505  1.00  0.00    -0.636 OA 
HETATM   14  H   UNL     1     -10.880  16.182  64.727  1.00  0.00     0.000 HD 
ENDBRANCH   5   6
ENDBRANCH   4   5
ENDBRANCH   3   4
ENDBRANCH   2   3
TORSDOF 4
ENDMDL
MODEL       83
REMARK 921   NORMALIZED FREE ENERGY PREDICTED BY IDOCK:   -3.85 KCAL/MOL
REMARK 922        TOTAL FREE ENERGY PREDICTED BY IDOCK:   -5.07 KCAL/MOL
REMARK 923 INTER-LIGAND FREE ENERGY PREDICTED BY IDOCK:   -4.63 KCAL/MOL
REMARK 924 INTRA-LIGAND FREE ENERGY PREDICTED BY IDOCK:   -0.44 KCAL/MOL
REMARK 927      BINDING AFFINITY PREDICTED BY RF-SCORE:    0.00 PKD
ROOT
HETATM    1  C   UNL     1      -8.611   5.048  68.773  1.00  0.00    -0.090 C  
HETATM    2  C   UNL     1      -8.696   5.698  70.146  1.00  0.00    -0.140 C  
ENDROOT
BRANCH   2   3
HETATM    3  C   UNL     1      -9.575   4.893  71.104  1.00  0.00    -0.232 C  
BRANCH   3   4
HETATM    4  C   UNL     1     -10.677   5.774  71.704  1.00  0.00    -0.314 C  
BRANCH   4   5
HETATM    5  C   UNL     1     -11.630   6.363  70.654  1.00  0.00    -0.412 C  
BRANCH   5   6
HETATM    6  C   UNL     1     -12.105   7.762  70.975  1.00  0.00    -0.264 A  
HETATM    7  C   UNL     1     -11.332   8.868  70.588  1.00  0.00    -0.299 A  
HETATM    8  C   UNL     1     -11.713  10.167  70.934  1.00  0.00    -0.468 A  
HETATM    9  C   UNL     1     -12.887  10.389  71.660  1.00  0.00    -0.579 A  
HETATM   10  C   UNL     1     -13.283  11.774  72.078  1.00  0.00    -0.460 C  
HETATM   11  C   UNL     1     -13.690   9.296  72.007  1.00  0.00    -0.493 A  
HETATM   12  C   UNL     1     -13.297   7.999  71.668  1.00  0.00    -0.332 A  
HETATM   13  O   UNL     1     -14.078   6.938  72.030  1.00  0.00    -0.546 OA 
HETATM   14  H   UNL     1     -14.888   7.099  72.500  1.00  0.00     0.000 HD 
ENDBRANCH   5   6
ENDBRANCH   4   5
ENDBRANCH   3   4
ENDBRANCH   2   3
TORSDOF 4
ENDMDL
MODEL       84
REMARK 921   NORMALIZED FREE ENERGY PREDICTED BY IDOCK:   -3.82 KCAL/MOL
REMARK 922        TOTAL FREE ENERGY PREDICTED BY IDOCK:   -5.03 KCAL/MOL
REMARK 923 INTER-LIGAND FREE ENERGY PREDICTED BY IDOCK:   -4.68 KCAL/MOL
REMARK 924 INTRA-LIGAND FREE ENERGY PREDICTED BY IDOCK:   -0.35 KCAL/MOL
REMARK 927      BINDING AFFINITY PREDICTED BY RF-SCORE:    0.00 PKD
ROOT
HETATM    1  C   UNL     1     -10.386  11.057  66.679  1.00  0.00    -0.288 C  
HETATM    2  C   UNL     1     -11.004  10.293  67.840  1.00  0.00    -0.350 C  
ENDROOT
BRANCH   2   3
HETATM    3  C   UNL     1     -11.137  11.165  69.089  1.00  0.00    -0.306 C  
BRANCH   3   4
HETATM    4  C   UNL     1     -12.503  10.962  69.754  1.00  0.00    -0.250 C  
BRANCH   4   5
HETATM    5  C   UNL     1     -12.412  10.613  71.247  1.00  0.00    -0.515 C  
BRANCH   5   6
HETATM    6  C   UNL     1     -11.955   9.197  71.519  1.00  0.00    -0.422 A  
HETATM    7  C   UNL     1     -10.608   8.945  71.824  1.00  0.00    -0.432 A  
HETATM    8  C   UNL     1     -10.147   7.639  72.009  1.00  0.00    -0.233 A  
HETATM    9  C   UNL     1     -11.027   6.558  71.910  1.00  0.00    -0.288 A  
HETATM   10  C   UNL     1     -10.535   5.149  72.060  1.00  0.00    -0.278 C  
HETATM   11  C   UNL     1     -12.381   6.804  71.655  1.00  0.00    -0.409 A  
HETATM   12  C   UNL     1     -12.833   8.111  71.459  1.00  0.00    -0.301 A  
HETATM   13  O   UNL     1     -14.154   8.338  71.190  1.00  0.00    -0.613 OA 
HETATM   14  H   UNL     1     -14.751   7.600  71.150  1.00  0.00     0.000 HD 
ENDBRANCH   5   6
ENDBRANCH   4   5
ENDBRANCH   3   4
ENDBRANCH   2   3
TORSDOF 4
ENDMDL
MODEL       85
REMARK 921   NORMALIZED FREE ENERGY PREDICTED BY IDOCK:   -3.79 KCAL/MOL
REMARK 922        TOTAL FREE ENERGY PREDICTED BY IDOCK:   -5.00 KCAL/MOL
REMARK 923 INTER-LIGAND FREE ENERGY PREDICTED BY IDOCK:   -4.85 KCAL/MOL
REMARK 924 INTRA-LIGAND FREE ENERGY PREDICTED BY IDOCK:   -0.16 KCAL/MOL
REMARK 927      BINDING AFFINITY PREDICTED BY RF-SCORE:    0.00 PKD
ROOT
HETATM    1  C   UNL     1     -10.437   7.603  67.025  1.00  0.00    -0.419 C  
HETATM    2  C   UNL     1      -9.823   8.922  66.583  1.00  0.00    -0.332 C  
ENDROOT
BRANCH   2   3
HETATM    3  C   UNL     1     -10.709  10.114  66.950  1.00  0.00    -0.231 C  
BRANCH   3   4
HETATM    4  C   UNL     1     -10.419  11.311  66.038  1.00  0.00    -0.310 C  
BRANCH   4   5
HETATM    5  C   UNL     1     -11.577  12.317  65.961  1.00  0.00    -0.451 C  
BRANCH   5   6
HETATM    6  C   UNL     1     -11.192  13.727  66.352  1.00  0.00    -0.321 A  
HETATM    7  C   UNL     1     -11.581  14.236  67.600  1.00  0.00    -0.396 A  
HETATM    8  C   UNL     1     -11.299  15.557  67.955  1.00  0.00    -0.332 A  
HETATM    9  C   UNL     1     -10.606  16.393  67.076  1.00  0.00    -0.260 A  
HETATM   10  C   UNL     1     -10.338  17.827  67.426  1.00  0.00    -0.370 C  
HETATM   11  C   UNL     1     -10.171  15.879  65.849  1.00  0.00    -0.373 A  
HETATM   12  C   UNL     1     -10.466  14.560  65.495  1.00  0.00    -0.356 A  
HETATM   13  O   UNL     1     -10.053  14.074  64.286  1.00  0.00    -0.697 OA 
HETATM   14  H   UNL     1      -9.560  14.641  63.704  1.00  0.00     0.000 HD 
ENDBRANCH   5   6
ENDBRANCH   4   5
ENDBRANCH   3   4
ENDBRANCH   2   3
TORSDOF 4
ENDMDL
MODEL       86
REMARK 921   NORMALIZED FREE ENERGY PREDICTED BY IDOCK:   -3.77 KCAL/MOL
REMARK 922        TOTAL FREE ENERGY PREDICTED BY IDOCK:   -4.98 KCAL/MOL
REMARK 923 INTER-LIGAND FREE ENERGY PREDICTED BY IDOCK:   -4.66 KCAL/MOL
REMARK 924 INTRA-LIGAND FREE ENERGY PREDICTED BY IDOCK:   -0.32 KCAL/MOL
REMARK 927      BINDING AFFINITY PREDICTED BY RF-SCORE:    0.00 PKD
ROOT
HETATM    1  C   UNL     1      -7.699   9.199  63.696  1.00  0.00    -0.118 C  
HETATM    2  C   UNL     1      -8.466   9.648  62.461  1.00  0.00    -0.184 C  
ENDROOT
BRANCH   2   3
HETATM    3  C   UNL     1      -9.305  10.898  62.735  1.00  0.00    -0.366 C  
BRANCH   3   4
HETATM    4  C   UNL     1      -9.764  10.938  64.197  1.00  0.00    -0.347 C  
BRANCH   4   5
HETATM    5  C   UNL     1     -11.032  11.775  64.417  1.00  0.00    -0.397 C  
BRANCH   5   6
HETATM    6  C   UNL     1     -10.762  13.178  64.912  1.00  0.00    -0.362 A  
HETATM    7  C   UNL     1      -9.742  13.403  65.849  1.00  0.00    -0.197 A  
HETATM    8  C   UNL     1      -9.519  14.679  66.374  1.00  0.00    -0.325 A  
HETATM    9  C   UNL     1     -10.302  15.760  65.961  1.00  0.00    -0.356 A  
HETATM   10  C   UNL     1     -10.105  17.124  66.553  1.00  0.00    -0.313 C  
HETATM   11  C   UNL     1     -11.290  15.553  64.991  1.00  0.00    -0.301 A  
HETATM   12  C   UNL     1     -11.515  14.273  64.478  1.00  0.00    -0.355 A  
HETATM   13  O   UNL     1     -12.496  14.080  63.547  1.00  0.00    -1.043 OA 
HETATM   14  H   UNL     1     -13.007  14.825  63.252  1.00  0.00     0.000 HD 
ENDBRANCH   5   6
ENDBRANCH   4   5
ENDBRANCH   3   4
ENDBRANCH   2   3
TORSDOF 4
ENDMDL
MODEL       87
REMARK 921   NORMALIZED FREE ENERGY PREDICTED BY IDOCK:   -3.77 KCAL/MOL
REMARK 922        TOTAL FREE ENERGY PREDICTED BY IDOCK:   -4.98 KCAL/MOL
REMARK 923 INTER-LIGAND FREE ENERGY PREDICTED BY IDOCK:   -4.69 KCAL/MOL
REMARK 924 INTRA-LIGAND FREE ENERGY PREDICTED BY IDOCK:   -0.28 KCAL/MOL
REMARK 927      BINDING AFFINITY PREDICTED BY RF-SCORE:    0.00 PKD
ROOT
HETATM    1  C   UNL     1      -8.090  19.127  68.706  1.00  0.00    -0.384 C  
HETATM    2  C   UNL     1      -8.385  17.812  67.999  1.00  0.00    -0.249 C  
ENDROOT
BRANCH   2   3
HETATM    3  C   UNL     1      -9.650  17.146  68.541  1.00  0.00    -0.288 C  
BRANCH   3   4
HETATM    4  C   UNL     1      -9.788  15.718  68.002  1.00  0.00    -0.217 C  
BRANCH   4   5
HETATM    5  C   UNL     1     -11.245  15.249  67.874  1.00  0.00    -0.333 C  
BRANCH   5   6
HETATM    6  C   UNL     1     -11.667  14.260  68.937  1.00  0.00    -0.363 A  
HETATM    7  C   UNL     1     -11.270  12.917  68.837  1.00  0.00    -0.327 A  
HETATM    8  C   UNL     1     -11.704  11.969  69.767  1.00  0.00    -0.390 A  
HETATM    9  C   UNL     1     -12.532  12.348  70.828  1.00  0.00    -0.356 A  
HETATM   10  C   UNL     1     -13.043  11.332  71.806  1.00  0.00    -0.527 C  
HETATM   11  C   UNL     1     -12.893  13.694  70.963  1.00  0.00    -0.360 A  
HETATM   12  C   UNL     1     -12.464  14.634  70.023  1.00  0.00    -0.284 A  
HETATM   13  O   UNL     1     -12.839  15.942  70.153  1.00  0.00    -0.616 OA 
HETATM   14  H   UNL     1     -13.381  16.196  70.892  1.00  0.00     0.000 HD 
ENDBRANCH   5   6
ENDBRANCH   4   5
ENDBRANCH   3   4
ENDBRANCH   2   3
TORSDOF 4
ENDMDL
MODEL       88
REMARK 921   NORMALIZED FREE ENERGY PREDICTED BY IDOCK:   -3.77 KCAL/MOL
REMARK 922        TOTAL FREE ENERGY PREDICTED BY IDOCK:   -4.98 KCAL/MOL
REMARK 923 INTER-LIGAND FREE ENERGY PREDICTED BY IDOCK:   -4.44 KCAL/MOL
REMARK 924 INTRA-LIGAND FREE ENERGY PREDICTED BY IDOCK:   -0.53 KCAL/MOL
REMARK 927      BINDING AFFINITY PREDICTED BY RF-SCORE:    0.00 PKD
ROOT
HETATM    1  C   UNL     1      -9.847   8.036  66.535  1.00  0.00    -0.289 C  
HETATM    2  C   UNL     1      -9.559   9.409  65.947  1.00  0.00    -0.338 C  
ENDROOT
BRANCH   2   3
HETATM    3  C   UNL     1     -10.609  10.440  66.363  1.00  0.00    -0.198 C  
BRANCH   3   4
HETATM    4  C   UNL     1     -10.288  11.018  67.746  1.00  0.00    -0.218 C  
BRANCH   4   5
HETATM    5  C   UNL     1     -11.443  10.886  68.749  1.00  0.00    -0.376 C  
BRANCH   5   6
HETATM    6  C   UNL     1     -11.104  10.060  69.969  1.00  0.00    -0.350 A  
HETATM    7  C   UNL     1      -9.794   9.590  70.151  1.00  0.00    -0.288 A  
HETATM    8  C   UNL     1      -9.471   8.766  71.233  1.00  0.00    -0.320 A  
HETATM    9  C   UNL     1     -10.449   8.409  72.165  1.00  0.00    -0.396 A  
HETATM   10  C   UNL     1     -10.127   7.487  73.304  1.00  0.00    -0.386 C  
HETATM   11  C   UNL     1     -11.747   8.913  72.018  1.00  0.00    -0.438 A  
HETATM   12  C   UNL     1     -12.065   9.727  70.928  1.00  0.00    -0.321 A  
HETATM   13  O   UNL     1     -13.341  10.197  70.783  1.00  0.00    -0.524 OA 
HETATM   14  H   UNL     1     -13.993   9.970  71.435  1.00  0.00     0.000 HD 
ENDBRANCH   5   6
ENDBRANCH   4   5
ENDBRANCH   3   4
ENDBRANCH   2   3
TORSDOF 4
ENDMDL
MODEL       89
REMARK 921   NORMALIZED FREE ENERGY PREDICTED BY IDOCK:   -3.75 KCAL/MOL
REMARK 922        TOTAL FREE ENERGY PREDICTED BY IDOCK:   -4.95 KCAL/MOL
REMARK 923 INTER-LIGAND FREE ENERGY PREDICTED BY IDOCK:   -4.25 KCAL/MOL
REMARK 924 INTRA-LIGAND FREE ENERGY PREDICTED BY IDOCK:   -0.70 KCAL/MOL
REMARK 927      BINDING AFFINITY PREDICTED BY RF-SCORE:    0.00 PKD
ROOT
HETATM    1  C   UNL     1      -7.302  14.853  68.611  1.00  0.00    -0.120 C  
HETATM    2  C   UNL     1      -7.678  14.244  67.269  1.00  0.00    -0.145 C  
ENDROOT
BRANCH   2   3
HETATM    3  C   UNL     1      -9.052  13.573  67.314  1.00  0.00    -0.225 C  
BRANCH   3   4
HETATM    4  C   UNL     1      -9.909  14.158  68.441  1.00  0.00    -0.231 C  
BRANCH   4   5
HETATM    5  C   UNL     1     -11.004  15.113  67.945  1.00  0.00    -0.302 C  
BRANCH   5   6
HETATM    6  C   UNL     1     -10.540  16.542  67.772  1.00  0.00    -0.332 A  
HETATM    7  C   UNL     1     -10.330  17.349  68.901  1.00  0.00    -0.340 A  
HETATM    8  C   UNL     1      -9.969  18.692  68.765  1.00  0.00    -0.427 A  
HETATM    9  C   UNL     1      -9.794  19.252  67.497  1.00  0.00    -0.429 A  
HETATM   10  C   UNL     1      -9.453  20.704  67.336  1.00  0.00    -0.516 C  
HETATM   11  C   UNL     1      -9.953  18.441  66.367  1.00  0.00    -0.399 A  
HETATM   12  C   UNL     1     -10.324  17.102  66.509  1.00  0.00    -0.306 A  
HETATM   13  O   UNL     1     -10.497  16.325  65.398  1.00  0.00    -0.473 OA 
HETATM   14  H   UNL     1     -10.350  16.707  64.540  1.00  0.00     0.000 HD 
ENDBRANCH   5   6
ENDBRANCH   4   5
ENDBRANCH   3   4
ENDBRANCH   2   3
TORSDOF 4
ENDMDL
MODEL       90
REMARK 921   NORMALIZED FREE ENERGY PREDICTED BY IDOCK:   -3.74 KCAL/MOL
REMARK 922        TOTAL FREE ENERGY PREDICTED BY IDOCK:   -4.94 KCAL/MOL
REMARK 923 INTER-LIGAND FREE ENERGY PREDICTED BY IDOCK:   -4.23 KCAL/MOL
REMARK 924 INTRA-LIGAND FREE ENERGY PREDICTED BY IDOCK:   -0.72 KCAL/MOL
REMARK 927      BINDING AFFINITY PREDICTED BY RF-SCORE:    0.00 PKD
ROOT
HETATM    1  C   UNL     1     -11.153  14.346  69.179  1.00  0.00    -0.290 C  
HETATM    2  C   UNL     1     -12.150  14.324  68.030  1.00  0.00    -0.289 C  
ENDROOT
BRANCH   2   3
HETATM    3  C   UNL     1     -11.809  13.248  66.999  1.00  0.00    -0.442 C  
BRANCH   3   4
HETATM    4  C   UNL     1     -11.901  13.807  65.575  1.00  0.00    -0.378 C  
BRANCH   4   5
HETATM    5  C   UNL     1     -10.543  14.228  64.994  1.00  0.00    -0.444 C  
BRANCH   5   6
HETATM    6  C   UNL     1      -9.908  15.400  65.708  1.00  0.00    -0.399 A  
HETATM    7  C   UNL     1     -10.490  16.673  65.614  1.00  0.00    -0.313 A  
HETATM    8  C   UNL     1      -9.884  17.784  66.206  1.00  0.00    -0.301 A  
HETATM    9  C   UNL     1      -8.690  17.642  66.918  1.00  0.00    -0.262 A  
HETATM   10  C   UNL     1      -8.004  18.834  67.518  1.00  0.00    -0.260 C  
HETATM   11  C   UNL     1      -8.128  16.368  67.058  1.00  0.00    -0.235 A  
HETATM   12  C   UNL     1      -8.733  15.263  66.454  1.00  0.00    -0.230 A  
HETATM   13  O   UNL     1      -8.165  14.026  66.580  1.00  0.00    -0.384 OA 
HETATM   14  H   UNL     1      -7.367  13.934  67.088  1.00  0.00     0.000 HD 
ENDBRANCH   5   6
ENDBRANCH   4   5
ENDBRANCH   3   4
ENDBRANCH   2   3
TORSDOF 4
ENDMDL
MODEL       91
REMARK 921   NORMALIZED FREE ENERGY PREDICTED BY IDOCK:   -3.72 KCAL/MOL
REMARK 922        TOTAL FREE ENERGY PREDICTED BY IDOCK:   -4.92 KCAL/MOL
REMARK 923 INTER-LIGAND FREE ENERGY PREDICTED BY IDOCK:   -4.90 KCAL/MOL
REMARK 924 INTRA-LIGAND FREE ENERGY PREDICTED BY IDOCK:   -0.02 KCAL/MOL
REMARK 927      BINDING AFFINITY PREDICTED BY RF-SCORE:    0.00 PKD
ROOT
HETATM    1  C   UNL     1     -12.437  15.582  74.094  1.00  0.00    -0.805 C  
HETATM    2  C   UNL     1     -12.921  14.707  72.947  1.00  0.00    -0.592 C  
ENDROOT
BRANCH   2   3
HETATM    3  C   UNL     1     -12.880  15.447  71.609  1.00  0.00    -0.492 C  
BRANCH   3   4
HETATM    4  C   UNL     1     -11.642  15.045  70.800  1.00  0.00    -0.364 C  
BRANCH   4   5
HETATM    5  C   UNL     1     -11.627  15.621  69.377  1.00  0.00    -0.378 C  
BRANCH   5   6
HETATM    6  C   UNL     1     -10.380  16.410  69.048  1.00  0.00    -0.278 A  
HETATM    7  C   UNL     1     -10.476  17.781  68.762  1.00  0.00    -0.252 A  
HETATM    8  C   UNL     1      -9.349  18.517  68.387  1.00  0.00    -0.359 A  
HETATM    9  C   UNL     1      -8.098  17.900  68.306  1.00  0.00    -0.294 A  
HETATM   10  C   UNL     1      -6.889  18.668  67.859  1.00  0.00    -0.222 C  
HETATM   11  C   UNL     1      -7.984  16.545  68.637  1.00  0.00    -0.232 A  
HETATM   12  C   UNL     1      -9.116  15.813  69.001  1.00  0.00    -0.245 A  
HETATM   13  O   UNL     1      -8.996  14.485  69.302  1.00  0.00    -0.384 OA 
HETATM   14  H   UNL     1      -8.138  14.079  69.270  1.00  0.00     0.000 HD 
ENDBRANCH   5   6
ENDBRANCH   4   5
ENDBRANCH   3   4
ENDBRANCH   2   3
TORSDOF 4
ENDMDL
MODEL       92
REMARK 921   NORMALIZED FREE ENERGY PREDICTED BY IDOCK:   -3.71 KCAL/MOL
REMARK 922        TOTAL FREE ENERGY PREDICTED BY IDOCK:   -4.90 KCAL/MOL
REMARK 923 INTER-LIGAND FREE ENERGY PREDICTED BY IDOCK:   -4.46 KCAL/MOL
REMARK 924 INTRA-LIGAND FREE ENERGY PREDICTED BY IDOCK:   -0.44 KCAL/MOL
REMARK 927      BINDING AFFINITY PREDICTED BY RF-SCORE:    0.00 PKD
ROOT
HETATM    1  C   UNL     1      -7.780  19.926  66.175  1.00  0.00    -0.339 C  
HETATM    2  C   UNL     1      -9.034  20.390  66.900  1.00  0.00    -0.383 C  
ENDROOT
BRANCH   2   3
HETATM    3  C   UNL     1     -10.304  20.047  66.120  1.00  0.00    -0.570 C  
BRANCH   3   4
HETATM    4  C   UNL     1     -10.533  18.532  66.089  1.00  0.00    -0.447 C  
BRANCH   4   5
HETATM    5  C   UNL     1     -10.533  17.884  67.481  1.00  0.00    -0.398 C  
BRANCH   5   6
HETATM    6  C   UNL     1     -10.227  16.403  67.468  1.00  0.00    -0.273 A  
HETATM    7  C   UNL     1      -9.076  15.933  66.816  1.00  0.00    -0.275 A  
HETATM    8  C   UNL     1      -8.809  14.565  66.729  1.00  0.00    -0.248 A  
HETATM    9  C   UNL     1      -9.679  13.637  67.306  1.00  0.00    -0.243 A  
HETATM   10  C   UNL     1      -9.428  12.163  67.179  1.00  0.00    -0.190 C  
HETATM   11  C   UNL     1     -10.804  14.098  68.000  1.00  0.00    -0.256 A  
HETATM   12  C   UNL     1     -11.071  15.467  68.074  1.00  0.00    -0.322 A  
HETATM   13  O   UNL     1     -12.184  15.905  68.737  1.00  0.00    -0.519 OA 
HETATM   14  H   UNL     1     -12.756  15.269  69.149  1.00  0.00     0.000 HD 
ENDBRANCH   5   6
ENDBRANCH   4   5
ENDBRANCH   3   4
ENDBRANCH   2   3
TORSDOF 4
ENDMDL
MODEL       93
REMARK 921   NORMALIZED FREE ENERGY PREDICTED BY IDOCK:   -3.70 KCAL/MOL
REMARK 922        TOTAL FREE ENERGY PREDICTED BY IDOCK:   -4.88 KCAL/MOL
REMARK 923 INTER-LIGAND FREE ENERGY PREDICTED BY IDOCK:   -4.37 KCAL/MOL
REMARK 924 INTRA-LIGAND FREE ENERGY PREDICTED BY IDOCK:   -0.51 KCAL/MOL
REMARK 927      BINDING AFFINITY PREDICTED BY RF-SCORE:    0.00 PKD
ROOT
HETATM    1  C   UNL     1     -10.071  10.575  66.015  1.00  0.00    -0.317 C  
HETATM    2  C   UNL     1     -10.850  10.468  67.317  1.00  0.00    -0.338 C  
ENDROOT
BRANCH   2   3
HETATM    3  C   UNL     1     -10.339  11.452  68.370  1.00  0.00    -0.209 C  
BRANCH   3   4
HETATM    4  C   UNL     1     -11.441  12.435  68.780  1.00  0.00    -0.350 C  
BRANCH   4   5
HETATM    5  C   UNL     1     -12.014  13.237  67.603  1.00  0.00    -0.366 C  
BRANCH   5   6
HETATM    6  C   UNL     1     -11.266  14.519  67.313  1.00  0.00    -0.341 A  
HETATM    7  C   UNL     1     -10.316  14.554  66.279  1.00  0.00    -0.300 A  
HETATM    8  C   UNL     1      -9.562  15.705  66.037  1.00  0.00    -0.386 A  
HETATM    9  C   UNL     1      -9.753  16.851  66.814  1.00  0.00    -0.274 A  
HETATM   10  C   UNL     1      -8.916  18.077  66.595  1.00  0.00    -0.285 C  
HETATM   11  C   UNL     1     -10.731  16.841  67.814  1.00  0.00    -0.321 A  
HETATM   12  C   UNL     1     -11.475  15.683  68.058  1.00  0.00    -0.291 A  
HETATM   13  O   UNL     1     -12.414  15.679  69.051  1.00  0.00    -0.596 OA 
HETATM   14  H   UNL     1     -12.556  16.470  69.557  1.00  0.00     0.000 HD 
ENDBRANCH   5   6
ENDBRANCH   4   5
ENDBRANCH   3   4
ENDBRANCH   2   3
TORSDOF 4
ENDMDL
MODEL       94
REMARK 921   NORMALIZED FREE ENERGY PREDICTED BY IDOCK:   -3.70 KCAL/MOL
REMARK 922        TOTAL FREE ENERGY PREDICTED BY IDOCK:   -4.88 KCAL/MOL
REMARK 923 INTER-LIGAND FREE ENERGY PREDICTED BY IDOCK:   -4.68 KCAL/MOL
REMARK 924 INTRA-LIGAND FREE ENERGY PREDICTED BY IDOCK:   -0.20 KCAL/MOL
REMARK 927      BINDING AFFINITY PREDICTED BY RF-SCORE:    0.00 PKD
ROOT
HETATM    1  C   UNL     1     -12.034  12.336  63.441  1.00  0.00    -0.588 C  
HETATM    2  C   UNL     1     -10.993  13.176  64.165  1.00  0.00    -0.418 C  
ENDROOT
BRANCH   2   3
HETATM    3  C   UNL     1     -11.555  14.532  64.597  1.00  0.00    -0.413 C  
BRANCH   3   4
HETATM    4  C   UNL     1     -10.451  15.420  65.180  1.00  0.00    -0.439 C  
BRANCH   4   5
HETATM    5  C   UNL     1     -10.866  16.149  66.466  1.00  0.00    -0.139 C  
BRANCH   5   6
HETATM    6  C   UNL     1      -9.825  17.114  66.988  1.00  0.00    -0.276 A  
HETATM    7  C   UNL     1      -8.897  16.685  67.949  1.00  0.00    -0.205 A  
HETATM    8  C   UNL     1      -7.970  17.575  68.499  1.00  0.00    -0.271 A  
HETATM    9  C   UNL     1      -7.942  18.910  68.085  1.00  0.00    -0.330 A  
HETATM   10  C   UNL     1      -6.984  19.886  68.702  1.00  0.00    -0.353 C  
HETATM   11  C   UNL     1      -8.831  19.334  67.091  1.00  0.00    -0.329 A  
HETATM   12  C   UNL     1      -9.762  18.442  66.554  1.00  0.00    -0.348 A  
HETATM   13  O   UNL     1     -10.640  18.872  65.599  1.00  0.00    -0.575 OA 
HETATM   14  H   UNL     1     -10.597  19.774  65.305  1.00  0.00     0.000 HD 
ENDBRANCH   5   6
ENDBRANCH   4   5
ENDBRANCH   3   4
ENDBRANCH   2   3
TORSDOF 4
ENDMDL
MODEL       95
REMARK 921   NORMALIZED FREE ENERGY PREDICTED BY IDOCK:   -3.69 KCAL/MOL
REMARK 922        TOTAL FREE ENERGY PREDICTED BY IDOCK:   -4.88 KCAL/MOL
REMARK 923 INTER-LIGAND FREE ENERGY PREDICTED BY IDOCK:   -4.61 KCAL/MOL
REMARK 924 INTRA-LIGAND FREE ENERGY PREDICTED BY IDOCK:   -0.27 KCAL/MOL
REMARK 927      BINDING AFFINITY PREDICTED BY RF-SCORE:    0.00 PKD
ROOT
HETATM    1  C   UNL     1     -10.649   6.180  73.228  1.00  0.00    -0.278 C  
HETATM    2  C   UNL     1     -11.472   6.807  72.112  1.00  0.00    -0.319 C  
ENDROOT
BRANCH   2   3
HETATM    3  C   UNL     1     -12.152   8.100  72.564  1.00  0.00    -0.377 C  
BRANCH   3   4
HETATM    4  C   UNL     1     -12.340   9.059  71.383  1.00  0.00    -0.380 C  
BRANCH   4   5
HETATM    5  C   UNL     1     -11.043   9.754  70.946  1.00  0.00    -0.428 C  
BRANCH   5   6
HETATM    6  C   UNL     1     -11.206  10.658  69.744  1.00  0.00    -0.363 A  
HETATM    7  C   UNL     1     -11.486  12.021  69.928  1.00  0.00    -0.239 A  
HETATM    8  C   UNL     1     -11.711  12.861  68.835  1.00  0.00    -0.370 A  
HETATM    9  C   UNL     1     -11.645  12.360  67.533  1.00  0.00    -0.431 A  
HETATM   10  C   UNL     1     -11.931  13.241  66.353  1.00  0.00    -0.465 C  
HETATM   11  C   UNL     1     -11.318  11.012  67.338  1.00  0.00    -0.306 A  
HETATM   12  C   UNL     1     -11.105  10.175  68.436  1.00  0.00    -0.218 A  
HETATM   13  O   UNL     1     -10.807   8.856  68.234  1.00  0.00    -0.434 OA 
HETATM   14  H   UNL     1     -10.738   8.529  67.344  1.00  0.00     0.000 HD 
ENDBRANCH   5   6
ENDBRANCH   4   5
ENDBRANCH   3   4
ENDBRANCH   2   3
TORSDOF 4
ENDMDL
MODEL       96
REMARK 921   NORMALIZED FREE ENERGY PREDICTED BY IDOCK:   -3.68 KCAL/MOL
REMARK 922        TOTAL FREE ENERGY PREDICTED BY IDOCK:   -4.86 KCAL/MOL
REMARK 923 INTER-LIGAND FREE ENERGY PREDICTED BY IDOCK:   -4.75 KCAL/MOL
REMARK 924 INTRA-LIGAND FREE ENERGY PREDICTED BY IDOCK:   -0.11 KCAL/MOL
REMARK 927      BINDING AFFINITY PREDICTED BY RF-SCORE:    0.00 PKD
ROOT
HETATM    1  C   UNL     1      -8.841  17.682  68.179  1.00  0.00    -0.269 C  
HETATM    2  C   UNL     1      -9.667  16.507  68.680  1.00  0.00    -0.247 C  
ENDROOT
BRANCH   2   3
HETATM    3  C   UNL     1     -11.145  16.652  68.314  1.00  0.00    -0.295 C  
BRANCH   3   4
HETATM    4  C   UNL     1     -11.961  15.476  68.862  1.00  0.00    -0.306 C  
BRANCH   4   5
HETATM    5  C   UNL     1     -11.581  15.081  70.296  1.00  0.00    -0.329 C  
BRANCH   5   6
HETATM    6  C   UNL     1     -12.098  13.724  70.716  1.00  0.00    -0.395 A  
HETATM    7  C   UNL     1     -13.066  13.628  71.727  1.00  0.00    -0.468 A  
HETATM    8  C   UNL     1     -13.508  12.382  72.182  1.00  0.00    -0.481 A  
HETATM    9  C   UNL     1     -13.002  11.206  71.622  1.00  0.00    -0.548 A  
HETATM   10  C   UNL     1     -13.433   9.863  72.134  1.00  0.00    -0.454 C  
HETATM   11  C   UNL     1     -12.072  11.293  70.579  1.00  0.00    -0.481 A  
HETATM   12  C   UNL     1     -11.627  12.541  70.137  1.00  0.00    -0.069 A  
HETATM   13  O   UNL     1     -10.703  12.613  69.132  1.00  0.00    -0.411 OA 
HETATM   14  H   UNL     1     -10.384  11.809  68.739  1.00  0.00     0.000 HD 
ENDBRANCH   5   6
ENDBRANCH   4   5
ENDBRANCH   3   4
ENDBRANCH   2   3
TORSDOF 4
ENDMDL
MODEL       97
REMARK 921   NORMALIZED FREE ENERGY PREDICTED BY IDOCK:   -3.66 KCAL/MOL
REMARK 922        TOTAL FREE ENERGY PREDICTED BY IDOCK:   -4.84 KCAL/MOL
REMARK 923 INTER-LIGAND FREE ENERGY PREDICTED BY IDOCK:   -4.36 KCAL/MOL
REMARK 924 INTRA-LIGAND FREE ENERGY PREDICTED BY IDOCK:   -0.47 KCAL/MOL
REMARK 927      BINDING AFFINITY PREDICTED BY RF-SCORE:    0.00 PKD
ROOT
HETATM    1  C   UNL     1      -8.578  15.576  69.405  1.00  0.00    -0.259 C  
HETATM    2  C   UNL     1      -8.943  16.675  68.418  1.00  0.00    -0.223 C  
ENDROOT
BRANCH   2   3
HETATM    3  C   UNL     1     -10.400  17.115  68.569  1.00  0.00    -0.364 C  
BRANCH   3   4
HETATM    4  C   UNL     1     -11.355  15.951  68.284  1.00  0.00    -0.342 C  
BRANCH   4   5
HETATM    5  C   UNL     1     -11.118  15.283  66.921  1.00  0.00    -0.288 C  
BRANCH   5   6
HETATM    6  C   UNL     1     -11.046  13.774  66.982  1.00  0.00    -0.313 A  
HETATM    7  C   UNL     1     -11.578  13.094  68.089  1.00  0.00    -0.375 A  
HETATM    8  C   UNL     1     -11.462  11.707  68.202  1.00  0.00    -0.382 A  
HETATM    9  C   UNL     1     -10.825  10.967  67.203  1.00  0.00    -0.337 A  
HETATM   10  C   UNL     1     -10.651   9.483  67.335  1.00  0.00    -0.337 C  
HETATM   11  C   UNL     1     -10.334  11.631  66.072  1.00  0.00    -0.283 A  
HETATM   12  C   UNL     1     -10.444  13.020  65.971  1.00  0.00    -0.279 A  
HETATM   13  O   UNL     1      -9.943  13.660  64.871  1.00  0.00    -0.583 OA 
HETATM   14  H   UNL     1      -9.534  13.148  64.184  1.00  0.00     0.000 HD 
ENDBRANCH   5   6
ENDBRANCH   4   5
ENDBRANCH   3   4
ENDBRANCH   2   3
TORSDOF 4
ENDMDL
MODEL       98
REMARK 921   NORMALIZED FREE ENERGY PREDICTED BY IDOCK:   -3.65 KCAL/MOL
REMARK 922        TOTAL FREE ENERGY PREDICTED BY IDOCK:   -4.83 KCAL/MOL
REMARK 923 INTER-LIGAND FREE ENERGY PREDICTED BY IDOCK:   -4.19 KCAL/MOL
REMARK 924 INTRA-LIGAND FREE ENERGY PREDICTED BY IDOCK:   -0.63 KCAL/MOL
REMARK 927      BINDING AFFINITY PREDICTED BY RF-SCORE:    0.00 PKD
ROOT
HETATM    1  C   UNL     1      -7.522  11.755  66.989  1.00  0.00    -0.137 C  
HETATM    2  C   UNL     1      -7.776  10.414  66.316  1.00  0.00    -0.129 C  
ENDROOT
BRANCH   2   3
HETATM    3  C   UNL     1      -8.689  10.553  65.097  1.00  0.00    -0.197 C  
BRANCH   3   4
HETATM    4  C   UNL     1     -10.158  10.362  65.490  1.00  0.00    -0.352 C  
BRANCH   4   5
HETATM    5  C   UNL     1     -11.071  11.502  65.015  1.00  0.00    -0.268 C  
BRANCH   5   6
HETATM    6  C   UNL     1     -11.106  12.690  65.951  1.00  0.00    -0.323 A  
HETATM    7  C   UNL     1     -11.606  12.538  67.254  1.00  0.00    -0.434 A  
HETATM    8  C   UNL     1     -11.713  13.634  68.113  1.00  0.00    -0.392 A  
HETATM    9  C   UNL     1     -11.308  14.904  67.693  1.00  0.00    -0.348 A  
HETATM   10  C   UNL     1     -11.463  16.097  68.589  1.00  0.00    -0.340 C  
HETATM   11  C   UNL     1     -10.763  15.055  66.413  1.00  0.00    -0.322 A  
HETATM   12  C   UNL     1     -10.668  13.957  65.554  1.00  0.00    -0.302 A  
HETATM   13  O   UNL     1     -10.153  14.121  64.299  1.00  0.00    -0.648 OA 
HETATM   14  H   UNL     1      -9.856  14.982  64.030  1.00  0.00     0.000 HD 
ENDBRANCH   5   6
ENDBRANCH   4   5
ENDBRANCH   3   4
ENDBRANCH   2   3
TORSDOF 4
ENDMDL
MODEL       99
REMARK 921   NORMALIZED FREE ENERGY PREDICTED BY IDOCK:   -3.64 KCAL/MOL
REMARK 922        TOTAL FREE ENERGY PREDICTED BY IDOCK:   -4.81 KCAL/MOL
REMARK 923 INTER-LIGAND FREE ENERGY PREDICTED BY IDOCK:   -3.99 KCAL/MOL
REMARK 924 INTRA-LIGAND FREE ENERGY PREDICTED BY IDOCK:   -0.83 KCAL/MOL
REMARK 927      BINDING AFFINITY PREDICTED BY RF-SCORE:    0.00 PKD
ROOT
HETATM    1  C   UNL     1     -11.480  13.424  64.161  1.00  0.00    -0.421 C  
HETATM    2  C   UNL     1     -11.243  11.980  63.744  1.00  0.00    -0.516 C  
ENDROOT
BRANCH   2   3
HETATM    3  C   UNL     1     -10.092  11.344  64.524  1.00  0.00    -0.337 C  
BRANCH   3   4
HETATM    4  C   UNL     1     -10.622  10.481  65.675  1.00  0.00    -0.132 C  
BRANCH   4   5
HETATM    5  C   UNL     1     -10.065  10.882  67.048  1.00  0.00    -0.244 C  
BRANCH   5   6
HETATM    6  C   UNL     1     -10.374  12.310  67.442  1.00  0.00    -0.219 A  
HETATM    7  C   UNL     1     -11.676  12.660  67.833  1.00  0.00    -0.412 A  
HETATM    8  C   UNL     1     -12.003  13.984  68.133  1.00  0.00    -0.382 A  
HETATM    9  C   UNL     1     -11.030  14.985  68.066  1.00  0.00    -0.285 A  
HETATM   10  C   UNL     1     -11.379  16.418  68.339  1.00  0.00    -0.268 C  
HETATM   11  C   UNL     1      -9.718  14.637  67.724  1.00  0.00    -0.215 A  
HETATM   12  C   UNL     1      -9.400  13.312  67.414  1.00  0.00    -0.217 A  
HETATM   13  O   UNL     1      -8.120  12.987  67.063  1.00  0.00    -0.339 OA 
HETATM   14  H   UNL     1      -7.458  13.669  67.044  1.00  0.00     0.000 HD 
ENDBRANCH   5   6
ENDBRANCH   4   5
ENDBRANCH   3   4
ENDBRANCH   2   3
TORSDOF 4
ENDMDL
MODEL      100
REMARK 921   NORMALIZED FREE ENERGY PREDICTED BY IDOCK:   -3.64 KCAL/MOL
REMARK 922        TOTAL FREE ENERGY PREDICTED BY IDOCK:   -4.81 KCAL/MOL
REMARK 923 INTER-LIGAND FREE ENERGY PREDICTED BY IDOCK:   -4.44 KCAL/MOL
REMARK 924 INTRA-LIGAND FREE ENERGY PREDICTED BY IDOCK:   -0.37 KCAL/MOL
REMARK 927      BINDING AFFINITY PREDICTED BY RF-SCORE:    0.00 PKD
ROOT
HETATM    1  C   UNL     1     -10.316  17.792  66.714  1.00  0.00    -0.343 C  
HETATM    2  C   UNL     1      -9.139  17.131  67.415  1.00  0.00    -0.226 C  
ENDROOT
BRANCH   2   3
HETATM    3  C   UNL     1      -9.254  15.605  67.406  1.00  0.00    -0.205 C  
BRANCH   3   4
HETATM    4  C   UNL     1      -9.687  15.082  68.780  1.00  0.00    -0.227 C  
BRANCH   4   5
HETATM    5  C   UNL     1     -10.987  14.265  68.742  1.00  0.00    -0.271 C  
BRANCH   5   6
HETATM    6  C   UNL     1     -11.327  13.717  67.374  1.00  0.00    -0.348 A  
HETATM    7  C   UNL     1     -12.198  14.429  66.534  1.00  0.00    -0.358 A  
HETATM    8  C   UNL     1     -12.583  13.911  65.295  1.00  0.00    -0.508 A  
HETATM    9  C   UNL     1     -12.091  12.676  64.862  1.00  0.00    -0.494 A  
HETATM   10  C   UNL     1     -12.534  12.086  63.555  1.00  0.00    -0.654 C  
HETATM   11  C   UNL     1     -11.184  11.982  65.672  1.00  0.00    -0.377 A  
HETATM   12  C   UNL     1     -10.812  12.501  66.914  1.00  0.00    -0.248 A  
HETATM   13  O   UNL     1      -9.941  11.805  67.705  1.00  0.00    -0.183 OA 
HETATM   14  H   UNL     1      -9.592  10.979  67.393  1.00  0.00     0.000 HD 
ENDBRANCH   5   6
ENDBRANCH   4   5
ENDBRANCH   3   4
ENDBRANCH   2   3
TORSDOF 4
ENDMDL
MODEL      101
REMARK 921   NORMALIZED FREE ENERGY PREDICTED BY IDOCK:   -3.63 KCAL/MOL
REMARK 922        TOTAL FREE ENERGY PREDICTED BY IDOCK:   -4.80 KCAL/MOL
REMARK 923 INTER-LIGAND FREE ENERGY PREDICTED BY IDOCK:   -4.49 KCAL/MOL
REMARK 924 INTRA-LIGAND FREE ENERGY PREDICTED BY IDOCK:   -0.31 KCAL/MOL
REMARK 927      BINDING AFFINITY PREDICTED BY RF-SCORE:    0.00 PKD
ROOT
HETATM    1  C   UNL     1     -13.839   9.082  72.302  1.00  0.00    -0.547 C  
HETATM    2  C   UNL     1     -12.444   9.460  71.829  1.00  0.00    -0.471 C  
ENDROOT
BRANCH   2   3
HETATM    3  C   UNL     1     -11.428   8.351  72.106  1.00  0.00    -0.442 C  
BRANCH   3   4
HETATM    4  C   UNL     1     -10.809   7.840  70.801  1.00  0.00    -0.245 C  
BRANCH   4   5
HETATM    5  C   UNL     1     -11.671   6.792  70.082  1.00  0.00    -0.370 C  
BRANCH   5   6
HETATM    6  C   UNL     1     -10.876   5.799  69.265  1.00  0.00    -0.374 A  
HETATM    7  C   UNL     1     -10.157   4.781  69.909  1.00  0.00    -0.299 A  
HETATM    8  C   UNL     1      -9.358   3.895  69.181  1.00  0.00    -0.240 A  
HETATM    9  C   UNL     1      -9.275   3.999  67.790  1.00  0.00    -0.197 A  
HETATM   10  C   UNL     1      -8.384   3.085  67.002  1.00  0.00    -0.092 C  
HETATM   11  C   UNL     1     -10.026   4.981  67.135  1.00  0.00    -0.226 A  
HETATM   12  C   UNL     1     -10.814   5.870  67.869  1.00  0.00    -0.233 A  
HETATM   13  O   UNL     1     -11.529   6.838  67.220  1.00  0.00    -0.752 OA 
HETATM   14  H   UNL     1     -11.487   6.885  66.272  1.00  0.00     0.000 HD 
ENDBRANCH   5   6
ENDBRANCH   4   5
ENDBRANCH   3   4
ENDBRANCH   2   3
TORSDOF 4
ENDMDL
MODEL      102
REMARK 921   NORMALIZED FREE ENERGY PREDICTED BY IDOCK:   -3.62 KCAL/MOL
REMARK 922        TOTAL FREE ENERGY PREDICTED BY IDOCK:   -4.79 KCAL/MOL
REMARK 923 INTER-LIGAND FREE ENERGY PREDICTED BY IDOCK:   -4.33 KCAL/MOL
REMARK 924 INTRA-LIGAND FREE ENERGY PREDICTED BY IDOCK:   -0.47 KCAL/MOL
REMARK 927      BINDING AFFINITY PREDICTED BY RF-SCORE:    0.00 PKD
ROOT
HETATM    1  C   UNL     1      -7.876  16.420  69.162  1.00  0.00    -0.214 C  
HETATM    2  C   UNL     1      -9.375  16.544  68.932  1.00  0.00    -0.256 C  
ENDROOT
BRANCH   2   3
HETATM    3  C   UNL     1     -10.151  15.415  69.612  1.00  0.00    -0.275 C  
BRANCH   3   4
HETATM    4  C   UNL     1     -11.390  15.035  68.793  1.00  0.00    -0.306 C  
BRANCH   4   5
HETATM    5  C   UNL     1     -11.396  15.632  67.379  1.00  0.00    -0.163 C  
BRANCH   5   6
HETATM    6  C   UNL     1     -11.363  14.597  66.276  1.00  0.00    -0.347 A  
HETATM    7  C   UNL     1     -12.507  13.832  66.003  1.00  0.00    -0.491 A  
HETATM    8  C   UNL     1     -12.481  12.822  65.038  1.00  0.00    -0.572 A  
HETATM    9  C   UNL     1     -11.314  12.567  64.313  1.00  0.00    -0.417 A  
HETATM   10  C   UNL     1     -11.259  11.454  63.309  1.00  0.00    -0.152 C  
HETATM   11  C   UNL     1     -10.182  13.358  64.545  1.00  0.00    -0.321 A  
HETATM   12  C   UNL     1     -10.212  14.359  65.519  1.00  0.00    -0.363 A  
HETATM   13  O   UNL     1      -9.095  15.111  65.751  1.00  0.00    -0.455 OA 
HETATM   14  H   UNL     1      -8.313  14.949  65.237  1.00  0.00     0.000 HD 
ENDBRANCH   5   6
ENDBRANCH   4   5
ENDBRANCH   3   4
ENDBRANCH   2   3
TORSDOF 4
ENDMDL
MODEL      103
REMARK 921   NORMALIZED FREE ENERGY PREDICTED BY IDOCK:   -3.62 KCAL/MOL
REMARK 922        TOTAL FREE ENERGY PREDICTED BY IDOCK:   -4.79 KCAL/MOL
REMARK 923 INTER-LIGAND FREE ENERGY PREDICTED BY IDOCK:   -4.24 KCAL/MOL
REMARK 924 INTRA-LIGAND FREE ENERGY PREDICTED BY IDOCK:   -0.55 KCAL/MOL
REMARK 927      BINDING AFFINITY PREDICTED BY RF-SCORE:    0.00 PKD
ROOT
HETATM    1  C   UNL     1     -10.287  13.963  65.696  1.00  0.00    -0.337 C  
HETATM    2  C   UNL     1     -11.484  14.583  66.402  1.00  0.00    -0.362 C  
ENDROOT
BRANCH   2   3
HETATM    3  C   UNL     1     -11.348  14.511  67.923  1.00  0.00    -0.329 C  
BRANCH   3   4
HETATM    4  C   UNL     1     -11.480  15.903  68.550  1.00  0.00    -0.377 C  
BRANCH   4   5
HETATM    5  C   UNL     1     -10.179  16.415  69.186  1.00  0.00    -0.280 C  
BRANCH   5   6
HETATM    6  C   UNL     1      -9.316  17.227  68.246  1.00  0.00    -0.272 A  
HETATM    7  C   UNL     1      -8.448  16.575  67.357  1.00  0.00    -0.194 A  
HETATM    8  C   UNL     1      -7.589  17.302  66.529  1.00  0.00    -0.324 A  
HETATM    9  C   UNL     1      -7.592  18.699  66.561  1.00  0.00    -0.273 A  
HETATM   10  C   UNL     1      -6.642  19.491  65.712  1.00  0.00    -0.264 C  
HETATM   11  C   UNL     1      -8.490  19.359  67.409  1.00  0.00    -0.330 A  
HETATM   12  C   UNL     1      -9.338  18.625  68.243  1.00  0.00    -0.328 A  
HETATM   13  O   UNL     1     -10.195  19.280  69.082  1.00  0.00    -0.573 OA 
HETATM   14  H   UNL     1     -10.210  20.230  69.079  1.00  0.00     0.000 HD 
ENDBRANCH   5   6
ENDBRANCH   4   5
ENDBRANCH   3   4
ENDBRANCH   2   3
TORSDOF 4
ENDMDL
MODEL      104
REMARK 921   NORMALIZED FREE ENERGY PREDICTED BY IDOCK:   -3.62 KCAL/MOL
REMARK 922        TOTAL FREE ENERGY PREDICTED BY IDOCK:   -4.79 KCAL/MOL
REMARK 923 INTER-LIGAND FREE ENERGY PREDICTED BY IDOCK:   -4.23 KCAL/MOL
REMARK 924 INTRA-LIGAND FREE ENERGY PREDICTED BY IDOCK:   -0.56 KCAL/MOL
REMARK 927      BINDING AFFINITY PREDICTED BY RF-SCORE:    0.00 PKD
ROOT
HETATM    1  C   UNL     1     -12.384  14.428  71.891  1.00  0.00    -0.362 C  
HETATM    2  C   UNL     1     -13.215  13.303  71.295  1.00  0.00    -0.226 C  
ENDROOT
BRANCH   2   3
HETATM    3  C   UNL     1     -12.574  11.934  71.529  1.00  0.00    -0.298 C  
BRANCH   3   4
HETATM    4  C   UNL     1     -12.373  11.192  70.203  1.00  0.00    -0.373 C  
BRANCH   4   5
HETATM    5  C   UNL     1     -11.048  11.531  69.506  1.00  0.00    -0.256 C  
BRANCH   5   6
HETATM    6  C   UNL     1     -11.189  12.514  68.365  1.00  0.00    -0.313 A  
HETATM    7  C   UNL     1     -11.888  12.142  67.206  1.00  0.00    -0.293 A  
HETATM    8  C   UNL     1     -11.973  13.006  66.111  1.00  0.00    -0.488 A  
HETATM    9  C   UNL     1     -11.374  14.268  66.159  1.00  0.00    -0.342 A  
HETATM   10  C   UNL     1     -11.417  15.185  64.973  1.00  0.00    -0.339 C  
HETATM   11  C   UNL     1     -10.717  14.666  67.329  1.00  0.00    -0.290 A  
HETATM   12  C   UNL     1     -10.627  13.793  68.416  1.00  0.00    -0.253 A  
HETATM   13  O   UNL     1      -9.965  14.185  69.546  1.00  0.00    -0.401 OA 
HETATM   14  H   UNL     1      -9.583  15.054  69.580  1.00  0.00     0.000 HD 
ENDBRANCH   5   6
ENDBRANCH   4   5
ENDBRANCH   3   4
ENDBRANCH   2   3
TORSDOF 4
ENDMDL
MODEL      105
REMARK 921   NORMALIZED FREE ENERGY PREDICTED BY IDOCK:   -3.62 KCAL/MOL
REMARK 922        TOTAL FREE ENERGY PREDICTED BY IDOCK:   -4.79 KCAL/MOL
REMARK 923 INTER-LIGAND FREE ENERGY PREDICTED BY IDOCK:   -4.37 KCAL/MOL
REMARK 924 INTRA-LIGAND FREE ENERGY PREDICTED BY IDOCK:   -0.42 KCAL/MOL
REMARK 927      BINDING AFFINITY PREDICTED BY RF-SCORE:    0.00 PKD
ROOT
HETATM    1  C   UNL     1     -10.389   9.356  70.235  1.00  0.00    -0.293 C  
HETATM    2  C   UNL     1      -9.700   9.744  68.936  1.00  0.00    -0.172 C  
ENDROOT
BRANCH   2   3
HETATM    3  C   UNL     1      -9.929   8.704  67.837  1.00  0.00    -0.232 C  
BRANCH   3   4
HETATM    4  C   UNL     1     -10.748   9.299  66.686  1.00  0.00    -0.066 C  
BRANCH   4   5
HETATM    5  C   UNL     1      -9.886   9.907  65.571  1.00  0.00    -0.381 C  
BRANCH   5   6
HETATM    6  C   UNL     1     -10.135  11.381  65.338  1.00  0.00    -0.308 A  
HETATM    7  C   UNL     1      -9.794  12.311  66.333  1.00  0.00    -0.242 A  
HETATM    8  C   UNL     1     -10.078  13.670  66.171  1.00  0.00    -0.311 A  
HETATM    9  C   UNL     1     -10.694  14.129  65.004  1.00  0.00    -0.429 A  
HETATM   10  C   UNL     1     -11.048  15.577  64.839  1.00  0.00    -0.428 C  
HETATM   11  C   UNL     1     -10.993  13.215  63.987  1.00  0.00    -0.377 A  
HETATM   12  C   UNL     1     -10.716  11.856  64.159  1.00  0.00    -0.351 A  
HETATM   13  O   UNL     1     -11.031  10.970  63.167  1.00  0.00    -0.780 OA 
HETATM   14  H   UNL     1     -11.426  11.294  62.366  1.00  0.00     0.000 HD 
ENDBRANCH   5   6
ENDBRANCH   4   5
ENDBRANCH   3   4
ENDBRANCH   2   3
TORSDOF 4
ENDMDL
MODEL      106
REMARK 921   NORMALIZED FREE ENERGY PREDICTED BY IDOCK:   -3.60 KCAL/MOL
REMARK 922        TOTAL FREE ENERGY PREDICTED BY IDOCK:   -4.77 KCAL/MOL
REMARK 923 INTER-LIGAND FREE ENERGY PREDICTED BY IDOCK:   -4.29 KCAL/MOL
REMARK 924 INTRA-LIGAND FREE ENERGY PREDICTED BY IDOCK:   -0.47 KCAL/MOL
REMARK 927      BINDING AFFINITY PREDICTED BY RF-SCORE:    0.00 PKD
ROOT
HETATM    1  C   UNL     1     -11.146   6.508  70.480  1.00  0.00    -0.375 C  
HETATM    2  C   UNL     1     -11.603   7.105  71.802  1.00  0.00    -0.314 C  
ENDROOT
BRANCH   2   3
HETATM    3  C   UNL     1     -11.929   8.594  71.672  1.00  0.00    -0.388 C  
BRANCH   3   4
HETATM    4  C   UNL     1     -10.991   9.272  70.667  1.00  0.00    -0.336 C  
BRANCH   4   5
HETATM    5  C   UNL     1     -11.707  10.251  69.725  1.00  0.00    -0.261 C  
BRANCH   5   6
HETATM    6  C   UNL     1     -11.175  10.239  68.309  1.00  0.00    -0.295 A  
HETATM    7  C   UNL     1     -10.479   9.117  67.835  1.00  0.00    -0.293 A  
HETATM    8  C   UNL     1      -9.917   9.109  66.555  1.00  0.00    -0.359 A  
HETATM    9  C   UNL     1     -10.054  10.218  65.717  1.00  0.00    -0.325 A  
HETATM   10  C   UNL     1      -9.415  10.241  64.360  1.00  0.00    -0.360 C  
HETATM   11  C   UNL     1     -10.788  11.323  66.164  1.00  0.00    -0.281 A  
HETATM   12  C   UNL     1     -11.338  11.329  67.448  1.00  0.00    -0.276 A  
HETATM   13  O   UNL     1     -12.036  12.421  67.881  1.00  0.00    -0.428 OA 
HETATM   14  H   UNL     1     -12.147  13.161  67.296  1.00  0.00     0.000 HD 
ENDBRANCH   5   6
ENDBRANCH   4   5
ENDBRANCH   3   4
ENDBRANCH   2   3
TORSDOF 4
ENDMDL
MODEL      107
REMARK 921   NORMALIZED FREE ENERGY PREDICTED BY IDOCK:   -3.59 KCAL/MOL
REMARK 922        TOTAL FREE ENERGY PREDICTED BY IDOCK:   -4.76 KCAL/MOL
REMARK 923 INTER-LIGAND FREE ENERGY PREDICTED BY IDOCK:   -4.27 KCAL/MOL
REMARK 924 INTRA-LIGAND FREE ENERGY PREDICTED BY IDOCK:   -0.49 KCAL/MOL
REMARK 927      BINDING AFFINITY PREDICTED BY RF-SCORE:    0.00 PKD
ROOT
HETATM    1  C   UNL     1      -9.159   6.889  67.542  1.00  0.00    -0.118 C  
HETATM    2  C   UNL     1      -9.217   8.165  66.716  1.00  0.00    -0.206 C  
ENDROOT
BRANCH   2   3
HETATM    3  C   UNL     1     -10.371   9.071  67.150  1.00  0.00    -0.342 C  
BRANCH   3   4
HETATM    4  C   UNL     1      -9.842  10.376  67.755  1.00  0.00    -0.193 C  
BRANCH   4   5
HETATM    5  C   UNL     1      -9.544  10.278  69.259  1.00  0.00    -0.239 C  
BRANCH   5   6
HETATM    6  C   UNL     1     -10.747   9.911  70.099  1.00  0.00    -0.361 A  
HETATM    7  C   UNL     1     -10.904   8.594  70.556  1.00  0.00    -0.257 A  
HETATM    8  C   UNL     1     -12.041   8.214  71.274  1.00  0.00    -0.313 A  
HETATM    9  C   UNL     1     -13.038   9.149  71.564  1.00  0.00    -0.409 A  
HETATM   10  C   UNL     1     -14.286   8.743  72.292  1.00  0.00    -0.498 C  
HETATM   11  C   UNL     1     -12.867  10.476  71.154  1.00  0.00    -0.513 A  
HETATM   12  C   UNL     1     -11.733  10.847  70.428  1.00  0.00    -0.350 A  
HETATM   13  O   UNL     1     -11.586  12.142  70.015  1.00  0.00    -0.468 OA 
HETATM   14  H   UNL     1     -12.256  12.777  70.239  1.00  0.00     0.000 HD 
ENDBRANCH   5   6
ENDBRANCH   4   5
ENDBRANCH   3   4
ENDBRANCH   2   3
TORSDOF 4
ENDMDL
MODEL      108
REMARK 921   NORMALIZED FREE ENERGY PREDICTED BY IDOCK:   -3.59 KCAL/MOL
REMARK 922        TOTAL FREE ENERGY PREDICTED BY IDOCK:   -4.75 KCAL/MOL
REMARK 923 INTER-LIGAND FREE ENERGY PREDICTED BY IDOCK:   -4.39 KCAL/MOL
REMARK 924 INTRA-LIGAND FREE ENERGY PREDICTED BY IDOCK:   -0.36 KCAL/MOL
REMARK 927      BINDING AFFINITY PREDICTED BY RF-SCORE:    0.00 PKD
ROOT
HETATM    1  C   UNL     1     -10.918   6.071  68.740  1.00  0.00    -0.384 C  
HETATM    2  C   UNL     1     -10.676   6.437  67.284  1.00  0.00    -0.426 C  
ENDROOT
BRANCH   2   3
HETATM    3  C   UNL     1     -10.684   7.951  67.068  1.00  0.00    -0.289 C  
BRANCH   3   4
HETATM    4  C   UNL     1      -9.454   8.394  66.268  1.00  0.00    -0.292 C  
BRANCH   4   5
HETATM    5  C   UNL     1      -9.012   9.833  66.571  1.00  0.00    -0.172 C  
BRANCH   5   6
HETATM    6  C   UNL     1     -10.071  10.874  66.284  1.00  0.00    -0.284 A  
HETATM    7  C   UNL     1     -10.401  11.185  64.956  1.00  0.00    -0.362 A  
HETATM    8  C   UNL     1     -11.325  12.192  64.663  1.00  0.00    -0.382 A  
HETATM    9  C   UNL     1     -11.951  12.898  65.694  1.00  0.00    -0.490 A  
HETATM   10  C   UNL     1     -12.908  14.013  65.393  1.00  0.00    -0.442 C  
HETATM   11  C   UNL     1     -11.664  12.560  67.022  1.00  0.00    -0.437 A  
HETATM   12  C   UNL     1     -10.731  11.560  67.308  1.00  0.00    -0.244 A  
HETATM   13  O   UNL     1     -10.444  11.253  68.608  1.00  0.00    -0.188 OA 
HETATM   14  H   UNL     1     -10.893  11.720  69.303  1.00  0.00     0.000 HD 
ENDBRANCH   5   6
ENDBRANCH   4   5
ENDBRANCH   3   4
ENDBRANCH   2   3
TORSDOF 4
ENDMDL
MODEL      109
REMARK 921   NORMALIZED FREE ENERGY PREDICTED BY IDOCK:   -3.58 KCAL/MOL
REMARK 922        TOTAL FREE ENERGY PREDICTED BY IDOCK:   -4.74 KCAL/MOL
REMARK 923 INTER-LIGAND FREE ENERGY PREDICTED BY IDOCK:   -4.10 KCAL/MOL
REMARK 924 INTRA-LIGAND FREE ENERGY PREDICTED BY IDOCK:   -0.64 KCAL/MOL
REMARK 927      BINDING AFFINITY PREDICTED BY RF-SCORE:    0.00 PKD
ROOT
HETATM    1  C   UNL     1      -9.513  11.278  63.052  1.00  0.00    -0.385 C  
HETATM    2  C   UNL     1      -9.376   9.987  63.843  1.00  0.00    -0.315 C  
ENDROOT
BRANCH   2   3
HETATM    3  C   UNL     1      -8.993  10.249  65.301  1.00  0.00    -0.214 C  
BRANCH   3   4
HETATM    4  C   UNL     1     -10.015   9.622  66.255  1.00  0.00    -0.335 C  
BRANCH   4   5
HETATM    5  C   UNL     1     -10.703  10.643  67.173  1.00  0.00    -0.327 C  
BRANCH   5   6
HETATM    6  C   UNL     1     -10.787  12.035  66.587  1.00  0.00    -0.311 A  
HETATM    7  C   UNL     1     -11.778  12.335  65.640  1.00  0.00    -0.440 A  
HETATM    8  C   UNL     1     -11.833  13.592  65.032  1.00  0.00    -0.377 A  
HETATM    9  C   UNL     1     -10.907  14.582  65.372  1.00  0.00    -0.362 A  
HETATM   10  C   UNL     1     -10.925  15.919  64.692  1.00  0.00    -0.323 C  
HETATM   11  C   UNL     1      -9.945  14.307  66.351  1.00  0.00    -0.302 A  
HETATM   12  C   UNL     1      -9.889  13.045  66.946  1.00  0.00    -0.240 A  
HETATM   13  O   UNL     1      -8.932  12.781  67.887  1.00  0.00    -0.170 OA 
HETATM   14  H   UNL     1      -8.322  13.468  68.131  1.00  0.00     0.000 HD 
ENDBRANCH   5   6
ENDBRANCH   4   5
ENDBRANCH   3   4
ENDBRANCH   2   3
TORSDOF 4
ENDMDL
MODEL      110
REMARK 921   NORMALIZED FREE ENERGY PREDICTED BY IDOCK:   -3.57 KCAL/MOL
REMARK 922        TOTAL FREE ENERGY PREDICTED BY IDOCK:   -4.73 KCAL/MOL
REMARK 923 INTER-LIGAND FREE ENERGY PREDICTED BY IDOCK:   -4.46 KCAL/MOL
REMARK 924 INTRA-LIGAND FREE ENERGY PREDICTED BY IDOCK:   -0.27 KCAL/MOL
REMARK 927      BINDING AFFINITY PREDICTED BY RF-SCORE:    0.00 PKD
ROOT
HETATM    1  C   UNL     1     -12.996  13.852  71.648  1.00  0.00    -0.433 C  
HETATM    2  C   UNL     1     -12.531  14.154  70.232  1.00  0.00    -0.416 C  
ENDROOT
BRANCH   2   3
HETATM    3  C   UNL     1     -11.300  15.061  70.217  1.00  0.00    -0.300 C  
BRANCH   3   4
HETATM    4  C   UNL     1     -11.525  16.272  69.304  1.00  0.00    -0.251 C  
BRANCH   4   5
HETATM    5  C   UNL     1     -10.619  16.279  68.064  1.00  0.00    -0.308 C  
BRANCH   5   6
HETATM    6  C   UNL     1      -9.722  17.493  67.967  1.00  0.00    -0.287 A  
HETATM    7  C   UNL     1     -10.177  18.647  67.309  1.00  0.00    -0.413 A  
HETATM    8  C   UNL     1      -9.343  19.755  67.145  1.00  0.00    -0.458 A  
HETATM    9  C   UNL     1      -8.041  19.740  67.651  1.00  0.00    -0.331 A  
HETATM   10  C   UNL     1      -7.120  20.906  67.439  1.00  0.00    -0.418 C  
HETATM   11  C   UNL     1      -7.595  18.613  68.351  1.00  0.00    -0.321 A  
HETATM   12  C   UNL     1      -8.430  17.504  68.502  1.00  0.00    -0.280 A  
HETATM   13  O   UNL     1      -7.977  16.401  69.170  1.00  0.00    -0.239 OA 
HETATM   14  H   UNL     1      -7.099  16.409  69.533  1.00  0.00     0.000 HD 
ENDBRANCH   5   6
ENDBRANCH   4   5
ENDBRANCH   3   4
ENDBRANCH   2   3
TORSDOF 4
ENDMDL
MODEL      111
REMARK 921   NORMALIZED FREE ENERGY PREDICTED BY IDOCK:   -3.57 KCAL/MOL
REMARK 922        TOTAL FREE ENERGY PREDICTED BY IDOCK:   -4.73 KCAL/MOL
REMARK 923 INTER-LIGAND FREE ENERGY PREDICTED BY IDOCK:   -4.25 KCAL/MOL
REMARK 924 INTRA-LIGAND FREE ENERGY PREDICTED BY IDOCK:   -0.48 KCAL/MOL
REMARK 927      BINDING AFFINITY PREDICTED BY RF-SCORE:    0.00 PKD
ROOT
HETATM    1  C   UNL     1      -9.942  19.165  67.198  1.00  0.00    -0.435 C  
HETATM    2  C   UNL     1      -9.099  19.241  68.462  1.00  0.00    -0.425 C  
ENDROOT
BRANCH   2   3
HETATM    3  C   UNL     1      -8.141  18.055  68.580  1.00  0.00    -0.306 C  
BRANCH   3   4
HETATM    4  C   UNL     1      -8.096  17.257  67.272  1.00  0.00    -0.210 C  
BRANCH   4   5
HETATM    5  C   UNL     1      -8.223  15.740  67.474  1.00  0.00    -0.181 C  
BRANCH   5   6
HETATM    6  C   UNL     1      -9.217  15.079  66.547  1.00  0.00    -0.320 A  
HETATM    7  C   UNL     1      -9.989  15.864  65.676  1.00  0.00    -0.368 A  
HETATM    8  C   UNL     1     -10.964  15.285  64.861  1.00  0.00    -0.445 A  
HETATM    9  C   UNL     1     -11.176  13.903  64.886  1.00  0.00    -0.356 A  
HETATM   10  C   UNL     1     -12.252  13.274  64.050  1.00  0.00    -0.475 C  
HETATM   11  C   UNL     1     -10.377  13.107  65.714  1.00  0.00    -0.294 A  
HETATM   12  C   UNL     1      -9.412  13.694  66.536  1.00  0.00    -0.259 A  
HETATM   13  O   UNL     1      -8.651  12.909  67.356  1.00  0.00    -0.175 OA 
HETATM   14  H   UNL     1      -8.784  11.968  67.348  1.00  0.00     0.000 HD 
ENDBRANCH   5   6
ENDBRANCH   4   5
ENDBRANCH   3   4
ENDBRANCH   2   3
TORSDOF 4
ENDMDL
MODEL      112
REMARK 921   NORMALIZED FREE ENERGY PREDICTED BY IDOCK:   -3.53 KCAL/MOL
REMARK 922        TOTAL FREE ENERGY PREDICTED BY IDOCK:   -4.68 KCAL/MOL
REMARK 923 INTER-LIGAND FREE ENERGY PREDICTED BY IDOCK:   -4.28 KCAL/MOL
REMARK 924 INTRA-LIGAND FREE ENERGY PREDICTED BY IDOCK:   -0.40 KCAL/MOL
REMARK 927      BINDING AFFINITY PREDICTED BY RF-SCORE:    0.00 PKD
ROOT
HETATM    1  C   UNL     1      -9.828  17.146  67.787  1.00  0.00    -0.274 C  
HETATM    2  C   UNL     1     -10.103  15.657  67.934  1.00  0.00    -0.225 C  
ENDROOT
BRANCH   2   3
HETATM    3  C   UNL     1     -10.870  15.099  66.734  1.00  0.00    -0.322 C  
BRANCH   3   4
HETATM    4  C   UNL     1     -11.728  13.898  67.147  1.00  0.00    -0.419 C  
BRANCH   4   5
HETATM    5  C   UNL     1     -12.092  13.888  68.639  1.00  0.00    -0.337 C  
BRANCH   5   6
HETATM    6  C   UNL     1     -11.893  12.548  69.310  1.00  0.00    -0.360 A  
HETATM    7  C   UNL     1     -11.252  11.509  68.617  1.00  0.00    -0.307 A  
HETATM    8  C   UNL     1     -11.119  10.240  69.188  1.00  0.00    -0.283 A  
HETATM    9  C   UNL     1     -11.609   9.989  70.472  1.00  0.00    -0.403 A  
HETATM   10  C   UNL     1     -11.515   8.620  71.078  1.00  0.00    -0.324 C  
HETATM   11  C   UNL     1     -12.205  11.032  71.190  1.00  0.00    -0.415 A  
HETATM   12  C   UNL     1     -12.345  12.295  70.608  1.00  0.00    -0.286 A  
HETATM   13  O   UNL     1     -12.947  13.301  71.311  1.00  0.00    -0.328 OA 
HETATM   14  H   UNL     1     -13.254  13.129  72.193  1.00  0.00     0.000 HD 
ENDBRANCH   5   6
ENDBRANCH   4   5
ENDBRANCH   3   4
ENDBRANCH   2   3
TORSDOF 4
ENDMDL
MODEL      113
REMARK 921   NORMALIZED FREE ENERGY PREDICTED BY IDOCK:   -3.53 KCAL/MOL
REMARK 922        TOTAL FREE ENERGY PREDICTED BY IDOCK:   -4.68 KCAL/MOL
REMARK 923 INTER-LIGAND FREE ENERGY PREDICTED BY IDOCK:   -4.37 KCAL/MOL
REMARK 924 INTRA-LIGAND FREE ENERGY PREDICTED BY IDOCK:   -0.31 KCAL/MOL
REMARK 927      BINDING AFFINITY PREDICTED BY RF-SCORE:    0.00 PKD
ROOT
HETATM    1  C   UNL     1     -11.635  10.798  69.036  1.00  0.00    -0.370 C  
HETATM    2  C   UNL     1     -11.936  10.040  70.320  1.00  0.00    -0.264 C  
ENDROOT
BRANCH   2   3
HETATM    3  C   UNL     1     -11.943  10.964  71.539  1.00  0.00     0.043 C  
BRANCH   3   4
HETATM    4  C   UNL     1     -13.270  11.726  71.638  1.00  0.00    -0.368 C  
BRANCH   4   5
HETATM    5  C   UNL     1     -13.150  13.071  72.369  1.00  0.00    -0.380 C  
BRANCH   5   6
HETATM    6  C   UNL     1     -12.520  14.166  71.539  1.00  0.00    -0.423 A  
HETATM    7  C   UNL     1     -12.363  13.991  70.155  1.00  0.00    -0.409 A  
HETATM    8  C   UNL     1     -11.721  14.957  69.377  1.00  0.00    -0.349 A  
HETATM    9  C   UNL     1     -11.237  16.129  69.965  1.00  0.00    -0.359 A  
HETATM   10  C   UNL     1     -10.504  17.153  69.150  1.00  0.00    -0.296 C  
HETATM   11  C   UNL     1     -11.433  16.335  71.336  1.00  0.00    -0.361 A  
HETATM   12  C   UNL     1     -12.066  15.359  72.109  1.00  0.00    -0.407 A  
HETATM   13  O   UNL     1     -12.234  15.562  73.451  1.00  0.00    -0.430 OA 
HETATM   14  H   UNL     1     -11.925  16.373  73.838  1.00  0.00     0.000 HD 
ENDBRANCH   5   6
ENDBRANCH   4   5
ENDBRANCH   3   4
ENDBRANCH   2   3
TORSDOF 4
ENDMDL
MODEL      114
REMARK 921   NORMALIZED FREE ENERGY PREDICTED BY IDOCK:   -3.53 KCAL/MOL
REMARK 922        TOTAL FREE ENERGY PREDICTED BY IDOCK:   -4.68 KCAL/MOL
REMARK 923 INTER-LIGAND FREE ENERGY PREDICTED BY IDOCK:   -4.08 KCAL/MOL
REMARK 924 INTRA-LIGAND FREE ENERGY PREDICTED BY IDOCK:   -0.60 KCAL/MOL
REMARK 927      BINDING AFFINITY PREDICTED BY RF-SCORE:    0.00 PKD
ROOT
HETATM    1  C   UNL     1     -10.011   9.045  67.194  1.00  0.00    -0.286 C  
HETATM    2  C   UNL     1     -10.674   7.685  67.035  1.00  0.00    -0.340 C  
ENDROOT
BRANCH   2   3
HETATM    3  C   UNL     1     -10.094   6.651  68.002  1.00  0.00    -0.175 C  
BRANCH   3   4
HETATM    4  C   UNL     1     -11.155   6.186  69.005  1.00  0.00    -0.437 C  
BRANCH   4   5
HETATM    5  C   UNL     1     -10.839   6.575  70.456  1.00  0.00    -0.323 C  
BRANCH   5   6
HETATM    6  C   UNL     1     -11.462   7.883  70.890  1.00  0.00    -0.294 A  
HETATM    7  C   UNL     1     -12.806   7.916  71.292  1.00  0.00    -0.244 A  
HETATM    8  C   UNL     1     -13.424   9.123  71.629  1.00  0.00    -0.452 A  
HETATM    9  C   UNL     1     -12.705  10.321  71.588  1.00  0.00    -0.561 A  
HETATM   10  C   UNL     1     -13.370  11.629  71.902  1.00  0.00    -0.403 C  
HETATM   11  C   UNL     1     -11.351  10.290  71.235  1.00  0.00    -0.122 A  
HETATM   12  C   UNL     1     -10.742   9.082  70.888  1.00  0.00    -0.253 A  
HETATM   13  O   UNL     1      -9.424   9.066  70.526  1.00  0.00    -0.185 OA 
HETATM   14  H   UNL     1      -8.936   9.881  70.525  1.00  0.00     0.000 HD 
ENDBRANCH   5   6
ENDBRANCH   4   5
ENDBRANCH   3   4
ENDBRANCH   2   3
TORSDOF 4
ENDMDL
MODEL      115
REMARK 921   NORMALIZED FREE ENERGY PREDICTED BY IDOCK:   -3.53 KCAL/MOL
REMARK 922        TOTAL FREE ENERGY PREDICTED BY IDOCK:   -4.68 KCAL/MOL
REMARK 923 INTER-LIGAND FREE ENERGY PREDICTED BY IDOCK:   -4.34 KCAL/MOL
REMARK 924 INTRA-LIGAND FREE ENERGY PREDICTED BY IDOCK:   -0.34 KCAL/MOL
REMARK 927      BINDING AFFINITY PREDICTED BY RF-SCORE:    0.00 PKD
ROOT
HETATM    1  C   UNL     1     -11.717  12.058  63.417  1.00  0.00    -0.519 C  
HETATM    2  C   UNL     1     -11.086  12.634  64.676  1.00  0.00    -0.348 C  
ENDROOT
BRANCH   2   3
HETATM    3  C   UNL     1     -12.141  13.057  65.699  1.00  0.00    -0.507 C  
BRANCH   3   4
HETATM    4  C   UNL     1     -11.693  14.311  66.459  1.00  0.00    -0.409 C  
BRANCH   4   5
HETATM    5  C   UNL     1     -10.172  14.394  66.659  1.00  0.00    -0.277 C  
BRANCH   5   6
HETATM    6  C   UNL     1      -9.648  15.807  66.787  1.00  0.00    -0.253 A  
HETATM    7  C   UNL     1     -10.545  16.872  66.958  1.00  0.00    -0.230 A  
HETATM    8  C   UNL     1     -10.091  18.192  67.008  1.00  0.00    -0.357 A  
HETATM    9  C   UNL     1      -8.726  18.474  66.905  1.00  0.00    -0.287 A  
HETATM   10  C   UNL     1      -8.230  19.890  66.909  1.00  0.00    -0.358 C  
HETATM   11  C   UNL     1      -7.819  17.415  66.784  1.00  0.00    -0.273 A  
HETATM   12  C   UNL     1      -8.281  16.098  66.723  1.00  0.00    -0.269 A  
HETATM   13  O   UNL     1      -7.388  15.072  66.584  1.00  0.00    -0.252 OA 
HETATM   14  H   UNL     1      -6.460  15.270  66.541  1.00  0.00     0.000 HD 
ENDBRANCH   5   6
ENDBRANCH   4   5
ENDBRANCH   3   4
ENDBRANCH   2   3
TORSDOF 4
ENDMDL
MODEL      116
REMARK 921   NORMALIZED FREE ENERGY PREDICTED BY IDOCK:   -3.51 KCAL/MOL
REMARK 922        TOTAL FREE ENERGY PREDICTED BY IDOCK:   -4.66 KCAL/MOL
REMARK 923 INTER-LIGAND FREE ENERGY PREDICTED BY IDOCK:   -4.40 KCAL/MOL
REMARK 924 INTRA-LIGAND FREE ENERGY PREDICTED BY IDOCK:   -0.26 KCAL/MOL
REMARK 927      BINDING AFFINITY PREDICTED BY RF-SCORE:    0.00 PKD
ROOT
HETATM    1  C   UNL     1     -12.387  14.302  71.129  1.00  0.00    -0.440 C  
HETATM    2  C   UNL     1     -11.961  14.480  69.680  1.00  0.00    -0.375 C  
ENDROOT
BRANCH   2   3
HETATM    3  C   UNL     1     -10.502  14.926  69.565  1.00  0.00    -0.213 C  
BRANCH   3   4
HETATM    4  C   UNL     1     -10.413  16.403  69.164  1.00  0.00    -0.303 C  
BRANCH   4   5
HETATM    5  C   UNL     1      -9.955  16.617  67.714  1.00  0.00    -0.262 C  
BRANCH   5   6
HETATM    6  C   UNL     1      -9.010  17.784  67.536  1.00  0.00    -0.244 A  
HETATM    7  C   UNL     1      -7.948  17.966  68.436  1.00  0.00    -0.300 A  
HETATM    8  C   UNL     1      -7.104  19.075  68.335  1.00  0.00    -0.304 A  
HETATM    9  C   UNL     1      -7.294  20.018  67.321  1.00  0.00    -0.292 A  
HETATM   10  C   UNL     1      -6.425  21.237  67.231  1.00  0.00    -0.414 C  
HETATM   11  C   UNL     1      -8.320  19.818  66.390  1.00  0.00    -0.378 A  
HETATM   12  C   UNL     1      -9.167  18.713  66.503  1.00  0.00    -0.320 A  
HETATM   13  O   UNL     1     -10.178  18.539  65.600  1.00  0.00    -0.552 OA 
HETATM   14  H   UNL     1     -10.285  19.171  64.898  1.00  0.00     0.000 HD 
ENDBRANCH   5   6
ENDBRANCH   4   5
ENDBRANCH   3   4
ENDBRANCH   2   3
TORSDOF 4
ENDMDL
MODEL      117
REMARK 921   NORMALIZED FREE ENERGY PREDICTED BY IDOCK:   -3.51 KCAL/MOL
REMARK 922        TOTAL FREE ENERGY PREDICTED BY IDOCK:   -4.65 KCAL/MOL
REMARK 923 INTER-LIGAND FREE ENERGY PREDICTED BY IDOCK:   -4.54 KCAL/MOL
REMARK 924 INTRA-LIGAND FREE ENERGY PREDICTED BY IDOCK:   -0.11 KCAL/MOL
REMARK 927      BINDING AFFINITY PREDICTED BY RF-SCORE:    0.00 PKD
ROOT
HETATM    1  C   UNL     1     -13.021  11.917  71.855  1.00  0.00    -0.434 C  
HETATM    2  C   UNL     1     -12.739  10.568  71.212  1.00  0.00    -0.532 C  
ENDROOT
BRANCH   2   3
HETATM    3  C   UNL     1     -12.854   9.422  72.218  1.00  0.00    -0.452 C  
BRANCH   3   4
HETATM    4  C   UNL     1     -11.770   8.367  71.969  1.00  0.00    -0.417 C  
BRANCH   4   5
HETATM    5  C   UNL     1     -12.301   7.088  71.304  1.00  0.00    -0.426 C  
BRANCH   5   6
HETATM    6  C   UNL     1     -11.283   5.973  71.220  1.00  0.00    -0.323 A  
HETATM    7  C   UNL     1     -10.698   5.653  69.985  1.00  0.00    -0.390 A  
HETATM    8  C   UNL     1      -9.808   4.582  69.868  1.00  0.00    -0.298 A  
HETATM    9  C   UNL     1      -9.472   3.818  70.989  1.00  0.00    -0.239 A  
HETATM   10  C   UNL     1      -8.555   2.637  70.868  1.00  0.00    -0.104 C  
HETATM   11  C   UNL     1     -10.012   4.160  72.234  1.00  0.00    -0.240 A  
HETATM   12  C   UNL     1     -10.910   5.225  72.341  1.00  0.00    -0.224 A  
HETATM   13  O   UNL     1     -11.447   5.538  73.559  1.00  0.00    -0.461 OA 
HETATM   14  H   UNL     1     -11.193   5.030  74.320  1.00  0.00     0.000 HD 
ENDBRANCH   5   6
ENDBRANCH   4   5
ENDBRANCH   3   4
ENDBRANCH   2   3
TORSDOF 4
ENDMDL
MODEL      118
REMARK 921   NORMALIZED FREE ENERGY PREDICTED BY IDOCK:   -3.50 KCAL/MOL
REMARK 922        TOTAL FREE ENERGY PREDICTED BY IDOCK:   -4.64 KCAL/MOL
REMARK 923 INTER-LIGAND FREE ENERGY PREDICTED BY IDOCK:   -4.20 KCAL/MOL
REMARK 924 INTRA-LIGAND FREE ENERGY PREDICTED BY IDOCK:   -0.44 KCAL/MOL
REMARK 927      BINDING AFFINITY PREDICTED BY RF-SCORE:    0.00 PKD
ROOT
HETATM    1  C   UNL     1     -12.078  11.193  70.029  1.00  0.00    -0.437 C  
HETATM    2  C   UNL     1     -12.140  12.672  70.378  1.00  0.00    -0.381 C  
ENDROOT
BRANCH   2   3
HETATM    3  C   UNL     1     -12.133  13.554  69.128  1.00  0.00    -0.331 C  
BRANCH   3   4
HETATM    4  C   UNL     1     -11.032  14.616  69.214  1.00  0.00    -0.278 C  
BRANCH   4   5
HETATM    5  C   UNL     1      -9.750  14.231  68.462  1.00  0.00    -0.225 C  
BRANCH   5   6
HETATM    6  C   UNL     1      -9.999  13.568  67.126  1.00  0.00    -0.246 A  
HETATM    7  C   UNL     1      -9.827  12.182  66.992  1.00  0.00    -0.212 A  
HETATM    8  C   UNL     1      -9.983  11.555  65.753  1.00  0.00    -0.271 A  
HETATM    9  C   UNL     1     -10.330  12.301  64.623  1.00  0.00    -0.330 A  
HETATM   10  C   UNL     1     -10.453  11.649  63.278  1.00  0.00    -0.438 C  
HETATM   11  C   UNL     1     -10.550  13.677  64.757  1.00  0.00    -0.436 A  
HETATM   12  C   UNL     1     -10.382  14.298  65.997  1.00  0.00    -0.309 A  
HETATM   13  O   UNL     1     -10.581  15.646  66.111  1.00  0.00    -0.305 OA 
HETATM   14  H   UNL     1     -10.841  16.142  65.344  1.00  0.00     0.000 HD 
ENDBRANCH   5   6
ENDBRANCH   4   5
ENDBRANCH   3   4
ENDBRANCH   2   3
TORSDOF 4
ENDMDL
MODEL      119
REMARK 921   NORMALIZED FREE ENERGY PREDICTED BY IDOCK:   -3.49 KCAL/MOL
REMARK 922        TOTAL FREE ENERGY PREDICTED BY IDOCK:   -4.63 KCAL/MOL
REMARK 923 INTER-LIGAND FREE ENERGY PREDICTED BY IDOCK:   -4.32 KCAL/MOL
REMARK 924 INTRA-LIGAND FREE ENERGY PREDICTED BY IDOCK:   -0.31 KCAL/MOL
REMARK 927      BINDING AFFINITY PREDICTED BY RF-SCORE:    0.00 PKD
ROOT
HETATM    1  C   UNL     1     -11.019  13.047  65.218  1.00  0.00    -0.307 C  
HETATM    2  C   UNL     1     -10.885  11.633  64.673  1.00  0.00    -0.373 C  
ENDROOT
BRANCH   2   3
HETATM    3  C   UNL     1      -9.762  10.860  65.367  1.00  0.00    -0.287 C  
BRANCH   3   4
HETATM    4  C   UNL     1     -10.286  10.140  66.615  1.00  0.00    -0.287 C  
BRANCH   4   5
HETATM    5  C   UNL     1      -9.929  10.852  67.928  1.00  0.00    -0.195 C  
BRANCH   5   6
HETATM    6  C   UNL     1     -10.766  10.415  69.109  1.00  0.00    -0.266 A  
HETATM    7  C   UNL     1     -10.568   9.145  69.673  1.00  0.00    -0.237 A  
HETATM    8  C   UNL     1     -11.375   8.690  70.719  1.00  0.00    -0.299 A  
HETATM    9  C   UNL     1     -12.388   9.504  71.235  1.00  0.00    -0.430 A  
HETATM   10  C   UNL     1     -13.292   9.010  72.325  1.00  0.00    -0.523 C  
HETATM   11  C   UNL     1     -12.560  10.790  70.711  1.00  0.00    -0.476 A  
HETATM   12  C   UNL     1     -11.757  11.234  69.658  1.00  0.00    -0.350 A  
HETATM   13  O   UNL     1     -11.948  12.485  69.141  1.00  0.00    -0.287 OA 
HETATM   14  H   UNL     1     -12.621  13.042  69.514  1.00  0.00     0.000 HD 
ENDBRANCH   5   6
ENDBRANCH   4   5
ENDBRANCH   3   4
ENDBRANCH   2   3
TORSDOF 4
ENDMDL
MODEL      120
REMARK 921   NORMALIZED FREE ENERGY PREDICTED BY IDOCK:   -3.48 KCAL/MOL
REMARK 922        TOTAL FREE ENERGY PREDICTED BY IDOCK:   -4.62 KCAL/MOL
REMARK 923 INTER-LIGAND FREE ENERGY PREDICTED BY IDOCK:   -4.38 KCAL/MOL
REMARK 924 INTRA-LIGAND FREE ENERGY PREDICTED BY IDOCK:   -0.25 KCAL/MOL
REMARK 927      BINDING AFFINITY PREDICTED BY RF-SCORE:    0.00 PKD
ROOT
HETATM    1  C   UNL     1     -10.760   7.089  67.293  1.00  0.00    -0.412 C  
HETATM    2  C   UNL     1     -10.123   8.390  66.829  1.00  0.00    -0.373 C  
ENDROOT
BRANCH   2   3
HETATM    3  C   UNL     1     -10.671   9.596  67.592  1.00  0.00    -0.324 C  
BRANCH   3   4
HETATM    4  C   UNL     1     -10.494  10.883  66.778  1.00  0.00    -0.302 C  
BRANCH   4   5
HETATM    5  C   UNL     1     -11.680  11.851  66.897  1.00  0.00    -0.291 C  
BRANCH   5   6
HETATM    6  C   UNL     1     -11.584  12.796  68.074  1.00  0.00    -0.388 A  
HETATM    7  C   UNL     1     -12.018  12.378  69.342  1.00  0.00    -0.319 A  
HETATM    8  C   UNL     1     -12.005  13.255  70.429  1.00  0.00    -0.350 A  
HETATM    9  C   UNL     1     -11.543  14.565  70.276  1.00  0.00    -0.328 A  
HETATM   10  C   UNL     1     -11.569  15.530  71.424  1.00  0.00    -0.481 C  
HETATM   11  C   UNL     1     -11.063  14.975  69.026  1.00  0.00    -0.270 A  
HETATM   12  C   UNL     1     -11.089  14.097  67.940  1.00  0.00    -0.268 A  
HETATM   13  O   UNL     1     -10.636  14.515  66.720  1.00  0.00    -0.271 OA 
HETATM   14  H   UNL     1     -10.300  15.399  66.630  1.00  0.00     0.000 HD 
ENDBRANCH   5   6
ENDBRANCH   4   5
ENDBRANCH   3   4
ENDBRANCH   2   3
TORSDOF 4
ENDMDL
MODEL      121
REMARK 921   NORMALIZED FREE ENERGY PREDICTED BY IDOCK:   -3.48 KCAL/MOL
REMARK 922        TOTAL FREE ENERGY PREDICTED BY IDOCK:   -4.62 KCAL/MOL
REMARK 923 INTER-LIGAND FREE ENERGY PREDICTED BY IDOCK:   -4.18 KCAL/MOL
REMARK 924 INTRA-LIGAND FREE ENERGY PREDICTED BY IDOCK:   -0.44 KCAL/MOL
REMARK 927      BINDING AFFINITY PREDICTED BY RF-SCORE:    0.00 PKD
ROOT
HETATM    1  C   UNL     1      -8.303  15.305  69.384  1.00  0.00    -0.232 C  
HETATM    2  C   UNL     1      -9.055  14.989  68.100  1.00  0.00    -0.178 C  
ENDROOT
BRANCH   2   3
HETATM    3  C   UNL     1     -10.566  15.158  68.268  1.00  0.00    -0.243 C  
BRANCH   3   4
HETATM    4  C   UNL     1     -11.315  14.618  67.044  1.00  0.00    -0.362 C  
BRANCH   4   5
HETATM    5  C   UNL     1     -12.088  13.321  67.323  1.00  0.00    -0.341 C  
BRANCH   5   6
HETATM    6  C   UNL     1     -11.296  12.063  67.045  1.00  0.00    -0.396 A  
HETATM    7  C   UNL     1     -10.380  12.036  65.982  1.00  0.00    -0.271 A  
HETATM    8  C   UNL     1      -9.689  10.865  65.661  1.00  0.00    -0.279 A  
HETATM    9  C   UNL     1      -9.886   9.700  66.408  1.00  0.00    -0.309 A  
HETATM   10  C   UNL     1      -9.185   8.425  66.044  1.00  0.00    -0.247 C  
HETATM   11  C   UNL     1     -10.760   9.732  67.500  1.00  0.00    -0.327 A  
HETATM   12  C   UNL     1     -11.457  10.903  67.809  1.00  0.00    -0.243 A  
HETATM   13  O   UNL     1     -12.323  10.917  68.866  1.00  0.00    -0.752 OA 
HETATM   14  H   UNL     1     -12.432  10.128  69.385  1.00  0.00     0.000 HD 
ENDBRANCH   5   6
ENDBRANCH   4   5
ENDBRANCH   3   4
ENDBRANCH   2   3
TORSDOF 4
ENDMDL
MODEL      122
REMARK 921   NORMALIZED FREE ENERGY PREDICTED BY IDOCK:   -3.47 KCAL/MOL
REMARK 922        TOTAL FREE ENERGY PREDICTED BY IDOCK:   -4.61 KCAL/MOL
REMARK 923 INTER-LIGAND FREE ENERGY PREDICTED BY IDOCK:   -4.31 KCAL/MOL
REMARK 924 INTRA-LIGAND FREE ENERGY PREDICTED BY IDOCK:   -0.30 KCAL/MOL
REMARK 927      BINDING AFFINITY PREDICTED BY RF-SCORE:    0.00 PKD
ROOT
HETATM    1  C   UNL     1      -6.299  19.258  68.326  1.00  0.00    -0.254 C  
HETATM    2  C   UNL     1      -7.691  19.819  68.079  1.00  0.00    -0.339 C  
ENDROOT
BRANCH   2   3
HETATM    3  C   UNL     1      -8.784  18.871  68.575  1.00  0.00    -0.382 C  
BRANCH   3   4
HETATM    4  C   UNL     1      -9.115  17.817  67.513  1.00  0.00    -0.244 C  
BRANCH   4   5
HETATM    5  C   UNL     1     -10.616  17.509  67.403  1.00  0.00    -0.311 C  
BRANCH   5   6
HETATM    6  C   UNL     1     -11.006  16.158  67.960  1.00  0.00    -0.338 A  
HETATM    7  C   UNL     1     -11.237  16.010  69.336  1.00  0.00    -0.349 A  
HETATM    8  C   UNL     1     -11.530  14.759  69.885  1.00  0.00    -0.322 A  
HETATM    9  C   UNL     1     -11.615  13.631  69.064  1.00  0.00    -0.356 A  
HETATM   10  C   UNL     1     -11.882  12.274  69.647  1.00  0.00    -0.393 C  
HETATM   11  C   UNL     1     -11.435  13.777  67.684  1.00  0.00    -0.354 A  
HETATM   12  C   UNL     1     -11.131  15.029  67.144  1.00  0.00    -0.332 A  
HETATM   13  O   UNL     1     -10.938  15.157  65.797  1.00  0.00    -0.336 OA 
HETATM   14  H   UNL     1     -11.023  14.390  65.243  1.00  0.00     0.000 HD 
ENDBRANCH   5   6
ENDBRANCH   4   5
ENDBRANCH   3   4
ENDBRANCH   2   3
TORSDOF 4
ENDMDL
MODEL      123
REMARK 921   NORMALIZED FREE ENERGY PREDICTED BY IDOCK:   -3.46 KCAL/MOL
REMARK 922        TOTAL FREE ENERGY PREDICTED BY IDOCK:   -4.59 KCAL/MOL
REMARK 923 INTER-LIGAND FREE ENERGY PREDICTED BY IDOCK:   -4.39 KCAL/MOL
REMARK 924 INTRA-LIGAND FREE ENERGY PREDICTED BY IDOCK:   -0.20 KCAL/MOL
REMARK 927      BINDING AFFINITY PREDICTED BY RF-SCORE:    0.00 PKD
ROOT
HETATM    1  C   UNL     1     -11.834  11.119  69.362  1.00  0.00    -0.415 C  
HETATM    2  C   UNL     1     -12.199  11.793  70.676  1.00  0.00    -0.443 C  
ENDROOT
BRANCH   2   3
HETATM    3  C   UNL     1     -12.210  13.317  70.551  1.00  0.00    -0.416 C  
BRANCH   3   4
HETATM    4  C   UNL     1     -11.902  13.749  69.112  1.00  0.00    -0.398 C  
BRANCH   4   5
HETATM    5  C   UNL     1     -12.023  15.263  68.888  1.00  0.00    -0.292 C  
BRANCH   5   6
HETATM    6  C   UNL     1     -10.818  15.881  68.215  1.00  0.00    -0.315 A  
HETATM    7  C   UNL     1      -9.925  16.664  68.965  1.00  0.00    -0.280 A  
HETATM    8  C   UNL     1      -8.844  17.303  68.353  1.00  0.00    -0.269 A  
HETATM    9  C   UNL     1      -8.623  17.160  66.981  1.00  0.00    -0.239 A  
HETATM   10  C   UNL     1      -7.494  17.880  66.304  1.00  0.00    -0.321 C  
HETATM   11  C   UNL     1      -9.480  16.343  66.235  1.00  0.00    -0.347 A  
HETATM   12  C   UNL     1     -10.565  15.715  66.850  1.00  0.00    -0.311 A  
HETATM   13  O   UNL     1     -11.407  14.935  66.108  1.00  0.00    -0.344 OA 
HETATM   14  H   UNL     1     -11.235  14.822  65.180  1.00  0.00     0.000 HD 
ENDBRANCH   5   6
ENDBRANCH   4   5
ENDBRANCH   3   4
ENDBRANCH   2   3
TORSDOF 4
ENDMDL
MODEL      124
REMARK 921   NORMALIZED FREE ENERGY PREDICTED BY IDOCK:   -3.45 KCAL/MOL
REMARK 922        TOTAL FREE ENERGY PREDICTED BY IDOCK:   -4.58 KCAL/MOL
REMARK 923 INTER-LIGAND FREE ENERGY PREDICTED BY IDOCK:   -3.96 KCAL/MOL
REMARK 924 INTRA-LIGAND FREE ENERGY PREDICTED BY IDOCK:   -0.62 KCAL/MOL
REMARK 927      BINDING AFFINITY PREDICTED BY RF-SCORE:    0.00 PKD
ROOT
HETATM    1  C   UNL     1     -12.423  10.749  71.103  1.00  0.00    -0.519 C  
HETATM    2  C   UNL     1     -11.599  10.551  69.840  1.00  0.00    -0.384 C  
ENDROOT
BRANCH   2   3
HETATM    3  C   UNL     1     -10.235   9.929  70.140  1.00  0.00    -0.326 C  
BRANCH   3   4
HETATM    4  C   UNL     1      -9.885   8.854  69.105  1.00  0.00    -0.180 C  
BRANCH   4   5
HETATM    5  C   UNL     1     -10.818   7.634  69.150  1.00  0.00    -0.082 C  
BRANCH   5   6
HETATM    6  C   UNL     1     -10.741   6.851  70.441  1.00  0.00    -0.278 A  
HETATM    7  C   UNL     1      -9.528   6.262  70.829  1.00  0.00    -0.185 A  
HETATM    8  C   UNL     1      -9.448   5.475  71.980  1.00  0.00    -0.171 A  
HETATM    9  C   UNL     1     -10.578   5.272  72.778  1.00  0.00    -0.276 A  
HETATM   10  C   UNL     1     -10.517   4.391  73.990  1.00  0.00    -0.307 C  
HETATM   11  C   UNL     1     -11.781   5.895  72.424  1.00  0.00    -0.307 A  
HETATM   12  C   UNL     1     -11.856   6.672  71.266  1.00  0.00    -0.350 A  
HETATM   13  O   UNL     1     -13.041   7.259  70.920  1.00  0.00    -0.594 OA 
HETATM   14  H   UNL     1     -13.798   7.138  71.481  1.00  0.00     0.000 HD 
ENDBRANCH   5   6
ENDBRANCH   4   5
ENDBRANCH   3   4
ENDBRANCH   2   3
TORSDOF 4
ENDMDL
MODEL      125
REMARK 921   NORMALIZED FREE ENERGY PREDICTED BY IDOCK:   -3.45 KCAL/MOL
REMARK 922        TOTAL FREE ENERGY PREDICTED BY IDOCK:   -4.58 KCAL/MOL
REMARK 923 INTER-LIGAND FREE ENERGY PREDICTED BY IDOCK:   -3.98 KCAL/MOL
REMARK 924 INTRA-LIGAND FREE ENERGY PREDICTED BY IDOCK:   -0.60 KCAL/MOL
REMARK 927      BINDING AFFINITY PREDICTED BY RF-SCORE:    0.00 PKD
ROOT
HETATM    1  C   UNL     1     -10.588   6.019  69.539  1.00  0.00    -0.363 C  
HETATM    2  C   UNL     1      -9.452   5.213  70.152  1.00  0.00    -0.229 C  
ENDROOT
BRANCH   2   3
HETATM    3  C   UNL     1      -9.510   5.218  71.680  1.00  0.00    -0.187 C  
BRANCH   3   4
HETATM    4  C   UNL     1      -8.254   5.868  72.272  1.00  0.00    -0.111 C  
BRANCH   4   5
HETATM    5  C   UNL     1      -8.544   7.149  73.066  1.00  0.00    -0.144 C  
BRANCH   5   6
HETATM    6  C   UNL     1      -9.707   7.953  72.531  1.00  0.00    -0.290 A  
HETATM    7  C   UNL     1     -11.008   7.685  72.985  1.00  0.00    -0.457 A  
HETATM    8  C   UNL     1     -12.108   8.365  72.454  1.00  0.00    -0.443 A  
HETATM    9  C   UNL     1     -11.927   9.340  71.469  1.00  0.00    -0.439 A  
HETATM   10  C   UNL     1     -13.103  10.043  70.857  1.00  0.00    -0.381 C  
HETATM   11  C   UNL     1     -10.629   9.647  71.045  1.00  0.00    -0.362 A  
HETATM   12  C   UNL     1      -9.535   8.956  71.572  1.00  0.00    -0.277 A  
HETATM   13  O   UNL     1      -8.274   9.251  71.136  1.00  0.00    -0.298 OA 
HETATM   14  H   UNL     1      -8.157   9.933  70.485  1.00  0.00     0.000 HD 
ENDBRANCH   5   6
ENDBRANCH   4   5
ENDBRANCH   3   4
ENDBRANCH   2   3
TORSDOF 4
ENDMDL
MODEL      126
REMARK 921   NORMALIZED FREE ENERGY PREDICTED BY IDOCK:   -3.43 KCAL/MOL
REMARK 922        TOTAL FREE ENERGY PREDICTED BY IDOCK:   -4.56 KCAL/MOL
REMARK 923 INTER-LIGAND FREE ENERGY PREDICTED BY IDOCK:   -4.28 KCAL/MOL
REMARK 924 INTRA-LIGAND FREE ENERGY PREDICTED BY IDOCK:   -0.28 KCAL/MOL
REMARK 927      BINDING AFFINITY PREDICTED BY RF-SCORE:    0.00 PKD
ROOT
HETATM    1  C   UNL     1     -10.728   8.732  70.309  1.00  0.00    -0.249 C  
HETATM    2  C   UNL     1     -11.294   9.959  71.007  1.00  0.00    -0.460 C  
ENDROOT
BRANCH   2   3
HETATM    3  C   UNL     1     -11.875  10.964  70.011  1.00  0.00    -0.428 C  
BRANCH   3   4
HETATM    4  C   UNL     1     -11.468  10.609  68.577  1.00  0.00    -0.333 C  
BRANCH   4   5
HETATM    5  C   UNL     1     -10.297  11.449  68.047  1.00  0.00    -0.204 C  
BRANCH   5   6
HETATM    6  C   UNL     1     -10.710  12.532  67.075  1.00  0.00    -0.268 A  
HETATM    7  C   UNL     1     -12.072  12.768  66.831  1.00  0.00    -0.267 A  
HETATM    8  C   UNL     1     -12.478  13.714  65.886  1.00  0.00    -0.502 A  
HETATM    9  C   UNL     1     -11.530  14.457  65.177  1.00  0.00    -0.362 A  
HETATM   10  C   UNL     1     -11.952  15.441  64.127  1.00  0.00    -0.111 C  
HETATM   11  C   UNL     1     -10.171  14.263  65.450  1.00  0.00    -0.395 A  
HETATM   12  C   UNL     1      -9.772  13.308  66.388  1.00  0.00    -0.276 A  
HETATM   13  O   UNL     1      -8.441  13.113  66.632  1.00  0.00    -0.422 OA 
HETATM   14  H   UNL     1      -7.803  13.640  66.165  1.00  0.00     0.000 HD 
ENDBRANCH   5   6
ENDBRANCH   4   5
ENDBRANCH   3   4
ENDBRANCH   2   3
TORSDOF 4
ENDMDL
MODEL      127
REMARK 921   NORMALIZED FREE ENERGY PREDICTED BY IDOCK:   -3.43 KCAL/MOL
REMARK 922        TOTAL FREE ENERGY PREDICTED BY IDOCK:   -4.56 KCAL/MOL
REMARK 923 INTER-LIGAND FREE ENERGY PREDICTED BY IDOCK:   -4.10 KCAL/MOL
REMARK 924 INTRA-LIGAND FREE ENERGY PREDICTED BY IDOCK:   -0.45 KCAL/MOL
REMARK 927      BINDING AFFINITY PREDICTED BY RF-SCORE:    0.00 PKD
ROOT
HETATM    1  C   UNL     1     -13.006   8.863  71.920  1.00  0.00    -0.436 C  
HETATM    2  C   UNL     1     -11.775   7.971  71.860  1.00  0.00    -0.351 C  
ENDROOT
BRANCH   2   3
HETATM    3  C   UNL     1     -11.962   6.807  70.885  1.00  0.00    -0.437 C  
BRANCH   3   4
HETATM    4  C   UNL     1     -10.669   5.996  70.748  1.00  0.00    -0.340 C  
BRANCH   4   5
HETATM    5  C   UNL     1     -10.221   5.797  69.293  1.00  0.00    -0.292 C  
BRANCH   5   6
HETATM    6  C   UNL     1     -10.004   7.088  68.536  1.00  0.00    -0.158 A  
HETATM    7  C   UNL     1      -9.236   8.113  69.111  1.00  0.00    -0.151 A  
HETATM    8  C   UNL     1      -9.078   9.341  68.463  1.00  0.00    -0.132 A  
HETATM    9  C   UNL     1      -9.673   9.564  67.218  1.00  0.00    -0.215 A  
HETATM   10  C   UNL     1      -9.551  10.894  66.535  1.00  0.00    -0.224 C  
HETATM   11  C   UNL     1     -10.400   8.531  66.615  1.00  0.00    -0.303 A  
HETATM   12  C   UNL     1     -10.562   7.309  67.274  1.00  0.00    -0.325 A  
HETATM   13  O   UNL     1     -11.291   6.314  66.684  1.00  0.00    -0.741 OA 
HETATM   14  H   UNL     1     -11.670   6.465  65.826  1.00  0.00     0.000 HD 
ENDBRANCH   5   6
ENDBRANCH   4   5
ENDBRANCH   3   4
ENDBRANCH   2   3
TORSDOF 4
ENDMDL
MODEL      128
REMARK 921   NORMALIZED FREE ENERGY PREDICTED BY IDOCK:   -3.42 KCAL/MOL
REMARK 922        TOTAL FREE ENERGY PREDICTED BY IDOCK:   -4.55 KCAL/MOL
REMARK 923 INTER-LIGAND FREE ENERGY PREDICTED BY IDOCK:   -4.15 KCAL/MOL
REMARK 924 INTRA-LIGAND FREE ENERGY PREDICTED BY IDOCK:   -0.40 KCAL/MOL
REMARK 927      BINDING AFFINITY PREDICTED BY RF-SCORE:    0.00 PKD
ROOT
HETATM    1  C   UNL     1     -11.953  14.380  67.106  1.00  0.00    -0.419 C  
HETATM    2  C   UNL     1     -12.045  13.709  65.744  1.00  0.00    -0.463 C  
ENDROOT
BRANCH   2   3
HETATM    3  C   UNL     1     -11.831  12.198  65.837  1.00  0.00    -0.342 C  
BRANCH   3   4
HETATM    4  C   UNL     1     -10.381  11.830  65.506  1.00  0.00    -0.304 C  
BRANCH   4   5
HETATM    5  C   UNL     1      -9.548  11.449  66.739  1.00  0.00    -0.207 C  
BRANCH   5   6
HETATM    6  C   UNL     1      -9.864  10.078  67.292  1.00  0.00    -0.225 A  
HETATM    7  C   UNL     1     -10.020   8.991  66.417  1.00  0.00    -0.370 A  
HETATM    8  C   UNL     1     -10.380   7.730  66.897  1.00  0.00    -0.396 A  
HETATM    9  C   UNL     1     -10.576   7.524  68.265  1.00  0.00    -0.185 A  
HETATM   10  C   UNL     1     -11.010   6.186  68.788  1.00  0.00    -0.421 C  
HETATM   11  C   UNL     1     -10.375   8.590  69.150  1.00  0.00    -0.227 A  
HETATM   12  C   UNL     1     -10.025   9.851  68.662  1.00  0.00    -0.164 A  
HETATM   13  O   UNL     1      -9.851  10.890  69.534  1.00  0.00    -0.425 OA 
HETATM   14  H   UNL     1      -9.961  10.735  70.465  1.00  0.00     0.000 HD 
ENDBRANCH   5   6
ENDBRANCH   4   5
ENDBRANCH   3   4
ENDBRANCH   2   3
TORSDOF 4
ENDMDL
MODEL      129
REMARK 921   NORMALIZED FREE ENERGY PREDICTED BY IDOCK:   -3.40 KCAL/MOL
REMARK 922        TOTAL FREE ENERGY PREDICTED BY IDOCK:   -4.52 KCAL/MOL
REMARK 923 INTER-LIGAND FREE ENERGY PREDICTED BY IDOCK:   -4.00 KCAL/MOL
REMARK 924 INTRA-LIGAND FREE ENERGY PREDICTED BY IDOCK:   -0.52 KCAL/MOL
REMARK 927      BINDING AFFINITY PREDICTED BY RF-SCORE:    0.00 PKD
ROOT
HETATM    1  C   UNL     1     -10.397   5.740  71.955  1.00  0.00    -0.263 C  
HETATM    2  C   UNL     1     -11.897   5.723  72.208  1.00  0.00    -0.215 C  
ENDROOT
BRANCH   2   3
HETATM    3  C   UNL     1     -12.557   7.044  71.810  1.00  0.00    -0.388 C  
BRANCH   3   4
HETATM    4  C   UNL     1     -11.754   8.237  72.343  1.00  0.00    -0.463 C  
BRANCH   4   5
HETATM    5  C   UNL     1     -11.924   9.513  71.506  1.00  0.00    -0.475 C  
BRANCH   5   6
HETATM    6  C   UNL     1     -10.914   9.652  70.389  1.00  0.00    -0.356 A  
HETATM    7  C   UNL     1      -9.607   9.171  70.566  1.00  0.00    -0.293 A  
HETATM    8  C   UNL     1      -8.636   9.350  69.577  1.00  0.00    -0.158 A  
HETATM    9  C   UNL     1      -8.957  10.000  68.382  1.00  0.00    -0.121 A  
HETATM   10  C   UNL     1      -7.912  10.241  67.333  1.00  0.00    -0.107 C  
HETATM   11  C   UNL     1     -10.270  10.440  68.177  1.00  0.00    -0.187 A  
HETATM   12  C   UNL     1     -11.233  10.267  69.174  1.00  0.00    -0.215 A  
HETATM   13  O   UNL     1     -12.507  10.718  68.971  1.00  0.00    -0.757 OA 
HETATM   14  H   UNL     1     -12.723  11.136  68.146  1.00  0.00     0.000 HD 
ENDBRANCH   5   6
ENDBRANCH   4   5
ENDBRANCH   3   4
ENDBRANCH   2   3
TORSDOF 4
ENDMDL
MODEL      130
REMARK 921   NORMALIZED FREE ENERGY PREDICTED BY IDOCK:   -3.39 KCAL/MOL
REMARK 922        TOTAL FREE ENERGY PREDICTED BY IDOCK:   -4.50 KCAL/MOL
REMARK 923 INTER-LIGAND FREE ENERGY PREDICTED BY IDOCK:   -4.19 KCAL/MOL
REMARK 924 INTRA-LIGAND FREE ENERGY PREDICTED BY IDOCK:   -0.31 KCAL/MOL
REMARK 927      BINDING AFFINITY PREDICTED BY RF-SCORE:    0.00 PKD
ROOT
HETATM    1  C   UNL     1      -9.525   3.185  72.229  1.00  0.00    -0.187 C  
HETATM    2  C   UNL     1     -10.288   3.137  73.544  1.00  0.00    -0.224 C  
ENDROOT
BRANCH   2   3
HETATM    3  C   UNL     1     -11.101   4.411  73.778  1.00  0.00    -0.323 C  
BRANCH   3   4
HETATM    4  C   UNL     1     -10.762   5.475  72.729  1.00  0.00    -0.290 C  
BRANCH   4   5
HETATM    5  C   UNL     1     -12.000   6.112  72.080  1.00  0.00    -0.310 C  
BRANCH   5   6
HETATM    6  C   UNL     1     -11.721   7.425  71.385  1.00  0.00    -0.316 A  
HETATM    7  C   UNL     1     -10.871   7.458  70.269  1.00  0.00    -0.260 A  
HETATM    8  C   UNL     1     -10.541   8.668  69.653  1.00  0.00    -0.219 A  
HETATM    9  C   UNL     1     -11.069   9.871  70.130  1.00  0.00    -0.353 A  
HETATM   10  C   UNL     1     -10.686  11.181  69.508  1.00  0.00    -0.193 C  
HETATM   11  C   UNL     1     -11.956   9.843  71.213  1.00  0.00    -0.489 A  
HETATM   12  C   UNL     1     -12.272   8.630  71.831  1.00  0.00    -0.355 A  
HETATM   13  O   UNL     1     -13.124   8.617  72.900  1.00  0.00    -0.671 OA 
HETATM   14  H   UNL     1     -13.499   9.436  73.202  1.00  0.00     0.000 HD 
ENDBRANCH   5   6
ENDBRANCH   4   5
ENDBRANCH   3   4
ENDBRANCH   2   3
TORSDOF 4
ENDMDL
MODEL      131
REMARK 921   NORMALIZED FREE ENERGY PREDICTED BY IDOCK:   -3.39 KCAL/MOL
REMARK 922        TOTAL FREE ENERGY PREDICTED BY IDOCK:   -4.50 KCAL/MOL
REMARK 923 INTER-LIGAND FREE ENERGY PREDICTED BY IDOCK:   -4.05 KCAL/MOL
REMARK 924 INTRA-LIGAND FREE ENERGY PREDICTED BY IDOCK:   -0.45 KCAL/MOL
REMARK 927      BINDING AFFINITY PREDICTED BY RF-SCORE:    0.00 PKD
ROOT
HETATM    1  C   UNL     1     -12.105  13.885  64.140  1.00  0.00    -0.464 C  
HETATM    2  C   UNL     1     -12.501  12.628  64.901  1.00  0.00    -0.564 C  
ENDROOT
BRANCH   2   3
HETATM    3  C   UNL     1     -11.660  12.437  66.164  1.00  0.00    -0.452 C  
BRANCH   3   4
HETATM    4  C   UNL     1     -11.776  13.656  67.086  1.00  0.00    -0.418 C  
BRANCH   4   5
HETATM    5  C   UNL     1     -10.638  13.758  68.112  1.00  0.00    -0.260 C  
BRANCH   5   6
HETATM    6  C   UNL     1      -9.595  14.798  67.771  1.00  0.00    -0.209 A  
HETATM    7  C   UNL     1      -9.932  15.878  66.941  1.00  0.00    -0.253 A  
HETATM    8  C   UNL     1      -8.969  16.813  66.554  1.00  0.00    -0.304 A  
HETATM    9  C   UNL     1      -7.651  16.697  67.003  1.00  0.00    -0.237 A  
HETATM   10  C   UNL     1      -6.597  17.666  66.556  1.00  0.00    -0.262 C  
HETATM   11  C   UNL     1      -7.317  15.650  67.870  1.00  0.00    -0.151 A  
HETATM   12  C   UNL     1      -8.282  14.712  68.244  1.00  0.00    -0.146 A  
HETATM   13  O   UNL     1      -7.940  13.682  69.075  1.00  0.00    -0.328 OA 
HETATM   14  H   UNL     1      -7.047  13.625  69.396  1.00  0.00     0.000 HD 
ENDBRANCH   5   6
ENDBRANCH   4   5
ENDBRANCH   3   4
ENDBRANCH   2   3
TORSDOF 4
ENDMDL
MODEL      132
REMARK 921   NORMALIZED FREE ENERGY PREDICTED BY IDOCK:   -3.37 KCAL/MOL
REMARK 922        TOTAL FREE ENERGY PREDICTED BY IDOCK:   -4.49 KCAL/MOL
REMARK 923 INTER-LIGAND FREE ENERGY PREDICTED BY IDOCK:   -4.11 KCAL/MOL
REMARK 924 INTRA-LIGAND FREE ENERGY PREDICTED BY IDOCK:   -0.38 KCAL/MOL
REMARK 927      BINDING AFFINITY PREDICTED BY RF-SCORE:    0.00 PKD
ROOT
HETATM    1  C   UNL     1     -13.634   8.642  72.016  1.00  0.00    -0.451 C  
HETATM    2  C   UNL     1     -12.118   8.649  72.140  1.00  0.00    -0.451 C  
ENDROOT
BRANCH   2   3
HETATM    3  C   UNL     1     -11.451   7.854  71.016  1.00  0.00    -0.298 C  
BRANCH   3   4
HETATM    4  C   UNL     1     -10.277   8.636  70.416  1.00  0.00    -0.218 C  
BRANCH   4   5
HETATM    5  C   UNL     1     -10.486   9.022  68.945  1.00  0.00    -0.231 C  
BRANCH   5   6
HETATM    6  C   UNL     1     -10.568  10.513  68.708  1.00  0.00    -0.233 A  
HETATM    7  C   UNL     1      -9.432  11.214  68.273  1.00  0.00    -0.182 A  
HETATM    8  C   UNL     1      -9.462  12.602  68.114  1.00  0.00    -0.218 A  
HETATM    9  C   UNL     1     -10.635  13.317  68.371  1.00  0.00    -0.263 A  
HETATM   10  C   UNL     1     -10.667  14.812  68.251  1.00  0.00    -0.242 C  
HETATM   11  C   UNL     1     -11.786  12.621  68.758  1.00  0.00    -0.364 A  
HETATM   12  C   UNL     1     -11.746  11.234  68.926  1.00  0.00    -0.341 A  
HETATM   13  O   UNL     1     -12.871  10.567  69.323  1.00  0.00    -0.617 OA 
HETATM   14  H   UNL     1     -13.671  11.058  69.471  1.00  0.00     0.000 HD 
ENDBRANCH   5   6
ENDBRANCH   4   5
ENDBRANCH   3   4
ENDBRANCH   2   3
TORSDOF 4
ENDMDL
MODEL      133
REMARK 921   NORMALIZED FREE ENERGY PREDICTED BY IDOCK:   -3.37 KCAL/MOL
REMARK 922        TOTAL FREE ENERGY PREDICTED BY IDOCK:   -4.48 KCAL/MOL
REMARK 923 INTER-LIGAND FREE ENERGY PREDICTED BY IDOCK:   -4.19 KCAL/MOL
REMARK 924 INTRA-LIGAND FREE ENERGY PREDICTED BY IDOCK:   -0.29 KCAL/MOL
REMARK 927      BINDING AFFINITY PREDICTED BY RF-SCORE:    0.00 PKD
ROOT
HETATM    1  C   UNL     1      -9.788  13.027  66.770  1.00  0.00    -0.243 C  
HETATM    2  C   UNL     1     -10.652  13.352  67.979  1.00  0.00    -0.252 C  
ENDROOT
BRANCH   2   3
HETATM    3  C   UNL     1     -11.748  12.307  68.194  1.00  0.00    -0.408 C  
BRANCH   3   4
HETATM    4  C   UNL     1     -11.597  11.632  69.562  1.00  0.00    -0.397 C  
BRANCH   4   5
HETATM    5  C   UNL     1     -10.480  10.579  69.606  1.00  0.00    -0.257 C  
BRANCH   5   6
HETATM    6  C   UNL     1     -10.859   9.313  70.341  1.00  0.00    -0.302 A  
HETATM    7  C   UNL     1     -11.189   9.370  71.704  1.00  0.00    -0.431 A  
HETATM    8  C   UNL     1     -11.474   8.207  72.423  1.00  0.00    -0.462 A  
HETATM    9  C   UNL     1     -11.452   6.961  71.789  1.00  0.00    -0.310 A  
HETATM   10  C   UNL     1     -11.709   5.700  72.560  1.00  0.00    -0.255 C  
HETATM   11  C   UNL     1     -11.172   6.900  70.419  1.00  0.00    -0.359 A  
HETATM   12  C   UNL     1     -10.877   8.066  69.709  1.00  0.00    -0.194 A  
HETATM   13  O   UNL     1     -10.585   7.992  68.375  1.00  0.00    -0.324 OA 
HETATM   14  H   UNL     1     -10.597   7.145  67.946  1.00  0.00     0.000 HD 
ENDBRANCH   5   6
ENDBRANCH   4   5
ENDBRANCH   3   4
ENDBRANCH   2   3
TORSDOF 4
ENDMDL
MODEL      134
REMARK 921   NORMALIZED FREE ENERGY PREDICTED BY IDOCK:   -3.35 KCAL/MOL
REMARK 922        TOTAL FREE ENERGY PREDICTED BY IDOCK:   -4.46 KCAL/MOL
REMARK 923 INTER-LIGAND FREE ENERGY PREDICTED BY IDOCK:   -3.82 KCAL/MOL
REMARK 924 INTRA-LIGAND FREE ENERGY PREDICTED BY IDOCK:   -0.64 KCAL/MOL
REMARK 927      BINDING AFFINITY PREDICTED BY RF-SCORE:    0.00 PKD
ROOT
HETATM    1  C   UNL     1     -10.392   9.458  70.403  1.00  0.00    -0.318 C  
HETATM    2  C   UNL     1     -11.603   9.838  71.242  1.00  0.00    -0.465 C  
ENDROOT
BRANCH   2   3
HETATM    3  C   UNL     1     -12.552  10.768  70.484  1.00  0.00    -0.421 C  
BRANCH   3   4
HETATM    4  C   UNL     1     -11.968  12.182  70.386  1.00  0.00    -0.360 C  
BRANCH   4   5
HETATM    5  C   UNL     1     -12.007  12.763  68.965  1.00  0.00    -0.288 C  
BRANCH   5   6
HETATM    6  C   UNL     1     -10.890  12.273  68.071  1.00  0.00    -0.253 A  
HETATM    7  C   UNL     1     -11.117  11.201  67.195  1.00  0.00    -0.352 A  
HETATM    8  C   UNL     1     -10.083  10.684  66.410  1.00  0.00    -0.279 A  
HETATM    9  C   UNL     1      -8.802  11.240  66.473  1.00  0.00    -0.180 A  
HETATM   10  C   UNL     1      -7.672  10.665  65.672  1.00  0.00    -0.109 C  
HETATM   11  C   UNL     1      -8.579  12.341  67.308  1.00  0.00    -0.183 A  
HETATM   12  C   UNL     1      -9.615  12.846  68.098  1.00  0.00    -0.223 A  
HETATM   13  O   UNL     1      -9.380  13.909  68.925  1.00  0.00    -0.387 OA 
HETATM   14  H   UNL     1      -8.513  14.298  68.943  1.00  0.00     0.000 HD 
ENDBRANCH   5   6
ENDBRANCH   4   5
ENDBRANCH   3   4
ENDBRANCH   2   3
TORSDOF 4
ENDMDL
MODEL      135
REMARK 921   NORMALIZED FREE ENERGY PREDICTED BY IDOCK:   -3.35 KCAL/MOL
REMARK 922        TOTAL FREE ENERGY PREDICTED BY IDOCK:   -4.45 KCAL/MOL
REMARK 923 INTER-LIGAND FREE ENERGY PREDICTED BY IDOCK:   -4.02 KCAL/MOL
REMARK 924 INTRA-LIGAND FREE ENERGY PREDICTED BY IDOCK:   -0.43 KCAL/MOL
REMARK 927      BINDING AFFINITY PREDICTED BY RF-SCORE:    0.00 PKD
ROOT
HETATM    1  C   UNL     1     -12.735  10.173  71.337  1.00  0.00    -0.530 C  
HETATM    2  C   UNL     1     -11.598   9.196  71.082  1.00  0.00    -0.386 C  
ENDROOT
BRANCH   2   3
HETATM    3  C   UNL     1     -11.197   8.444  72.352  1.00  0.00    -0.438 C  
BRANCH   3   4
HETATM    4  C   UNL     1     -10.346   7.215  72.013  1.00  0.00    -0.214 C  
BRANCH   4   5
HETATM    5  C   UNL     1     -11.151   6.066  71.389  1.00  0.00    -0.336 C  
BRANCH   5   6
HETATM    6  C   UNL     1     -10.645   5.629  70.033  1.00  0.00    -0.388 A  
HETATM    7  C   UNL     1     -11.039   6.330  68.882  1.00  0.00    -0.434 A  
HETATM    8  C   UNL     1     -10.643   5.904  67.612  1.00  0.00    -0.335 A  
HETATM    9  C   UNL     1      -9.830   4.777  67.466  1.00  0.00    -0.206 A  
HETATM   10  C   UNL     1      -9.437   4.282  66.106  1.00  0.00    -0.181 C  
HETATM   11  C   UNL     1      -9.392   4.101  68.611  1.00  0.00    -0.219 A  
HETATM   12  C   UNL     1      -9.801   4.525  69.877  1.00  0.00    -0.227 A  
HETATM   13  O   UNL     1      -9.384   3.845  70.987  1.00  0.00    -0.125 OA 
HETATM   14  H   UNL     1      -8.811   3.095  70.881  1.00  0.00     0.000 HD 
ENDBRANCH   5   6
ENDBRANCH   4   5
ENDBRANCH   3   4
ENDBRANCH   2   3
TORSDOF 4
ENDMDL
MODEL      136
REMARK 921   NORMALIZED FREE ENERGY PREDICTED BY IDOCK:   -3.34 KCAL/MOL
REMARK 922        TOTAL FREE ENERGY PREDICTED BY IDOCK:   -4.45 KCAL/MOL
REMARK 923 INTER-LIGAND FREE ENERGY PREDICTED BY IDOCK:   -4.03 KCAL/MOL
REMARK 924 INTRA-LIGAND FREE ENERGY PREDICTED BY IDOCK:   -0.42 KCAL/MOL
REMARK 927      BINDING AFFINITY PREDICTED BY RF-SCORE:    0.00 PKD
ROOT
HETATM    1  C   UNL     1      -9.077   9.867  64.852  1.00  0.00    -0.271 C  
HETATM    2  C   UNL     1      -9.890  10.931  64.129  1.00  0.00    -0.369 C  
ENDROOT
BRANCH   2   3
HETATM    3  C   UNL     1     -10.860  11.645  65.071  1.00  0.00    -0.346 C  
BRANCH   3   4
HETATM    4  C   UNL     1     -10.766  11.071  66.489  1.00  0.00    -0.298 C  
BRANCH   4   5
HETATM    5  C   UNL     1     -11.433  11.954  67.553  1.00  0.00    -0.396 C  
BRANCH   5   6
HETATM    6  C   UNL     1     -10.827  13.335  67.672  1.00  0.00    -0.273 A  
HETATM    7  C   UNL     1      -9.597  13.503  68.325  1.00  0.00    -0.218 A  
HETATM    8  C   UNL     1      -9.050  14.776  68.510  1.00  0.00    -0.187 A  
HETATM    9  C   UNL     1      -9.716  15.906  68.029  1.00  0.00    -0.216 A  
HETATM   10  C   UNL     1      -9.164  17.282  68.262  1.00  0.00    -0.265 C  
HETATM   11  C   UNL     1     -10.919  15.744  67.333  1.00  0.00    -0.279 A  
HETATM   12  C   UNL     1     -11.466  14.470  67.162  1.00  0.00    -0.368 A  
HETATM   13  O   UNL     1     -12.652  14.325  66.498  1.00  0.00    -0.545 OA 
HETATM   14  H   UNL     1     -13.085  15.096  66.152  1.00  0.00     0.000 HD 
ENDBRANCH   5   6
ENDBRANCH   4   5
ENDBRANCH   3   4
ENDBRANCH   2   3
TORSDOF 4
ENDMDL
MODEL      137
REMARK 921   NORMALIZED FREE ENERGY PREDICTED BY IDOCK:   -3.33 KCAL/MOL
REMARK 922        TOTAL FREE ENERGY PREDICTED BY IDOCK:   -4.44 KCAL/MOL
REMARK 923 INTER-LIGAND FREE ENERGY PREDICTED BY IDOCK:   -4.19 KCAL/MOL
REMARK 924 INTRA-LIGAND FREE ENERGY PREDICTED BY IDOCK:   -0.25 KCAL/MOL
REMARK 927      BINDING AFFINITY PREDICTED BY RF-SCORE:    0.00 PKD
ROOT
HETATM    1  C   UNL     1     -10.933   6.205  68.393  1.00  0.00    -0.391 C  
HETATM    2  C   UNL     1     -10.755   6.678  66.958  1.00  0.00    -0.437 C  
ENDROOT
BRANCH   2   3
HETATM    3  C   UNL     1     -10.619   8.199  66.873  1.00  0.00    -0.311 C  
BRANCH   3   4
HETATM    4  C   UNL     1      -9.245   8.594  66.319  1.00  0.00    -0.257 C  
BRANCH   4   5
HETATM    5  C   UNL     1      -8.942  10.094  66.444  1.00  0.00    -0.163 C  
BRANCH   5   6
HETATM    6  C   UNL     1      -9.827  10.971  65.587  1.00  0.00    -0.287 A  
HETATM    7  C   UNL     1     -10.949  11.596  66.152  1.00  0.00    -0.339 A  
HETATM    8  C   UNL     1     -11.821  12.354  65.366  1.00  0.00    -0.460 A  
HETATM    9  C   UNL     1     -11.579  12.517  63.999  1.00  0.00    -0.485 A  
HETATM   10  C   UNL     1     -12.533  13.288  63.135  1.00  0.00    -0.063 C  
HETATM   11  C   UNL     1     -10.436  11.938  63.436  1.00  0.00    -0.487 A  
HETATM   12  C   UNL     1      -9.574  11.172  64.226  1.00  0.00    -0.252 A  
HETATM   13  O   UNL     1      -8.471  10.595  63.661  1.00  0.00    -0.260 OA 
HETATM   14  H   UNL     1      -8.300  10.732  62.737  1.00  0.00     0.000 HD 
ENDBRANCH   5   6
ENDBRANCH   4   5
ENDBRANCH   3   4
ENDBRANCH   2   3
TORSDOF 4
ENDMDL
MODEL      138
REMARK 921   NORMALIZED FREE ENERGY PREDICTED BY IDOCK:   -3.32 KCAL/MOL
REMARK 922        TOTAL FREE ENERGY PREDICTED BY IDOCK:   -4.42 KCAL/MOL
REMARK 923 INTER-LIGAND FREE ENERGY PREDICTED BY IDOCK:   -3.78 KCAL/MOL
REMARK 924 INTRA-LIGAND FREE ENERGY PREDICTED BY IDOCK:   -0.64 KCAL/MOL
REMARK 927      BINDING AFFINITY PREDICTED BY RF-SCORE:    0.00 PKD
ROOT
HETATM    1  C   UNL     1     -11.574  10.779  68.884  1.00  0.00    -0.361 C  
HETATM    2  C   UNL     1     -12.539  10.819  70.060  1.00  0.00    -0.247 C  
ENDROOT
BRANCH   2   3
HETATM    3  C   UNL     1     -12.067  11.780  71.152  1.00  0.00    -0.037 C  
BRANCH   3   4
HETATM    4  C   UNL     1     -12.643  13.183  70.931  1.00  0.00    -0.377 C  
BRANCH   4   5
HETATM    5  C   UNL     1     -11.573  14.245  70.640  1.00  0.00    -0.209 C  
BRANCH   5   6
HETATM    6  C   UNL     1     -11.246  14.401  69.172  1.00  0.00    -0.300 A  
HETATM    7  C   UNL     1     -12.247  14.197  68.209  1.00  0.00    -0.196 A  
HETATM    8  C   UNL     1     -11.954  14.265  66.844  1.00  0.00    -0.467 A  
HETATM    9  C   UNL     1     -10.656  14.556  66.414  1.00  0.00    -0.302 A  
HETATM   10  C   UNL     1     -10.318  14.585  64.953  1.00  0.00    -0.401 C  
HETATM   11  C   UNL     1      -9.663  14.809  67.368  1.00  0.00    -0.214 A  
HETATM   12  C   UNL     1      -9.960  14.728  68.730  1.00  0.00    -0.234 A  
HETATM   13  O   UNL     1      -8.978  14.957  69.653  1.00  0.00    -0.433 OA 
HETATM   14  H   UNL     1      -8.105  15.179  69.352  1.00  0.00     0.000 HD 
ENDBRANCH   5   6
ENDBRANCH   4   5
ENDBRANCH   3   4
ENDBRANCH   2   3
TORSDOF 4
ENDMDL
MODEL      139
REMARK 921   NORMALIZED FREE ENERGY PREDICTED BY IDOCK:   -3.31 KCAL/MOL
REMARK 922        TOTAL FREE ENERGY PREDICTED BY IDOCK:   -4.41 KCAL/MOL
REMARK 923 INTER-LIGAND FREE ENERGY PREDICTED BY IDOCK:   -4.10 KCAL/MOL
REMARK 924 INTRA-LIGAND FREE ENERGY PREDICTED BY IDOCK:   -0.31 KCAL/MOL
REMARK 927      BINDING AFFINITY PREDICTED BY RF-SCORE:    0.00 PKD
ROOT
HETATM    1  C   UNL     1      -9.206  10.904  66.498  1.00  0.00    -0.189 C  
HETATM    2  C   UNL     1      -9.567   9.883  67.566  1.00  0.00    -0.183 C  
ENDROOT
BRANCH   2   3
HETATM    3  C   UNL     1      -8.399   8.944  67.875  1.00  0.00    -0.118 C  
BRANCH   3   4
HETATM    4  C   UNL     1      -8.481   8.428  69.315  1.00  0.00    -0.125 C  
BRANCH   4   5
HETATM    5  C   UNL     1      -8.951   9.489  70.321  1.00  0.00    -0.288 C  
BRANCH   5   6
HETATM    6  C   UNL     1     -10.350   9.258  70.847  1.00  0.00    -0.367 A  
HETATM    7  C   UNL     1     -10.677   8.031  71.444  1.00  0.00    -0.270 A  
HETATM    8  C   UNL     1     -11.980   7.767  71.874  1.00  0.00    -0.340 A  
HETATM    9  C   UNL     1     -12.980   8.732  71.731  1.00  0.00    -0.404 A  
HETATM   10  C   UNL     1     -14.393   8.443  72.145  1.00  0.00    -0.520 C  
HETATM   11  C   UNL     1     -12.652   9.977  71.181  1.00  0.00    -0.480 A  
HETATM   12  C   UNL     1     -11.349  10.230  70.743  1.00  0.00    -0.337 A  
HETATM   13  O   UNL     1     -11.045  11.442  70.190  1.00  0.00    -0.478 OA 
HETATM   14  H   UNL     1     -11.725  12.102  70.120  1.00  0.00     0.000 HD 
ENDBRANCH   5   6
ENDBRANCH   4   5
ENDBRANCH   3   4
ENDBRANCH   2   3
TORSDOF 4
ENDMDL
MODEL      140
REMARK 921   NORMALIZED FREE ENERGY PREDICTED BY IDOCK:   -3.31 KCAL/MOL
REMARK 922        TOTAL FREE ENERGY PREDICTED BY IDOCK:   -4.40 KCAL/MOL
REMARK 923 INTER-LIGAND FREE ENERGY PREDICTED BY IDOCK:   -4.22 KCAL/MOL
REMARK 924 INTRA-LIGAND FREE ENERGY PREDICTED BY IDOCK:   -0.19 KCAL/MOL
REMARK 927      BINDING AFFINITY PREDICTED BY RF-SCORE:    0.00 PKD
ROOT
HETATM    1  C   UNL     1     -10.584  12.903  64.627  1.00  0.00    -0.384 C  
HETATM    2  C   UNL     1     -10.743  11.405  64.413  1.00  0.00    -0.405 C  
ENDROOT
BRANCH   2   3
HETATM    3  C   UNL     1      -9.682  10.606  65.172  1.00  0.00    -0.327 C  
BRANCH   3   4
HETATM    4  C   UNL     1     -10.268  10.001  66.453  1.00  0.00    -0.290 C  
BRANCH   4   5
HETATM    5  C   UNL     1      -9.986  10.838  67.710  1.00  0.00    -0.195 C  
BRANCH   5   6
HETATM    6  C   UNL     1     -10.757  10.389  68.931  1.00  0.00    -0.255 A  
HETATM    7  C   UNL     1     -11.820  11.170  69.412  1.00  0.00    -0.415 A  
HETATM    8  C   UNL     1     -12.501  10.813  70.578  1.00  0.00    -0.447 A  
HETATM    9  C   UNL     1     -12.145   9.658  71.280  1.00  0.00    -0.457 A  
HETATM   10  C   UNL     1     -12.838   9.290  72.558  1.00  0.00    -0.351 C  
HETATM   11  C   UNL     1     -11.119   8.848  70.781  1.00  0.00    -0.312 A  
HETATM   12  C   UNL     1     -10.434   9.216  69.620  1.00  0.00    -0.223 A  
HETATM   13  O   UNL     1      -9.420   8.427  69.153  1.00  0.00    -0.154 OA 
HETATM   14  H   UNL     1      -9.201   7.630  69.621  1.00  0.00     0.000 HD 
ENDBRANCH   5   6
ENDBRANCH   4   5
ENDBRANCH   3   4
ENDBRANCH   2   3
TORSDOF 4
ENDMDL
MODEL      141
REMARK 921   NORMALIZED FREE ENERGY PREDICTED BY IDOCK:   -3.30 KCAL/MOL
REMARK 922        TOTAL FREE ENERGY PREDICTED BY IDOCK:   -4.40 KCAL/MOL
REMARK 923 INTER-LIGAND FREE ENERGY PREDICTED BY IDOCK:   -4.03 KCAL/MOL
REMARK 924 INTRA-LIGAND FREE ENERGY PREDICTED BY IDOCK:   -0.37 KCAL/MOL
REMARK 927      BINDING AFFINITY PREDICTED BY RF-SCORE:    0.00 PKD
ROOT
HETATM    1  C   UNL     1      -8.167  19.443  68.667  1.00  0.00    -0.399 C  
HETATM    2  C   UNL     1      -8.613  19.438  67.213  1.00  0.00    -0.329 C  
ENDROOT
BRANCH   2   3
HETATM    3  C   UNL     1      -9.085  18.054  66.766  1.00  0.00    -0.280 C  
BRANCH   3   4
HETATM    4  C   UNL     1     -10.565  17.845  67.109  1.00  0.00    -0.315 C  
BRANCH   4   5
HETATM    5  C   UNL     1     -10.794  16.841  68.248  1.00  0.00    -0.366 C  
BRANCH   5   6
HETATM    6  C   UNL     1     -10.628  15.396  67.834  1.00  0.00    -0.267 A  
HETATM    7  C   UNL     1     -11.147  14.958  66.605  1.00  0.00    -0.329 A  
HETATM    8  C   UNL     1     -11.069  13.614  66.231  1.00  0.00    -0.304 A  
HETATM    9  C   UNL     1     -10.456  12.681  67.072  1.00  0.00    -0.244 A  
HETATM   10  C   UNL     1     -10.408  11.228  66.704  1.00  0.00    -0.279 C  
HETATM   11  C   UNL     1      -9.893  13.117  68.277  1.00  0.00    -0.227 A  
HETATM   12  C   UNL     1      -9.984  14.461  68.649  1.00  0.00    -0.241 A  
HETATM   13  O   UNL     1      -9.448  14.872  69.838  1.00  0.00    -0.445 OA 
HETATM   14  H   UNL     1      -9.010  14.236  70.392  1.00  0.00     0.000 HD 
ENDBRANCH   5   6
ENDBRANCH   4   5
ENDBRANCH   3   4
ENDBRANCH   2   3
TORSDOF 4
ENDMDL
MODEL      142
REMARK 921   NORMALIZED FREE ENERGY PREDICTED BY IDOCK:   -3.30 KCAL/MOL
REMARK 922        TOTAL FREE ENERGY PREDICTED BY IDOCK:   -4.40 KCAL/MOL
REMARK 923 INTER-LIGAND FREE ENERGY PREDICTED BY IDOCK:   -4.13 KCAL/MOL
REMARK 924 INTRA-LIGAND FREE ENERGY PREDICTED BY IDOCK:   -0.27 KCAL/MOL
REMARK 927      BINDING AFFINITY PREDICTED BY RF-SCORE:    0.00 PKD
ROOT
HETATM    1  C   UNL     1      -9.981   9.677  66.317  1.00  0.00    -0.335 C  
HETATM    2  C   UNL     1     -10.013  10.517  65.050  1.00  0.00    -0.388 C  
ENDROOT
BRANCH   2   3
HETATM    3  C   UNL     1     -10.880  11.766  65.215  1.00  0.00    -0.343 C  
BRANCH   3   4
HETATM    4  C   UNL     1     -11.430  11.863  66.643  1.00  0.00    -0.382 C  
BRANCH   4   5
HETATM    5  C   UNL     1     -11.840  13.287  67.046  1.00  0.00    -0.442 C  
BRANCH   5   6
HETATM    6  C   UNL     1     -10.693  14.272  67.068  1.00  0.00    -0.290 A  
HETATM    7  C   UNL     1     -10.661  15.328  66.144  1.00  0.00    -0.318 A  
HETATM    8  C   UNL     1      -9.577  16.209  66.099  1.00  0.00    -0.359 A  
HETATM    9  C   UNL     1      -8.510  16.062  66.988  1.00  0.00    -0.245 A  
HETATM   10  C   UNL     1      -7.319  16.972  66.918  1.00  0.00    -0.244 C  
HETATM   11  C   UNL     1      -8.556  15.042  67.945  1.00  0.00    -0.155 A  
HETATM   12  C   UNL     1      -9.637  14.158  67.978  1.00  0.00    -0.218 A  
HETATM   13  O   UNL     1      -9.662  13.152  68.904  1.00  0.00    -0.409 OA 
HETATM   14  H   UNL     1      -8.944  13.075  69.522  1.00  0.00     0.000 HD 
ENDBRANCH   5   6
ENDBRANCH   4   5
ENDBRANCH   3   4
ENDBRANCH   2   3
TORSDOF 4
ENDMDL
MODEL      143
REMARK 921   NORMALIZED FREE ENERGY PREDICTED BY IDOCK:   -3.30 KCAL/MOL
REMARK 922        TOTAL FREE ENERGY PREDICTED BY IDOCK:   -4.40 KCAL/MOL
REMARK 923 INTER-LIGAND FREE ENERGY PREDICTED BY IDOCK:   -4.06 KCAL/MOL
REMARK 924 INTRA-LIGAND FREE ENERGY PREDICTED BY IDOCK:   -0.34 KCAL/MOL
REMARK 927      BINDING AFFINITY PREDICTED BY RF-SCORE:    0.00 PKD
ROOT
HETATM    1  C   UNL     1     -11.689   7.951  71.509  1.00  0.00    -0.317 C  
HETATM    2  C   UNL     1     -10.997   6.690  71.013  1.00  0.00    -0.305 C  
ENDROOT
BRANCH   2   3
HETATM    3  C   UNL     1      -9.788   7.013  70.133  1.00  0.00    -0.179 C  
BRANCH   3   4
HETATM    4  C   UNL     1      -9.982   8.350  69.409  1.00  0.00    -0.191 C  
BRANCH   4   5
HETATM    5  C   UNL     1     -10.409   8.195  67.942  1.00  0.00    -0.280 C  
BRANCH   5   6
HETATM    6  C   UNL     1     -10.527   9.506  67.196  1.00  0.00    -0.322 A  
HETATM    7  C   UNL     1     -11.156  10.602  67.807  1.00  0.00    -0.385 A  
HETATM    8  C   UNL     1     -11.340  11.801  67.114  1.00  0.00    -0.387 A  
HETATM    9  C   UNL     1     -10.883  11.935  65.800  1.00  0.00    -0.341 A  
HETATM   10  C   UNL     1     -11.116  13.200  65.029  1.00  0.00    -0.322 C  
HETATM   11  C   UNL     1     -10.211  10.863  65.200  1.00  0.00    -0.360 A  
HETATM   12  C   UNL     1     -10.040   9.663  65.895  1.00  0.00    -0.234 A  
HETATM   13  O   UNL     1      -9.400   8.617  65.292  1.00  0.00    -0.432 OA 
HETATM   14  H   UNL     1      -9.070   8.725  64.408  1.00  0.00     0.000 HD 
ENDBRANCH   5   6
ENDBRANCH   4   5
ENDBRANCH   3   4
ENDBRANCH   2   3
TORSDOF 4
ENDMDL
MODEL      144
REMARK 921   NORMALIZED FREE ENERGY PREDICTED BY IDOCK:   -3.30 KCAL/MOL
REMARK 922        TOTAL FREE ENERGY PREDICTED BY IDOCK:   -4.39 KCAL/MOL
REMARK 923 INTER-LIGAND FREE ENERGY PREDICTED BY IDOCK:   -4.18 KCAL/MOL
REMARK 924 INTRA-LIGAND FREE ENERGY PREDICTED BY IDOCK:   -0.22 KCAL/MOL
REMARK 927      BINDING AFFINITY PREDICTED BY RF-SCORE:    0.00 PKD
ROOT
HETATM    1  C   UNL     1     -10.317   8.283  71.143  1.00  0.00    -0.247 C  
HETATM    2  C   UNL     1      -9.866   9.518  70.379  1.00  0.00    -0.329 C  
ENDROOT
BRANCH   2   3
HETATM    3  C   UNL     1     -10.925   9.990  69.382  1.00  0.00    -0.280 C  
BRANCH   3   4
HETATM    4  C   UNL     1     -10.520  11.326  68.747  1.00  0.00    -0.232 C  
BRANCH   4   5
HETATM    5  C   UNL     1     -11.715  12.223  68.394  1.00  0.00    -0.390 C  
BRANCH   5   6
HETATM    6  C   UNL     1     -11.337  13.653  68.082  1.00  0.00    -0.321 A  
HETATM    7  C   UNL     1     -10.473  13.929  67.011  1.00  0.00    -0.278 A  
HETATM    8  C   UNL     1     -10.052  15.235  66.746  1.00  0.00    -0.262 A  
HETATM    9  C   UNL     1     -10.501  16.296  67.537  1.00  0.00    -0.302 A  
HETATM   10  C   UNL     1     -10.019  17.695  67.293  1.00  0.00    -0.322 C  
HETATM   11  C   UNL     1     -11.401  16.036  68.578  1.00  0.00    -0.382 A  
HETATM   12  C   UNL     1     -11.808  14.727  68.844  1.00  0.00    -0.296 A  
HETATM   13  O   UNL     1     -12.672  14.483  69.875  1.00  0.00    -0.537 OA 
HETATM   14  H   UNL     1     -12.992  15.213  70.392  1.00  0.00     0.000 HD 
ENDBRANCH   5   6
ENDBRANCH   4   5
ENDBRANCH   3   4
ENDBRANCH   2   3
TORSDOF 4
ENDMDL
MODEL      145
REMARK 921   NORMALIZED FREE ENERGY PREDICTED BY IDOCK:   -3.30 KCAL/MOL
REMARK 922        TOTAL FREE ENERGY PREDICTED BY IDOCK:   -4.39 KCAL/MOL
REMARK 923 INTER-LIGAND FREE ENERGY PREDICTED BY IDOCK:   -4.31 KCAL/MOL
REMARK 924 INTRA-LIGAND FREE ENERGY PREDICTED BY IDOCK:   -0.08 KCAL/MOL
REMARK 927      BINDING AFFINITY PREDICTED BY RF-SCORE:    0.00 PKD
ROOT
HETATM    1  C   UNL     1     -11.604  11.844  63.788  1.00  0.00    -0.555 C  
HETATM    2  C   UNL     1     -12.526  12.706  64.637  1.00  0.00    -0.538 C  
ENDROOT
BRANCH   2   3
HETATM    3  C   UNL     1     -11.981  14.124  64.811  1.00  0.00    -0.441 C  
BRANCH   3   4
HETATM    4  C   UNL     1     -10.452  14.111  64.919  1.00  0.00    -0.461 C  
BRANCH   4   5
HETATM    5  C   UNL     1      -9.941  13.856  66.344  1.00  0.00    -0.303 C  
BRANCH   5   6
HETATM    6  C   UNL     1     -10.030  12.410  66.778  1.00  0.00    -0.234 A  
HETATM    7  C   UNL     1     -11.165  11.958  67.469  1.00  0.00    -0.359 A  
HETATM    8  C   UNL     1     -11.241  10.645  67.942  1.00  0.00    -0.376 A  
HETATM    9  C   UNL     1     -10.190   9.752  67.718  1.00  0.00    -0.254 A  
HETATM   10  C   UNL     1     -10.239   8.354  68.262  1.00  0.00    -0.244 C  
HETATM   11  C   UNL     1      -9.076  10.180  66.987  1.00  0.00    -0.155 A  
HETATM   12  C   UNL     1      -9.001  11.497  66.527  1.00  0.00    -0.189 A  
HETATM   13  O   UNL     1      -7.899  11.910  65.832  1.00  0.00    -0.198 OA 
HETATM   14  H   UNL     1      -7.201  11.290  65.662  1.00  0.00     0.000 HD 
ENDBRANCH   5   6
ENDBRANCH   4   5
ENDBRANCH   3   4
ENDBRANCH   2   3
TORSDOF 4
ENDMDL
MODEL      146
REMARK 921   NORMALIZED FREE ENERGY PREDICTED BY IDOCK:   -3.29 KCAL/MOL
REMARK 922        TOTAL FREE ENERGY PREDICTED BY IDOCK:   -4.38 KCAL/MOL
REMARK 923 INTER-LIGAND FREE ENERGY PREDICTED BY IDOCK:   -3.92 KCAL/MOL
REMARK 924 INTRA-LIGAND FREE ENERGY PREDICTED BY IDOCK:   -0.46 KCAL/MOL
REMARK 927      BINDING AFFINITY PREDICTED BY RF-SCORE:    0.00 PKD
ROOT
HETATM    1  C   UNL     1      -9.246   8.339  66.617  1.00  0.00    -0.224 C  
HETATM    2  C   UNL     1      -9.469   9.496  65.655  1.00  0.00    -0.326 C  
ENDROOT
BRANCH   2   3
HETATM    3  C   UNL     1     -10.657  10.364  66.073  1.00  0.00    -0.136 C  
BRANCH   3   4
HETATM    4  C   UNL     1     -10.239  11.832  66.210  1.00  0.00    -0.255 C  
BRANCH   4   5
HETATM    5  C   UNL     1      -9.633  12.172  67.579  1.00  0.00    -0.179 C  
BRANCH   5   6
HETATM    6  C   UNL     1     -10.507  11.781  68.750  1.00  0.00    -0.221 A  
HETATM    7  C   UNL     1     -10.316  10.542  69.381  1.00  0.00    -0.258 A  
HETATM    8  C   UNL     1     -11.155  10.128  70.418  1.00  0.00    -0.393 A  
HETATM    9  C   UNL     1     -12.194  10.953  70.858  1.00  0.00    -0.485 A  
HETATM   10  C   UNL     1     -13.131  10.500  71.939  1.00  0.00    -0.567 C  
HETATM   11  C   UNL     1     -12.361  12.211  70.268  1.00  0.00    -0.269 A  
HETATM   12  C   UNL     1     -11.525  12.614  69.224  1.00  0.00    -0.294 A  
HETATM   13  O   UNL     1     -11.711  13.837  68.641  1.00  0.00    -0.311 OA 
HETATM   14  H   UNL     1     -12.403  14.402  68.964  1.00  0.00     0.000 HD 
ENDBRANCH   5   6
ENDBRANCH   4   5
ENDBRANCH   3   4
ENDBRANCH   2   3
TORSDOF 4
ENDMDL
MODEL      147
REMARK 921   NORMALIZED FREE ENERGY PREDICTED BY IDOCK:   -3.28 KCAL/MOL
REMARK 922        TOTAL FREE ENERGY PREDICTED BY IDOCK:   -4.38 KCAL/MOL
REMARK 923 INTER-LIGAND FREE ENERGY PREDICTED BY IDOCK:   -3.95 KCAL/MOL
REMARK 924 INTRA-LIGAND FREE ENERGY PREDICTED BY IDOCK:   -0.42 KCAL/MOL
REMARK 927      BINDING AFFINITY PREDICTED BY RF-SCORE:    0.00 PKD
ROOT
HETATM    1  C   UNL     1     -10.442  15.948  65.694  1.00  0.00    -0.411 C  
HETATM    2  C   UNL     1     -10.181  15.256  67.023  1.00  0.00    -0.260 C  
ENDROOT
BRANCH   2   3
HETATM    3  C   UNL     1     -11.100  14.051  67.227  1.00  0.00    -0.314 C  
BRANCH   3   4
HETATM    4  C   UNL     1     -11.004  13.084  66.042  1.00  0.00    -0.296 C  
BRANCH   4   5
HETATM    5  C   UNL     1     -11.399  11.642  66.395  1.00  0.00    -0.312 C  
BRANCH   5   6
HETATM    6  C   UNL     1     -10.647  11.072  67.576  1.00  0.00    -0.266 A  
HETATM    7  C   UNL     1      -9.249  10.950  67.521  1.00  0.00    -0.153 A  
HETATM    8  C   UNL     1      -8.539  10.362  68.571  1.00  0.00    -0.134 A  
HETATM    9  C   UNL     1      -9.209   9.898  69.706  1.00  0.00    -0.252 A  
HETATM   10  C   UNL     1      -8.464   9.222  70.818  1.00  0.00    -0.244 C  
HETATM   11  C   UNL     1     -10.597  10.060  69.790  1.00  0.00    -0.301 A  
HETATM   12  C   UNL     1     -11.303  10.638  68.732  1.00  0.00    -0.277 A  
HETATM   13  O   UNL     1     -12.661  10.773  68.817  1.00  0.00    -0.732 OA 
HETATM   14  H   UNL     1     -13.106  10.478  69.603  1.00  0.00     0.000 HD 
ENDBRANCH   5   6
ENDBRANCH   4   5
ENDBRANCH   3   4
ENDBRANCH   2   3
TORSDOF 4
ENDMDL
MODEL      148
REMARK 921   NORMALIZED FREE ENERGY PREDICTED BY IDOCK:   -3.27 KCAL/MOL
REMARK 922        TOTAL FREE ENERGY PREDICTED BY IDOCK:   -4.36 KCAL/MOL
REMARK 923 INTER-LIGAND FREE ENERGY PREDICTED BY IDOCK:   -4.00 KCAL/MOL
REMARK 924 INTRA-LIGAND FREE ENERGY PREDICTED BY IDOCK:   -0.36 KCAL/MOL
REMARK 927      BINDING AFFINITY PREDICTED BY RF-SCORE:    0.00 PKD
ROOT
HETATM    1  C   UNL     1     -13.111  11.073  71.896  1.00  0.00    -0.525 C  
HETATM    2  C   UNL     1     -12.979   9.724  71.205  1.00  0.00    -0.470 C  
ENDROOT
BRANCH   2   3
HETATM    3  C   UNL     1     -12.599   8.616  72.188  1.00  0.00    -0.451 C  
BRANCH   3   4
HETATM    4  C   UNL     1     -12.667   7.241  71.513  1.00  0.00    -0.422 C  
BRANCH   4   5
HETATM    5  C   UNL     1     -11.287   6.630  71.227  1.00  0.00    -0.346 C  
BRANCH   5   6
HETATM    6  C   UNL     1     -10.315   7.589  70.576  1.00  0.00    -0.217 A  
HETATM    7  C   UNL     1      -9.372   8.268  71.362  1.00  0.00    -0.223 A  
HETATM    8  C   UNL     1      -8.511   9.211  70.795  1.00  0.00    -0.256 A  
HETATM    9  C   UNL     1      -8.564   9.482  69.425  1.00  0.00    -0.159 A  
HETATM   10  C   UNL     1      -7.678  10.526  68.812  1.00  0.00    -0.109 C  
HETATM   11  C   UNL     1      -9.468   8.774  68.625  1.00  0.00    -0.143 A  
HETATM   12  C   UNL     1     -10.334   7.841  69.201  1.00  0.00    -0.215 A  
HETATM   13  O   UNL     1     -11.227   7.169  68.413  1.00  0.00    -0.464 OA 
HETATM   14  H   UNL     1     -11.239   7.341  67.479  1.00  0.00     0.000 HD 
ENDBRANCH   5   6
ENDBRANCH   4   5
ENDBRANCH   3   4
ENDBRANCH   2   3
TORSDOF 4
ENDMDL
MODEL      149
REMARK 921   NORMALIZED FREE ENERGY PREDICTED BY IDOCK:   -3.27 KCAL/MOL
REMARK 922        TOTAL FREE ENERGY PREDICTED BY IDOCK:   -4.36 KCAL/MOL
REMARK 923 INTER-LIGAND FREE ENERGY PREDICTED BY IDOCK:   -3.79 KCAL/MOL
REMARK 924 INTRA-LIGAND FREE ENERGY PREDICTED BY IDOCK:   -0.57 KCAL/MOL
REMARK 927      BINDING AFFINITY PREDICTED BY RF-SCORE:    0.00 PKD
ROOT
HETATM    1  C   UNL     1      -6.856  12.803  67.770  1.00  0.00    -0.135 C  
HETATM    2  C   UNL     1      -6.617  11.563  66.921  1.00  0.00    -0.138 C  
ENDROOT
BRANCH   2   3
HETATM    3  C   UNL     1      -7.053  10.287  67.641  1.00  0.00    -0.086 C  
BRANCH   3   4
HETATM    4  C   UNL     1      -8.491  10.416  68.157  1.00  0.00    -0.121 C  
BRANCH   4   5
HETATM    5  C   UNL     1      -9.545   9.895  67.170  1.00  0.00    -0.201 C  
BRANCH   5   6
HETATM    6  C   UNL     1     -10.243  10.984  66.387  1.00  0.00    -0.284 A  
HETATM    7  C   UNL     1      -9.731  11.387  65.144  1.00  0.00    -0.280 A  
HETATM    8  C   UNL     1     -10.316  12.439  64.434  1.00  0.00    -0.370 A  
HETATM    9  C   UNL     1     -11.437  13.100  64.945  1.00  0.00    -0.337 A  
HETATM   10  C   UNL     1     -12.045  14.261  64.216  1.00  0.00    -0.467 C  
HETATM   11  C   UNL     1     -11.983  12.672  66.161  1.00  0.00    -0.458 A  
HETATM   12  C   UNL     1     -11.386  11.627  66.871  1.00  0.00    -0.295 A  
HETATM   13  O   UNL     1     -11.917  11.231  68.067  1.00  0.00    -0.621 OA 
HETATM   14  H   UNL     1     -12.694  11.669  68.395  1.00  0.00     0.000 HD 
ENDBRANCH   5   6
ENDBRANCH   4   5
ENDBRANCH   3   4
ENDBRANCH   2   3
TORSDOF 4
ENDMDL
MODEL      150
REMARK 921   NORMALIZED FREE ENERGY PREDICTED BY IDOCK:   -3.26 KCAL/MOL
REMARK 922        TOTAL FREE ENERGY PREDICTED BY IDOCK:   -4.35 KCAL/MOL
REMARK 923 INTER-LIGAND FREE ENERGY PREDICTED BY IDOCK:   -3.81 KCAL/MOL
REMARK 924 INTRA-LIGAND FREE ENERGY PREDICTED BY IDOCK:   -0.54 KCAL/MOL
REMARK 927      BINDING AFFINITY PREDICTED BY RF-SCORE:    0.00 PKD
ROOT
HETATM    1  C   UNL     1      -9.284  12.059  67.362  1.00  0.00    -0.180 C  
HETATM    2  C   UNL     1     -10.690  12.115  67.940  1.00  0.00    -0.237 C  
ENDROOT
BRANCH   2   3
HETATM    3  C   UNL     1     -10.964  13.446  68.643  1.00  0.00    -0.288 C  
BRANCH   3   4
HETATM    4  C   UNL     1     -11.970  14.285  67.848  1.00  0.00    -0.364 C  
BRANCH   4   5
HETATM    5  C   UNL     1     -11.327  15.115  66.727  1.00  0.00    -0.248 C  
BRANCH   5   6
HETATM    6  C   UNL     1     -10.403  16.204  67.224  1.00  0.00    -0.287 A  
HETATM    7  C   UNL     1     -10.910  17.233  68.034  1.00  0.00    -0.297 A  
HETATM    8  C   UNL     1     -10.093  18.289  68.448  1.00  0.00    -0.412 A  
HETATM    9  C   UNL     1      -8.747  18.329  68.073  1.00  0.00    -0.287 A  
HETATM   10  C   UNL     1      -7.872  19.481  68.470  1.00  0.00    -0.382 C  
HETATM   11  C   UNL     1      -8.222  17.283  67.306  1.00  0.00    -0.213 A  
HETATM   12  C   UNL     1      -9.047  16.236  66.887  1.00  0.00    -0.220 A  
HETATM   13  O   UNL     1      -8.527  15.229  66.122  1.00  0.00    -0.398 OA 
HETATM   14  H   UNL     1      -7.606  15.252  65.893  1.00  0.00     0.000 HD 
ENDBRANCH   5   6
ENDBRANCH   4   5
ENDBRANCH   3   4
ENDBRANCH   2   3
TORSDOF 4
ENDMDL
MODEL      151
REMARK 921   NORMALIZED FREE ENERGY PREDICTED BY IDOCK:   -3.26 KCAL/MOL
REMARK 922        TOTAL FREE ENERGY PREDICTED BY IDOCK:   -4.35 KCAL/MOL
REMARK 923 INTER-LIGAND FREE ENERGY PREDICTED BY IDOCK:   -4.11 KCAL/MOL
REMARK 924 INTRA-LIGAND FREE ENERGY PREDICTED BY IDOCK:   -0.24 KCAL/MOL
REMARK 927      BINDING AFFINITY PREDICTED BY RF-SCORE:    0.00 PKD
ROOT
HETATM    1  C   UNL     1     -10.270   9.374  70.866  1.00  0.00    -0.373 C  
HETATM    2  C   UNL     1     -11.650  10.011  70.931  1.00  0.00    -0.463 C  
ENDROOT
BRANCH   2   3
HETATM    3  C   UNL     1     -12.034  10.673  69.607  1.00  0.00    -0.340 C  
BRANCH   3   4
HETATM    4  C   UNL     1     -11.860  12.194  69.686  1.00  0.00    -0.391 C  
BRANCH   4   5
HETATM    5  C   UNL     1     -11.694  12.864  68.314  1.00  0.00    -0.390 C  
BRANCH   5   6
HETATM    6  C   UNL     1     -11.052  14.232  68.374  1.00  0.00    -0.274 A  
HETATM    7  C   UNL     1     -11.661  15.256  69.115  1.00  0.00    -0.355 A  
HETATM    8  C   UNL     1     -11.127  16.547  69.128  1.00  0.00    -0.270 A  
HETATM    9  C   UNL     1      -9.961  16.837  68.413  1.00  0.00    -0.268 A  
HETATM   10  C   UNL     1      -9.404  18.229  68.381  1.00  0.00    -0.328 C  
HETATM   11  C   UNL     1      -9.321  15.810  67.711  1.00  0.00    -0.206 A  
HETATM   12  C   UNL     1      -9.867  14.524  67.693  1.00  0.00    -0.223 A  
HETATM   13  O   UNL     1      -9.243  13.533  66.987  1.00  0.00    -0.229 OA 
HETATM   14  H   UNL     1      -8.437  13.732  66.524  1.00  0.00     0.000 HD 
ENDBRANCH   5   6
ENDBRANCH   4   5
ENDBRANCH   3   4
ENDBRANCH   2   3
TORSDOF 4
ENDMDL
MODEL      152
REMARK 921   NORMALIZED FREE ENERGY PREDICTED BY IDOCK:   -3.26 KCAL/MOL
REMARK 922        TOTAL FREE ENERGY PREDICTED BY IDOCK:   -4.34 KCAL/MOL
REMARK 923 INTER-LIGAND FREE ENERGY PREDICTED BY IDOCK:   -3.87 KCAL/MOL
REMARK 924 INTRA-LIGAND FREE ENERGY PREDICTED BY IDOCK:   -0.48 KCAL/MOL
REMARK 927      BINDING AFFINITY PREDICTED BY RF-SCORE:    0.00 PKD
ROOT
HETATM    1  C   UNL     1     -11.462  14.828  70.187  1.00  0.00    -0.313 C  
HETATM    2  C   UNL     1     -12.113  13.680  69.432  1.00  0.00    -0.364 C  
ENDROOT
BRANCH   2   3
HETATM    3  C   UNL     1     -11.357  13.342  68.146  1.00  0.00    -0.321 C  
BRANCH   3   4
HETATM    4  C   UNL     1     -11.220  11.825  67.976  1.00  0.00    -0.324 C  
BRANCH   4   5
HETATM    5  C   UNL     1      -9.859  11.278  68.432  1.00  0.00    -0.200 C  
BRANCH   5   6
HETATM    6  C   UNL     1      -9.947  10.293  69.576  1.00  0.00    -0.252 A  
HETATM    7  C   UNL     1     -11.124  10.209  70.336  1.00  0.00    -0.393 A  
HETATM    8  C   UNL     1     -11.206   9.358  71.441  1.00  0.00    -0.452 A  
HETATM    9  C   UNL     1     -10.117   8.559  71.799  1.00  0.00    -0.351 A  
HETATM   10  C   UNL     1     -10.175   7.676  73.011  1.00  0.00    -0.379 C  
HETATM   11  C   UNL     1      -8.956   8.600  71.018  1.00  0.00    -0.242 A  
HETATM   12  C   UNL     1      -8.877   9.462  69.921  1.00  0.00    -0.199 A  
HETATM   13  O   UNL     1      -7.732   9.508  69.177  1.00  0.00    -0.075 OA 
HETATM   14  H   UNL     1      -7.005   8.943  69.412  1.00  0.00     0.000 HD 
ENDBRANCH   5   6
ENDBRANCH   4   5
ENDBRANCH   3   4
ENDBRANCH   2   3
TORSDOF 4
ENDMDL
MODEL      153
REMARK 921   NORMALIZED FREE ENERGY PREDICTED BY IDOCK:   -3.25 KCAL/MOL
REMARK 922        TOTAL FREE ENERGY PREDICTED BY IDOCK:   -4.34 KCAL/MOL
REMARK 923 INTER-LIGAND FREE ENERGY PREDICTED BY IDOCK:   -4.09 KCAL/MOL
REMARK 924 INTRA-LIGAND FREE ENERGY PREDICTED BY IDOCK:   -0.25 KCAL/MOL
REMARK 927      BINDING AFFINITY PREDICTED BY RF-SCORE:    0.00 PKD
ROOT
HETATM    1  C   UNL     1      -9.466   3.673  67.327  1.00  0.00    -0.235 C  
HETATM    2  C   UNL     1      -8.683   4.413  68.402  1.00  0.00    -0.118 C  
ENDROOT
BRANCH   2   3
HETATM    3  C   UNL     1      -9.321   4.253  69.783  1.00  0.00    -0.231 C  
BRANCH   3   4
HETATM    4  C   UNL     1     -10.527   5.186  69.939  1.00  0.00    -0.296 C  
BRANCH   4   5
HETATM    5  C   UNL     1     -10.772   5.634  71.387  1.00  0.00    -0.310 C  
BRANCH   5   6
HETATM    6  C   UNL     1     -11.318   7.039  71.510  1.00  0.00    -0.290 A  
HETATM    7  C   UNL     1     -12.703   7.243  71.606  1.00  0.00    -0.410 A  
HETATM    8  C   UNL     1     -13.237   8.534  71.650  1.00  0.00    -0.371 A  
HETATM    9  C   UNL     1     -12.394   9.648  71.616  1.00  0.00    -0.489 A  
HETATM   10  C   UNL     1     -12.957  11.039  71.614  1.00  0.00    -0.561 C  
HETATM   11  C   UNL     1     -11.009   9.453  71.570  1.00  0.00    -0.429 A  
HETATM   12  C   UNL     1     -10.483   8.160  71.515  1.00  0.00    -0.221 A  
HETATM   13  O   UNL     1      -9.129   7.982  71.450  1.00  0.00    -0.131 OA 
HETATM   14  H   UNL     1      -8.562   8.744  71.453  1.00  0.00     0.000 HD 
ENDBRANCH   5   6
ENDBRANCH   4   5
ENDBRANCH   3   4
ENDBRANCH   2   3
TORSDOF 4
ENDMDL
MODEL      154
REMARK 921   NORMALIZED FREE ENERGY PREDICTED BY IDOCK:   -3.24 KCAL/MOL
REMARK 922        TOTAL FREE ENERGY PREDICTED BY IDOCK:   -4.32 KCAL/MOL
REMARK 923 INTER-LIGAND FREE ENERGY PREDICTED BY IDOCK:   -4.02 KCAL/MOL
REMARK 924 INTRA-LIGAND FREE ENERGY PREDICTED BY IDOCK:   -0.29 KCAL/MOL
REMARK 927      BINDING AFFINITY PREDICTED BY RF-SCORE:    0.00 PKD
ROOT
HETATM    1  C   UNL     1     -12.458  11.976  63.650  1.00  0.00    -0.637 C  
HETATM    2  C   UNL     1     -11.324  12.911  64.043  1.00  0.00    -0.466 C  
ENDROOT
BRANCH   2   3
HETATM    3  C   UNL     1     -11.839  14.300  64.426  1.00  0.00    -0.444 C  
BRANCH   3   4
HETATM    4  C   UNL     1     -10.675  15.242  64.754  1.00  0.00    -0.342 C  
BRANCH   4   5
HETATM    5  C   UNL     1     -10.900  16.075  66.024  1.00  0.00    -0.190 C  
BRANCH   5   6
HETATM    6  C   UNL     1      -9.692  16.149  66.931  1.00  0.00    -0.246 A  
HETATM    7  C   UNL     1      -8.759  15.100  66.938  1.00  0.00    -0.289 A  
HETATM    8  C   UNL     1      -7.673  15.112  67.816  1.00  0.00    -0.164 A  
HETATM    9  C   UNL     1      -7.487  16.182  68.696  1.00  0.00    -0.179 A  
HETATM   10  C   UNL     1      -6.352  16.184  69.677  1.00  0.00    -0.192 C  
HETATM   11  C   UNL     1      -8.385  17.255  68.661  1.00  0.00    -0.255 A  
HETATM   12  C   UNL     1      -9.475  17.232  67.788  1.00  0.00    -0.255 A  
HETATM   13  O   UNL     1     -10.357  18.276  67.778  1.00  0.00    -0.364 OA 
HETATM   14  H   UNL     1     -10.209  19.012  68.360  1.00  0.00     0.000 HD 
ENDBRANCH   5   6
ENDBRANCH   4   5
ENDBRANCH   3   4
ENDBRANCH   2   3
TORSDOF 4
ENDMDL
MODEL      155
REMARK 921   NORMALIZED FREE ENERGY PREDICTED BY IDOCK:   -3.23 KCAL/MOL
REMARK 922        TOTAL FREE ENERGY PREDICTED BY IDOCK:   -4.31 KCAL/MOL
REMARK 923 INTER-LIGAND FREE ENERGY PREDICTED BY IDOCK:   -4.06 KCAL/MOL
REMARK 924 INTRA-LIGAND FREE ENERGY PREDICTED BY IDOCK:   -0.25 KCAL/MOL
REMARK 927      BINDING AFFINITY PREDICTED BY RF-SCORE:    0.00 PKD
ROOT
HETATM    1  C   UNL     1     -10.200   5.536  69.414  1.00  0.00    -0.329 C  
HETATM    2  C   UNL     1     -10.867   6.865  69.092  1.00  0.00    -0.262 C  
ENDROOT
BRANCH   2   3
HETATM    3  C   UNL     1     -10.638   7.280  67.638  1.00  0.00    -0.316 C  
BRANCH   3   4
HETATM    4  C   UNL     1     -10.135   8.725  67.556  1.00  0.00    -0.281 C  
BRANCH   4   5
HETATM    5  C   UNL     1     -10.013   9.251  66.118  1.00  0.00    -0.348 C  
BRANCH   5   6
HETATM    6  C   UNL     1     -10.349  10.718  65.971  1.00  0.00    -0.300 A  
HETATM    7  C   UNL     1     -11.255  11.319  66.859  1.00  0.00    -0.300 A  
HETATM    8  C   UNL     1     -11.636  12.654  66.702  1.00  0.00    -0.443 A  
HETATM    9  C   UNL     1     -11.106  13.421  65.661  1.00  0.00    -0.298 A  
HETATM   10  C   UNL     1     -11.542  14.841  65.452  1.00  0.00    -0.316 C  
HETATM   11  C   UNL     1     -10.165  12.844  64.800  1.00  0.00    -0.307 A  
HETATM   12  C   UNL     1      -9.797  11.505  64.957  1.00  0.00    -0.257 A  
HETATM   13  O   UNL     1      -8.893  10.947  64.097  1.00  0.00    -0.300 OA 
HETATM   14  H   UNL     1      -8.518  11.482  63.408  1.00  0.00     0.000 HD 
ENDBRANCH   5   6
ENDBRANCH   4   5
ENDBRANCH   3   4
ENDBRANCH   2   3
TORSDOF 4
ENDMDL
MODEL      156
REMARK 921   NORMALIZED FREE ENERGY PREDICTED BY IDOCK:   -3.22 KCAL/MOL
REMARK 922        TOTAL FREE ENERGY PREDICTED BY IDOCK:   -4.30 KCAL/MOL
REMARK 923 INTER-LIGAND FREE ENERGY PREDICTED BY IDOCK:   -3.89 KCAL/MOL
REMARK 924 INTRA-LIGAND FREE ENERGY PREDICTED BY IDOCK:   -0.41 KCAL/MOL
REMARK 927      BINDING AFFINITY PREDICTED BY RF-SCORE:    0.00 PKD
ROOT
HETATM    1  C   UNL     1     -12.282  14.078  67.491  1.00  0.00    -0.258 C  
HETATM    2  C   UNL     1     -11.326  13.122  66.794  1.00  0.00    -0.353 C  
ENDROOT
BRANCH   2   3
HETATM    3  C   UNL     1     -10.303  12.531  67.765  1.00  0.00    -0.224 C  
BRANCH   3   4
HETATM    4  C   UNL     1      -9.348  13.614  68.278  1.00  0.00    -0.204 C  
BRANCH   4   5
HETATM    5  C   UNL     1      -8.730  14.467  67.160  1.00  0.00    -0.243 C  
BRANCH   5   6
HETATM    6  C   UNL     1      -8.979  15.951  67.312  1.00  0.00    -0.209 A  
HETATM    7  C   UNL     1      -8.346  16.663  68.343  1.00  0.00    -0.208 A  
HETATM    8  C   UNL     1      -8.614  18.019  68.547  1.00  0.00    -0.306 A  
HETATM    9  C   UNL     1      -9.508  18.696  67.714  1.00  0.00    -0.326 A  
HETATM   10  C   UNL     1      -9.840  20.139  67.953  1.00  0.00    -0.525 C  
HETATM   11  C   UNL     1     -10.107  18.005  66.654  1.00  0.00    -0.372 A  
HETATM   12  C   UNL     1      -9.843  16.647  66.462  1.00  0.00    -0.281 A  
HETATM   13  O   UNL     1     -10.449  15.978  65.435  1.00  0.00    -0.380 OA 
HETATM   14  H   UNL     1     -11.037  16.452  64.858  1.00  0.00     0.000 HD 
ENDBRANCH   5   6
ENDBRANCH   4   5
ENDBRANCH   3   4
ENDBRANCH   2   3
TORSDOF 4
ENDMDL
MODEL      157
REMARK 921   NORMALIZED FREE ENERGY PREDICTED BY IDOCK:   -3.20 KCAL/MOL
REMARK 922        TOTAL FREE ENERGY PREDICTED BY IDOCK:   -4.27 KCAL/MOL
REMARK 923 INTER-LIGAND FREE ENERGY PREDICTED BY IDOCK:   -3.97 KCAL/MOL
REMARK 924 INTRA-LIGAND FREE ENERGY PREDICTED BY IDOCK:   -0.31 KCAL/MOL
REMARK 927      BINDING AFFINITY PREDICTED BY RF-SCORE:    0.00 PKD
ROOT
HETATM    1  C   UNL     1     -10.912   7.498  72.274  1.00  0.00    -0.307 C  
HETATM    2  C   UNL     1     -11.959   8.192  71.415  1.00  0.00    -0.330 C  
ENDROOT
BRANCH   2   3
HETATM    3  C   UNL     1     -12.009   9.697  71.682  1.00  0.00    -0.470 C  
BRANCH   3   4
HETATM    4  C   UNL     1     -11.582  10.486  70.440  1.00  0.00    -0.430 C  
BRANCH   4   5
HETATM    5  C   UNL     1     -10.139  10.199  69.999  1.00  0.00    -0.241 C  
BRANCH   5   6
HETATM    6  C   UNL     1      -9.945  10.204  68.499  1.00  0.00    -0.177 A  
HETATM    7  C   UNL     1      -9.427  11.345  67.866  1.00  0.00    -0.174 A  
HETATM    8  C   UNL     1      -9.304  11.400  66.476  1.00  0.00    -0.204 A  
HETATM    9  C   UNL     1      -9.680  10.309  65.689  1.00  0.00    -0.308 A  
HETATM   10  C   UNL     1      -9.598  10.373  64.192  1.00  0.00    -0.381 C  
HETATM   11  C   UNL     1     -10.152   9.149  66.314  1.00  0.00    -0.319 A  
HETATM   12  C   UNL     1     -10.283   9.104  67.705  1.00  0.00    -0.236 A  
HETATM   13  O   UNL     1     -10.764   7.973  68.303  1.00  0.00    -0.390 OA 
HETATM   14  H   UNL     1     -10.994   7.226  67.763  1.00  0.00     0.000 HD 
ENDBRANCH   5   6
ENDBRANCH   4   5
ENDBRANCH   3   4
ENDBRANCH   2   3
TORSDOF 4
ENDMDL
MODEL      158
REMARK 921   NORMALIZED FREE ENERGY PREDICTED BY IDOCK:   -3.20 KCAL/MOL
REMARK 922        TOTAL FREE ENERGY PREDICTED BY IDOCK:   -4.27 KCAL/MOL
REMARK 923 INTER-LIGAND FREE ENERGY PREDICTED BY IDOCK:   -3.93 KCAL/MOL
REMARK 924 INTRA-LIGAND FREE ENERGY PREDICTED BY IDOCK:   -0.34 KCAL/MOL
REMARK 927      BINDING AFFINITY PREDICTED BY RF-SCORE:    0.00 PKD
ROOT
HETATM    1  C   UNL     1      -9.364  10.052  64.088  1.00  0.00    -0.335 C  
HETATM    2  C   UNL     1      -9.902   9.814  65.492  1.00  0.00    -0.378 C  
ENDROOT
BRANCH   2   3
HETATM    3  C   UNL     1      -8.954   8.950  66.325  1.00  0.00    -0.207 C  
BRANCH   3   4
HETATM    4  C   UNL     1      -9.733   7.895  67.119  1.00  0.00    -0.249 C  
BRANCH   4   5
HETATM    5  C   UNL     1      -9.357   7.847  68.607  1.00  0.00    -0.145 C  
BRANCH   5   6
HETATM    6  C   UNL     1     -10.491   8.211  69.538  1.00  0.00    -0.227 A  
HETATM    7  C   UNL     1     -10.853   9.557  69.704  1.00  0.00    -0.255 A  
HETATM    8  C   UNL     1     -11.850   9.925  70.611  1.00  0.00    -0.386 A  
HETATM    9  C   UNL     1     -12.519   8.953  71.360  1.00  0.00    -0.357 A  
HETATM   10  C   UNL     1     -13.557   9.338  72.371  1.00  0.00    -0.527 C  
HETATM   11  C   UNL     1     -12.198   7.604  71.165  1.00  0.00    -0.310 A  
HETATM   12  C   UNL     1     -11.193   7.244  70.265  1.00  0.00    -0.262 A  
HETATM   13  O   UNL     1     -10.874   5.925  70.097  1.00  0.00    -0.290 OA 
HETATM   14  H   UNL     1     -11.351   5.268  70.591  1.00  0.00     0.000 HD 
ENDBRANCH   5   6
ENDBRANCH   4   5
ENDBRANCH   3   4
ENDBRANCH   2   3
TORSDOF 4
ENDMDL
MODEL      159
REMARK 921   NORMALIZED FREE ENERGY PREDICTED BY IDOCK:   -3.19 KCAL/MOL
REMARK 922        TOTAL FREE ENERGY PREDICTED BY IDOCK:   -4.26 KCAL/MOL
REMARK 923 INTER-LIGAND FREE ENERGY PREDICTED BY IDOCK:   -3.85 KCAL/MOL
REMARK 924 INTRA-LIGAND FREE ENERGY PREDICTED BY IDOCK:   -0.41 KCAL/MOL
REMARK 927      BINDING AFFINITY PREDICTED BY RF-SCORE:    0.00 PKD
ROOT
HETATM    1  C   UNL     1     -13.844  15.523  72.457  1.00  0.00    -0.669 C  
HETATM    2  C   UNL     1     -14.354  14.232  71.835  1.00  0.00    -0.597 C  
ENDROOT
BRANCH   2   3
HETATM    3  C   UNL     1     -13.517  13.025  72.261  1.00  0.00    -0.645 C  
BRANCH   3   4
HETATM    4  C   UNL     1     -12.287  12.868  71.360  1.00  0.00    -0.086 C  
BRANCH   4   5
HETATM    5  C   UNL     1     -12.518  13.345  69.919  1.00  0.00    -0.155 C  
BRANCH   5   6
HETATM    6  C   UNL     1     -11.317  14.020  69.296  1.00  0.00    -0.318 A  
HETATM    7  C   UNL     1     -10.219  13.249  68.884  1.00  0.00    -0.033 A  
HETATM    8  C   UNL     1      -9.069  13.854  68.371  1.00  0.00    -0.184 A  
HETATM    9  C   UNL     1      -8.999  15.244  68.244  1.00  0.00    -0.176 A  
HETATM   10  C   UNL     1      -7.753  15.910  67.739  1.00  0.00    -0.156 C  
HETATM   11  C   UNL     1     -10.108  16.018  68.607  1.00  0.00    -0.220 A  
HETATM   12  C   UNL     1     -11.250  15.407  69.129  1.00  0.00    -0.287 A  
HETATM   13  O   UNL     1     -12.320  16.174  69.499  1.00  0.00    -0.323 OA 
HETATM   14  H   UNL     1     -12.274  17.116  69.386  1.00  0.00     0.000 HD 
ENDBRANCH   5   6
ENDBRANCH   4   5
ENDBRANCH   3   4
ENDBRANCH   2   3
TORSDOF 4
ENDMDL
MODEL      160
REMARK 921   NORMALIZED FREE ENERGY PREDICTED BY IDOCK:   -3.18 KCAL/MOL
REMARK 922        TOTAL FREE ENERGY PREDICTED BY IDOCK:   -4.25 KCAL/MOL
REMARK 923 INTER-LIGAND FREE ENERGY PREDICTED BY IDOCK:   -4.04 KCAL/MOL
REMARK 924 INTRA-LIGAND FREE ENERGY PREDICTED BY IDOCK:   -0.22 KCAL/MOL
REMARK 927      BINDING AFFINITY PREDICTED BY RF-SCORE:    0.00 PKD
ROOT
HETATM    1  C   UNL     1     -11.894  15.605  68.856  1.00  0.00    -0.368 C  
HETATM    2  C   UNL     1     -11.998  14.111  69.123  1.00  0.00    -0.388 C  
ENDROOT
BRANCH   2   3
HETATM    3  C   UNL     1     -11.626  13.285  67.892  1.00  0.00    -0.370 C  
BRANCH   3   4
HETATM    4  C   UNL     1     -10.770  12.075  68.284  1.00  0.00    -0.252 C  
BRANCH   4   5
HETATM    5  C   UNL     1     -11.561  10.761  68.352  1.00  0.00    -0.311 C  
BRANCH   5   6
HETATM    6  C   UNL     1     -11.222   9.901  69.548  1.00  0.00    -0.220 A  
HETATM    7  C   UNL     1     -10.423   8.759  69.383  1.00  0.00    -0.228 A  
HETATM    8  C   UNL     1     -10.153   7.910  70.459  1.00  0.00    -0.192 A  
HETATM    9  C   UNL     1     -10.663   8.195  71.728  1.00  0.00    -0.313 A  
HETATM   10  C   UNL     1     -10.420   7.266  72.882  1.00  0.00    -0.326 C  
HETATM   11  C   UNL     1     -11.420   9.357  71.913  1.00  0.00    -0.308 A  
HETATM   12  C   UNL     1     -11.695  10.196  70.830  1.00  0.00    -0.378 A  
HETATM   13  O   UNL     1     -12.453  11.319  71.018  1.00  0.00    -0.382 OA 
HETATM   14  H   UNL     1     -12.774  11.518  71.890  1.00  0.00     0.000 HD 
ENDBRANCH   5   6
ENDBRANCH   4   5
ENDBRANCH   3   4
ENDBRANCH   2   3
TORSDOF 4
ENDMDL
MODEL      161
REMARK 921   NORMALIZED FREE ENERGY PREDICTED BY IDOCK:   -3.18 KCAL/MOL
REMARK 922        TOTAL FREE ENERGY PREDICTED BY IDOCK:   -4.25 KCAL/MOL
REMARK 923 INTER-LIGAND FREE ENERGY PREDICTED BY IDOCK:   -3.83 KCAL/MOL
REMARK 924 INTRA-LIGAND FREE ENERGY PREDICTED BY IDOCK:   -0.42 KCAL/MOL
REMARK 927      BINDING AFFINITY PREDICTED BY RF-SCORE:    0.00 PKD
ROOT
HETATM    1  C   UNL     1     -12.477  10.561  71.042  1.00  0.00    -0.501 C  
HETATM    2  C   UNL     1     -11.998  11.779  70.268  1.00  0.00    -0.429 C  
ENDROOT
BRANCH   2   3
HETATM    3  C   UNL     1     -11.890  11.494  68.769  1.00  0.00    -0.394 C  
BRANCH   3   4
HETATM    4  C   UNL     1     -10.669  12.199  68.166  1.00  0.00    -0.238 C  
BRANCH   4   5
HETATM    5  C   UNL     1      -9.649  11.232  67.547  1.00  0.00    -0.181 C  
BRANCH   5   6
HETATM    6  C   UNL     1      -9.792   9.803  68.020  1.00  0.00    -0.173 A  
HETATM    7  C   UNL     1     -10.356   8.840  67.169  1.00  0.00    -0.364 A  
HETATM    8  C   UNL     1     -10.565   7.530  67.607  1.00  0.00    -0.303 A  
HETATM    9  C   UNL     1     -10.197   7.151  68.901  1.00  0.00    -0.188 A  
HETATM   10  C   UNL     1     -10.459   5.760  69.399  1.00  0.00    -0.360 C  
HETATM   11  C   UNL     1      -9.589   8.092  69.740  1.00  0.00    -0.171 A  
HETATM   12  C   UNL     1      -9.394   9.403  69.299  1.00  0.00    -0.167 A  
HETATM   13  O   UNL     1      -8.818  10.320  70.134  1.00  0.00    -0.357 OA 
HETATM   14  H   UNL     1      -8.548  10.047  71.003  1.00  0.00     0.000 HD 
ENDBRANCH   5   6
ENDBRANCH   4   5
ENDBRANCH   3   4
ENDBRANCH   2   3
TORSDOF 4
ENDMDL
MODEL      162
REMARK 921   NORMALIZED FREE ENERGY PREDICTED BY IDOCK:   -3.18 KCAL/MOL
REMARK 922        TOTAL FREE ENERGY PREDICTED BY IDOCK:   -4.24 KCAL/MOL
REMARK 923 INTER-LIGAND FREE ENERGY PREDICTED BY IDOCK:   -3.53 KCAL/MOL
REMARK 924 INTRA-LIGAND FREE ENERGY PREDICTED BY IDOCK:   -0.71 KCAL/MOL
REMARK 927      BINDING AFFINITY PREDICTED BY RF-SCORE:    0.00 PKD
ROOT
HETATM    1  C   UNL     1      -7.168  19.720  68.727  1.00  0.00    -0.352 C  
HETATM    2  C   UNL     1      -8.612  19.569  69.183  1.00  0.00    -0.113 C  
ENDROOT
BRANCH   2   3
HETATM    3  C   UNL     1      -9.600  19.984  68.092  1.00  0.00    -0.423 C  
BRANCH   3   4
HETATM    4  C   UNL     1     -10.660  18.898  67.874  1.00  0.00    -0.425 C  
BRANCH   4   5
HETATM    5  C   UNL     1     -10.405  18.035  66.630  1.00  0.00    -0.375 C  
BRANCH   5   6
HETATM    6  C   UNL     1      -9.449  16.887  66.866  1.00  0.00    -0.261 A  
HETATM    7  C   UNL     1      -9.881  15.751  67.568  1.00  0.00    -0.229 A  
HETATM    8  C   UNL     1      -8.998  14.709  67.860  1.00  0.00    -0.174 A  
HETATM    9  C   UNL     1      -7.666  14.773  67.441  1.00  0.00    -0.230 A  
HETATM   10  C   UNL     1      -6.696  13.683  67.789  1.00  0.00    -0.177 C  
HETATM   11  C   UNL     1      -7.238  15.880  66.699  1.00  0.00     0.072 A  
HETATM   12  C   UNL     1      -8.124  16.924  66.420  1.00  0.00    -0.315 A  
HETATM   13  O   UNL     1      -7.690  18.010  65.711  1.00  0.00    -0.532 OA 
HETATM   14  H   UNL     1      -6.790  18.034  65.408  1.00  0.00     0.000 HD 
ENDBRANCH   5   6
ENDBRANCH   4   5
ENDBRANCH   3   4
ENDBRANCH   2   3
TORSDOF 4
ENDMDL
MODEL      163
REMARK 921   NORMALIZED FREE ENERGY PREDICTED BY IDOCK:   -3.17 KCAL/MOL
REMARK 922        TOTAL FREE ENERGY PREDICTED BY IDOCK:   -4.23 KCAL/MOL
REMARK 923 INTER-LIGAND FREE ENERGY PREDICTED BY IDOCK:   -3.89 KCAL/MOL
REMARK 924 INTRA-LIGAND FREE ENERGY PREDICTED BY IDOCK:   -0.34 KCAL/MOL
REMARK 927      BINDING AFFINITY PREDICTED BY RF-SCORE:    0.00 PKD
ROOT
HETATM    1  C   UNL     1      -7.643   9.794  70.146  1.00  0.00    -0.180 C  
HETATM    2  C   UNL     1      -7.690  10.301  68.712  1.00  0.00    -0.096 C  
ENDROOT
BRANCH   2   3
HETATM    3  C   UNL     1      -8.417   9.325  67.786  1.00  0.00    -0.116 C  
BRANCH   3   4
HETATM    4  C   UNL     1      -8.329   9.787  66.328  1.00  0.00    -0.117 C  
BRANCH   4   5
HETATM    5  C   UNL     1      -9.665   9.697  65.575  1.00  0.00    -0.372 C  
BRANCH   5   6
HETATM    6  C   UNL     1     -10.302  11.039  65.294  1.00  0.00    -0.338 A  
HETATM    7  C   UNL     1     -11.196  11.595  66.222  1.00  0.00    -0.332 A  
HETATM    8  C   UNL     1     -11.852  12.800  65.954  1.00  0.00    -0.490 A  
HETATM    9  C   UNL     1     -11.614  13.482  64.758  1.00  0.00    -0.372 A  
HETATM   10  C   UNL     1     -12.347  14.751  64.438  1.00  0.00    -0.389 C  
HETATM   11  C   UNL     1     -10.688  12.960  63.849  1.00  0.00    -0.390 A  
HETATM   12  C   UNL     1     -10.044  11.750  64.118  1.00  0.00    -0.310 A  
HETATM   13  O   UNL     1      -9.156  11.239  63.213  1.00  0.00    -0.393 OA 
HETATM   14  H   UNL     1      -8.981  11.722  62.414  1.00  0.00     0.000 HD 
ENDBRANCH   5   6
ENDBRANCH   4   5
ENDBRANCH   3   4
ENDBRANCH   2   3
TORSDOF 4
ENDMDL
MODEL      164
REMARK 921   NORMALIZED FREE ENERGY PREDICTED BY IDOCK:   -3.16 KCAL/MOL
REMARK 922        TOTAL FREE ENERGY PREDICTED BY IDOCK:   -4.23 KCAL/MOL
REMARK 923 INTER-LIGAND FREE ENERGY PREDICTED BY IDOCK:   -3.52 KCAL/MOL
REMARK 924 INTRA-LIGAND FREE ENERGY PREDICTED BY IDOCK:   -0.71 KCAL/MOL
REMARK 927      BINDING AFFINITY PREDICTED BY RF-SCORE:    0.00 PKD
ROOT
HETATM    1  C   UNL     1      -7.747   6.526  71.216  1.00  0.00    -0.095 C  
HETATM    2  C   UNL     1      -8.474   6.960  72.480  1.00  0.00    -0.124 C  
ENDROOT
BRANCH   2   3
HETATM    3  C   UNL     1      -9.688   6.077  72.771  1.00  0.00    -0.164 C  
BRANCH   3   4
HETATM    4  C   UNL     1     -10.930   6.931  73.047  1.00  0.00    -0.308 C  
BRANCH   4   5
HETATM    5  C   UNL     1     -11.983   6.860  71.931  1.00  0.00    -0.363 C  
BRANCH   5   6
HETATM    6  C   UNL     1     -11.440   7.179  70.555  1.00  0.00    -0.334 A  
HETATM    7  C   UNL     1     -11.283   6.152  69.612  1.00  0.00    -0.488 A  
HETATM    8  C   UNL     1     -10.718   6.408  68.360  1.00  0.00    -0.349 A  
HETATM    9  C   UNL     1     -10.314   7.701  68.018  1.00  0.00    -0.257 A  
HETATM   10  C   UNL     1      -9.663   7.981  66.696  1.00  0.00    -0.313 C  
HETATM   11  C   UNL     1     -10.512   8.741  68.935  1.00  0.00    -0.217 A  
HETATM   12  C   UNL     1     -11.067   8.475  70.189  1.00  0.00    -0.188 A  
HETATM   13  O   UNL     1     -11.237   9.495  71.084  1.00  0.00    -0.315 OA 
HETATM   14  H   UNL     1     -10.984  10.376  70.834  1.00  0.00     0.000 HD 
ENDBRANCH   5   6
ENDBRANCH   4   5
ENDBRANCH   3   4
ENDBRANCH   2   3
TORSDOF 4
ENDMDL
MODEL      165
REMARK 921   NORMALIZED FREE ENERGY PREDICTED BY IDOCK:   -3.16 KCAL/MOL
REMARK 922        TOTAL FREE ENERGY PREDICTED BY IDOCK:   -4.22 KCAL/MOL
REMARK 923 INTER-LIGAND FREE ENERGY PREDICTED BY IDOCK:   -3.96 KCAL/MOL
REMARK 924 INTRA-LIGAND FREE ENERGY PREDICTED BY IDOCK:   -0.26 KCAL/MOL
REMARK 927      BINDING AFFINITY PREDICTED BY RF-SCORE:    0.00 PKD
ROOT
HETATM    1  C   UNL     1      -9.689  11.192  63.200  1.00  0.00    -0.401 C  
HETATM    2  C   UNL     1      -9.663  10.176  64.332  1.00  0.00    -0.345 C  
ENDROOT
BRANCH   2   3
HETATM    3  C   UNL     1      -9.843  10.841  65.697  1.00  0.00    -0.299 C  
BRANCH   3   4
HETATM    4  C   UNL     1      -9.327   9.932  66.819  1.00  0.00    -0.187 C  
BRANCH   4   5
HETATM    5  C   UNL     1     -10.296   8.798  67.184  1.00  0.00    -0.364 C  
BRANCH   5   6
HETATM    6  C   UNL     1     -10.395   8.531  68.669  1.00  0.00    -0.224 A  
HETATM    7  C   UNL     1      -9.997   9.518  69.584  1.00  0.00    -0.220 A  
HETATM    8  C   UNL     1     -10.012   9.269  70.959  1.00  0.00    -0.364 A  
HETATM    9  C   UNL     1     -10.442   8.033  71.449  1.00  0.00    -0.257 A  
HETATM   10  C   UNL     1     -10.418   7.738  72.919  1.00  0.00    -0.412 C  
HETATM   11  C   UNL     1     -10.887   7.061  70.546  1.00  0.00    -0.279 A  
HETATM   12  C   UNL     1     -10.858   7.311  69.172  1.00  0.00    -0.136 A  
HETATM   13  O   UNL     1     -11.277   6.347  68.299  1.00  0.00    -0.474 OA 
HETATM   14  H   UNL     1     -11.592   5.518  68.641  1.00  0.00     0.000 HD 
ENDBRANCH   5   6
ENDBRANCH   4   5
ENDBRANCH   3   4
ENDBRANCH   2   3
TORSDOF 4
ENDMDL
MODEL      166
REMARK 921   NORMALIZED FREE ENERGY PREDICTED BY IDOCK:   -3.16 KCAL/MOL
REMARK 922        TOTAL FREE ENERGY PREDICTED BY IDOCK:   -4.22 KCAL/MOL
REMARK 923 INTER-LIGAND FREE ENERGY PREDICTED BY IDOCK:   -3.95 KCAL/MOL
REMARK 924 INTRA-LIGAND FREE ENERGY PREDICTED BY IDOCK:   -0.27 KCAL/MOL
REMARK 927      BINDING AFFINITY PREDICTED BY RF-SCORE:    0.00 PKD
ROOT
HETATM    1  C   UNL     1      -9.400   3.566  68.896  1.00  0.00    -0.236 C  
HETATM    2  C   UNL     1      -9.477   5.034  69.289  1.00  0.00    -0.197 C  
ENDROOT
BRANCH   2   3
HETATM    3  C   UNL     1     -10.634   5.307  70.250  1.00  0.00    -0.288 C  
BRANCH   3   4
HETATM    4  C   UNL     1     -11.245   6.689  69.991  1.00  0.00    -0.425 C  
BRANCH   4   5
HETATM    5  C   UNL     1     -10.339   7.850  70.423  1.00  0.00    -0.212 C  
BRANCH   5   6
HETATM    6  C   UNL     1     -11.093   9.090  70.850  1.00  0.00    -0.343 A  
HETATM    7  C   UNL     1     -11.985   9.027  71.932  1.00  0.00    -0.445 A  
HETATM    8  C   UNL     1     -12.746  10.139  72.300  1.00  0.00    -0.170 A  
HETATM    9  C   UNL     1     -12.618  11.344  71.604  1.00  0.00    -0.338 A  
HETATM   10  C   UNL     1     -13.463  12.532  71.960  1.00  0.00    -0.486 C  
HETATM   11  C   UNL     1     -11.696  11.430  70.555  1.00  0.00    -0.296 A  
HETATM   12  C   UNL     1     -10.946  10.311  70.185  1.00  0.00    -0.314 A  
HETATM   13  O   UNL     1     -10.063  10.401  69.146  1.00  0.00    -0.200 OA 
HETATM   14  H   UNL     1      -9.963  11.231  68.694  1.00  0.00     0.000 HD 
ENDBRANCH   5   6
ENDBRANCH   4   5
ENDBRANCH   3   4
ENDBRANCH   2   3
TORSDOF 4
ENDMDL
MODEL      167
REMARK 921   NORMALIZED FREE ENERGY PREDICTED BY IDOCK:   -3.15 KCAL/MOL
REMARK 922        TOTAL FREE ENERGY PREDICTED BY IDOCK:   -4.21 KCAL/MOL
REMARK 923 INTER-LIGAND FREE ENERGY PREDICTED BY IDOCK:   -3.84 KCAL/MOL
REMARK 924 INTRA-LIGAND FREE ENERGY PREDICTED BY IDOCK:   -0.36 KCAL/MOL
REMARK 927      BINDING AFFINITY PREDICTED BY RF-SCORE:    0.00 PKD
ROOT
HETATM    1  C   UNL     1     -10.619  15.636  66.670  1.00  0.00    -0.307 C  
HETATM    2  C   UNL     1      -9.692  14.458  66.932  1.00  0.00    -0.266 C  
ENDROOT
BRANCH   2   3
HETATM    3  C   UNL     1      -9.942  13.308  65.956  1.00  0.00    -0.297 C  
BRANCH   3   4
HETATM    4  C   UNL     1     -11.292  12.637  66.238  1.00  0.00    -0.376 C  
BRANCH   4   5
HETATM    5  C   UNL     1     -11.467  12.204  67.701  1.00  0.00    -0.399 C  
BRANCH   5   6
HETATM    6  C   UNL     1     -11.070  10.769  67.967  1.00  0.00    -0.359 A  
HETATM    7  C   UNL     1     -10.780   9.914  66.892  1.00  0.00    -0.195 A  
HETATM    8  C   UNL     1     -10.480   8.567  67.108  1.00  0.00    -0.370 A  
HETATM    9  C   UNL     1     -10.446   8.050  68.406  1.00  0.00    -0.205 A  
HETATM   10  C   UNL     1     -10.172   6.595  68.648  1.00  0.00    -0.184 C  
HETATM   11  C   UNL     1     -10.685   8.906  69.487  1.00  0.00    -0.206 A  
HETATM   12  C   UNL     1     -10.996  10.250  69.263  1.00  0.00    -0.241 A  
HETATM   13  O   UNL     1     -11.247  11.072  70.325  1.00  0.00    -0.439 OA 
HETATM   14  H   UNL     1     -11.197  10.719  71.206  1.00  0.00     0.000 HD 
ENDBRANCH   5   6
ENDBRANCH   4   5
ENDBRANCH   3   4
ENDBRANCH   2   3
TORSDOF 4
ENDMDL
MODEL      168
REMARK 921   NORMALIZED FREE ENERGY PREDICTED BY IDOCK:   -3.14 KCAL/MOL
REMARK 922        TOTAL FREE ENERGY PREDICTED BY IDOCK:   -4.20 KCAL/MOL
REMARK 923 INTER-LIGAND FREE ENERGY PREDICTED BY IDOCK:   -3.76 KCAL/MOL
REMARK 924 INTRA-LIGAND FREE ENERGY PREDICTED BY IDOCK:   -0.44 KCAL/MOL
REMARK 927      BINDING AFFINITY PREDICTED BY RF-SCORE:    0.00 PKD
ROOT
HETATM    1  C   UNL     1      -7.243   7.483  72.915  1.00  0.00    -0.082 C  
HETATM    2  C   UNL     1      -8.526   8.258  73.178  1.00  0.00    -0.265 C  
ENDROOT
BRANCH   2   3
HETATM    3  C   UNL     1      -9.623   7.364  73.756  1.00  0.00    -0.333 C  
BRANCH   3   4
HETATM    4  C   UNL     1     -10.921   7.503  72.953  1.00  0.00    -0.434 C  
BRANCH   4   5
HETATM    5  C   UNL     1     -11.484   6.162  72.461  1.00  0.00    -0.318 C  
BRANCH   5   6
HETATM    6  C   UNL     1     -10.832   5.650  71.196  1.00  0.00    -0.288 A  
HETATM    7  C   UNL     1      -9.912   4.592  71.263  1.00  0.00    -0.268 A  
HETATM    8  C   UNL     1      -9.244   4.149  70.119  1.00  0.00    -0.210 A  
HETATM    9  C   UNL     1      -9.495   4.743  68.879  1.00  0.00    -0.209 A  
HETATM   10  C   UNL     1      -8.750   4.308  67.652  1.00  0.00    -0.116 C  
HETATM   11  C   UNL     1     -10.447   5.766  68.795  1.00  0.00    -0.312 A  
HETATM   12  C   UNL     1     -11.103   6.212  69.945  1.00  0.00    -0.410 A  
HETATM   13  O   UNL     1     -12.016   7.225  69.854  1.00  0.00    -0.515 OA 
HETATM   14  H   UNL     1     -12.200   7.607  69.003  1.00  0.00     0.000 HD 
ENDBRANCH   5   6
ENDBRANCH   4   5
ENDBRANCH   3   4
ENDBRANCH   2   3
TORSDOF 4
ENDMDL
MODEL      169
REMARK 921   NORMALIZED FREE ENERGY PREDICTED BY IDOCK:   -3.13 KCAL/MOL
REMARK 922        TOTAL FREE ENERGY PREDICTED BY IDOCK:   -4.18 KCAL/MOL
REMARK 923 INTER-LIGAND FREE ENERGY PREDICTED BY IDOCK:   -3.69 KCAL/MOL
REMARK 924 INTRA-LIGAND FREE ENERGY PREDICTED BY IDOCK:   -0.49 KCAL/MOL
REMARK 927      BINDING AFFINITY PREDICTED BY RF-SCORE:    0.00 PKD
ROOT
HETATM    1  C   UNL     1      -8.608  12.823  67.045  1.00  0.00    -0.177 C  
HETATM    2  C   UNL     1     -10.114  12.982  67.191  1.00  0.00    -0.244 C  
ENDROOT
BRANCH   2   3
HETATM    3  C   UNL     1     -10.497  14.394  67.637  1.00  0.00    -0.245 C  
BRANCH   3   4
HETATM    4  C   UNL     1     -11.113  15.184  66.477  1.00  0.00    -0.305 C  
BRANCH   4   5
HETATM    5  C   UNL     1     -10.086  15.995  65.674  1.00  0.00    -0.384 C  
BRANCH   5   6
HETATM    6  C   UNL     1      -9.161  16.831  66.529  1.00  0.00    -0.302 A  
HETATM    7  C   UNL     1      -7.815  16.458  66.672  1.00  0.00    -0.316 A  
HETATM    8  C   UNL     1      -6.958  17.173  67.512  1.00  0.00    -0.172 A  
HETATM    9  C   UNL     1      -7.424  18.287  68.215  1.00  0.00    -0.288 A  
HETATM   10  C   UNL     1      -6.527  19.034  69.157  1.00  0.00    -0.315 C  
HETATM   11  C   UNL     1      -8.752  18.695  68.041  1.00  0.00    -0.325 A  
HETATM   12  C   UNL     1      -9.607  17.969  67.208  1.00  0.00    -0.269 A  
HETATM   13  O   UNL     1     -10.907  18.365  67.061  1.00  0.00    -0.345 OA 
HETATM   14  H   UNL     1     -11.209  19.138  67.523  1.00  0.00     0.000 HD 
ENDBRANCH   5   6
ENDBRANCH   4   5
ENDBRANCH   3   4
ENDBRANCH   2   3
TORSDOF 4
ENDMDL
MODEL      170
REMARK 921   NORMALIZED FREE ENERGY PREDICTED BY IDOCK:   -3.12 KCAL/MOL
REMARK 922        TOTAL FREE ENERGY PREDICTED BY IDOCK:   -4.18 KCAL/MOL
REMARK 923 INTER-LIGAND FREE ENERGY PREDICTED BY IDOCK:   -3.87 KCAL/MOL
REMARK 924 INTRA-LIGAND FREE ENERGY PREDICTED BY IDOCK:   -0.30 KCAL/MOL
REMARK 927      BINDING AFFINITY PREDICTED BY RF-SCORE:    0.00 PKD
ROOT
HETATM    1  C   UNL     1     -11.688   6.284  71.945  1.00  0.00    -0.370 C  
HETATM    2  C   UNL     1     -11.694   7.745  72.368  1.00  0.00    -0.394 C  
ENDROOT
BRANCH   2   3
HETATM    3  C   UNL     1     -10.313   8.386  72.225  1.00  0.00    -0.403 C  
BRANCH   3   4
HETATM    4  C   UNL     1     -10.311   9.433  71.106  1.00  0.00    -0.377 C  
BRANCH   4   5
HETATM    5  C   UNL     1      -9.149   9.268  70.115  1.00  0.00    -0.248 C  
BRANCH   5   6
HETATM    6  C   UNL     1      -9.465   9.743  68.714  1.00  0.00    -0.154 A  
HETATM    7  C   UNL     1     -10.095   8.875  67.809  1.00  0.00    -0.263 A  
HETATM    8  C   UNL     1     -10.334   9.265  66.489  1.00  0.00    -0.270 A  
HETATM    9  C   UNL     1      -9.964  10.539  66.051  1.00  0.00    -0.295 A  
HETATM   10  C   UNL     1     -10.172  10.953  64.624  1.00  0.00    -0.411 C  
HETATM   11  C   UNL     1      -9.380  11.429  66.960  1.00  0.00    -0.183 A  
HETATM   12  C   UNL     1      -9.133  11.028  68.275  1.00  0.00    -0.158 A  
HETATM   13  O   UNL     1      -8.544  11.899  69.149  1.00  0.00    -0.349 OA 
HETATM   14  H   UNL     1      -8.318  12.772  68.850  1.00  0.00     0.000 HD 
ENDBRANCH   5   6
ENDBRANCH   4   5
ENDBRANCH   3   4
ENDBRANCH   2   3
TORSDOF 4
ENDMDL
MODEL      171
REMARK 921   NORMALIZED FREE ENERGY PREDICTED BY IDOCK:   -3.12 KCAL/MOL
REMARK 922        TOTAL FREE ENERGY PREDICTED BY IDOCK:   -4.18 KCAL/MOL
REMARK 923 INTER-LIGAND FREE ENERGY PREDICTED BY IDOCK:   -3.83 KCAL/MOL
REMARK 924 INTRA-LIGAND FREE ENERGY PREDICTED BY IDOCK:   -0.35 KCAL/MOL
REMARK 927      BINDING AFFINITY PREDICTED BY RF-SCORE:    0.00 PKD
ROOT
HETATM    1  C   UNL     1      -7.433   8.382  66.829  1.00  0.00    -0.083 C  
HETATM    2  C   UNL     1      -8.604   8.531  65.870  1.00  0.00    -0.183 C  
ENDROOT
BRANCH   2   3
HETATM    3  C   UNL     1      -8.689   9.945  65.291  1.00  0.00    -0.181 C  
BRANCH   3   4
HETATM    4  C   UNL     1     -10.143  10.426  65.239  1.00  0.00    -0.370 C  
BRANCH   4   5
HETATM    5  C   UNL     1     -10.829  10.454  66.612  1.00  0.00    -0.140 C  
BRANCH   5   6
HETATM    6  C   UNL     1     -11.079  11.847  67.145  1.00  0.00    -0.347 A  
HETATM    7  C   UNL     1     -11.799  12.771  66.372  1.00  0.00    -0.472 A  
HETATM    8  C   UNL     1     -11.983  14.084  66.811  1.00  0.00    -0.473 A  
HETATM    9  C   UNL     1     -11.464  14.498  68.041  1.00  0.00    -0.345 A  
HETATM   10  C   UNL     1     -11.613  15.918  68.501  1.00  0.00    -0.351 C  
HETATM   11  C   UNL     1     -10.786  13.570  68.840  1.00  0.00    -0.255 A  
HETATM   12  C   UNL     1     -10.597  12.261  68.390  1.00  0.00    -0.235 A  
HETATM   13  O   UNL     1      -9.916  11.368  69.171  1.00  0.00    -0.393 OA 
HETATM   14  H   UNL     1      -9.588  11.650  70.017  1.00  0.00     0.000 HD 
ENDBRANCH   5   6
ENDBRANCH   4   5
ENDBRANCH   3   4
ENDBRANCH   2   3
TORSDOF 4
ENDMDL
MODEL      172
REMARK 921   NORMALIZED FREE ENERGY PREDICTED BY IDOCK:   -3.12 KCAL/MOL
REMARK 922        TOTAL FREE ENERGY PREDICTED BY IDOCK:   -4.17 KCAL/MOL
REMARK 923 INTER-LIGAND FREE ENERGY PREDICTED BY IDOCK:   -3.84 KCAL/MOL
REMARK 924 INTRA-LIGAND FREE ENERGY PREDICTED BY IDOCK:   -0.33 KCAL/MOL
REMARK 927      BINDING AFFINITY PREDICTED BY RF-SCORE:    0.00 PKD
ROOT
HETATM    1  C   UNL     1     -10.600   7.922  70.148  1.00  0.00    -0.237 C  
HETATM    2  C   UNL     1     -10.261   9.293  69.583  1.00  0.00    -0.219 C  
ENDROOT
BRANCH   2   3
HETATM    3  C   UNL     1      -8.863   9.325  68.965  1.00  0.00    -0.136 C  
BRANCH   3   4
HETATM    4  C   UNL     1      -8.753  10.441  67.921  1.00  0.00    -0.118 C  
BRANCH   4   5
HETATM    5  C   UNL     1      -9.416  11.756  68.357  1.00  0.00    -0.188 C  
BRANCH   5   6
HETATM    6  C   UNL     1     -10.159  12.465  67.247  1.00  0.00    -0.214 A  
HETATM    7  C   UNL     1      -9.469  13.339  66.393  1.00  0.00    -0.225 A  
HETATM    8  C   UNL     1     -10.146  14.060  65.405  1.00  0.00    -0.343 A  
HETATM    9  C   UNL     1     -11.525  13.909  65.240  1.00  0.00    -0.319 A  
HETATM   10  C   UNL     1     -12.271  14.712  64.216  1.00  0.00    -0.432 C  
HETATM   11  C   UNL     1     -12.213  13.003  66.056  1.00  0.00    -0.463 A  
HETATM   12  C   UNL     1     -11.532  12.294  67.049  1.00  0.00    -0.354 A  
HETATM   13  O   UNL     1     -12.218  11.426  67.853  1.00  0.00    -0.592 OA 
HETATM   14  H   UNL     1     -13.151  11.310  67.717  1.00  0.00     0.000 HD 
ENDBRANCH   5   6
ENDBRANCH   4   5
ENDBRANCH   3   4
ENDBRANCH   2   3
TORSDOF 4
ENDMDL
MODEL      173
REMARK 921   NORMALIZED FREE ENERGY PREDICTED BY IDOCK:   -3.10 KCAL/MOL
REMARK 922        TOTAL FREE ENERGY PREDICTED BY IDOCK:   -4.15 KCAL/MOL
REMARK 923 INTER-LIGAND FREE ENERGY PREDICTED BY IDOCK:   -3.76 KCAL/MOL
REMARK 924 INTRA-LIGAND FREE ENERGY PREDICTED BY IDOCK:   -0.40 KCAL/MOL
REMARK 927      BINDING AFFINITY PREDICTED BY RF-SCORE:    0.00 PKD
ROOT
HETATM    1  C   UNL     1      -7.267   6.410  67.477  1.00  0.00    -0.086 C  
HETATM    2  C   UNL     1      -8.036   6.605  68.775  1.00  0.00    -0.119 C  
ENDROOT
BRANCH   2   3
HETATM    3  C   UNL     1      -8.985   7.802  68.700  1.00  0.00    -0.133 C  
BRANCH   3   4
HETATM    4  C   UNL     1      -8.293   9.078  69.192  1.00  0.00    -0.123 C  
BRANCH   4   5
HETATM    5  C   UNL     1      -8.554   9.383  70.674  1.00  0.00    -0.247 C  
BRANCH   5   6
HETATM    6  C   UNL     1      -9.996   9.203  71.093  1.00  0.00    -0.377 A  
HETATM    7  C   UNL     1     -10.985  10.050  70.570  1.00  0.00    -0.392 A  
HETATM    8  C   UNL     1     -12.313   9.949  70.995  1.00  0.00    -0.451 A  
HETATM    9  C   UNL     1     -12.682   8.988  71.940  1.00  0.00    -0.450 A  
HETATM   10  C   UNL     1     -14.094   8.902  72.439  1.00  0.00    -0.493 C  
HETATM   11  C   UNL     1     -11.711   8.108  72.430  1.00  0.00    -0.461 A  
HETATM   12  C   UNL     1     -10.383   8.221  72.010  1.00  0.00    -0.279 A  
HETATM   13  O   UNL     1      -9.439   7.368  72.511  1.00  0.00    -0.143 OA 
HETATM   14  H   UNL     1      -9.703   6.701  73.134  1.00  0.00     0.000 HD 
ENDBRANCH   5   6
ENDBRANCH   4   5
ENDBRANCH   3   4
ENDBRANCH   2   3
TORSDOF 4
ENDMDL
MODEL      174
REMARK 921   NORMALIZED FREE ENERGY PREDICTED BY IDOCK:   -3.10 KCAL/MOL
REMARK 922        TOTAL FREE ENERGY PREDICTED BY IDOCK:   -4.15 KCAL/MOL
REMARK 923 INTER-LIGAND FREE ENERGY PREDICTED BY IDOCK:   -3.88 KCAL/MOL
REMARK 924 INTRA-LIGAND FREE ENERGY PREDICTED BY IDOCK:   -0.27 KCAL/MOL
REMARK 927      BINDING AFFINITY PREDICTED BY RF-SCORE:    0.00 PKD
ROOT
HETATM    1  C   UNL     1      -8.771   6.087  66.966  1.00  0.00    -0.110 C  
HETATM    2  C   UNL     1     -10.066   6.047  67.763  1.00  0.00    -0.185 C  
ENDROOT
BRANCH   2   3
HETATM    3  C   UNL     1     -11.122   6.989  67.182  1.00  0.00    -0.298 C  
BRANCH   3   4
HETATM    4  C   UNL     1     -10.624   8.439  67.190  1.00  0.00    -0.326 C  
BRANCH   4   5
HETATM    5  C   UNL     1     -10.191   8.930  68.579  1.00  0.00    -0.223 C  
BRANCH   5   6
HETATM    6  C   UNL     1     -10.803  10.254  68.980  1.00  0.00    -0.265 A  
HETATM    7  C   UNL     1     -10.416  11.430  68.318  1.00  0.00    -0.221 A  
HETATM    8  C   UNL     1     -10.914  12.673  68.716  1.00  0.00    -0.289 A  
HETATM    9  C   UNL     1     -11.823  12.765  69.774  1.00  0.00    -0.380 A  
HETATM   10  C   UNL     1     -12.328  14.098  70.241  1.00  0.00    -0.421 C  
HETATM   11  C   UNL     1     -12.252  11.593  70.407  1.00  0.00    -0.434 A  
HETATM   12  C   UNL     1     -11.742  10.354  70.011  1.00  0.00    -0.286 A  
HETATM   13  O   UNL     1     -12.152   9.217  70.650  1.00  0.00    -0.440 OA 
HETATM   14  H   UNL     1     -12.790   9.286  71.351  1.00  0.00     0.000 HD 
ENDBRANCH   5   6
ENDBRANCH   4   5
ENDBRANCH   3   4
ENDBRANCH   2   3
TORSDOF 4
ENDMDL
MODEL      175
REMARK 921   NORMALIZED FREE ENERGY PREDICTED BY IDOCK:   -3.10 KCAL/MOL
REMARK 922        TOTAL FREE ENERGY PREDICTED BY IDOCK:   -4.15 KCAL/MOL
REMARK 923 INTER-LIGAND FREE ENERGY PREDICTED BY IDOCK:   -4.01 KCAL/MOL
REMARK 924 INTRA-LIGAND FREE ENERGY PREDICTED BY IDOCK:   -0.14 KCAL/MOL
REMARK 927      BINDING AFFINITY PREDICTED BY RF-SCORE:    0.00 PKD
ROOT
HETATM    1  C   UNL     1     -10.528  17.538  65.918  1.00  0.00    -0.251 C  
HETATM    2  C   UNL     1      -9.148  17.096  66.381  1.00  0.00    -0.285 C  
ENDROOT
BRANCH   2   3
HETATM    3  C   UNL     1      -8.913  15.606  66.130  1.00  0.00    -0.362 C  
BRANCH   3   4
HETATM    4  C   UNL     1     -10.048  14.766  66.726  1.00  0.00    -0.258 C  
BRANCH   4   5
HETATM    5  C   UNL     1     -10.698  13.810  65.716  1.00  0.00    -0.281 C  
BRANCH   5   6
HETATM    6  C   UNL     1     -10.555  12.348  66.076  1.00  0.00    -0.286 A  
HETATM    7  C   UNL     1      -9.755  11.510  65.285  1.00  0.00    -0.268 A  
HETATM    8  C   UNL     1      -9.663  10.142  65.554  1.00  0.00    -0.344 A  
HETATM    9  C   UNL     1     -10.357   9.586  66.632  1.00  0.00    -0.280 A  
HETATM   10  C   UNL     1     -10.304   8.112  66.903  1.00  0.00    -0.401 C  
HETATM   11  C   UNL     1     -11.119  10.423  67.455  1.00  0.00    -0.336 A  
HETATM   12  C   UNL     1     -11.216  11.788  67.174  1.00  0.00    -0.316 A  
HETATM   13  O   UNL     1     -11.979  12.592  67.973  1.00  0.00    -0.343 OA 
HETATM   14  H   UNL     1     -12.427  12.211  68.719  1.00  0.00     0.000 HD 
ENDBRANCH   5   6
ENDBRANCH   4   5
ENDBRANCH   3   4
ENDBRANCH   2   3
TORSDOF 4
ENDMDL
MODEL      176
REMARK 921   NORMALIZED FREE ENERGY PREDICTED BY IDOCK:   -3.09 KCAL/MOL
REMARK 922        TOTAL FREE ENERGY PREDICTED BY IDOCK:   -4.14 KCAL/MOL
REMARK 923 INTER-LIGAND FREE ENERGY PREDICTED BY IDOCK:   -3.73 KCAL/MOL
REMARK 924 INTRA-LIGAND FREE ENERGY PREDICTED BY IDOCK:   -0.41 KCAL/MOL
REMARK 927      BINDING AFFINITY PREDICTED BY RF-SCORE:    0.00 PKD
ROOT
HETATM    1  C   UNL     1     -12.305  13.712  66.313  1.00  0.00    -0.464 C  
HETATM    2  C   UNL     1     -11.745  12.354  66.711  1.00  0.00    -0.430 C  
ENDROOT
BRANCH   2   3
HETATM    3  C   UNL     1     -10.220  12.378  66.825  1.00  0.00    -0.234 C  
BRANCH   3   4
HETATM    4  C   UNL     1      -9.659  13.728  66.364  1.00  0.00    -0.285 C  
BRANCH   4   5
HETATM    5  C   UNL     1      -8.616  14.318  67.323  1.00  0.00    -0.229 C  
BRANCH   5   6
HETATM    6  C   UNL     1      -8.402  15.806  67.156  1.00  0.00    -0.231 A  
HETATM    7  C   UNL     1      -9.507  16.657  66.998  1.00  0.00    -0.239 A  
HETATM    8  C   UNL     1      -9.332  18.025  66.771  1.00  0.00    -0.287 A  
HETATM    9  C   UNL     1      -8.048  18.573  66.713  1.00  0.00    -0.267 A  
HETATM   10  C   UNL     1      -7.846  20.031  66.423  1.00  0.00    -0.326 C  
HETATM   11  C   UNL     1      -6.942  17.740  66.918  1.00  0.00    -0.212 A  
HETATM   12  C   UNL     1      -7.123  16.372  67.133  1.00  0.00    -0.200 A  
HETATM   13  O   UNL     1      -6.035  15.564  67.312  1.00  0.00    -0.326 OA 
HETATM   14  H   UNL     1      -5.166  15.949  67.296  1.00  0.00     0.000 HD 
ENDBRANCH   5   6
ENDBRANCH   4   5
ENDBRANCH   3   4
ENDBRANCH   2   3
TORSDOF 4
ENDMDL
MODEL      177
REMARK 921   NORMALIZED FREE ENERGY PREDICTED BY IDOCK:   -3.09 KCAL/MOL
REMARK 922        TOTAL FREE ENERGY PREDICTED BY IDOCK:   -4.14 KCAL/MOL
REMARK 923 INTER-LIGAND FREE ENERGY PREDICTED BY IDOCK:   -3.38 KCAL/MOL
REMARK 924 INTRA-LIGAND FREE ENERGY PREDICTED BY IDOCK:   -0.75 KCAL/MOL
REMARK 927      BINDING AFFINITY PREDICTED BY RF-SCORE:    0.00 PKD
ROOT
HETATM    1  C   UNL     1     -10.297  15.690  65.865  1.00  0.00    -0.368 C  
HETATM    2  C   UNL     1     -10.840  15.619  67.285  1.00  0.00    -0.298 C  
ENDROOT
BRANCH   2   3
HETATM    3  C   UNL     1     -10.111  14.565  68.120  1.00  0.00    -0.227 C  
BRANCH   3   4
HETATM    4  C   UNL     1      -9.573  15.175  69.419  1.00  0.00    -0.195 C  
BRANCH   4   5
HETATM    5  C   UNL     1      -8.065  15.465  69.381  1.00  0.00    -0.249 C  
BRANCH   5   6
HETATM    6  C   UNL     1      -7.678  16.573  68.427  1.00  0.00    -0.189 A  
HETATM    7  C   UNL     1      -7.950  17.909  68.762  1.00  0.00    -0.246 A  
HETATM    8  C   UNL     1      -7.666  18.944  67.868  1.00  0.00    -0.286 A  
HETATM    9  C   UNL     1      -7.089  18.668  66.626  1.00  0.00    -0.235 A  
HETATM   10  C   UNL     1      -6.824  19.765  65.638  1.00  0.00    -0.316 C  
HETATM   11  C   UNL     1      -6.770  17.343  66.304  1.00  0.00    -0.295 A  
HETATM   12  C   UNL     1      -7.066  16.311  67.197  1.00  0.00    -0.209 A  
HETATM   13  O   UNL     1      -6.768  15.020  66.863  1.00  0.00    -0.271 OA 
HETATM   14  H   UNL     1      -6.352  14.843  66.028  1.00  0.00     0.000 HD 
ENDBRANCH   5   6
ENDBRANCH   4   5
ENDBRANCH   3   4
ENDBRANCH   2   3
TORSDOF 4
ENDMDL
MODEL      178
REMARK 921   NORMALIZED FREE ENERGY PREDICTED BY IDOCK:   -3.07 KCAL/MOL
REMARK 922        TOTAL FREE ENERGY PREDICTED BY IDOCK:   -4.12 KCAL/MOL
REMARK 923 INTER-LIGAND FREE ENERGY PREDICTED BY IDOCK:   -3.58 KCAL/MOL
REMARK 924 INTRA-LIGAND FREE ENERGY PREDICTED BY IDOCK:   -0.53 KCAL/MOL
REMARK 927      BINDING AFFINITY PREDICTED BY RF-SCORE:    0.00 PKD
ROOT
HETATM    1  C   UNL     1      -8.001  11.606  67.710  1.00  0.00    -0.131 C  
HETATM    2  C   UNL     1      -7.365  12.786  68.429  1.00  0.00    -0.118 C  
ENDROOT
BRANCH   2   3
HETATM    3  C   UNL     1      -8.224  14.047  68.323  1.00  0.00    -0.153 C  
BRANCH   3   4
HETATM    4  C   UNL     1      -9.162  13.968  67.113  1.00  0.00    -0.240 C  
BRANCH   4   5
HETATM    5  C   UNL     1     -10.628  14.276  67.454  1.00  0.00    -0.276 C  
BRANCH   5   6
HETATM    6  C   UNL     1     -11.271  13.258  68.369  1.00  0.00    -0.314 A  
HETATM    7  C   UNL     1     -11.549  13.596  69.702  1.00  0.00    -0.342 A  
HETATM    8  C   UNL     1     -12.078  12.652  70.586  1.00  0.00    -0.315 A  
HETATM    9  C   UNL     1     -12.356  11.354  70.150  1.00  0.00    -0.344 A  
HETATM   10  C   UNL     1     -12.879  10.318  71.101  1.00  0.00    -0.504 C  
HETATM   11  C   UNL     1     -12.128  11.023  68.810  1.00  0.00    -0.184 A  
HETATM   12  C   UNL     1     -11.589  11.968  67.934  1.00  0.00    -0.337 A  
HETATM   13  O   UNL     1     -11.351  11.627  66.632  1.00  0.00    -0.324 OA 
HETATM   14  H   UNL     1     -11.567  10.750  66.337  1.00  0.00     0.000 HD 
ENDBRANCH   5   6
ENDBRANCH   4   5
ENDBRANCH   3   4
ENDBRANCH   2   3
TORSDOF 4
ENDMDL
MODEL      179
REMARK 921   NORMALIZED FREE ENERGY PREDICTED BY IDOCK:   -3.07 KCAL/MOL
REMARK 922        TOTAL FREE ENERGY PREDICTED BY IDOCK:   -4.11 KCAL/MOL
REMARK 923 INTER-LIGAND FREE ENERGY PREDICTED BY IDOCK:   -3.69 KCAL/MOL
REMARK 924 INTRA-LIGAND FREE ENERGY PREDICTED BY IDOCK:   -0.42 KCAL/MOL
REMARK 927      BINDING AFFINITY PREDICTED BY RF-SCORE:    0.00 PKD
ROOT
HETATM    1  C   UNL     1     -11.287  12.071  67.440  1.00  0.00    -0.393 C  
HETATM    2  C   UNL     1     -11.855  11.103  68.467  1.00  0.00    -0.330 C  
ENDROOT
BRANCH   2   3
HETATM    3  C   UNL     1     -10.990  11.037  69.727  1.00  0.00    -0.258 C  
BRANCH   3   4
HETATM    4  C   UNL     1     -11.698  10.249  70.835  1.00  0.00    -0.472 C  
BRANCH   4   5
HETATM    5  C   UNL     1     -10.798   9.209  71.518  1.00  0.00    -0.436 C  
BRANCH   5   6
HETATM    6  C   UNL     1     -10.450   8.028  70.641  1.00  0.00    -0.219 A  
HETATM    7  C   UNL     1     -11.411   7.036  70.392  1.00  0.00    -0.355 A  
HETATM    8  C   UNL     1     -11.093   5.900  69.643  1.00  0.00    -0.414 A  
HETATM    9  C   UNL     1      -9.810   5.741  69.112  1.00  0.00    -0.211 A  
HETATM   10  C   UNL     1      -9.442   4.504  68.347  1.00  0.00    -0.209 C  
HETATM   11  C   UNL     1      -8.859   6.748  69.314  1.00  0.00    -0.137 A  
HETATM   12  C   UNL     1      -9.181   7.876  70.073  1.00  0.00    -0.153 A  
HETATM   13  O   UNL     1      -8.239   8.844  70.281  1.00  0.00    -0.104 OA 
HETATM   14  H   UNL     1      -7.377   8.740  69.895  1.00  0.00     0.000 HD 
ENDBRANCH   5   6
ENDBRANCH   4   5
ENDBRANCH   3   4
ENDBRANCH   2   3
TORSDOF 4
ENDMDL
MODEL      180
REMARK 921   NORMALIZED FREE ENERGY PREDICTED BY IDOCK:   -3.06 KCAL/MOL
REMARK 922        TOTAL FREE ENERGY PREDICTED BY IDOCK:   -4.09 KCAL/MOL
REMARK 923 INTER-LIGAND FREE ENERGY PREDICTED BY IDOCK:   -3.74 KCAL/MOL
REMARK 924 INTRA-LIGAND FREE ENERGY PREDICTED BY IDOCK:   -0.36 KCAL/MOL
REMARK 927      BINDING AFFINITY PREDICTED BY RF-SCORE:    0.00 PKD
ROOT
HETATM    1  C   UNL     1     -12.214  12.117  63.307  1.00  0.00    -0.533 C  
HETATM    2  C   UNL     1     -11.987  12.321  64.797  1.00  0.00    -0.429 C  
ENDROOT
BRANCH   2   3
HETATM    3  C   UNL     1     -12.881  13.425  65.364  1.00  0.00    -0.388 C  
BRANCH   3   4
HETATM    4  C   UNL     1     -12.050  14.463  66.125  1.00  0.00    -0.373 C  
BRANCH   4   5
HETATM    5  C   UNL     1     -10.578  14.509  65.688  1.00  0.00    -0.343 C  
BRANCH   5   6
HETATM    6  C   UNL     1      -9.619  14.864  66.802  1.00  0.00    -0.265 A  
HETATM    7  C   UNL     1      -9.666  16.141  67.383  1.00  0.00    -0.233 A  
HETATM    8  C   UNL     1      -8.745  16.517  68.364  1.00  0.00    -0.218 A  
HETATM    9  C   UNL     1      -7.766  15.617  68.797  1.00  0.00    -0.165 A  
HETATM   10  C   UNL     1      -6.742  16.024  69.814  1.00  0.00    -0.116 C  
HETATM   11  C   UNL     1      -7.743  14.326  68.257  1.00  0.00    -0.136 A  
HETATM   12  C   UNL     1      -8.660  13.960  67.268  1.00  0.00    -0.211 A  
HETATM   13  O   UNL     1      -8.614  12.703  66.734  1.00  0.00    -0.325 OA 
HETATM   14  H   UNL     1      -7.962  12.089  67.051  1.00  0.00     0.000 HD 
ENDBRANCH   5   6
ENDBRANCH   4   5
ENDBRANCH   3   4
ENDBRANCH   2   3
TORSDOF 4
ENDMDL
MODEL      181
REMARK 921   NORMALIZED FREE ENERGY PREDICTED BY IDOCK:   -3.05 KCAL/MOL
REMARK 922        TOTAL FREE ENERGY PREDICTED BY IDOCK:   -4.08 KCAL/MOL
REMARK 923 INTER-LIGAND FREE ENERGY PREDICTED BY IDOCK:   -3.68 KCAL/MOL
REMARK 924 INTRA-LIGAND FREE ENERGY PREDICTED BY IDOCK:   -0.40 KCAL/MOL
REMARK 927      BINDING AFFINITY PREDICTED BY RF-SCORE:    0.00 PKD
ROOT
HETATM    1  C   UNL     1     -10.598  18.372  65.897  1.00  0.00    -0.313 C  
HETATM    2  C   UNL     1     -10.099  17.045  65.346  1.00  0.00     0.094 C  
ENDROOT
BRANCH   2   3
HETATM    3  C   UNL     1     -11.173  15.959  65.417  1.00  0.00    -0.100 C  
BRANCH   3   4
HETATM    4  C   UNL     1     -10.548  14.564  65.302  1.00  0.00    -0.400 C  
BRANCH   4   5
HETATM    5  C   UNL     1      -9.784  14.130  66.562  1.00  0.00    -0.307 C  
BRANCH   5   6
HETATM    6  C   UNL     1     -10.501  14.450  67.854  1.00  0.00    -0.239 A  
HETATM    7  C   UNL     1     -10.062  15.520  68.649  1.00  0.00    -0.210 A  
HETATM    8  C   UNL     1     -10.662  15.793  69.881  1.00  0.00    -0.332 A  
HETATM    9  C   UNL     1     -11.727  15.010  70.336  1.00  0.00    -0.336 A  
HETATM   10  C   UNL     1     -12.349  15.262  71.678  1.00  0.00    -0.432 C  
HETATM   11  C   UNL     1     -12.203  13.971  69.528  1.00  0.00    -0.355 A  
HETATM   12  C   UNL     1     -11.591  13.698  68.302  1.00  0.00    -0.339 A  
HETATM   13  O   UNL     1     -12.052  12.668  67.530  1.00  0.00    -0.411 OA 
HETATM   14  H   UNL     1     -12.792  12.157  67.835  1.00  0.00     0.000 HD 
ENDBRANCH   5   6
ENDBRANCH   4   5
ENDBRANCH   3   4
ENDBRANCH   2   3
TORSDOF 4
ENDMDL
MODEL      182
REMARK 921   NORMALIZED FREE ENERGY PREDICTED BY IDOCK:   -3.05 KCAL/MOL
REMARK 922        TOTAL FREE ENERGY PREDICTED BY IDOCK:   -4.08 KCAL/MOL
REMARK 923 INTER-LIGAND FREE ENERGY PREDICTED BY IDOCK:   -3.75 KCAL/MOL
REMARK 924 INTRA-LIGAND FREE ENERGY PREDICTED BY IDOCK:   -0.33 KCAL/MOL
REMARK 927      BINDING AFFINITY PREDICTED BY RF-SCORE:    0.00 PKD
ROOT
HETATM    1  C   UNL     1     -11.616  12.287  67.391  1.00  0.00    -0.425 C  
HETATM    2  C   UNL     1     -11.795  11.133  68.365  1.00  0.00    -0.302 C  
ENDROOT
BRANCH   2   3
HETATM    3  C   UNL     1     -10.686  11.098  69.418  1.00  0.00    -0.220 C  
BRANCH   3   4
HETATM    4  C   UNL     1     -11.082  10.206  70.599  1.00  0.00    -0.397 C  
BRANCH   4   5
HETATM    5  C   UNL     1     -10.079   9.077  70.877  1.00  0.00    -0.329 C  
BRANCH   5   6
HETATM    6  C   UNL     1     -10.074   7.989  69.827  1.00  0.00    -0.196 A  
HETATM    7  C   UNL     1      -8.997   7.887  68.933  1.00  0.00    -0.141 A  
HETATM    8  C   UNL     1      -9.001   6.936  67.910  1.00  0.00    -0.121 A  
HETATM    9  C   UNL     1     -10.076   6.054  67.770  1.00  0.00    -0.185 A  
HETATM   10  C   UNL     1     -10.115   5.059  66.647  1.00  0.00    -0.276 C  
HETATM   11  C   UNL     1     -11.131   6.116  68.687  1.00  0.00    -0.378 A  
HETATM   12  C   UNL     1     -11.126   7.077  69.701  1.00  0.00    -0.219 A  
HETATM   13  O   UNL     1     -12.172   7.141  70.579  1.00  0.00    -0.559 OA 
HETATM   14  H   UNL     1     -12.886   6.521  70.492  1.00  0.00     0.000 HD 
ENDBRANCH   5   6
ENDBRANCH   4   5
ENDBRANCH   3   4
ENDBRANCH   2   3
TORSDOF 4
ENDMDL
MODEL      183
REMARK 921   NORMALIZED FREE ENERGY PREDICTED BY IDOCK:   -3.03 KCAL/MOL
REMARK 922        TOTAL FREE ENERGY PREDICTED BY IDOCK:   -4.06 KCAL/MOL
REMARK 923 INTER-LIGAND FREE ENERGY PREDICTED BY IDOCK:   -3.69 KCAL/MOL
REMARK 924 INTRA-LIGAND FREE ENERGY PREDICTED BY IDOCK:   -0.37 KCAL/MOL
REMARK 927      BINDING AFFINITY PREDICTED BY RF-SCORE:    0.00 PKD
ROOT
HETATM    1  C   UNL     1     -12.702  10.746  71.184  1.00  0.00    -0.532 C  
HETATM    2  C   UNL     1     -12.239  12.041  70.533  1.00  0.00    -0.414 C  
ENDROOT
BRANCH   2   3
HETATM    3  C   UNL     1     -11.929  11.852  69.048  1.00  0.00    -0.321 C  
BRANCH   3   4
HETATM    4  C   UNL     1     -10.672  12.634  68.649  1.00  0.00    -0.269 C  
BRANCH   4   5
HETATM    5  C   UNL     1      -9.438  11.744  68.439  1.00  0.00    -0.188 C  
BRANCH   5   6
HETATM    6  C   UNL     1      -9.768  10.325  68.031  1.00  0.00    -0.167 A  
HETATM    7  C   UNL     1      -9.924   9.335  69.014  1.00  0.00    -0.187 A  
HETATM    8  C   UNL     1     -10.158   8.004  68.660  1.00  0.00    -0.212 A  
HETATM    9  C   UNL     1     -10.259   7.637  67.316  1.00  0.00    -0.342 A  
HETATM   10  C   UNL     1     -10.464   6.204  66.922  1.00  0.00    -0.340 C  
HETATM   11  C   UNL     1     -10.154   8.626  66.331  1.00  0.00    -0.294 A  
HETATM   12  C   UNL     1      -9.908   9.953  66.691  1.00  0.00    -0.207 A  
HETATM   13  O   UNL     1      -9.787  10.907  65.719  1.00  0.00    -0.214 OA 
HETATM   14  H   UNL     1      -9.882  10.654  64.808  1.00  0.00     0.000 HD 
ENDBRANCH   5   6
ENDBRANCH   4   5
ENDBRANCH   3   4
ENDBRANCH   2   3
TORSDOF 4
ENDMDL
MODEL      184
REMARK 921   NORMALIZED FREE ENERGY PREDICTED BY IDOCK:   -3.03 KCAL/MOL
REMARK 922        TOTAL FREE ENERGY PREDICTED BY IDOCK:   -4.06 KCAL/MOL
REMARK 923 INTER-LIGAND FREE ENERGY PREDICTED BY IDOCK:   -3.44 KCAL/MOL
REMARK 924 INTRA-LIGAND FREE ENERGY PREDICTED BY IDOCK:   -0.61 KCAL/MOL
REMARK 927      BINDING AFFINITY PREDICTED BY RF-SCORE:    0.00 PKD
ROOT
HETATM    1  C   UNL     1     -10.436   5.326  68.922  1.00  0.00    -0.190 C  
HETATM    2  C   UNL     1      -9.285   4.592  69.593  1.00  0.00    -0.195 C  
ENDROOT
BRANCH   2   3
HETATM    3  C   UNL     1      -9.706   3.969  70.925  1.00  0.00    -0.257 C  
BRANCH   3   4
HETATM    4  C   UNL     1      -8.610   4.147  71.981  1.00  0.00    -0.116 C  
BRANCH   4   5
HETATM    5  C   UNL     1      -8.964   5.178  73.063  1.00  0.00    -0.119 C  
BRANCH   5   6
HETATM    6  C   UNL     1      -9.771   6.350  72.552  1.00  0.00    -0.168 A  
HETATM    7  C   UNL     1      -9.122   7.421  71.918  1.00  0.00    -0.146 A  
HETATM    8  C   UNL     1      -9.836   8.547  71.500  1.00  0.00    -0.309 A  
HETATM    9  C   UNL     1     -11.218   8.619  71.693  1.00  0.00    -0.379 A  
HETATM   10  C   UNL     1     -11.989   9.842  71.292  1.00  0.00    -0.471 C  
HETATM   11  C   UNL     1     -11.881   7.535  72.280  1.00  0.00    -0.331 A  
HETATM   12  C   UNL     1     -11.159   6.416  72.705  1.00  0.00    -0.248 A  
HETATM   13  O   UNL     1     -11.814   5.372  73.295  1.00  0.00    -0.515 OA 
HETATM   14  H   UNL     1     -12.758   5.418  73.399  1.00  0.00     0.000 HD 
ENDBRANCH   5   6
ENDBRANCH   4   5
ENDBRANCH   3   4
ENDBRANCH   2   3
TORSDOF 4
ENDMDL
MODEL      185
REMARK 921   NORMALIZED FREE ENERGY PREDICTED BY IDOCK:   -3.02 KCAL/MOL
REMARK 922        TOTAL FREE ENERGY PREDICTED BY IDOCK:   -4.05 KCAL/MOL
REMARK 923 INTER-LIGAND FREE ENERGY PREDICTED BY IDOCK:   -3.66 KCAL/MOL
REMARK 924 INTRA-LIGAND FREE ENERGY PREDICTED BY IDOCK:   -0.39 KCAL/MOL
REMARK 927      BINDING AFFINITY PREDICTED BY RF-SCORE:    0.00 PKD
ROOT
HETATM    1  C   UNL     1     -12.727   8.819  72.036  1.00  0.00    -0.444 C  
HETATM    2  C   UNL     1     -12.614   7.384  71.543  1.00  0.00    -0.401 C  
ENDROOT
BRANCH   2   3
HETATM    3  C   UNL     1     -11.461   7.210  70.553  1.00  0.00    -0.334 C  
BRANCH   3   4
HETATM    4  C   UNL     1     -10.580   8.465  70.516  1.00  0.00    -0.236 C  
BRANCH   4   5
HETATM    5  C   UNL     1      -9.904   8.698  69.157  1.00  0.00    -0.185 C  
BRANCH   5   6
HETATM    6  C   UNL     1     -10.092  10.095  68.610  1.00  0.00    -0.186 A  
HETATM    7  C   UNL     1     -11.244  10.406  67.873  1.00  0.00    -0.332 A  
HETATM    8  C   UNL     1     -11.409  11.669  67.297  1.00  0.00    -0.372 A  
HETATM    9  C   UNL     1     -10.430  12.653  67.462  1.00  0.00    -0.229 A  
HETATM   10  C   UNL     1     -10.572  13.997  66.810  1.00  0.00    -0.277 C  
HETATM   11  C   UNL     1      -9.300  12.367  68.237  1.00  0.00    -0.199 A  
HETATM   12  C   UNL     1      -9.137  11.099  68.800  1.00  0.00    -0.139 A  
HETATM   13  O   UNL     1      -8.020  10.824  69.538  1.00  0.00    -0.323 OA 
HETATM   14  H   UNL     1      -7.372  11.507  69.667  1.00  0.00     0.000 HD 
ENDBRANCH   5   6
ENDBRANCH   4   5
ENDBRANCH   3   4
ENDBRANCH   2   3
TORSDOF 4
ENDMDL
MODEL      186
REMARK 921   NORMALIZED FREE ENERGY PREDICTED BY IDOCK:   -3.01 KCAL/MOL
REMARK 922        TOTAL FREE ENERGY PREDICTED BY IDOCK:   -4.03 KCAL/MOL
REMARK 923 INTER-LIGAND FREE ENERGY PREDICTED BY IDOCK:   -3.73 KCAL/MOL
REMARK 924 INTRA-LIGAND FREE ENERGY PREDICTED BY IDOCK:   -0.30 KCAL/MOL
REMARK 927      BINDING AFFINITY PREDICTED BY RF-SCORE:    0.00 PKD
ROOT
HETATM    1  C   UNL     1      -8.708  10.752  66.170  1.00  0.00    -0.186 C  
HETATM    2  C   UNL     1      -9.337  11.251  67.462  1.00  0.00    -0.166 C  
ENDROOT
BRANCH   2   3
HETATM    3  C   UNL     1      -8.316  11.954  68.358  1.00  0.00    -0.157 C  
BRANCH   3   4
HETATM    4  C   UNL     1      -8.397  13.475  68.189  1.00  0.00    -0.167 C  
BRANCH   4   5
HETATM    5  C   UNL     1      -9.834  14.017  68.199  1.00  0.00    -0.235 C  
BRANCH   5   6
HETATM    6  C   UNL     1      -9.966  15.415  67.639  1.00  0.00    -0.225 A  
HETATM    7  C   UNL     1     -10.061  16.510  68.512  1.00  0.00    -0.255 A  
HETATM    8  C   UNL     1     -10.255  17.804  68.021  1.00  0.00    -0.377 A  
HETATM    9  C   UNL     1     -10.340  18.032  66.645  1.00  0.00    -0.375 A  
HETATM   10  C   UNL     1     -10.595  19.409  66.107  1.00  0.00    -0.571 C  
HETATM   11  C   UNL     1     -10.198  16.952  65.766  1.00  0.00    -0.287 A  
HETATM   12  C   UNL     1     -10.016  15.660  66.264  1.00  0.00    -0.295 A  
HETATM   13  O   UNL     1      -9.898  14.610  65.396  1.00  0.00    -0.437 OA 
HETATM   14  H   UNL     1      -9.931  14.777  64.461  1.00  0.00     0.000 HD 
ENDBRANCH   5   6
ENDBRANCH   4   5
ENDBRANCH   3   4
ENDBRANCH   2   3
TORSDOF 4
ENDMDL
MODEL      187
REMARK 921   NORMALIZED FREE ENERGY PREDICTED BY IDOCK:   -2.98 KCAL/MOL
REMARK 922        TOTAL FREE ENERGY PREDICTED BY IDOCK:   -4.00 KCAL/MOL
REMARK 923 INTER-LIGAND FREE ENERGY PREDICTED BY IDOCK:   -3.97 KCAL/MOL
REMARK 924 INTRA-LIGAND FREE ENERGY PREDICTED BY IDOCK:   -0.03 KCAL/MOL
REMARK 927      BINDING AFFINITY PREDICTED BY RF-SCORE:    0.00 PKD
ROOT
HETATM    1  C   UNL     1     -11.752  15.943  71.889  1.00  0.00    -0.590 C  
HETATM    2  C   UNL     1     -12.955  15.357  71.164  1.00  0.00    -0.545 C  
ENDROOT
BRANCH   2   3
HETATM    3  C   UNL     1     -12.543  14.586  69.909  1.00  0.00    -0.226 C  
BRANCH   3   4
HETATM    4  C   UNL     1     -11.061  14.814  69.590  1.00  0.00    -0.299 C  
BRANCH   4   5
HETATM    5  C   UNL     1     -10.779  16.168  68.924  1.00  0.00    -0.280 C  
BRANCH   5   6
HETATM    6  C   UNL     1      -9.320  16.565  68.936  1.00  0.00    -0.256 A  
HETATM    7  C   UNL     1      -8.350  15.643  69.359  1.00  0.00    -0.238 A  
HETATM    8  C   UNL     1      -7.003  16.007  69.446  1.00  0.00    -0.216 A  
HETATM    9  C   UNL     1      -6.596  17.297  69.095  1.00  0.00    -0.239 A  
HETATM   10  C   UNL     1      -5.162  17.715  69.229  1.00  0.00    -0.178 C  
HETATM   11  C   UNL     1      -7.550  18.207  68.625  1.00  0.00    -0.306 A  
HETATM   12  C   UNL     1      -8.896  17.840  68.551  1.00  0.00    -0.283 A  
HETATM   13  O   UNL     1      -9.821  18.744  68.109  1.00  0.00    -0.316 OA 
HETATM   14  H   UNL     1      -9.533  19.611  67.848  1.00  0.00     0.000 HD 
ENDBRANCH   5   6
ENDBRANCH   4   5
ENDBRANCH   3   4
ENDBRANCH   2   3
TORSDOF 4
ENDMDL
MODEL      188
REMARK 921   NORMALIZED FREE ENERGY PREDICTED BY IDOCK:   -2.97 KCAL/MOL
REMARK 922        TOTAL FREE ENERGY PREDICTED BY IDOCK:   -3.99 KCAL/MOL
REMARK 923 INTER-LIGAND FREE ENERGY PREDICTED BY IDOCK:   -3.50 KCAL/MOL
REMARK 924 INTRA-LIGAND FREE ENERGY PREDICTED BY IDOCK:   -0.48 KCAL/MOL
REMARK 927      BINDING AFFINITY PREDICTED BY RF-SCORE:    0.00 PKD
ROOT
HETATM    1  C   UNL     1      -9.068   9.768  63.064  1.00  0.00    -0.271 C  
HETATM    2  C   UNL     1      -9.919  10.995  63.354  1.00  0.00    -0.428 C  
ENDROOT
BRANCH   2   3
HETATM    3  C   UNL     1     -10.326  11.071  64.827  1.00  0.00    -0.389 C  
BRANCH   3   4
HETATM    4  C   UNL     1      -9.187  11.641  65.679  1.00  0.00    -0.150 C  
BRANCH   4   5
HETATM    5  C   UNL     1      -8.987  10.900  67.009  1.00  0.00    -0.148 C  
BRANCH   5   6
HETATM    6  C   UNL     1      -9.315   9.425  66.945  1.00  0.00    -0.188 A  
HETATM    7  C   UNL     1      -8.472   8.553  66.239  1.00  0.00    -0.130 A  
HETATM    8  C   UNL     1      -8.791   7.199  66.105  1.00  0.00    -0.171 A  
HETATM    9  C   UNL     1      -9.952   6.686  66.690  1.00  0.00    -0.203 A  
HETATM   10  C   UNL     1     -10.329   5.244  66.514  1.00  0.00    -0.332 C  
HETATM   11  C   UNL     1     -10.772   7.538  67.437  1.00  0.00    -0.331 A  
HETATM   12  C   UNL     1     -10.454   8.893  67.557  1.00  0.00    -0.269 A  
HETATM   13  O   UNL     1     -11.273   9.721  68.273  1.00  0.00    -0.494 OA 
HETATM   14  H   UNL     1     -12.047   9.358  68.688  1.00  0.00     0.000 HD 
ENDBRANCH   5   6
ENDBRANCH   4   5
ENDBRANCH   3   4
ENDBRANCH   2   3
TORSDOF 4
ENDMDL
MODEL      189
REMARK 921   NORMALIZED FREE ENERGY PREDICTED BY IDOCK:   -2.97 KCAL/MOL
REMARK 922        TOTAL FREE ENERGY PREDICTED BY IDOCK:   -3.99 KCAL/MOL
REMARK 923 INTER-LIGAND FREE ENERGY PREDICTED BY IDOCK:   -3.68 KCAL/MOL
REMARK 924 INTRA-LIGAND FREE ENERGY PREDICTED BY IDOCK:   -0.30 KCAL/MOL
REMARK 927      BINDING AFFINITY PREDICTED BY RF-SCORE:    0.00 PKD
ROOT
HETATM    1  C   UNL     1     -12.393  14.434  71.882  1.00  0.00    -0.362 C  
HETATM    2  C   UNL     1     -13.192  13.346  71.181  1.00  0.00    -0.176 C  
ENDROOT
BRANCH   2   3
HETATM    3  C   UNL     1     -12.548  11.969  71.347  1.00  0.00    -0.330 C  
BRANCH   3   4
HETATM    4  C   UNL     1     -12.211  11.356  69.984  1.00  0.00    -0.377 C  
BRANCH   4   5
HETATM    5  C   UNL     1     -10.835  11.775  69.447  1.00  0.00    -0.120 C  
BRANCH   5   6
HETATM    6  C   UNL     1     -10.698  11.649  67.946  1.00  0.00    -0.241 A  
HETATM    7  C   UNL     1     -10.706  10.379  67.348  1.00  0.00    -0.338 A  
HETATM    8  C   UNL     1     -10.511  10.232  65.973  1.00  0.00    -0.181 A  
HETATM    9  C   UNL     1     -10.321  11.354  65.162  1.00  0.00    -0.344 A  
HETATM   10  C   UNL     1     -10.063  11.207  63.692  1.00  0.00    -0.432 C  
HETATM   11  C   UNL     1     -10.360  12.627  65.742  1.00  0.00    -0.298 A  
HETATM   12  C   UNL     1     -10.544  12.767  67.120  1.00  0.00    -0.237 A  
HETATM   13  O   UNL     1     -10.561  14.014  67.678  1.00  0.00    -0.246 OA 
HETATM   14  H   UNL     1     -10.456  14.773  67.117  1.00  0.00     0.000 HD 
ENDBRANCH   5   6
ENDBRANCH   4   5
ENDBRANCH   3   4
ENDBRANCH   2   3
TORSDOF 4
ENDMDL
MODEL      190
REMARK 921   NORMALIZED FREE ENERGY PREDICTED BY IDOCK:   -2.93 KCAL/MOL
REMARK 922        TOTAL FREE ENERGY PREDICTED BY IDOCK:   -3.94 KCAL/MOL
REMARK 923 INTER-LIGAND FREE ENERGY PREDICTED BY IDOCK:   -3.37 KCAL/MOL
REMARK 924 INTRA-LIGAND FREE ENERGY PREDICTED BY IDOCK:   -0.57 KCAL/MOL
REMARK 927      BINDING AFFINITY PREDICTED BY RF-SCORE:    0.00 PKD
ROOT
HETATM    1  C   UNL     1      -7.279  13.782  68.177  1.00  0.00    -0.121 C  
HETATM    2  C   UNL     1      -7.127  12.269  68.212  1.00  0.00    -0.093 C  
ENDROOT
BRANCH   2   3
HETATM    3  C   UNL     1      -7.464  11.631  66.864  1.00  0.00    -0.131 C  
BRANCH   3   4
HETATM    4  C   UNL     1      -8.410  10.439  67.045  1.00  0.00    -0.127 C  
BRANCH   4   5
HETATM    5  C   UNL     1      -9.890  10.795  66.843  1.00  0.00    -0.224 C  
BRANCH   5   6
HETATM    6  C   UNL     1     -10.648  11.018  68.133  1.00  0.00    -0.226 A  
HETATM    7  C   UNL     1     -10.885   9.939  68.998  1.00  0.00    -0.242 A  
HETATM    8  C   UNL     1     -11.643  10.105  70.160  1.00  0.00    -0.350 A  
HETATM    9  C   UNL     1     -12.166  11.358  70.490  1.00  0.00    -0.478 A  
HETATM   10  C   UNL     1     -13.020  11.539  71.710  1.00  0.00    -0.500 C  
HETATM   11  C   UNL     1     -11.893  12.450  69.658  1.00  0.00    -0.380 A  
HETATM   12  C   UNL     1     -11.144  12.275  68.492  1.00  0.00    -0.249 A  
HETATM   13  O   UNL     1     -10.900  13.345  67.677  1.00  0.00    -0.253 OA 
HETATM   14  H   UNL     1     -11.237  14.199  67.921  1.00  0.00     0.000 HD 
ENDBRANCH   5   6
ENDBRANCH   4   5
ENDBRANCH   3   4
ENDBRANCH   2   3
TORSDOF 4
ENDMDL
MODEL      191
REMARK 921   NORMALIZED FREE ENERGY PREDICTED BY IDOCK:   -2.93 KCAL/MOL
REMARK 922        TOTAL FREE ENERGY PREDICTED BY IDOCK:   -3.94 KCAL/MOL
REMARK 923 INTER-LIGAND FREE ENERGY PREDICTED BY IDOCK:   -3.67 KCAL/MOL
REMARK 924 INTRA-LIGAND FREE ENERGY PREDICTED BY IDOCK:   -0.27 KCAL/MOL
REMARK 927      BINDING AFFINITY PREDICTED BY RF-SCORE:    0.00 PKD
ROOT
HETATM    1  C   UNL     1     -10.353  13.300  65.005  1.00  0.00    -0.355 C  
HETATM    2  C   UNL     1     -10.953  12.216  64.122  1.00  0.00    -0.416 C  
ENDROOT
BRANCH   2   3
HETATM    3  C   UNL     1     -10.203  10.891  64.259  1.00  0.00    -0.430 C  
BRANCH   3   4
HETATM    4  C   UNL     1     -10.519  10.220  65.600  1.00  0.00    -0.152 C  
BRANCH   4   5
HETATM    5  C   UNL     1      -9.449   9.214  66.049  1.00  0.00    -0.321 C  
BRANCH   5   6
HETATM    6  C   UNL     1      -9.819   8.441  67.295  1.00  0.00    -0.264 A  
HETATM    7  C   UNL     1     -10.671   7.330  67.200  1.00  0.00    -0.413 A  
HETATM    8  C   UNL     1     -11.084   6.642  68.344  1.00  0.00    -0.281 A  
HETATM    9  C   UNL     1     -10.640   7.042  69.607  1.00  0.00    -0.253 A  
HETATM   10  C   UNL     1     -11.114   6.342  70.847  1.00  0.00    -0.366 C  
HETATM   11  C   UNL     1      -9.752   8.119  69.707  1.00  0.00    -0.173 A  
HETATM   12  C   UNL     1      -9.352   8.809  68.560  1.00  0.00    -0.141 A  
HETATM   13  O   UNL     1      -8.499   9.872  68.672  1.00  0.00    -0.108 OA 
HETATM   14  H   UNL     1      -8.182  10.121  69.532  1.00  0.00     0.000 HD 
ENDBRANCH   5   6
ENDBRANCH   4   5
ENDBRANCH   3   4
ENDBRANCH   2   3
TORSDOF 4
ENDMDL
MODEL      192
REMARK 921   NORMALIZED FREE ENERGY PREDICTED BY IDOCK:   -2.93 KCAL/MOL
REMARK 922        TOTAL FREE ENERGY PREDICTED BY IDOCK:   -3.94 KCAL/MOL
REMARK 923 INTER-LIGAND FREE ENERGY PREDICTED BY IDOCK:   -3.65 KCAL/MOL
REMARK 924 INTRA-LIGAND FREE ENERGY PREDICTED BY IDOCK:   -0.29 KCAL/MOL
REMARK 927      BINDING AFFINITY PREDICTED BY RF-SCORE:    0.00 PKD
ROOT
HETATM    1  C   UNL     1      -9.535   3.037  69.376  1.00  0.00    -0.176 C  
HETATM    2  C   UNL     1      -9.300   4.520  69.623  1.00  0.00    -0.221 C  
ENDROOT
BRANCH   2   3
HETATM    3  C   UNL     1     -10.410   5.139  70.473  1.00  0.00    -0.314 C  
BRANCH   3   4
HETATM    4  C   UNL     1     -10.949   6.417  69.821  1.00  0.00    -0.417 C  
BRANCH   4   5
HETATM    5  C   UNL     1      -9.847   7.402  69.402  1.00  0.00    -0.168 C  
BRANCH   5   6
HETATM    6  C   UNL     1     -10.342   8.811  69.166  1.00  0.00    -0.227 A  
HETATM    7  C   UNL     1     -10.605   9.650  70.260  1.00  0.00    -0.333 A  
HETATM    8  C   UNL     1     -11.129  10.932  70.072  1.00  0.00    -0.285 A  
HETATM    9  C   UNL     1     -11.386  11.407  68.783  1.00  0.00    -0.334 A  
HETATM   10  C   UNL     1     -11.993  12.762  68.569  1.00  0.00    -0.265 C  
HETATM   11  C   UNL     1     -11.081  10.595  67.684  1.00  0.00    -0.385 A  
HETATM   12  C   UNL     1     -10.567   9.311  67.880  1.00  0.00    -0.231 A  
HETATM   13  O   UNL     1     -10.292   8.520  66.800  1.00  0.00    -0.295 OA 
HETATM   14  H   UNL     1     -10.445   8.860  65.927  1.00  0.00     0.000 HD 
ENDBRANCH   5   6
ENDBRANCH   4   5
ENDBRANCH   3   4
ENDBRANCH   2   3
TORSDOF 4
ENDMDL
MODEL      193
REMARK 921   NORMALIZED FREE ENERGY PREDICTED BY IDOCK:   -2.92 KCAL/MOL
REMARK 922        TOTAL FREE ENERGY PREDICTED BY IDOCK:   -3.93 KCAL/MOL
REMARK 923 INTER-LIGAND FREE ENERGY PREDICTED BY IDOCK:   -3.31 KCAL/MOL
REMARK 924 INTRA-LIGAND FREE ENERGY PREDICTED BY IDOCK:   -0.62 KCAL/MOL
REMARK 927      BINDING AFFINITY PREDICTED BY RF-SCORE:    0.00 PKD
ROOT
HETATM    1  C   UNL     1     -10.817  10.234  69.468  1.00  0.00    -0.292 C  
HETATM    2  C   UNL     1     -10.253   8.894  69.021  1.00  0.00    -0.217 C  
ENDROOT
BRANCH   2   3
HETATM    3  C   UNL     1     -10.612   8.581  67.567  1.00  0.00    -0.284 C  
BRANCH   3   4
HETATM    4  C   UNL     1      -9.347   8.422  66.715  1.00  0.00    -0.235 C  
BRANCH   4   5
HETATM    5  C   UNL     1      -9.227   9.466  65.596  1.00  0.00    -0.285 C  
BRANCH   5   6
HETATM    6  C   UNL     1      -9.655  10.857  66.006  1.00  0.00    -0.248 A  
HETATM    7  C   UNL     1     -10.864  11.384  65.527  1.00  0.00    -0.282 A  
HETATM    8  C   UNL     1     -11.248  12.692  65.835  1.00  0.00    -0.350 A  
HETATM    9  C   UNL     1     -10.438  13.495  66.642  1.00  0.00    -0.274 A  
HETATM   10  C   UNL     1     -10.815  14.916  66.940  1.00  0.00    -0.319 C  
HETATM   11  C   UNL     1      -9.254  12.961  67.164  1.00  0.00    -0.225 A  
HETATM   12  C   UNL     1      -8.871  11.656  66.844  1.00  0.00    -0.190 A  
HETATM   13  O   UNL     1      -7.703  11.151  67.343  1.00  0.00    -0.111 OA 
HETATM   14  H   UNL     1      -7.170  11.695  67.912  1.00  0.00     0.000 HD 
ENDBRANCH   5   6
ENDBRANCH   4   5
ENDBRANCH   3   4
ENDBRANCH   2   3
TORSDOF 4
ENDMDL
MODEL      194
REMARK 921   NORMALIZED FREE ENERGY PREDICTED BY IDOCK:   -2.91 KCAL/MOL
REMARK 922        TOTAL FREE ENERGY PREDICTED BY IDOCK:   -3.91 KCAL/MOL
REMARK 923 INTER-LIGAND FREE ENERGY PREDICTED BY IDOCK:   -3.54 KCAL/MOL
REMARK 924 INTRA-LIGAND FREE ENERGY PREDICTED BY IDOCK:   -0.37 KCAL/MOL
REMARK 927      BINDING AFFINITY PREDICTED BY RF-SCORE:    0.00 PKD
ROOT
HETATM    1  C   UNL     1      -7.025  10.940  66.631  1.00  0.00    -0.135 C  
HETATM    2  C   UNL     1      -6.393   9.929  65.686  1.00  0.00    -0.083 C  
ENDROOT
BRANCH   2   3
HETATM    3  C   UNL     1      -6.827  10.154  64.237  1.00  0.00    -0.103 C  
BRANCH   3   4
HETATM    4  C   UNL     1      -7.992   9.229  63.867  1.00  0.00    -0.141 C  
BRANCH   4   5
HETATM    5  C   UNL     1      -9.202   9.972  63.281  1.00  0.00    -0.317 C  
BRANCH   5   6
HETATM    6  C   UNL     1      -9.937  10.833  64.283  1.00  0.00    -0.403 A  
HETATM    7  C   UNL     1     -10.187  12.183  63.993  1.00  0.00    -0.396 A  
HETATM    8  C   UNL     1     -10.802  13.017  64.930  1.00  0.00    -0.343 A  
HETATM    9  C   UNL     1     -11.194  12.513  66.174  1.00  0.00    -0.362 A  
HETATM   10  C   UNL     1     -11.811  13.409  67.207  1.00  0.00    -0.422 C  
HETATM   11  C   UNL     1     -10.992  11.157  66.453  1.00  0.00    -0.248 A  
HETATM   12  C   UNL     1     -10.367  10.331  65.515  1.00  0.00    -0.169 A  
HETATM   13  O   UNL     1     -10.157   9.012  65.807  1.00  0.00    -0.421 OA 
HETATM   14  H   UNL     1     -10.450   8.672  66.644  1.00  0.00     0.000 HD 
ENDBRANCH   5   6
ENDBRANCH   4   5
ENDBRANCH   3   4
ENDBRANCH   2   3
TORSDOF 4
ENDMDL
MODEL      195
REMARK 921   NORMALIZED FREE ENERGY PREDICTED BY IDOCK:   -2.90 KCAL/MOL
REMARK 922        TOTAL FREE ENERGY PREDICTED BY IDOCK:   -3.90 KCAL/MOL
REMARK 923 INTER-LIGAND FREE ENERGY PREDICTED BY IDOCK:   -3.37 KCAL/MOL
REMARK 924 INTRA-LIGAND FREE ENERGY PREDICTED BY IDOCK:   -0.53 KCAL/MOL
REMARK 927      BINDING AFFINITY PREDICTED BY RF-SCORE:    0.00 PKD
ROOT
HETATM    1  C   UNL     1      -9.539   6.350  67.198  1.00  0.00    -0.157 C  
HETATM    2  C   UNL     1      -8.498   7.446  67.372  1.00  0.00    -0.119 C  
ENDROOT
BRANCH   2   3
HETATM    3  C   UNL     1      -7.833   7.386  68.748  1.00  0.00    -0.121 C  
BRANCH   3   4
HETATM    4  C   UNL     1      -8.154   6.063  69.452  1.00  0.00    -0.111 C  
BRANCH   4   5
HETATM    5  C   UNL     1      -8.339   6.206  70.970  1.00  0.00    -0.124 C  
BRANCH   5   6
HETATM    6  C   UNL     1      -9.614   6.915  71.368  1.00  0.00    -0.167 A  
HETATM    7  C   UNL     1     -10.837   6.229  71.323  1.00  0.00    -0.317 A  
HETATM    8  C   UNL     1     -12.037   6.882  71.618  1.00  0.00    -0.394 A  
HETATM    9  C   UNL     1     -12.037   8.231  71.981  1.00  0.00    -0.402 A  
HETATM   10  C   UNL     1     -13.322   8.956  72.253  1.00  0.00    -0.497 C  
HETATM   11  C   UNL     1     -10.817   8.910  72.076  1.00  0.00    -0.404 A  
HETATM   12  C   UNL     1      -9.622   8.255  71.769  1.00  0.00    -0.209 A  
HETATM   13  O   UNL     1      -8.438   8.934  71.846  1.00  0.00    -0.348 OA 
HETATM   14  H   UNL     1      -8.444   9.844  72.118  1.00  0.00     0.000 HD 
ENDBRANCH   5   6
ENDBRANCH   4   5
ENDBRANCH   3   4
ENDBRANCH   2   3
TORSDOF 4
ENDMDL
MODEL      196
REMARK 921   NORMALIZED FREE ENERGY PREDICTED BY IDOCK:   -2.90 KCAL/MOL
REMARK 922        TOTAL FREE ENERGY PREDICTED BY IDOCK:   -3.90 KCAL/MOL
REMARK 923 INTER-LIGAND FREE ENERGY PREDICTED BY IDOCK:   -3.58 KCAL/MOL
REMARK 924 INTRA-LIGAND FREE ENERGY PREDICTED BY IDOCK:   -0.33 KCAL/MOL
REMARK 927      BINDING AFFINITY PREDICTED BY RF-SCORE:    0.00 PKD
ROOT
HETATM    1  C   UNL     1      -9.695  12.083  65.554  1.00  0.00    -0.221 C  
HETATM    2  C   UNL     1     -10.308  10.812  64.986  1.00  0.00    -0.357 C  
ENDROOT
BRANCH   2   3
HETATM    3  C   UNL     1      -9.640   9.556  65.548  1.00  0.00    -0.349 C  
BRANCH   3   4
HETATM    4  C   UNL     1      -9.559   9.619  67.078  1.00  0.00    -0.221 C  
BRANCH   4   5
HETATM    5  C   UNL     1     -10.846   9.160  67.779  1.00  0.00    -0.159 C  
BRANCH   5   6
HETATM    6  C   UNL     1     -10.633   8.053  68.787  1.00  0.00    -0.145 A  
HETATM    7  C   UNL     1     -10.082   8.350  70.043  1.00  0.00    -0.192 A  
HETATM    8  C   UNL     1      -9.810   7.336  70.965  1.00  0.00    -0.183 A  
HETATM    9  C   UNL     1     -10.100   6.004  70.656  1.00  0.00    -0.246 A  
HETATM   10  C   UNL     1      -9.769   4.901  71.617  1.00  0.00    -0.231 C  
HETATM   11  C   UNL     1     -10.695   5.705  69.424  1.00  0.00    -0.365 A  
HETATM   12  C   UNL     1     -10.954   6.722  68.503  1.00  0.00    -0.192 A  
HETATM   13  O   UNL     1     -11.516   6.416  67.296  1.00  0.00    -0.714 OA 
HETATM   14  H   UNL     1     -11.734   5.511  67.103  1.00  0.00     0.000 HD 
ENDBRANCH   5   6
ENDBRANCH   4   5
ENDBRANCH   3   4
ENDBRANCH   2   3
TORSDOF 4
ENDMDL
MODEL      197
REMARK 921   NORMALIZED FREE ENERGY PREDICTED BY IDOCK:   -2.89 KCAL/MOL
REMARK 922        TOTAL FREE ENERGY PREDICTED BY IDOCK:   -3.89 KCAL/MOL
REMARK 923 INTER-LIGAND FREE ENERGY PREDICTED BY IDOCK:   -3.59 KCAL/MOL
REMARK 924 INTRA-LIGAND FREE ENERGY PREDICTED BY IDOCK:   -0.31 KCAL/MOL
REMARK 927      BINDING AFFINITY PREDICTED BY RF-SCORE:    0.00 PKD
ROOT
HETATM    1  C   UNL     1      -6.712  11.810  69.076  1.00  0.00    -0.102 C  
HETATM    2  C   UNL     1      -6.651  10.779  70.192  1.00  0.00    -0.144 C  
ENDROOT
BRANCH   2   3
HETATM    3  C   UNL     1      -7.289   9.452  69.778  1.00  0.00    -0.083 C  
BRANCH   3   4
HETATM    4  C   UNL     1      -7.919   8.749  70.985  1.00  0.00    -0.170 C  
BRANCH   4   5
HETATM    5  C   UNL     1      -8.860   7.598  70.601  1.00  0.00    -0.145 C  
BRANCH   5   6
HETATM    6  C   UNL     1     -10.315   7.863  70.920  1.00  0.00    -0.215 A  
HETATM    7  C   UNL     1     -10.724   9.153  71.292  1.00  0.00    -0.401 A  
HETATM    8  C   UNL     1     -12.048   9.408  71.659  1.00  0.00    -0.462 A  
HETATM    9  C   UNL     1     -12.995   8.381  71.645  1.00  0.00    -0.355 A  
HETATM   10  C   UNL     1     -14.408   8.631  72.083  1.00  0.00    -0.518 C  
HETATM   11  C   UNL     1     -12.607   7.102  71.229  1.00  0.00    -0.421 A  
HETATM   12  C   UNL     1     -11.279   6.852  70.873  1.00  0.00    -0.289 A  
HETATM   13  O   UNL     1     -10.907   5.595  70.487  1.00  0.00    -0.283 OA 
HETATM   14  H   UNL     1     -11.563   4.908  70.456  1.00  0.00     0.000 HD 
ENDBRANCH   5   6
ENDBRANCH   4   5
ENDBRANCH   3   4
ENDBRANCH   2   3
TORSDOF 4
ENDMDL
MODEL      198
REMARK 921   NORMALIZED FREE ENERGY PREDICTED BY IDOCK:   -2.89 KCAL/MOL
REMARK 922        TOTAL FREE ENERGY PREDICTED BY IDOCK:   -3.89 KCAL/MOL
REMARK 923 INTER-LIGAND FREE ENERGY PREDICTED BY IDOCK:   -3.73 KCAL/MOL
REMARK 924 INTRA-LIGAND FREE ENERGY PREDICTED BY IDOCK:   -0.16 KCAL/MOL
REMARK 927      BINDING AFFINITY PREDICTED BY RF-SCORE:    0.00 PKD
ROOT
HETATM    1  C   UNL     1     -12.509  13.594  63.821  1.00  0.00    -0.262 C  
HETATM    2  C   UNL     1     -12.447  12.349  64.693  1.00  0.00    -0.500 C  
ENDROOT
BRANCH   2   3
HETATM    3  C   UNL     1     -11.834  12.643  66.063  1.00  0.00    -0.492 C  
BRANCH   3   4
HETATM    4  C   UNL     1     -11.249  11.370  66.684  1.00  0.00    -0.298 C  
BRANCH   4   5
HETATM    5  C   UNL     1     -10.064  11.635  67.624  1.00  0.00    -0.204 C  
BRANCH   5   6
HETATM    6  C   UNL     1      -9.778  13.103  67.850  1.00  0.00    -0.221 A  
HETATM    7  C   UNL     1      -8.891  13.780  66.998  1.00  0.00    -0.230 A  
HETATM    8  C   UNL     1      -8.555  15.116  67.227  1.00  0.00    -0.218 A  
HETATM    9  C   UNL     1      -9.113  15.810  68.304  1.00  0.00    -0.187 A  
HETATM   10  C   UNL     1      -8.725  17.231  68.588  1.00  0.00    -0.268 C  
HETATM   11  C   UNL     1     -10.036  15.158  69.130  1.00  0.00    -0.238 A  
HETATM   12  C   UNL     1     -10.359  13.818  68.901  1.00  0.00    -0.136 A  
HETATM   13  O   UNL     1     -11.246  13.185  69.727  1.00  0.00    -0.476 OA 
HETATM   14  H   UNL     1     -11.640  13.671  70.441  1.00  0.00     0.000 HD 
ENDBRANCH   5   6
ENDBRANCH   4   5
ENDBRANCH   3   4
ENDBRANCH   2   3
TORSDOF 4
ENDMDL
MODEL      199
REMARK 921   NORMALIZED FREE ENERGY PREDICTED BY IDOCK:   -2.88 KCAL/MOL
REMARK 922        TOTAL FREE ENERGY PREDICTED BY IDOCK:   -3.88 KCAL/MOL
REMARK 923 INTER-LIGAND FREE ENERGY PREDICTED BY IDOCK:   -3.49 KCAL/MOL
REMARK 924 INTRA-LIGAND FREE ENERGY PREDICTED BY IDOCK:   -0.40 KCAL/MOL
REMARK 927      BINDING AFFINITY PREDICTED BY RF-SCORE:    0.00 PKD
ROOT
HETATM    1  C   UNL     1     -10.115  16.232  66.300  1.00  0.00    -0.340 C  
HETATM    2  C   UNL     1     -10.912  15.355  67.254  1.00  0.00    -0.317 C  
ENDROOT
BRANCH   2   3
HETATM    3  C   UNL     1     -12.127  14.727  66.571  1.00  0.00    -0.121 C  
BRANCH   3   4
HETATM    4  C   UNL     1     -11.967  13.207  66.461  1.00  0.00    -0.459 C  
BRANCH   4   5
HETATM    5  C   UNL     1     -11.065  12.768  65.299  1.00  0.00    -0.320 C  
BRANCH   5   6
HETATM    6  C   UNL     1     -10.309  11.485  65.560  1.00  0.00    -0.322 A  
HETATM    7  C   UNL     1     -10.027  11.097  66.879  1.00  0.00    -0.230 A  
HETATM    8  C   UNL     1      -9.269   9.954  67.145  1.00  0.00    -0.158 A  
HETATM    9  C   UNL     1      -8.792   9.163  66.096  1.00  0.00    -0.187 A  
HETATM   10  C   UNL     1      -7.938   7.960  66.366  1.00  0.00    -0.102 C  
HETATM   11  C   UNL     1      -9.110   9.515  64.779  1.00  0.00    -0.271 A  
HETATM   12  C   UNL     1      -9.858  10.666  64.520  1.00  0.00    -0.327 A  
HETATM   13  O   UNL     1     -10.145  11.011  63.229  1.00  0.00    -0.333 OA 
HETATM   14  H   UNL     1      -9.839  10.454  62.523  1.00  0.00     0.000 HD 
ENDBRANCH   5   6
ENDBRANCH   4   5
ENDBRANCH   3   4
ENDBRANCH   2   3
TORSDOF 4
ENDMDL
MODEL      200
REMARK 921   NORMALIZED FREE ENERGY PREDICTED BY IDOCK:   -2.88 KCAL/MOL
REMARK 922        TOTAL FREE ENERGY PREDICTED BY IDOCK:   -3.88 KCAL/MOL
REMARK 923 INTER-LIGAND FREE ENERGY PREDICTED BY IDOCK:   -3.38 KCAL/MOL
REMARK 924 INTRA-LIGAND FREE ENERGY PREDICTED BY IDOCK:   -0.50 KCAL/MOL
REMARK 927      BINDING AFFINITY PREDICTED BY RF-SCORE:    0.00 PKD
ROOT
HETATM    1  C   UNL     1      -8.444   5.899  69.282  1.00  0.00    -0.113 C  
HETATM    2  C   UNL     1      -8.311   6.073  70.787  1.00  0.00    -0.126 C  
ENDROOT
BRANCH   2   3
HETATM    3  C   UNL     1      -9.494   6.842  71.378  1.00  0.00    -0.160 C  
BRANCH   3   4
HETATM    4  C   UNL     1      -9.379   8.340  71.071  1.00  0.00    -0.196 C  
BRANCH   4   5
HETATM    5  C   UNL     1     -10.728   9.007  70.766  1.00  0.00    -0.301 C  
BRANCH   5   6
HETATM    6  C   UNL     1     -10.793   9.663  69.404  1.00  0.00    -0.239 A  
HETATM    7  C   UNL     1     -10.490   8.917  68.255  1.00  0.00    -0.243 A  
HETATM    8  C   UNL     1     -10.475   9.517  66.993  1.00  0.00    -0.302 A  
HETATM    9  C   UNL     1     -10.778  10.874  66.853  1.00  0.00    -0.318 A  
HETATM   10  C   UNL     1     -10.718  11.541  65.510  1.00  0.00    -0.328 C  
HETATM   11  C   UNL     1     -11.128  11.615  67.988  1.00  0.00    -0.299 A  
HETATM   12  C   UNL     1     -11.131  11.011  69.247  1.00  0.00    -0.254 A  
HETATM   13  O   UNL     1     -11.456  11.749  70.351  1.00  0.00    -0.502 OA 
HETATM   14  H   UNL     1     -11.686  12.664  70.244  1.00  0.00     0.000 HD 
ENDBRANCH   5   6
ENDBRANCH   4   5
ENDBRANCH   3   4
ENDBRANCH   2   3
TORSDOF 4
ENDMDL
MODEL      201
REMARK 921   NORMALIZED FREE ENERGY PREDICTED BY IDOCK:   -2.86 KCAL/MOL
REMARK 922        TOTAL FREE ENERGY PREDICTED BY IDOCK:   -3.86 KCAL/MOL
REMARK 923 INTER-LIGAND FREE ENERGY PREDICTED BY IDOCK:   -3.60 KCAL/MOL
REMARK 924 INTRA-LIGAND FREE ENERGY PREDICTED BY IDOCK:   -0.26 KCAL/MOL
REMARK 927      BINDING AFFINITY PREDICTED BY RF-SCORE:    0.00 PKD
ROOT
HETATM    1  C   UNL     1     -10.248  18.504  67.080  1.00  0.00    -0.408 C  
HETATM    2  C   UNL     1      -9.453  17.349  67.670  1.00  0.00    -0.251 C  
ENDROOT
BRANCH   2   3
HETATM    3  C   UNL     1      -9.138  16.280  66.623  1.00  0.00    -0.278 C  
BRANCH   3   4
HETATM    4  C   UNL     1     -10.219  15.194  66.609  1.00  0.00    -0.270 C  
BRANCH   4   5
HETATM    5  C   UNL     1      -9.682  13.800  66.251  1.00  0.00    -0.297 C  
BRANCH   5   6
HETATM    6  C   UNL     1     -10.087  12.718  67.227  1.00  0.00    -0.226 A  
HETATM    7  C   UNL     1     -11.380  12.720  67.773  1.00  0.00    -0.342 A  
HETATM    8  C   UNL     1     -11.757  11.773  68.729  1.00  0.00    -0.389 A  
HETATM    9  C   UNL     1     -10.852  10.794  69.147  1.00  0.00    -0.281 A  
HETATM   10  C   UNL     1     -11.227   9.801  70.208  1.00  0.00    -0.347 C  
HETATM   11  C   UNL     1      -9.576  10.755  68.573  1.00  0.00    -0.183 A  
HETATM   12  C   UNL     1      -9.203  11.712  67.625  1.00  0.00    -0.178 A  
HETATM   13  O   UNL     1      -7.947  11.676  67.085  1.00  0.00    -0.148 OA 
HETATM   14  H   UNL     1      -7.347  10.992  67.357  1.00  0.00     0.000 HD 
ENDBRANCH   5   6
ENDBRANCH   4   5
ENDBRANCH   3   4
ENDBRANCH   2   3
TORSDOF 4
ENDMDL
MODEL      202
REMARK 921   NORMALIZED FREE ENERGY PREDICTED BY IDOCK:   -2.86 KCAL/MOL
REMARK 922        TOTAL FREE ENERGY PREDICTED BY IDOCK:   -3.85 KCAL/MOL
REMARK 923 INTER-LIGAND FREE ENERGY PREDICTED BY IDOCK:   -3.40 KCAL/MOL
REMARK 924 INTRA-LIGAND FREE ENERGY PREDICTED BY IDOCK:   -0.45 KCAL/MOL
REMARK 927      BINDING AFFINITY PREDICTED BY RF-SCORE:    0.00 PKD
ROOT
HETATM    1  C   UNL     1      -8.997   7.034  67.468  1.00  0.00    -0.117 C  
HETATM    2  C   UNL     1      -8.424   6.689  68.834  1.00  0.00    -0.123 C  
ENDROOT
BRANCH   2   3
HETATM    3  C   UNL     1      -9.457   6.870  69.948  1.00  0.00    -0.156 C  
BRANCH   3   4
HETATM    4  C   UNL     1      -8.966   7.882  70.989  1.00  0.00    -0.152 C  
BRANCH   4   5
HETATM    5  C   UNL     1     -10.073   8.806  71.516  1.00  0.00    -0.371 C  
BRANCH   5   6
HETATM    6  C   UNL     1     -10.450   9.917  70.562  1.00  0.00    -0.330 A  
HETATM    7  C   UNL     1      -9.540  10.330  69.576  1.00  0.00    -0.225 A  
HETATM    8  C   UNL     1      -9.836  11.401  68.729  1.00  0.00    -0.175 A  
HETATM    9  C   UNL     1     -11.057  12.072  68.839  1.00  0.00    -0.298 A  
HETATM   10  C   UNL     1     -11.367  13.253  67.968  1.00  0.00    -0.325 C  
HETATM   11  C   UNL     1     -11.990  11.636  69.786  1.00  0.00    -0.402 A  
HETATM   12  C   UNL     1     -11.684  10.571  70.638  1.00  0.00    -0.357 A  
HETATM   13  O   UNL     1     -12.595  10.167  71.573  1.00  0.00    -0.367 OA 
HETATM   14  H   UNL     1     -13.433  10.612  71.623  1.00  0.00     0.000 HD 
ENDBRANCH   5   6
ENDBRANCH   4   5
ENDBRANCH   3   4
ENDBRANCH   2   3
TORSDOF 4
ENDMDL
MODEL      203
REMARK 921   NORMALIZED FREE ENERGY PREDICTED BY IDOCK:   -2.86 KCAL/MOL
REMARK 922        TOTAL FREE ENERGY PREDICTED BY IDOCK:   -3.85 KCAL/MOL
REMARK 923 INTER-LIGAND FREE ENERGY PREDICTED BY IDOCK:   -3.65 KCAL/MOL
REMARK 924 INTRA-LIGAND FREE ENERGY PREDICTED BY IDOCK:   -0.20 KCAL/MOL
REMARK 927      BINDING AFFINITY PREDICTED BY RF-SCORE:    0.00 PKD
ROOT
HETATM    1  C   UNL     1      -7.371   9.880  66.257  1.00  0.00    -0.102 C  
HETATM    2  C   UNL     1      -8.064   8.713  66.944  1.00  0.00    -0.098 C  
ENDROOT
BRANCH   2   3
HETATM    3  C   UNL     1      -9.428   8.414  66.322  1.00  0.00    -0.292 C  
BRANCH   3   4
HETATM    4  C   UNL     1     -10.504   8.278  67.405  1.00  0.00    -0.353 C  
BRANCH   4   5
HETATM    5  C   UNL     1     -11.141   6.882  67.465  1.00  0.00    -0.283 C  
BRANCH   5   6
HETATM    6  C   UNL     1     -10.748   6.081  68.686  1.00  0.00    -0.363 A  
HETATM    7  C   UNL     1      -9.905   4.968  68.549  1.00  0.00    -0.216 A  
HETATM    8  C   UNL     1      -9.584   4.171  69.651  1.00  0.00    -0.277 A  
HETATM    9  C   UNL     1     -10.088   4.480  70.917  1.00  0.00    -0.228 A  
HETATM   10  C   UNL     1      -9.791   3.605  72.099  1.00  0.00    -0.240 C  
HETATM   11  C   UNL     1     -10.891   5.617  71.072  1.00  0.00    -0.289 A  
HETATM   12  C   UNL     1     -11.216   6.403  69.964  1.00  0.00    -0.411 A  
HETATM   13  O   UNL     1     -12.017   7.499  70.123  1.00  0.00    -0.494 OA 
HETATM   14  H   UNL     1     -12.335   7.717  70.992  1.00  0.00     0.000 HD 
ENDBRANCH   5   6
ENDBRANCH   4   5
ENDBRANCH   3   4
ENDBRANCH   2   3
TORSDOF 4
ENDMDL
MODEL      204
REMARK 921   NORMALIZED FREE ENERGY PREDICTED BY IDOCK:   -2.85 KCAL/MOL
REMARK 922        TOTAL FREE ENERGY PREDICTED BY IDOCK:   -3.84 KCAL/MOL
REMARK 923 INTER-LIGAND FREE ENERGY PREDICTED BY IDOCK:   -3.39 KCAL/MOL
REMARK 924 INTRA-LIGAND FREE ENERGY PREDICTED BY IDOCK:   -0.45 KCAL/MOL
REMARK 927      BINDING AFFINITY PREDICTED BY RF-SCORE:    0.00 PKD
ROOT
HETATM    1  C   UNL     1     -13.248  10.780  71.893  1.00  0.00    -0.524 C  
HETATM    2  C   UNL     1     -12.570   9.923  70.835  1.00  0.00    -0.392 C  
ENDROOT
BRANCH   2   3
HETATM    3  C   UNL     1     -11.126   9.587  71.214  1.00  0.00    -0.449 C  
BRANCH   3   4
HETATM    4  C   UNL     1     -10.919   8.070  71.283  1.00  0.00    -0.269 C  
BRANCH   4   5
HETATM    5  C   UNL     1      -9.645   7.593  70.570  1.00  0.00    -0.167 C  
BRANCH   5   6
HETATM    6  C   UNL     1      -9.489   8.133  69.166  1.00  0.00    -0.155 A  
HETATM    7  C   UNL     1     -10.353   7.694  68.151  1.00  0.00    -0.250 A  
HETATM    8  C   UNL     1     -10.186   8.123  66.832  1.00  0.00    -0.387 A  
HETATM    9  C   UNL     1      -9.160   9.014  66.503  1.00  0.00    -0.202 A  
HETATM   10  C   UNL     1      -8.940   9.445  65.083  1.00  0.00    -0.258 C  
HETATM   11  C   UNL     1      -8.324   9.494  67.518  1.00  0.00    -0.125 A  
HETATM   12  C   UNL     1      -8.490   9.052  68.833  1.00  0.00    -0.130 A  
HETATM   13  O   UNL     1      -7.655   9.513  69.813  1.00  0.00    -0.083 OA 
HETATM   14  H   UNL     1      -6.977  10.138  69.585  1.00  0.00     0.000 HD 
ENDBRANCH   5   6
ENDBRANCH   4   5
ENDBRANCH   3   4
ENDBRANCH   2   3
TORSDOF 4
ENDMDL
MODEL      205
REMARK 921   NORMALIZED FREE ENERGY PREDICTED BY IDOCK:   -2.83 KCAL/MOL
REMARK 922        TOTAL FREE ENERGY PREDICTED BY IDOCK:   -3.81 KCAL/MOL
REMARK 923 INTER-LIGAND FREE ENERGY PREDICTED BY IDOCK:   -3.26 KCAL/MOL
REMARK 924 INTRA-LIGAND FREE ENERGY PREDICTED BY IDOCK:   -0.55 KCAL/MOL
REMARK 927      BINDING AFFINITY PREDICTED BY RF-SCORE:    0.00 PKD
ROOT
HETATM    1  C   UNL     1      -9.423   5.806  68.544  1.00  0.00    -0.141 C  
HETATM    2  C   UNL     1      -8.131   6.608  68.532  1.00  0.00    -0.119 C  
ENDROOT
BRANCH   2   3
HETATM    3  C   UNL     1      -7.527   6.737  69.931  1.00  0.00    -0.095 C  
BRANCH   3   4
HETATM    4  C   UNL     1      -8.582   6.464  71.008  1.00  0.00    -0.131 C  
BRANCH   4   5
HETATM    5  C   UNL     1      -8.805   7.648  71.961  1.00  0.00    -0.149 C  
BRANCH   5   6
HETATM    6  C   UNL     1     -10.113   8.374  71.740  1.00  0.00    -0.317 A  
HETATM    7  C   UNL     1     -10.206   9.355  70.740  1.00  0.00    -0.368 A  
HETATM    8  C   UNL     1     -11.381  10.090  70.563  1.00  0.00    -0.409 A  
HETATM    9  C   UNL     1     -12.495   9.847  71.371  1.00  0.00    -0.495 A  
HETATM   10  C   UNL     1     -13.746  10.662  71.223  1.00  0.00     0.335 C  
HETATM   11  C   UNL     1     -12.427   8.838  72.338  1.00  0.00    -0.421 A  
HETATM   12  C   UNL     1     -11.245   8.114  72.518  1.00  0.00    -0.391 A  
HETATM   13  O   UNL     1     -11.184   7.144  73.479  1.00  0.00    -0.561 OA 
HETATM   14  H   UNL     1     -11.954   6.968  74.007  1.00  0.00     0.000 HD 
ENDBRANCH   5   6
ENDBRANCH   4   5
ENDBRANCH   3   4
ENDBRANCH   2   3
TORSDOF 4
ENDMDL
MODEL      206
REMARK 921   NORMALIZED FREE ENERGY PREDICTED BY IDOCK:   -2.82 KCAL/MOL
REMARK 922        TOTAL FREE ENERGY PREDICTED BY IDOCK:   -3.80 KCAL/MOL
REMARK 923 INTER-LIGAND FREE ENERGY PREDICTED BY IDOCK:   -3.33 KCAL/MOL
REMARK 924 INTRA-LIGAND FREE ENERGY PREDICTED BY IDOCK:   -0.47 KCAL/MOL
REMARK 927      BINDING AFFINITY PREDICTED BY RF-SCORE:    0.00 PKD
ROOT
HETATM    1  C   UNL     1      -6.193   9.419  70.272  1.00  0.00    -0.056 C  
HETATM    2  C   UNL     1      -6.425  10.865  69.861  1.00  0.00    -0.144 C  
ENDROOT
BRANCH   2   3
HETATM    3  C   UNL     1      -7.089  10.968  68.487  1.00  0.00    -0.078 C  
BRANCH   3   4
HETATM    4  C   UNL     1      -8.406  11.747  68.573  1.00  0.00    -0.131 C  
BRANCH   4   5
HETATM    5  C   UNL     1      -9.611  10.975  68.016  1.00  0.00    -0.175 C  
BRANCH   5   6
HETATM    6  C   UNL     1     -10.576  10.496  69.077  1.00  0.00    -0.250 A  
HETATM    7  C   UNL     1     -11.632  11.325  69.486  1.00  0.00    -0.398 A  
HETATM    8  C   UNL     1     -12.495  10.934  70.513  1.00  0.00    -0.438 A  
HETATM    9  C   UNL     1     -12.329   9.697  71.142  1.00  0.00    -0.427 A  
HETATM   10  C   UNL     1     -13.219   9.286  72.278  1.00  0.00    -0.535 C  
HETATM   11  C   UNL     1     -11.309   8.843  70.707  1.00  0.00    -0.325 A  
HETATM   12  C   UNL     1     -10.443   9.245  69.687  1.00  0.00    -0.224 A  
HETATM   13  O   UNL     1      -9.438   8.411  69.284  1.00  0.00    -0.154 OA 
HETATM   14  H   UNL     1      -9.348   7.561  69.700  1.00  0.00     0.000 HD 
ENDBRANCH   5   6
ENDBRANCH   4   5
ENDBRANCH   3   4
ENDBRANCH   2   3
TORSDOF 4
ENDMDL
MODEL      207
REMARK 921   NORMALIZED FREE ENERGY PREDICTED BY IDOCK:   -2.81 KCAL/MOL
REMARK 922        TOTAL FREE ENERGY PREDICTED BY IDOCK:   -3.79 KCAL/MOL
REMARK 923 INTER-LIGAND FREE ENERGY PREDICTED BY IDOCK:   -3.47 KCAL/MOL
REMARK 924 INTRA-LIGAND FREE ENERGY PREDICTED BY IDOCK:   -0.32 KCAL/MOL
REMARK 927      BINDING AFFINITY PREDICTED BY RF-SCORE:    0.00 PKD
ROOT
HETATM    1  C   UNL     1     -12.040   8.283  71.411  1.00  0.00    -0.331 C  
HETATM    2  C   UNL     1     -12.034   6.777  71.626  1.00  0.00    -0.391 C  
ENDROOT
BRANCH   2   3
HETATM    3  C   UNL     1     -11.261   6.047  70.526  1.00  0.00    -0.363 C  
BRANCH   3   4
HETATM    4  C   UNL     1     -10.661   7.044  69.528  1.00  0.00    -0.263 C  
BRANCH   4   5
HETATM    5  C   UNL     1     -10.869   6.642  68.061  1.00  0.00    -0.345 C  
BRANCH   5   6
HETATM    6  C   UNL     1     -10.167   7.546  67.072  1.00  0.00    -0.368 A  
HETATM    7  C   UNL     1     -10.574   8.882  66.937  1.00  0.00    -0.254 A  
HETATM    8  C   UNL     1      -9.989   9.717  65.982  1.00  0.00    -0.342 A  
HETATM    9  C   UNL     1      -8.972   9.237  65.152  1.00  0.00    -0.257 A  
HETATM   10  C   UNL     1      -8.369  10.109  64.090  1.00  0.00    -0.168 C  
HETATM   11  C   UNL     1      -8.527   7.920  65.312  1.00  0.00    -0.119 A  
HETATM   12  C   UNL     1      -9.124   7.087  66.262  1.00  0.00    -0.147 A  
HETATM   13  O   UNL     1      -8.694   5.797  66.397  1.00  0.00    -0.121 OA 
HETATM   14  H   UNL     1      -7.985   5.486  65.846  1.00  0.00     0.000 HD 
ENDBRANCH   5   6
ENDBRANCH   4   5
ENDBRANCH   3   4
ENDBRANCH   2   3
TORSDOF 4
ENDMDL
MODEL      208
REMARK 921   NORMALIZED FREE ENERGY PREDICTED BY IDOCK:   -2.80 KCAL/MOL
REMARK 922        TOTAL FREE ENERGY PREDICTED BY IDOCK:   -3.78 KCAL/MOL
REMARK 923 INTER-LIGAND FREE ENERGY PREDICTED BY IDOCK:   -3.27 KCAL/MOL
REMARK 924 INTRA-LIGAND FREE ENERGY PREDICTED BY IDOCK:   -0.52 KCAL/MOL
REMARK 927      BINDING AFFINITY PREDICTED BY RF-SCORE:    0.00 PKD
ROOT
HETATM    1  C   UNL     1      -7.332  19.638  68.614  1.00  0.00    -0.375 C  
HETATM    2  C   UNL     1      -8.817  19.647  68.284  1.00  0.00    -0.361 C  
ENDROOT
BRANCH   2   3
HETATM    3  C   UNL     1      -9.067  19.501  66.782  1.00  0.00    -0.396 C  
BRANCH   3   4
HETATM    4  C   UNL     1     -10.092  18.395  66.504  1.00  0.00    -0.406 C  
BRANCH   4   5
HETATM    5  C   UNL     1      -9.457  17.069  66.060  1.00  0.00    -0.195 C  
BRANCH   5   6
HETATM    6  C   UNL     1      -8.681  16.365  67.150  1.00  0.00    -0.207 A  
HETATM    7  C   UNL     1      -7.289  16.225  67.037  1.00  0.00    -0.264 A  
HETATM    8  C   UNL     1      -6.559  15.518  67.995  1.00  0.00    -0.156 A  
HETATM    9  C   UNL     1      -7.204  14.949  69.097  1.00  0.00    -0.153 A  
HETATM   10  C   UNL     1      -6.438  14.147  70.108  1.00  0.00    -0.086 C  
HETATM   11  C   UNL     1      -8.585  15.126  69.244  1.00  0.00    -0.211 A  
HETATM   12  C   UNL     1      -9.310  15.825  68.276  1.00  0.00    -0.193 A  
HETATM   13  O   UNL     1     -10.661  15.974  68.419  1.00  0.00    -0.262 OA 
HETATM   14  H   UNL     1     -11.088  15.607  69.184  1.00  0.00     0.000 HD 
ENDBRANCH   5   6
ENDBRANCH   4   5
ENDBRANCH   3   4
ENDBRANCH   2   3
TORSDOF 4
ENDMDL
MODEL      209
REMARK 921   NORMALIZED FREE ENERGY PREDICTED BY IDOCK:   -2.80 KCAL/MOL
REMARK 922        TOTAL FREE ENERGY PREDICTED BY IDOCK:   -3.78 KCAL/MOL
REMARK 923 INTER-LIGAND FREE ENERGY PREDICTED BY IDOCK:   -3.60 KCAL/MOL
REMARK 924 INTRA-LIGAND FREE ENERGY PREDICTED BY IDOCK:   -0.18 KCAL/MOL
REMARK 927      BINDING AFFINITY PREDICTED BY RF-SCORE:    0.00 PKD
ROOT
HETATM    1  C   UNL     1      -7.431   7.745  68.481  1.00  0.00    -0.103 C  
HETATM    2  C   UNL     1      -8.480   8.241  67.497  1.00  0.00    -0.130 C  
ENDROOT
BRANCH   2   3
HETATM    3  C   UNL     1      -8.909   9.678  67.797  1.00  0.00    -0.125 C  
BRANCH   3   4
HETATM    4  C   UNL     1      -9.937  10.166  66.770  1.00  0.00    -0.266 C  
BRANCH   4   5
HETATM    5  C   UNL     1     -11.008  11.091  67.368  1.00  0.00    -0.349 C  
BRANCH   5   6
HETATM    6  C   UNL     1     -11.144  12.415  66.651  1.00  0.00    -0.336 A  
HETATM    7  C   UNL     1     -12.245  12.645  65.812  1.00  0.00    -0.427 A  
HETATM    8  C   UNL     1     -12.357  13.832  65.084  1.00  0.00    -0.476 A  
HETATM    9  C   UNL     1     -11.378  14.822  65.193  1.00  0.00    -0.379 A  
HETATM   10  C   UNL     1     -11.462  16.081  64.380  1.00  0.00    -0.246 C  
HETATM   11  C   UNL     1     -10.301  14.622  66.064  1.00  0.00    -0.317 A  
HETATM   12  C   UNL     1     -10.189  13.428  66.781  1.00  0.00    -0.259 A  
HETATM   13  O   UNL     1      -9.123  13.236  67.614  1.00  0.00    -0.185 OA 
HETATM   14  H   UNL     1      -8.474  13.925  67.702  1.00  0.00     0.000 HD 
ENDBRANCH   5   6
ENDBRANCH   4   5
ENDBRANCH   3   4
ENDBRANCH   2   3
TORSDOF 4
ENDMDL
MODEL      210
REMARK 921   NORMALIZED FREE ENERGY PREDICTED BY IDOCK:   -2.79 KCAL/MOL
REMARK 922        TOTAL FREE ENERGY PREDICTED BY IDOCK:   -3.77 KCAL/MOL
REMARK 923 INTER-LIGAND FREE ENERGY PREDICTED BY IDOCK:   -3.35 KCAL/MOL
REMARK 924 INTRA-LIGAND FREE ENERGY PREDICTED BY IDOCK:   -0.42 KCAL/MOL
REMARK 927      BINDING AFFINITY PREDICTED BY RF-SCORE:    0.00 PKD
ROOT
HETATM    1  C   UNL     1      -8.750   7.141  74.223  1.00  0.00    -0.242 C  
HETATM    2  C   UNL     1      -9.195   7.258  72.773  1.00  0.00    -0.178 C  
ENDROOT
BRANCH   2   3
HETATM    3  C   UNL     1      -9.959   8.558  72.514  1.00  0.00    -0.322 C  
BRANCH   3   4
HETATM    4  C   UNL     1      -9.874   8.956  71.036  1.00  0.00    -0.321 C  
BRANCH   4   5
HETATM    5  C   UNL     1     -11.125   8.580  70.228  1.00  0.00    -0.222 C  
BRANCH   5   6
HETATM    6  C   UNL     1     -10.901   7.460  69.237  1.00  0.00    -0.153 A  
HETATM    7  C   UNL     1     -10.794   6.136  69.692  1.00  0.00    -0.424 A  
HETATM    8  C   UNL     1     -10.517   5.093  68.806  1.00  0.00    -0.113 A  
HETATM    9  C   UNL     1     -10.358   5.349  67.441  1.00  0.00    -0.258 A  
HETATM   10  C   UNL     1     -10.013   4.245  66.486  1.00  0.00    -0.214 C  
HETATM   11  C   UNL     1     -10.511   6.658  66.972  1.00  0.00    -0.369 A  
HETATM   12  C   UNL     1     -10.777   7.699  67.865  1.00  0.00    -0.108 A  
HETATM   13  O   UNL     1     -10.905   8.977  67.398  1.00  0.00    -0.424 OA 
HETATM   14  H   UNL     1     -10.820   9.139  66.466  1.00  0.00     0.000 HD 
ENDBRANCH   5   6
ENDBRANCH   4   5
ENDBRANCH   3   4
ENDBRANCH   2   3
TORSDOF 4
ENDMDL
MODEL      211
REMARK 921   NORMALIZED FREE ENERGY PREDICTED BY IDOCK:   -2.78 KCAL/MOL
REMARK 922        TOTAL FREE ENERGY PREDICTED BY IDOCK:   -3.75 KCAL/MOL
REMARK 923 INTER-LIGAND FREE ENERGY PREDICTED BY IDOCK:   -3.35 KCAL/MOL
REMARK 924 INTRA-LIGAND FREE ENERGY PREDICTED BY IDOCK:   -0.40 KCAL/MOL
REMARK 927      BINDING AFFINITY PREDICTED BY RF-SCORE:    0.00 PKD
ROOT
HETATM    1  C   UNL     1     -10.366  10.931  67.605  1.00  0.00    -0.232 C  
HETATM    2  C   UNL     1     -11.622  11.428  68.303  1.00  0.00    -0.376 C  
ENDROOT
BRANCH   2   3
HETATM    3  C   UNL     1     -11.380  12.746  69.041  1.00  0.00    -0.346 C  
BRANCH   3   4
HETATM    4  C   UNL     1     -11.932  13.930  68.238  1.00  0.00    -0.392 C  
BRANCH   4   5
HETATM    5  C   UNL     1     -11.000  14.393  67.109  1.00  0.00    -0.305 C  
BRANCH   5   6
HETATM    6  C   UNL     1      -9.647  14.868  67.588  1.00  0.00    -0.200 A  
HETATM    7  C   UNL     1      -9.561  15.959  68.466  1.00  0.00    -0.205 A  
HETATM    8  C   UNL     1      -8.320  16.462  68.867  1.00  0.00    -0.234 A  
HETATM    9  C   UNL     1      -7.138  15.872  68.410  1.00  0.00    -0.117 A  
HETATM   10  C   UNL     1      -5.800  16.432  68.795  1.00  0.00    -0.126 C  
HETATM   11  C   UNL     1      -7.215  14.754  67.573  1.00  0.00    -0.222 A  
HETATM   12  C   UNL     1      -8.458  14.263  67.167  1.00  0.00    -0.200 A  
HETATM   13  O   UNL     1      -8.521  13.182  66.333  1.00  0.00    -0.400 OA 
HETATM   14  H   UNL     1      -7.713  12.771  66.047  1.00  0.00     0.000 HD 
ENDBRANCH   5   6
ENDBRANCH   4   5
ENDBRANCH   3   4
ENDBRANCH   2   3
TORSDOF 4
ENDMDL
MODEL      212
REMARK 921   NORMALIZED FREE ENERGY PREDICTED BY IDOCK:   -2.77 KCAL/MOL
REMARK 922        TOTAL FREE ENERGY PREDICTED BY IDOCK:   -3.74 KCAL/MOL
REMARK 923 INTER-LIGAND FREE ENERGY PREDICTED BY IDOCK:   -3.58 KCAL/MOL
REMARK 924 INTRA-LIGAND FREE ENERGY PREDICTED BY IDOCK:   -0.16 KCAL/MOL
REMARK 927      BINDING AFFINITY PREDICTED BY RF-SCORE:    0.00 PKD
ROOT
HETATM    1  C   UNL     1     -13.243  10.990  71.918  1.00  0.00    -0.503 C  
HETATM    2  C   UNL     1     -12.846   9.775  71.092  1.00  0.00    -0.434 C  
ENDROOT
BRANCH   2   3
HETATM    3  C   UNL     1     -12.523   8.568  71.973  1.00  0.00    -0.417 C  
BRANCH   3   4
HETATM    4  C   UNL     1     -12.575   7.269  71.159  1.00  0.00    -0.362 C  
BRANCH   4   5
HETATM    5  C   UNL     1     -11.792   6.114  71.800  1.00  0.00    -0.279 C  
BRANCH   5   6
HETATM    6  C   UNL     1     -10.520   6.546  72.495  1.00  0.00    -0.229 A  
HETATM    7  C   UNL     1     -10.432   6.480  73.894  1.00  0.00    -0.329 A  
HETATM    8  C   UNL     1      -9.295   6.938  74.564  1.00  0.00    -0.224 A  
HETATM    9  C   UNL     1      -8.214   7.458  73.846  1.00  0.00    -0.193 A  
HETATM   10  C   UNL     1      -7.007   7.997  74.556  1.00  0.00    -0.174 C  
HETATM   11  C   UNL     1      -8.273   7.482  72.448  1.00  0.00    -0.124 A  
HETATM   12  C   UNL     1      -9.418   7.032  71.785  1.00  0.00    -0.152 A  
HETATM   13  O   UNL     1      -9.473   7.080  70.420  1.00  0.00    -0.162 OA 
HETATM   14  H   UNL     1      -8.724   7.410  69.939  1.00  0.00     0.000 HD 
ENDBRANCH   5   6
ENDBRANCH   4   5
ENDBRANCH   3   4
ENDBRANCH   2   3
TORSDOF 4
ENDMDL
MODEL      213
REMARK 921   NORMALIZED FREE ENERGY PREDICTED BY IDOCK:   -2.77 KCAL/MOL
REMARK 922        TOTAL FREE ENERGY PREDICTED BY IDOCK:   -3.74 KCAL/MOL
REMARK 923 INTER-LIGAND FREE ENERGY PREDICTED BY IDOCK:   -3.25 KCAL/MOL
REMARK 924 INTRA-LIGAND FREE ENERGY PREDICTED BY IDOCK:   -0.49 KCAL/MOL
REMARK 927      BINDING AFFINITY PREDICTED BY RF-SCORE:    0.00 PKD
ROOT
HETATM    1  C   UNL     1      -9.507   7.178  73.885  1.00  0.00    -0.297 C  
HETATM    2  C   UNL     1      -9.429   8.241  72.800  1.00  0.00    -0.343 C  
ENDROOT
BRANCH   2   3
HETATM    3  C   UNL     1     -10.801   8.537  72.193  1.00  0.00    -0.427 C  
BRANCH   3   4
HETATM    4  C   UNL     1     -10.669   9.442  70.962  1.00  0.00    -0.407 C  
BRANCH   4   5
HETATM    5  C   UNL     1      -9.408   9.166  70.131  1.00  0.00    -0.235 C  
BRANCH   5   6
HETATM    6  C   UNL     1      -9.574   8.061  69.113  1.00  0.00    -0.156 A  
HETATM    7  C   UNL     1     -10.609   8.134  68.167  1.00  0.00    -0.168 A  
HETATM    8  C   UNL     1     -10.827   7.093  67.261  1.00  0.00    -0.382 A  
HETATM    9  C   UNL     1     -10.003   5.963  67.271  1.00  0.00    -0.179 A  
HETATM   10  C   UNL     1     -10.256   4.818  66.336  1.00  0.00    -0.308 C  
HETATM   11  C   UNL     1      -8.939   5.905  68.178  1.00  0.00    -0.115 A  
HETATM   12  C   UNL     1      -8.734   6.944  69.089  1.00  0.00    -0.135 A  
HETATM   13  O   UNL     1      -7.703   6.867  69.984  1.00  0.00    -0.097 OA 
HETATM   14  H   UNL     1      -7.132   6.107  69.967  1.00  0.00     0.000 HD 
ENDBRANCH   5   6
ENDBRANCH   4   5
ENDBRANCH   3   4
ENDBRANCH   2   3
TORSDOF 4
ENDMDL
MODEL      214
REMARK 921   NORMALIZED FREE ENERGY PREDICTED BY IDOCK:   -2.76 KCAL/MOL
REMARK 922        TOTAL FREE ENERGY PREDICTED BY IDOCK:   -3.73 KCAL/MOL
REMARK 923 INTER-LIGAND FREE ENERGY PREDICTED BY IDOCK:   -3.33 KCAL/MOL
REMARK 924 INTRA-LIGAND FREE ENERGY PREDICTED BY IDOCK:   -0.40 KCAL/MOL
REMARK 927      BINDING AFFINITY PREDICTED BY RF-SCORE:    0.00 PKD
ROOT
HETATM    1  C   UNL     1     -11.981  10.516  70.335  1.00  0.00    -0.425 C  
HETATM    2  C   UNL     1     -11.611  11.826  69.656  1.00  0.00    -0.393 C  
ENDROOT
BRANCH   2   3
HETATM    3  C   UNL     1     -11.851  11.773  68.146  1.00  0.00    -0.324 C  
BRANCH   3   4
HETATM    4  C   UNL     1     -11.819  13.179  67.538  1.00  0.00    -0.409 C  
BRANCH   4   5
HETATM    5  C   UNL     1     -10.908  13.294  66.307  1.00  0.00    -0.293 C  
BRANCH   5   6
HETATM    6  C   UNL     1      -9.630  12.493  66.414  1.00  0.00    -0.247 A  
HETATM    7  C   UNL     1      -8.582  12.956  67.225  1.00  0.00    -0.205 A  
HETATM    8  C   UNL     1      -7.366  12.271  67.286  1.00  0.00    -0.140 A  
HETATM    9  C   UNL     1      -7.177  11.099  66.548  1.00  0.00    -0.124 A  
HETATM   10  C   UNL     1      -5.860  10.382  66.567  1.00  0.00    -0.068 C  
HETATM   11  C   UNL     1      -8.233  10.604  65.774  1.00  0.00    -0.161 A  
HETATM   12  C   UNL     1      -9.443  11.300  65.710  1.00  0.00    -0.227 A  
HETATM   13  O   UNL     1     -10.461  10.818  64.935  1.00  0.00    -0.311 OA 
HETATM   14  H   UNL     1     -10.333  10.007  64.457  1.00  0.00     0.000 HD 
ENDBRANCH   5   6
ENDBRANCH   4   5
ENDBRANCH   3   4
ENDBRANCH   2   3
TORSDOF 4
ENDMDL
MODEL      215
REMARK 921   NORMALIZED FREE ENERGY PREDICTED BY IDOCK:   -2.75 KCAL/MOL
REMARK 922        TOTAL FREE ENERGY PREDICTED BY IDOCK:   -3.72 KCAL/MOL
REMARK 923 INTER-LIGAND FREE ENERGY PREDICTED BY IDOCK:   -3.32 KCAL/MOL
REMARK 924 INTRA-LIGAND FREE ENERGY PREDICTED BY IDOCK:   -0.40 KCAL/MOL
REMARK 927      BINDING AFFINITY PREDICTED BY RF-SCORE:    0.00 PKD
ROOT
HETATM    1  C   UNL     1      -9.907   8.959  67.239  1.00  0.00    -0.256 C  
HETATM    2  C   UNL     1      -8.408   9.006  67.495  1.00  0.00    -0.116 C  
ENDROOT
BRANCH   2   3
HETATM    3  C   UNL     1      -7.862  10.432  67.419  1.00  0.00    -0.103 C  
BRANCH   3   4
HETATM    4  C   UNL     1      -8.650  11.369  68.341  1.00  0.00    -0.156 C  
BRANCH   4   5
HETATM    5  C   UNL     1      -9.049  12.693  67.674  1.00  0.00    -0.192 C  
BRANCH   5   6
HETATM    6  C   UNL     1     -10.018  12.532  66.524  1.00  0.00    -0.252 A  
HETATM    7  C   UNL     1      -9.545  12.141  65.262  1.00  0.00    -0.078 A  
HETATM    8  C   UNL     1     -10.409  12.054  64.167  1.00  0.00    -0.381 A  
HETATM    9  C   UNL     1     -11.769  12.340  64.316  1.00  0.00    -0.456 A  
HETATM   10  C   UNL     1     -12.698  12.296  63.139  1.00  0.00    -0.197 C  
HETATM   11  C   UNL     1     -12.258  12.683  65.582  1.00  0.00    -0.474 A  
HETATM   12  C   UNL     1     -11.387  12.779  66.670  1.00  0.00    -0.316 A  
HETATM   13  O   UNL     1     -11.872  13.134  67.897  1.00  0.00    -0.342 OA 
HETATM   14  H   UNL     1     -12.802  13.302  67.995  1.00  0.00     0.000 HD 
ENDBRANCH   5   6
ENDBRANCH   4   5
ENDBRANCH   3   4
ENDBRANCH   2   3
TORSDOF 4
ENDMDL
MODEL      216
REMARK 921   NORMALIZED FREE ENERGY PREDICTED BY IDOCK:   -2.72 KCAL/MOL
REMARK 922        TOTAL FREE ENERGY PREDICTED BY IDOCK:   -3.68 KCAL/MOL
REMARK 923 INTER-LIGAND FREE ENERGY PREDICTED BY IDOCK:   -3.40 KCAL/MOL
REMARK 924 INTRA-LIGAND FREE ENERGY PREDICTED BY IDOCK:   -0.28 KCAL/MOL
REMARK 927      BINDING AFFINITY PREDICTED BY RF-SCORE:    0.00 PKD
ROOT
HETATM    1  C   UNL     1     -10.573   6.190  70.542  1.00  0.00    -0.312 C  
HETATM    2  C   UNL     1     -10.286   7.641  70.189  1.00  0.00    -0.204 C  
ENDROOT
BRANCH   2   3
HETATM    3  C   UNL     1      -9.809   7.792  68.743  1.00  0.00    -0.171 C  
BRANCH   3   4
HETATM    4  C   UNL     1     -10.300   9.113  68.141  1.00  0.00    -0.263 C  
BRANCH   4   5
HETATM    5  C   UNL     1     -10.150  10.312  69.089  1.00  0.00    -0.232 C  
BRANCH   5   6
HETATM    6  C   UNL     1     -10.291  11.654  68.408  1.00  0.00    -0.215 A  
HETATM    7  C   UNL     1     -11.559  12.103  68.006  1.00  0.00    -0.411 A  
HETATM    8  C   UNL     1     -11.707  13.307  67.312  1.00  0.00    -0.424 A  
HETATM    9  C   UNL     1     -10.591  14.095  67.019  1.00  0.00    -0.276 A  
HETATM   10  C   UNL     1     -10.731  15.366  66.233  1.00  0.00    -0.312 C  
HETATM   11  C   UNL     1      -9.329  13.679  67.459  1.00  0.00    -0.223 A  
HETATM   12  C   UNL     1      -9.187  12.470  68.143  1.00  0.00    -0.209 A  
HETATM   13  O   UNL     1      -7.946  12.063  68.550  1.00  0.00    -0.147 OA 
HETATM   14  H   UNL     1      -7.196  12.618  68.369  1.00  0.00     0.000 HD 
ENDBRANCH   5   6
ENDBRANCH   4   5
ENDBRANCH   3   4
ENDBRANCH   2   3
TORSDOF 4
ENDMDL
MODEL      217
REMARK 921   NORMALIZED FREE ENERGY PREDICTED BY IDOCK:   -2.71 KCAL/MOL
REMARK 922        TOTAL FREE ENERGY PREDICTED BY IDOCK:   -3.67 KCAL/MOL
REMARK 923 INTER-LIGAND FREE ENERGY PREDICTED BY IDOCK:   -3.37 KCAL/MOL
REMARK 924 INTRA-LIGAND FREE ENERGY PREDICTED BY IDOCK:   -0.30 KCAL/MOL
REMARK 927      BINDING AFFINITY PREDICTED BY RF-SCORE:    0.00 PKD
ROOT
HETATM    1  C   UNL     1      -7.850  12.344  68.436  1.00  0.00    -0.142 C  
HETATM    2  C   UNL     1      -8.856  13.305  67.823  1.00  0.00    -0.197 C  
ENDROOT
BRANCH   2   3
HETATM    3  C   UNL     1      -8.184  14.575  67.298  1.00  0.00    -0.230 C  
BRANCH   3   4
HETATM    4  C   UNL     1      -6.988  14.962  68.175  1.00  0.00    -0.132 C  
BRANCH   4   5
HETATM    5  C   UNL     1      -7.180  16.290  68.922  1.00  0.00    -0.190 C  
BRANCH   5   6
HETATM    6  C   UNL     1      -8.045  17.288  68.185  1.00  0.00    -0.229 A  
HETATM    7  C   UNL     1      -9.383  17.469  68.569  1.00  0.00    -0.286 A  
HETATM    8  C   UNL     1     -10.222  18.332  67.860  1.00  0.00    -0.400 A  
HETATM    9  C   UNL     1      -9.736  19.046  66.762  1.00  0.00    -0.375 A  
HETATM   10  C   UNL     1     -10.639  19.940  65.964  1.00  0.00    -0.527 C  
HETATM   11  C   UNL     1      -8.390  18.909  66.402  1.00  0.00    -0.306 A  
HETATM   12  C   UNL     1      -7.560  18.036  67.109  1.00  0.00    -0.209 A  
HETATM   13  O   UNL     1      -6.252  17.895  66.736  1.00  0.00    -0.148 OA 
HETATM   14  H   UNL     1      -5.923  18.403  66.004  1.00  0.00     0.000 HD 
ENDBRANCH   5   6
ENDBRANCH   4   5
ENDBRANCH   3   4
ENDBRANCH   2   3
TORSDOF 4
ENDMDL
MODEL      218
REMARK 921   NORMALIZED FREE ENERGY PREDICTED BY IDOCK:   -2.71 KCAL/MOL
REMARK 922        TOTAL FREE ENERGY PREDICTED BY IDOCK:   -3.66 KCAL/MOL
REMARK 923 INTER-LIGAND FREE ENERGY PREDICTED BY IDOCK:   -3.29 KCAL/MOL
REMARK 924 INTRA-LIGAND FREE ENERGY PREDICTED BY IDOCK:   -0.37 KCAL/MOL
REMARK 927      BINDING AFFINITY PREDICTED BY RF-SCORE:    0.00 PKD
ROOT
HETATM    1  C   UNL     1     -12.794  14.513  71.342  1.00  0.00    -0.406 C  
HETATM    2  C   UNL     1     -12.318  13.861  70.052  1.00  0.00    -0.378 C  
ENDROOT
BRANCH   2   3
HETATM    3  C   UNL     1     -11.151  14.626  69.425  1.00  0.00    -0.293 C  
BRANCH   3   4
HETATM    4  C   UNL     1     -10.865  14.118  68.007  1.00  0.00    -0.256 C  
BRANCH   4   5
HETATM    5  C   UNL     1     -11.356  12.684  67.760  1.00  0.00    -0.349 C  
BRANCH   5   6
HETATM    6  C   UNL     1     -10.336  11.794  67.087  1.00  0.00    -0.242 A  
HETATM    7  C   UNL     1      -9.235  11.319  67.817  1.00  0.00    -0.156 A  
HETATM    8  C   UNL     1      -8.242  10.553  67.201  1.00  0.00    -0.123 A  
HETATM    9  C   UNL     1      -8.337  10.232  65.844  1.00  0.00    -0.145 A  
HETATM   10  C   UNL     1      -7.254   9.452  65.160  1.00  0.00    -0.101 C  
HETATM   11  C   UNL     1      -9.456  10.661  65.120  1.00  0.00    -0.276 A  
HETATM   12  C   UNL     1     -10.440  11.435  65.740  1.00  0.00    -0.262 A  
HETATM   13  O   UNL     1     -11.518  11.865  65.018  1.00  0.00    -0.309 OA 
HETATM   14  H   UNL     1     -11.588  11.621  64.102  1.00  0.00     0.000 HD 
ENDBRANCH   5   6
ENDBRANCH   4   5
ENDBRANCH   3   4
ENDBRANCH   2   3
TORSDOF 4
ENDMDL
MODEL      219
REMARK 921   NORMALIZED FREE ENERGY PREDICTED BY IDOCK:   -2.70 KCAL/MOL
REMARK 922        TOTAL FREE ENERGY PREDICTED BY IDOCK:   -3.66 KCAL/MOL
REMARK 923 INTER-LIGAND FREE ENERGY PREDICTED BY IDOCK:   -3.14 KCAL/MOL
REMARK 924 INTRA-LIGAND FREE ENERGY PREDICTED BY IDOCK:   -0.52 KCAL/MOL
REMARK 927      BINDING AFFINITY PREDICTED BY RF-SCORE:    0.00 PKD
ROOT
HETATM    1  C   UNL     1     -12.174  12.475  64.437  1.00  0.00    -0.528 C  
HETATM    2  C   UNL     1     -12.207  12.653  65.947  1.00  0.00    -0.375 C  
ENDROOT
BRANCH   2   3
HETATM    3  C   UNL     1     -11.845  14.080  66.360  1.00  0.00    -0.437 C  
BRANCH   3   4
HETATM    4  C   UNL     1     -10.753  14.077  67.436  1.00  0.00    -0.285 C  
BRANCH   4   5
HETATM    5  C   UNL     1      -9.335  13.911  66.869  1.00  0.00    -0.265 C  
BRANCH   5   6
HETATM    6  C   UNL     1      -8.692  12.585  67.207  1.00  0.00    -0.193 A  
HETATM    7  C   UNL     1      -8.943  11.462  66.403  1.00  0.00    -0.196 A  
HETATM    8  C   UNL     1      -8.417  10.210  66.733  1.00  0.00    -0.126 A  
HETATM    9  C   UNL     1      -7.615  10.058  67.867  1.00  0.00    -0.089 A  
HETATM   10  C   UNL     1      -7.084   8.711  68.260  1.00  0.00    -0.078 C  
HETATM   11  C   UNL     1      -7.319  11.182  68.648  1.00  0.00    -0.110 A  
HETATM   12  C   UNL     1      -7.857  12.428  68.318  1.00  0.00    -0.150 A  
HETATM   13  O   UNL     1      -7.578  13.515  69.099  1.00  0.00    -0.308 OA 
HETATM   14  H   UNL     1      -7.011  13.408  69.853  1.00  0.00     0.000 HD 
ENDBRANCH   5   6
ENDBRANCH   4   5
ENDBRANCH   3   4
ENDBRANCH   2   3
TORSDOF 4
ENDMDL
MODEL      220
REMARK 921   NORMALIZED FREE ENERGY PREDICTED BY IDOCK:   -2.69 KCAL/MOL
REMARK 922        TOTAL FREE ENERGY PREDICTED BY IDOCK:   -3.65 KCAL/MOL
REMARK 923 INTER-LIGAND FREE ENERGY PREDICTED BY IDOCK:   -2.86 KCAL/MOL
REMARK 924 INTRA-LIGAND FREE ENERGY PREDICTED BY IDOCK:   -0.79 KCAL/MOL
REMARK 927      BINDING AFFINITY PREDICTED BY RF-SCORE:    0.00 PKD
ROOT
HETATM    1  C   UNL     1      -8.483   8.057  65.100  1.00  0.00    -0.117 C  
HETATM    2  C   UNL     1      -7.371   7.101  64.695  1.00  0.00    -0.079 C  
ENDROOT
BRANCH   2   3
HETATM    3  C   UNL     1      -7.922   5.762  64.203  1.00  0.00    -0.122 C  
BRANCH   3   4
HETATM    4  C   UNL     1      -7.481   4.619  65.123  1.00  0.00    -0.076 C  
BRANCH   4   5
HETATM    5  C   UNL     1      -8.637   3.991  65.916  1.00  0.00    -0.110 C  
BRANCH   5   6
HETATM    6  C   UNL     1      -9.218   4.899  66.976  1.00  0.00    -0.127 A  
HETATM    7  C   UNL     1      -8.482   5.174  68.139  1.00  0.00    -0.099 A  
HETATM    8  C   UNL     1      -9.025   5.953  69.165  1.00  0.00    -0.119 A  
HETATM    9  C   UNL     1     -10.311   6.486  69.041  1.00  0.00    -0.226 A  
HETATM   10  C   UNL     1     -10.924   7.283  70.154  1.00  0.00    -0.280 C  
HETATM   11  C   UNL     1     -11.033   6.257  67.864  1.00  0.00    -0.421 A  
HETATM   12  C   UNL     1     -10.488   5.469  66.848  1.00  0.00    -0.287 A  
HETATM   13  O   UNL     1     -11.211   5.235  65.711  1.00  0.00    -0.791 OA 
HETATM   14  H   UNL     1     -12.074   5.623  65.624  1.00  0.00     0.000 HD 
ENDBRANCH   5   6
ENDBRANCH   4   5
ENDBRANCH   3   4
ENDBRANCH   2   3
TORSDOF 4
ENDMDL
MODEL      221
REMARK 921   NORMALIZED FREE ENERGY PREDICTED BY IDOCK:   -2.69 KCAL/MOL
REMARK 922        TOTAL FREE ENERGY PREDICTED BY IDOCK:   -3.64 KCAL/MOL
REMARK 923 INTER-LIGAND FREE ENERGY PREDICTED BY IDOCK:   -3.24 KCAL/MOL
REMARK 924 INTRA-LIGAND FREE ENERGY PREDICTED BY IDOCK:   -0.40 KCAL/MOL
REMARK 927      BINDING AFFINITY PREDICTED BY RF-SCORE:    0.00 PKD
ROOT
HETATM    1  C   UNL     1      -9.924   5.130  69.082  1.00  0.00    -0.273 C  
HETATM    2  C   UNL     1      -9.965   5.325  70.590  1.00  0.00    -0.287 C  
ENDROOT
BRANCH   2   3
HETATM    3  C   UNL     1     -10.902   6.465  70.992  1.00  0.00    -0.314 C  
BRANCH   3   4
HETATM    4  C   UNL     1     -10.222   7.825  70.800  1.00  0.00    -0.200 C  
BRANCH   4   5
HETATM    5  C   UNL     1     -11.006   8.779  69.888  1.00  0.00    -0.184 C  
BRANCH   5   6
HETATM    6  C   UNL     1     -10.283   9.138  68.609  1.00  0.00    -0.225 A  
HETATM    7  C   UNL     1      -9.350  10.186  68.605  1.00  0.00    -0.161 A  
HETATM    8  C   UNL     1      -8.721  10.583  67.422  1.00  0.00    -0.125 A  
HETATM    9  C   UNL     1      -9.000   9.928  66.220  1.00  0.00    -0.169 A  
HETATM   10  C   UNL     1      -8.368  10.375  64.935  1.00  0.00    -0.165 C  
HETATM   11  C   UNL     1      -9.892   8.849  66.223  1.00  0.00    -0.355 A  
HETATM   12  C   UNL     1     -10.526   8.465  67.407  1.00  0.00    -0.283 A  
HETATM   13  O   UNL     1     -11.411   7.423  67.395  1.00  0.00    -0.497 OA 
HETATM   14  H   UNL     1     -11.575   6.966  66.578  1.00  0.00     0.000 HD 
ENDBRANCH   5   6
ENDBRANCH   4   5
ENDBRANCH   3   4
ENDBRANCH   2   3
TORSDOF 4
ENDMDL
MODEL      222
REMARK 921   NORMALIZED FREE ENERGY PREDICTED BY IDOCK:   -2.68 KCAL/MOL
REMARK 922        TOTAL FREE ENERGY PREDICTED BY IDOCK:   -3.63 KCAL/MOL
REMARK 923 INTER-LIGAND FREE ENERGY PREDICTED BY IDOCK:   -3.12 KCAL/MOL
REMARK 924 INTRA-LIGAND FREE ENERGY PREDICTED BY IDOCK:   -0.51 KCAL/MOL
REMARK 927      BINDING AFFINITY PREDICTED BY RF-SCORE:    0.00 PKD
ROOT
HETATM    1  C   UNL     1     -11.120  15.360  69.962  1.00  0.00    -0.317 C  
HETATM    2  C   UNL     1     -11.797  14.114  69.410  1.00  0.00    -0.378 C  
ENDROOT
BRANCH   2   3
HETATM    3  C   UNL     1     -12.127  14.257  67.924  1.00  0.00    -0.296 C  
BRANCH   3   4
HETATM    4  C   UNL     1     -11.783  12.972  67.162  1.00  0.00    -0.439 C  
BRANCH   4   5
HETATM    5  C   UNL     1     -10.625  13.141  66.168  1.00  0.00    -0.288 C  
BRANCH   5   6
HETATM    6  C   UNL     1      -9.278  13.346  66.825  1.00  0.00    -0.242 A  
HETATM    7  C   UNL     1      -8.693  14.621  66.835  1.00  0.00    -0.251 A  
HETATM    8  C   UNL     1      -7.419  14.822  67.372  1.00  0.00    -0.221 A  
HETATM    9  C   UNL     1      -6.710  13.754  67.926  1.00  0.00    -0.162 A  
HETATM   10  C   UNL     1      -5.322  13.946  68.463  1.00  0.00    -0.096 C  
HETATM   11  C   UNL     1      -7.306  12.488  67.964  1.00  0.00    -0.111 A  
HETATM   12  C   UNL     1      -8.575  12.291  67.415  1.00  0.00    -0.178 A  
HETATM   13  O   UNL     1      -9.139  11.046  67.440  1.00  0.00    -0.141 OA 
HETATM   14  H   UNL     1      -8.661  10.331  67.842  1.00  0.00     0.000 HD 
ENDBRANCH   5   6
ENDBRANCH   4   5
ENDBRANCH   3   4
ENDBRANCH   2   3
TORSDOF 4
ENDMDL
MODEL      223
REMARK 921   NORMALIZED FREE ENERGY PREDICTED BY IDOCK:   -2.67 KCAL/MOL
REMARK 922        TOTAL FREE ENERGY PREDICTED BY IDOCK:   -3.61 KCAL/MOL
REMARK 923 INTER-LIGAND FREE ENERGY PREDICTED BY IDOCK:   -3.31 KCAL/MOL
REMARK 924 INTRA-LIGAND FREE ENERGY PREDICTED BY IDOCK:   -0.30 KCAL/MOL
REMARK 927      BINDING AFFINITY PREDICTED BY RF-SCORE:    0.00 PKD
ROOT
HETATM    1  C   UNL     1     -10.592  15.972  65.633  1.00  0.00    -0.392 C  
HETATM    2  C   UNL     1     -11.095  15.569  67.011  1.00  0.00    -0.238 C  
ENDROOT
BRANCH   2   3
HETATM    3  C   UNL     1     -12.046  14.373  66.944  1.00  0.00    -0.386 C  
BRANCH   3   4
HETATM    4  C   UNL     1     -11.525  13.212  67.797  1.00  0.00    -0.352 C  
BRANCH   4   5
HETATM    5  C   UNL     1     -10.291  12.519  67.200  1.00  0.00    -0.230 C  
BRANCH   5   6
HETATM    6  C   UNL     1      -9.909  11.235  67.902  1.00  0.00    -0.187 A  
HETATM    7  C   UNL     1     -10.644  10.064  67.663  1.00  0.00    -0.323 A  
HETATM    8  C   UNL     1     -10.355   8.883  68.352  1.00  0.00    -0.237 A  
HETATM    9  C   UNL     1      -9.314   8.844  69.283  1.00  0.00    -0.149 A  
HETATM   10  C   UNL     1      -9.025   7.596  70.063  1.00  0.00    -0.143 C  
HETATM   11  C   UNL     1      -8.545   9.995  69.492  1.00  0.00    -0.197 A  
HETATM   12  C   UNL     1      -8.845  11.175  68.808  1.00  0.00    -0.125 A  
HETATM   13  O   UNL     1      -8.100  12.298  69.035  1.00  0.00    -0.347 OA 
HETATM   14  H   UNL     1      -7.377  12.257  69.650  1.00  0.00     0.000 HD 
ENDBRANCH   5   6
ENDBRANCH   4   5
ENDBRANCH   3   4
ENDBRANCH   2   3
TORSDOF 4
ENDMDL
MODEL      224
REMARK 921   NORMALIZED FREE ENERGY PREDICTED BY IDOCK:   -2.65 KCAL/MOL
REMARK 922        TOTAL FREE ENERGY PREDICTED BY IDOCK:   -3.59 KCAL/MOL
REMARK 923 INTER-LIGAND FREE ENERGY PREDICTED BY IDOCK:   -2.88 KCAL/MOL
REMARK 924 INTRA-LIGAND FREE ENERGY PREDICTED BY IDOCK:   -0.71 KCAL/MOL
REMARK 927      BINDING AFFINITY PREDICTED BY RF-SCORE:    0.00 PKD
ROOT
HETATM    1  C   UNL     1      -9.498   5.789  67.851  1.00  0.00    -0.114 C  
HETATM    2  C   UNL     1      -9.949   5.548  69.284  1.00  0.00    -0.263 C  
ENDROOT
BRANCH   2   3
HETATM    3  C   UNL     1     -11.241   6.299  69.608  1.00  0.00    -0.506 C  
BRANCH   3   4
HETATM    4  C   UNL     1     -11.023   7.288  70.759  1.00  0.00    -0.273 C  
BRANCH   4   5
HETATM    5  C   UNL     1     -11.244   8.754  70.357  1.00  0.00    -0.247 C  
BRANCH   5   6
HETATM    6  C   UNL     1     -10.360   9.218  69.222  1.00  0.00    -0.222 A  
HETATM    7  C   UNL     1     -10.903   9.387  67.938  1.00  0.00    -0.215 A  
HETATM    8  C   UNL     1     -10.093   9.747  66.858  1.00  0.00    -0.287 A  
HETATM    9  C   UNL     1      -8.724   9.962  67.042  1.00  0.00    -0.137 A  
HETATM   10  C   UNL     1      -7.836  10.302  65.883  1.00  0.00    -0.139 C  
HETATM   11  C   UNL     1      -8.183   9.844  68.328  1.00  0.00    -0.109 A  
HETATM   12  C   UNL     1      -8.997   9.473  69.401  1.00  0.00    -0.172 A  
HETATM   13  O   UNL     1      -8.454   9.340  70.649  1.00  0.00    -0.193 OA 
HETATM   14  H   UNL     1      -7.528   9.513  70.770  1.00  0.00     0.000 HD 
ENDBRANCH   5   6
ENDBRANCH   4   5
ENDBRANCH   3   4
ENDBRANCH   2   3
TORSDOF 4
ENDMDL
MODEL      225
REMARK 921   NORMALIZED FREE ENERGY PREDICTED BY IDOCK:   -2.64 KCAL/MOL
REMARK 922        TOTAL FREE ENERGY PREDICTED BY IDOCK:   -3.58 KCAL/MOL
REMARK 923 INTER-LIGAND FREE ENERGY PREDICTED BY IDOCK:   -3.14 KCAL/MOL
REMARK 924 INTRA-LIGAND FREE ENERGY PREDICTED BY IDOCK:   -0.44 KCAL/MOL
REMARK 927      BINDING AFFINITY PREDICTED BY RF-SCORE:    0.00 PKD
ROOT
HETATM    1  C   UNL     1     -11.250  16.134  64.592  1.00  0.00    -0.307 C  
HETATM    2  C   UNL     1     -10.658  14.837  65.123  1.00  0.00    -0.439 C  
ENDROOT
BRANCH   2   3
HETATM    3  C   UNL     1      -9.732  15.079  66.316  1.00  0.00    -0.316 C  
BRANCH   3   4
HETATM    4  C   UNL     1     -10.197  14.281  67.539  1.00  0.00    -0.240 C  
BRANCH   4   5
HETATM    5  C   UNL     1     -11.074  13.072  67.184  1.00  0.00    -0.304 C  
BRANCH   5   6
HETATM    6  C   UNL     1     -10.465  11.741  67.561  1.00  0.00    -0.228 A  
HETATM    7  C   UNL     1     -10.668  11.220  68.849  1.00  0.00    -0.246 A  
HETATM    8  C   UNL     1     -10.057  10.027  69.245  1.00  0.00    -0.226 A  
HETATM    9  C   UNL     1      -9.244   9.320  68.355  1.00  0.00    -0.132 A  
HETATM   10  C   UNL     1      -8.546   8.063  68.782  1.00  0.00    -0.128 C  
HETATM   11  C   UNL     1      -9.076   9.807  67.053  1.00  0.00    -0.157 A  
HETATM   12  C   UNL     1      -9.680  11.006  66.667  1.00  0.00    -0.195 A  
HETATM   13  O   UNL     1      -9.492  11.482  65.400  1.00  0.00    -0.224 OA 
HETATM   14  H   UNL     1      -8.959  10.982  64.793  1.00  0.00     0.000 HD 
ENDBRANCH   5   6
ENDBRANCH   4   5
ENDBRANCH   3   4
ENDBRANCH   2   3
TORSDOF 4
ENDMDL
MODEL      226
REMARK 921   NORMALIZED FREE ENERGY PREDICTED BY IDOCK:   -2.63 KCAL/MOL
REMARK 922        TOTAL FREE ENERGY PREDICTED BY IDOCK:   -3.57 KCAL/MOL
REMARK 923 INTER-LIGAND FREE ENERGY PREDICTED BY IDOCK:   -3.39 KCAL/MOL
REMARK 924 INTRA-LIGAND FREE ENERGY PREDICTED BY IDOCK:   -0.18 KCAL/MOL
REMARK 927      BINDING AFFINITY PREDICTED BY RF-SCORE:    0.00 PKD
ROOT
HETATM    1  C   UNL     1      -9.409   2.946  69.474  1.00  0.00    -0.199 C  
HETATM    2  C   UNL     1      -8.903   4.353  69.754  1.00  0.00    -0.129 C  
ENDROOT
BRANCH   2   3
HETATM    3  C   UNL     1      -9.705   5.037  70.861  1.00  0.00    -0.256 C  
BRANCH   3   4
HETATM    4  C   UNL     1     -10.409   6.291  70.330  1.00  0.00    -0.260 C  
BRANCH   4   5
HETATM    5  C   UNL     1      -9.475   7.501  70.184  1.00  0.00    -0.161 C  
BRANCH   5   6
HETATM    6  C   UNL     1     -10.183   8.776  69.781  1.00  0.00    -0.205 A  
HETATM    7  C   UNL     1     -10.114   9.223  68.453  1.00  0.00    -0.215 A  
HETATM    8  C   UNL     1     -10.699  10.433  68.071  1.00  0.00    -0.292 A  
HETATM    9  C   UNL     1     -11.382  11.214  69.008  1.00  0.00    -0.343 A  
HETATM   10  C   UNL     1     -11.974  12.537  68.622  1.00  0.00    -0.268 C  
HETATM   11  C   UNL     1     -11.498  10.752  70.324  1.00  0.00    -0.406 A  
HETATM   12  C   UNL     1     -10.900   9.547  70.701  1.00  0.00    -0.306 A  
HETATM   13  O   UNL     1     -11.003   9.115  71.994  1.00  0.00    -0.349 OA 
HETATM   14  H   UNL     1     -11.490   9.639  72.619  1.00  0.00     0.000 HD 
ENDBRANCH   5   6
ENDBRANCH   4   5
ENDBRANCH   3   4
ENDBRANCH   2   3
TORSDOF 4
ENDMDL
MODEL      227
REMARK 921   NORMALIZED FREE ENERGY PREDICTED BY IDOCK:   -2.62 KCAL/MOL
REMARK 922        TOTAL FREE ENERGY PREDICTED BY IDOCK:   -3.55 KCAL/MOL
REMARK 923 INTER-LIGAND FREE ENERGY PREDICTED BY IDOCK:   -2.84 KCAL/MOL
REMARK 924 INTRA-LIGAND FREE ENERGY PREDICTED BY IDOCK:   -0.72 KCAL/MOL
REMARK 927      BINDING AFFINITY PREDICTED BY RF-SCORE:    0.00 PKD
ROOT
HETATM    1  C   UNL     1      -9.289   9.707  65.577  1.00  0.00    -0.309 C  
HETATM    2  C   UNL     1      -8.514   8.535  66.162  1.00  0.00    -0.139 C  
ENDROOT
BRANCH   2   3
HETATM    3  C   UNL     1      -8.290   8.695  67.666  1.00  0.00    -0.121 C  
BRANCH   3   4
HETATM    4  C   UNL     1      -9.611   8.555  68.432  1.00  0.00    -0.157 C  
BRANCH   4   5
HETATM    5  C   UNL     1      -9.833   9.661  69.475  1.00  0.00    -0.219 C  
BRANCH   5   6
HETATM    6  C   UNL     1     -10.298  10.974  68.886  1.00  0.00    -0.223 A  
HETATM    7  C   UNL     1     -11.628  11.116  68.460  1.00  0.00    -0.385 A  
HETATM    8  C   UNL     1     -12.064  12.294  67.849  1.00  0.00    -0.052 A  
HETATM    9  C   UNL     1     -11.182  13.362  67.666  1.00  0.00    -0.302 A  
HETATM   10  C   UNL     1     -11.625  14.615  66.968  1.00  0.00    -0.385 C  
HETATM   11  C   UNL     1      -9.867  13.248  68.131  1.00  0.00    -0.231 A  
HETATM   12  C   UNL     1      -9.435  12.063  68.731  1.00  0.00     0.039 A  
HETATM   13  O   UNL     1      -8.143  11.955  69.164  1.00  0.00    -0.353 OA 
HETATM   14  H   UNL     1      -7.557  12.695  69.059  1.00  0.00     0.000 HD 
ENDBRANCH   5   6
ENDBRANCH   4   5
ENDBRANCH   3   4
ENDBRANCH   2   3
TORSDOF 4
ENDMDL
MODEL      228
REMARK 921   NORMALIZED FREE ENERGY PREDICTED BY IDOCK:   -2.61 KCAL/MOL
REMARK 922        TOTAL FREE ENERGY PREDICTED BY IDOCK:   -3.55 KCAL/MOL
REMARK 923 INTER-LIGAND FREE ENERGY PREDICTED BY IDOCK:   -3.29 KCAL/MOL
REMARK 924 INTRA-LIGAND FREE ENERGY PREDICTED BY IDOCK:   -0.26 KCAL/MOL
REMARK 927      BINDING AFFINITY PREDICTED BY RF-SCORE:    0.00 PKD
ROOT
HETATM    1  C   UNL     1     -10.258  10.930  65.474  1.00  0.00    -0.332 C  
HETATM    2  C   UNL     1      -9.900   9.511  65.892  1.00  0.00    -0.360 C  
ENDROOT
BRANCH   2   3
HETATM    3  C   UNL     1      -9.760   9.383  67.409  1.00  0.00    -0.205 C  
BRANCH   3   4
HETATM    4  C   UNL     1     -10.847  10.190  68.128  1.00  0.00    -0.310 C  
BRANCH   4   5
HETATM    5  C   UNL     1     -10.854   9.989  69.650  1.00  0.00    -0.292 C  
BRANCH   5   6
HETATM    6  C   UNL     1     -10.558   8.570  70.083  1.00  0.00    -0.238 A  
HETATM    7  C   UNL     1     -11.371   7.519  69.630  1.00  0.00     0.067 A  
HETATM    8  C   UNL     1     -11.162   6.210  70.071  1.00  0.00    -0.471 A  
HETATM    9  C   UNL     1     -10.125   5.921  70.961  1.00  0.00    -0.252 A  
HETATM   10  C   UNL     1      -9.920   4.528  71.479  1.00  0.00    -0.259 C  
HETATM   11  C   UNL     1      -9.280   6.955  71.380  1.00  0.00    -0.156 A  
HETATM   12  C   UNL     1      -9.501   8.264  70.944  1.00  0.00    -0.162 A  
HETATM   13  O   UNL     1      -8.681   9.269  71.375  1.00  0.00    -0.317 OA 
HETATM   14  H   UNL     1      -7.962   9.061  71.961  1.00  0.00     0.000 HD 
ENDBRANCH   5   6
ENDBRANCH   4   5
ENDBRANCH   3   4
ENDBRANCH   2   3
TORSDOF 4
ENDMDL
MODEL      229
REMARK 921   NORMALIZED FREE ENERGY PREDICTED BY IDOCK:   -2.60 KCAL/MOL
REMARK 922        TOTAL FREE ENERGY PREDICTED BY IDOCK:   -3.53 KCAL/MOL
REMARK 923 INTER-LIGAND FREE ENERGY PREDICTED BY IDOCK:   -3.24 KCAL/MOL
REMARK 924 INTRA-LIGAND FREE ENERGY PREDICTED BY IDOCK:   -0.29 KCAL/MOL
REMARK 927      BINDING AFFINITY PREDICTED BY RF-SCORE:    0.00 PKD
ROOT
HETATM    1  C   UNL     1      -8.883  14.850  66.782  1.00  0.00    -0.291 C  
HETATM    2  C   UNL     1      -8.866  13.632  67.692  1.00  0.00    -0.194 C  
ENDROOT
BRANCH   2   3
HETATM    3  C   UNL     1      -8.691  12.334  66.903  1.00  0.00    -0.197 C  
BRANCH   3   4
HETATM    4  C   UNL     1      -9.689  12.261  65.743  1.00  0.00    -0.228 C  
BRANCH   4   5
HETATM    5  C   UNL     1     -10.926  11.406  66.052  1.00  0.00    -0.286 C  
BRANCH   5   6
HETATM    6  C   UNL     1     -10.639  10.206  66.926  1.00  0.00    -0.267 A  
HETATM    7  C   UNL     1     -11.085  10.189  68.256  1.00  0.00    -0.285 A  
HETATM    8  C   UNL     1     -10.772   9.124  69.105  1.00  0.00    -0.190 A  
HETATM    9  C   UNL     1     -10.020   8.044  68.635  1.00  0.00    -0.200 A  
HETATM   10  C   UNL     1      -9.637   6.917  69.548  1.00  0.00    -0.148 C  
HETATM   11  C   UNL     1      -9.612   8.029  67.296  1.00  0.00    -0.210 A  
HETATM   12  C   UNL     1      -9.919   9.103  66.456  1.00  0.00    -0.288 A  
HETATM   13  O   UNL     1      -9.499   9.087  65.155  1.00  0.00    -0.451 OA 
HETATM   14  H   UNL     1      -9.010   8.337  64.837  1.00  0.00     0.000 HD 
ENDBRANCH   5   6
ENDBRANCH   4   5
ENDBRANCH   3   4
ENDBRANCH   2   3
TORSDOF 4
ENDMDL
MODEL      230
REMARK 921   NORMALIZED FREE ENERGY PREDICTED BY IDOCK:   -2.59 KCAL/MOL
REMARK 922        TOTAL FREE ENERGY PREDICTED BY IDOCK:   -3.53 KCAL/MOL
REMARK 923 INTER-LIGAND FREE ENERGY PREDICTED BY IDOCK:   -3.23 KCAL/MOL
REMARK 924 INTRA-LIGAND FREE ENERGY PREDICTED BY IDOCK:   -0.29 KCAL/MOL
REMARK 927      BINDING AFFINITY PREDICTED BY RF-SCORE:    0.00 PKD
ROOT
HETATM    1  C   UNL     1     -12.410   9.909  71.589  1.00  0.00    -0.496 C  
HETATM    2  C   UNL     1     -11.421   9.641  70.465  1.00  0.00    -0.352 C  
ENDROOT
BRANCH   2   3
HETATM    3  C   UNL     1     -11.212  10.874  69.584  1.00  0.00    -0.348 C  
BRANCH   3   4
HETATM    4  C   UNL     1     -10.193  10.586  68.476  1.00  0.00    -0.190 C  
BRANCH   4   5
HETATM    5  C   UNL     1     -10.765   9.757  67.317  1.00  0.00    -0.296 C  
BRANCH   5   6
HETATM    6  C   UNL     1      -9.713   9.198  66.386  1.00  0.00    -0.330 A  
HETATM    7  C   UNL     1      -8.934   8.102  66.789  1.00  0.00    -0.172 A  
HETATM    8  C   UNL     1      -7.909   7.612  65.976  1.00  0.00    -0.101 A  
HETATM    9  C   UNL     1      -7.652   8.198  64.733  1.00  0.00    -0.101 A  
HETATM   10  C   UNL     1      -6.524   7.712  63.872  1.00  0.00    -0.053 C  
HETATM   11  C   UNL     1      -8.456   9.260  64.302  1.00  0.00    -0.202 A  
HETATM   12  C   UNL     1      -9.472   9.752  65.125  1.00  0.00    -0.273 A  
HETATM   13  O   UNL     1     -10.237  10.802  64.701  1.00  0.00    -0.319 OA 
HETATM   14  H   UNL     1     -10.073  11.178  63.844  1.00  0.00     0.000 HD 
ENDBRANCH   5   6
ENDBRANCH   4   5
ENDBRANCH   3   4
ENDBRANCH   2   3
TORSDOF 4
ENDMDL
MODEL      231
REMARK 921   NORMALIZED FREE ENERGY PREDICTED BY IDOCK:   -2.59 KCAL/MOL
REMARK 922        TOTAL FREE ENERGY PREDICTED BY IDOCK:   -3.52 KCAL/MOL
REMARK 923 INTER-LIGAND FREE ENERGY PREDICTED BY IDOCK:   -3.13 KCAL/MOL
REMARK 924 INTRA-LIGAND FREE ENERGY PREDICTED BY IDOCK:   -0.39 KCAL/MOL
REMARK 927      BINDING AFFINITY PREDICTED BY RF-SCORE:    0.00 PKD
ROOT
HETATM    1  C   UNL     1      -7.704  10.930  66.401  1.00  0.00    -0.154 C  
HETATM    2  C   UNL     1      -8.075  10.012  65.245  1.00  0.00    -0.145 C  
ENDROOT
BRANCH   2   3
HETATM    3  C   UNL     1      -9.565   9.670  65.245  1.00  0.00    -0.347 C  
BRANCH   3   4
HETATM    4  C   UNL     1      -9.889   8.642  66.335  1.00  0.00    -0.341 C  
BRANCH   4   5
HETATM    5  C   UNL     1     -10.850   9.171  67.410  1.00  0.00    -0.140 C  
BRANCH   5   6
HETATM    6  C   UNL     1     -10.520   8.707  68.810  1.00  0.00    -0.209 A  
HETATM    7  C   UNL     1     -10.807   7.387  69.194  1.00  0.00    -0.129 A  
HETATM    8  C   UNL     1     -10.576   6.954  70.502  1.00  0.00    -0.247 A  
HETATM    9  C   UNL     1     -10.038   7.828  71.451  1.00  0.00    -0.211 A  
HETATM   10  C   UNL     1      -9.830   7.390  72.870  1.00  0.00    -0.253 C  
HETATM   11  C   UNL     1      -9.703   9.131  71.064  1.00  0.00    -0.359 A  
HETATM   12  C   UNL     1      -9.946   9.561  69.757  1.00  0.00    -0.213 A  
HETATM   13  O   UNL     1      -9.634  10.841  69.396  1.00  0.00    -0.378 OA 
HETATM   14  H   UNL     1      -9.244  11.421  70.040  1.00  0.00     0.000 HD 
ENDBRANCH   5   6
ENDBRANCH   4   5
ENDBRANCH   3   4
ENDBRANCH   2   3
TORSDOF 4
ENDMDL
MODEL      232
REMARK 921   NORMALIZED FREE ENERGY PREDICTED BY IDOCK:   -2.58 KCAL/MOL
REMARK 922        TOTAL FREE ENERGY PREDICTED BY IDOCK:   -3.51 KCAL/MOL
REMARK 923 INTER-LIGAND FREE ENERGY PREDICTED BY IDOCK:   -3.30 KCAL/MOL
REMARK 924 INTRA-LIGAND FREE ENERGY PREDICTED BY IDOCK:   -0.21 KCAL/MOL
REMARK 927      BINDING AFFINITY PREDICTED BY RF-SCORE:    0.00 PKD
ROOT
HETATM    1  C   UNL     1      -8.615   6.894  70.490  1.00  0.00    -0.142 C  
HETATM    2  C   UNL     1      -9.344   6.048  69.458  1.00  0.00    -0.151 C  
ENDROOT
BRANCH   2   3
HETATM    3  C   UNL     1     -10.531   6.793  68.847  1.00  0.00    -0.229 C  
BRANCH   3   4
HETATM    4  C   UNL     1     -10.309   7.041  67.351  1.00  0.00    -0.313 C  
BRANCH   4   5
HETATM    5  C   UNL     1      -9.346   8.201  67.059  1.00  0.00    -0.197 C  
BRANCH   5   6
HETATM    6  C   UNL     1      -9.943   9.569  67.302  1.00  0.00    -0.244 A  
HETATM    7  C   UNL     1     -10.347   9.935  68.595  1.00  0.00    -0.217 A  
HETATM    8  C   UNL     1     -10.966  11.164  68.833  1.00  0.00    -0.276 A  
HETATM    9  C   UNL     1     -11.179  12.063  67.784  1.00  0.00    -0.331 A  
HETATM   10  C   UNL     1     -11.885  13.366  68.018  1.00  0.00    -0.392 C  
HETATM   11  C   UNL     1     -10.735  11.727  66.500  1.00  0.00    -0.304 A  
HETATM   12  C   UNL     1     -10.127  10.491  66.267  1.00  0.00    -0.232 A  
HETATM   13  O   UNL     1      -9.716  10.166  65.004  1.00  0.00    -0.276 OA 
HETATM   14  H   UNL     1      -9.841  10.793  64.302  1.00  0.00     0.000 HD 
ENDBRANCH   5   6
ENDBRANCH   4   5
ENDBRANCH   3   4
ENDBRANCH   2   3
TORSDOF 4
ENDMDL
MODEL      233
REMARK 921   NORMALIZED FREE ENERGY PREDICTED BY IDOCK:   -2.56 KCAL/MOL
REMARK 922        TOTAL FREE ENERGY PREDICTED BY IDOCK:   -3.49 KCAL/MOL
REMARK 923 INTER-LIGAND FREE ENERGY PREDICTED BY IDOCK:   -3.06 KCAL/MOL
REMARK 924 INTRA-LIGAND FREE ENERGY PREDICTED BY IDOCK:   -0.43 KCAL/MOL
REMARK 927      BINDING AFFINITY PREDICTED BY RF-SCORE:    0.00 PKD
ROOT
HETATM    1  C   UNL     1     -12.468  10.372  70.867  1.00  0.00    -0.478 C  
HETATM    2  C   UNL     1     -11.944  10.612  69.459  1.00  0.00    -0.319 C  
ENDROOT
BRANCH   2   3
HETATM    3  C   UNL     1     -10.422  10.474  69.386  1.00  0.00    -0.264 C  
BRANCH   3   4
HETATM    4  C   UNL     1      -9.947  10.431  67.930  1.00  0.00    -0.192 C  
BRANCH   4   5
HETATM    5  C   UNL     1     -10.349   9.145  67.192  1.00  0.00    -0.337 C  
BRANCH   5   6
HETATM    6  C   UNL     1      -9.600   7.915  67.653  1.00  0.00    -0.183 A  
HETATM    7  C   UNL     1      -8.199   7.936  67.724  1.00  0.00    -0.129 A  
HETATM    8  C   UNL     1      -7.481   6.792  68.078  1.00  0.00    -0.099 A  
HETATM    9  C   UNL     1      -8.151   5.604  68.386  1.00  0.00    -0.103 A  
HETATM   10  C   UNL     1      -7.390   4.356  68.722  1.00  0.00    -0.056 C  
HETATM   11  C   UNL     1      -9.550   5.587  68.365  1.00  0.00    -0.155 A  
HETATM   12  C   UNL     1     -10.261   6.732  67.999  1.00  0.00    -0.171 A  
HETATM   13  O   UNL     1     -11.628   6.698  67.963  1.00  0.00    -0.574 OA 
HETATM   14  H   UNL     1     -12.076   5.895  68.199  1.00  0.00     0.000 HD 
ENDBRANCH   5   6
ENDBRANCH   4   5
ENDBRANCH   3   4
ENDBRANCH   2   3
TORSDOF 4
ENDMDL
MODEL      234
REMARK 921   NORMALIZED FREE ENERGY PREDICTED BY IDOCK:   -2.55 KCAL/MOL
REMARK 922        TOTAL FREE ENERGY PREDICTED BY IDOCK:   -3.47 KCAL/MOL
REMARK 923 INTER-LIGAND FREE ENERGY PREDICTED BY IDOCK:   -3.05 KCAL/MOL
REMARK 924 INTRA-LIGAND FREE ENERGY PREDICTED BY IDOCK:   -0.42 KCAL/MOL
REMARK 927      BINDING AFFINITY PREDICTED BY RF-SCORE:    0.00 PKD
ROOT
HETATM    1  C   UNL     1     -12.132  14.171  67.546  1.00  0.00    -0.363 C  
HETATM    2  C   UNL     1     -11.599  13.258  66.452  1.00  0.00    -0.387 C  
ENDROOT
BRANCH   2   3
HETATM    3  C   UNL     1     -10.680  12.172  67.014  1.00  0.00    -0.272 C  
BRANCH   3   4
HETATM    4  C   UNL     1      -9.339  12.768  67.456  1.00  0.00    -0.189 C  
BRANCH   4   5
HETATM    5  C   UNL     1      -8.758  13.780  66.457  1.00  0.00     0.082 C  
BRANCH   5   6
HETATM    6  C   UNL     1      -8.116  14.985  67.107  1.00  0.00    -0.245 A  
HETATM    7  C   UNL     1      -7.118  14.805  68.077  1.00  0.00    -0.147 A  
HETATM    8  C   UNL     1      -6.559  15.899  68.742  1.00  0.00    -0.119 A  
HETATM    9  C   UNL     1      -6.976  17.198  68.440  1.00  0.00    -0.195 A  
HETATM   10  C   UNL     1      -6.418  18.378  69.181  1.00  0.00    -0.270 C  
HETATM   11  C   UNL     1      -7.936  17.390  67.440  1.00  0.00    -0.212 A  
HETATM   12  C   UNL     1      -8.498  16.291  66.786  1.00  0.00    -0.247 A  
HETATM   13  O   UNL     1      -9.450  16.489  65.825  1.00  0.00    -0.484 OA 
HETATM   14  H   UNL     1      -9.709  17.376  65.607  1.00  0.00     0.000 HD 
ENDBRANCH   5   6
ENDBRANCH   4   5
ENDBRANCH   3   4
ENDBRANCH   2   3
TORSDOF 4
ENDMDL
MODEL      235
REMARK 921   NORMALIZED FREE ENERGY PREDICTED BY IDOCK:   -2.54 KCAL/MOL
REMARK 922        TOTAL FREE ENERGY PREDICTED BY IDOCK:   -3.46 KCAL/MOL
REMARK 923 INTER-LIGAND FREE ENERGY PREDICTED BY IDOCK:   -3.18 KCAL/MOL
REMARK 924 INTRA-LIGAND FREE ENERGY PREDICTED BY IDOCK:   -0.28 KCAL/MOL
REMARK 927      BINDING AFFINITY PREDICTED BY RF-SCORE:    0.00 PKD
ROOT
HETATM    1  C   UNL     1      -7.475   1.540  68.285  1.00  0.00    -0.046 C  
HETATM    2  C   UNL     1      -7.784   2.221  66.960  1.00  0.00    -0.066 C  
ENDROOT
BRANCH   2   3
HETATM    3  C   UNL     1      -8.197   3.681  67.153  1.00  0.00    -0.091 C  
BRANCH   3   4
HETATM    4  C   UNL     1      -9.473   3.780  67.997  1.00  0.00    -0.221 C  
BRANCH   4   5
HETATM    5  C   UNL     1     -10.223   5.109  67.819  1.00  0.00    -0.190 C  
BRANCH   5   6
HETATM    6  C   UNL     1     -10.441   5.866  69.110  1.00  0.00    -0.338 A  
HETATM    7  C   UNL     1     -10.337   5.196  70.339  1.00  0.00    -0.326 A  
HETATM    8  C   UNL     1     -10.604   5.857  71.541  1.00  0.00    -0.300 A  
HETATM    9  C   UNL     1     -10.964   7.207  71.540  1.00  0.00    -0.261 A  
HETATM   10  C   UNL     1     -11.299   7.915  72.820  1.00  0.00    -0.453 C  
HETATM   11  C   UNL     1     -11.023   7.895  70.323  1.00  0.00    -0.249 A  
HETATM   12  C   UNL     1     -10.766   7.226  69.124  1.00  0.00    -0.185 A  
HETATM   13  O   UNL     1     -10.845   7.904  67.939  1.00  0.00    -0.456 OA 
HETATM   14  H   UNL     1     -11.066   8.828  67.950  1.00  0.00     0.000 HD 
ENDBRANCH   5   6
ENDBRANCH   4   5
ENDBRANCH   3   4
ENDBRANCH   2   3
TORSDOF 4
ENDMDL
MODEL      236
REMARK 921   NORMALIZED FREE ENERGY PREDICTED BY IDOCK:   -2.54 KCAL/MOL
REMARK 922        TOTAL FREE ENERGY PREDICTED BY IDOCK:   -3.45 KCAL/MOL
REMARK 923 INTER-LIGAND FREE ENERGY PREDICTED BY IDOCK:   -3.08 KCAL/MOL
REMARK 924 INTRA-LIGAND FREE ENERGY PREDICTED BY IDOCK:   -0.37 KCAL/MOL
REMARK 927      BINDING AFFINITY PREDICTED BY RF-SCORE:    0.00 PKD
ROOT
HETATM    1  C   UNL     1      -6.498  11.700  69.538  1.00  0.00    -0.122 C  
HETATM    2  C   UNL     1      -5.872  11.442  68.175  1.00  0.00    -0.045 C  
ENDROOT
BRANCH   2   3
HETATM    3  C   UNL     1      -6.742  11.977  67.038  1.00  0.00    -0.099 C  
BRANCH   3   4
HETATM    4  C   UNL     1      -7.453  13.269  67.456  1.00  0.00    -0.163 C  
BRANCH   4   5
HETATM    5  C   UNL     1      -8.851  13.427  66.840  1.00  0.00    -0.185 C  
BRANCH   5   6
HETATM    6  C   UNL     1      -9.913  13.852  67.828  1.00  0.00    -0.241 A  
HETATM    7  C   UNL     1      -9.636  14.868  68.756  1.00  0.00    -0.214 A  
HETATM    8  C   UNL     1     -10.575  15.231  69.725  1.00  0.00    -0.293 A  
HETATM    9  C   UNL     1     -11.818  14.595  69.776  1.00  0.00    -0.366 A  
HETATM   10  C   UNL     1     -12.816  14.941  70.841  1.00  0.00    -0.432 C  
HETATM   11  C   UNL     1     -12.121  13.614  68.825  1.00  0.00    -0.332 A  
HETATM   12  C   UNL     1     -11.174  13.249  67.866  1.00  0.00    -0.272 A  
HETATM   13  O   UNL     1     -11.473  12.275  66.954  1.00  0.00    -0.317 OA 
HETATM   14  H   UNL     1     -12.330  11.866  66.980  1.00  0.00     0.000 HD 
ENDBRANCH   5   6
ENDBRANCH   4   5
ENDBRANCH   3   4
ENDBRANCH   2   3
TORSDOF 4
ENDMDL
MODEL      237
REMARK 921   NORMALIZED FREE ENERGY PREDICTED BY IDOCK:   -2.53 KCAL/MOL
REMARK 922        TOTAL FREE ENERGY PREDICTED BY IDOCK:   -3.45 KCAL/MOL
REMARK 923 INTER-LIGAND FREE ENERGY PREDICTED BY IDOCK:   -3.14 KCAL/MOL
REMARK 924 INTRA-LIGAND FREE ENERGY PREDICTED BY IDOCK:   -0.30 KCAL/MOL
REMARK 927      BINDING AFFINITY PREDICTED BY RF-SCORE:    0.00 PKD
ROOT
HETATM    1  C   UNL     1     -10.063   6.806  67.055  1.00  0.00    -0.264 C  
HETATM    2  C   UNL     1      -9.878   6.009  68.338  1.00  0.00    -0.152 C  
ENDROOT
BRANCH   2   3
HETATM    3  C   UNL     1     -10.643   6.629  69.508  1.00  0.00    -0.281 C  
BRANCH   3   4
HETATM    4  C   UNL     1      -9.679   7.090  70.607  1.00  0.00    -0.174 C  
BRANCH   4   5
HETATM    5  C   UNL     1     -10.194   8.293  71.409  1.00  0.00    -0.263 C  
BRANCH   5   6
HETATM    6  C   UNL     1     -10.628   9.461  70.552  1.00  0.00    -0.331 A  
HETATM    7  C   UNL     1     -11.981   9.835  70.515  1.00  0.00    -0.282 A  
HETATM    8  C   UNL     1     -12.418  10.864  69.678  1.00  0.00    -0.198 A  
HETATM    9  C   UNL     1     -11.508  11.553  68.871  1.00  0.00    -0.352 A  
HETATM   10  C   UNL     1     -11.971  12.628  67.933  1.00  0.00    -0.307 C  
HETATM   11  C   UNL     1     -10.150  11.220  68.938  1.00  0.00    -0.185 A  
HETATM   12  C   UNL     1      -9.722  10.182  69.769  1.00  0.00    -0.196 A  
HETATM   13  O   UNL     1      -8.396   9.852  69.812  1.00  0.00    -0.157 OA 
HETATM   14  H   UNL     1      -7.780  10.342  69.280  1.00  0.00     0.000 HD 
ENDBRANCH   5   6
ENDBRANCH   4   5
ENDBRANCH   3   4
ENDBRANCH   2   3
TORSDOF 4
ENDMDL
MODEL      238
REMARK 921   NORMALIZED FREE ENERGY PREDICTED BY IDOCK:   -2.52 KCAL/MOL
REMARK 922        TOTAL FREE ENERGY PREDICTED BY IDOCK:   -3.43 KCAL/MOL
REMARK 923 INTER-LIGAND FREE ENERGY PREDICTED BY IDOCK:   -3.11 KCAL/MOL
REMARK 924 INTRA-LIGAND FREE ENERGY PREDICTED BY IDOCK:   -0.32 KCAL/MOL
REMARK 927      BINDING AFFINITY PREDICTED BY RF-SCORE:    0.00 PKD
ROOT
HETATM    1  C   UNL     1      -6.780  11.503  69.488  1.00  0.00    -0.106 C  
HETATM    2  C   UNL     1      -5.735  12.550  69.135  1.00  0.00    -0.075 C  
ENDROOT
BRANCH   2   3
HETATM    3  C   UNL     1      -5.779  13.744  70.090  1.00  0.00    -0.133 C  
BRANCH   3   4
HETATM    4  C   UNL     1      -6.087  15.040  69.330  1.00  0.00    -0.107 C  
BRANCH   4   5
HETATM    5  C   UNL     1      -6.655  14.804  67.923  1.00  0.00    -0.175 C  
BRANCH   5   6
HETATM    6  C   UNL     1      -7.547  15.921  67.427  1.00  0.00    -0.208 A  
HETATM    7  C   UNL     1      -7.277  17.247  67.800  1.00  0.00    -0.169 A  
HETATM    8  C   UNL     1      -8.126  18.287  67.414  1.00  0.00    -0.232 A  
HETATM    9  C   UNL     1      -9.254  18.026  66.632  1.00  0.00    -0.291 A  
HETATM   10  C   UNL     1     -10.198  19.127  66.250  1.00  0.00    -0.527 C  
HETATM   11  C   UNL     1      -9.504  16.713  66.215  1.00  0.00    -0.321 A  
HETATM   12  C   UNL     1      -8.657  15.676  66.614  1.00  0.00    -0.295 A  
HETATM   13  O   UNL     1      -8.922  14.395  66.217  1.00  0.00    -0.471 OA 
HETATM   14  H   UNL     1      -9.677  14.229  65.664  1.00  0.00     0.000 HD 
ENDBRANCH   5   6
ENDBRANCH   4   5
ENDBRANCH   3   4
ENDBRANCH   2   3
TORSDOF 4
ENDMDL
MODEL      239
REMARK 921   NORMALIZED FREE ENERGY PREDICTED BY IDOCK:   -2.51 KCAL/MOL
REMARK 922        TOTAL FREE ENERGY PREDICTED BY IDOCK:   -3.42 KCAL/MOL
REMARK 923 INTER-LIGAND FREE ENERGY PREDICTED BY IDOCK:   -3.08 KCAL/MOL
REMARK 924 INTRA-LIGAND FREE ENERGY PREDICTED BY IDOCK:   -0.34 KCAL/MOL
REMARK 927      BINDING AFFINITY PREDICTED BY RF-SCORE:    0.00 PKD
ROOT
HETATM    1  C   UNL     1     -12.528  12.816  65.523  1.00  0.00    -0.419 C  
HETATM    2  C   UNL     1     -11.642  12.699  66.754  1.00  0.00    -0.438 C  
ENDROOT
BRANCH   2   3
HETATM    3  C   UNL     1     -10.211  12.301  66.390  1.00  0.00    -0.247 C  
BRANCH   3   4
HETATM    4  C   UNL     1     -10.112  10.793  66.132  1.00  0.00    -0.297 C  
BRANCH   4   5
HETATM    5  C   UNL     1     -10.967   9.951  67.089  1.00  0.00    -0.147 C  
BRANCH   5   6
HETATM    6  C   UNL     1     -10.175   8.947  67.897  1.00  0.00    -0.274 A  
HETATM    7  C   UNL     1      -9.775   9.263  69.205  1.00  0.00    -0.164 A  
HETATM    8  C   UNL     1      -8.983   8.383  69.946  1.00  0.00    -0.142 A  
HETATM    9  C   UNL     1      -8.587   7.159  69.400  1.00  0.00    -0.134 A  
HETATM   10  C   UNL     1      -7.697   6.226  70.167  1.00  0.00    -0.098 C  
HETATM   11  C   UNL     1      -9.021   6.815  68.115  1.00  0.00    -0.118 A  
HETATM   12  C   UNL     1      -9.804   7.704  67.375  1.00  0.00    -0.173 A  
HETATM   13  O   UNL     1     -10.205   7.366  66.113  1.00  0.00    -0.430 OA 
HETATM   14  H   UNL     1      -9.953   6.521  65.759  1.00  0.00     0.000 HD 
ENDBRANCH   5   6
ENDBRANCH   4   5
ENDBRANCH   3   4
ENDBRANCH   2   3
TORSDOF 4
ENDMDL
MODEL      240
REMARK 921   NORMALIZED FREE ENERGY PREDICTED BY IDOCK:   -2.49 KCAL/MOL
REMARK 922        TOTAL FREE ENERGY PREDICTED BY IDOCK:   -3.39 KCAL/MOL
REMARK 923 INTER-LIGAND FREE ENERGY PREDICTED BY IDOCK:   -2.82 KCAL/MOL
REMARK 924 INTRA-LIGAND FREE ENERGY PREDICTED BY IDOCK:   -0.58 KCAL/MOL
REMARK 927      BINDING AFFINITY PREDICTED BY RF-SCORE:    0.00 PKD
ROOT
HETATM    1  C   UNL     1      -6.234   9.548  66.160  1.00  0.00    -0.068 C  
HETATM    2  C   UNL     1      -6.826   8.419  66.989  1.00  0.00    -0.070 C  
ENDROOT
BRANCH   2   3
HETATM    3  C   UNL     1      -8.133   7.897  66.390  1.00  0.00    -0.108 C  
BRANCH   3   4
HETATM    4  C   UNL     1      -8.792   8.962  65.506  1.00  0.00    -0.238 C  
BRANCH   4   5
HETATM    5  C   UNL     1     -10.101   9.515  66.087  1.00  0.00    -0.326 C  
BRANCH   5   6
HETATM    6  C   UNL     1     -10.054  10.992  66.408  1.00  0.00    -0.275 A  
HETATM    7  C   UNL     1      -9.413  11.432  67.576  1.00  0.00    -0.173 A  
HETATM    8  C   UNL     1      -9.416  12.783  67.931  1.00  0.00    -0.208 A  
HETATM    9  C   UNL     1     -10.047  13.726  67.115  1.00  0.00    -0.241 A  
HETATM   10  C   UNL     1     -10.098  15.173  67.509  1.00  0.00    -0.232 C  
HETATM   11  C   UNL     1     -10.646  13.303  65.923  1.00  0.00    -0.288 A  
HETATM   12  C   UNL     1     -10.648  11.949  65.580  1.00  0.00    -0.269 A  
HETATM   13  O   UNL     1     -11.254  11.545  64.423  1.00  0.00    -0.321 OA 
HETATM   14  H   UNL     1     -11.658  12.196  63.861  1.00  0.00     0.000 HD 
ENDBRANCH   5   6
ENDBRANCH   4   5
ENDBRANCH   3   4
ENDBRANCH   2   3
TORSDOF 4
ENDMDL
MODEL      241
REMARK 921   NORMALIZED FREE ENERGY PREDICTED BY IDOCK:   -2.47 KCAL/MOL
REMARK 922        TOTAL FREE ENERGY PREDICTED BY IDOCK:   -3.37 KCAL/MOL
REMARK 923 INTER-LIGAND FREE ENERGY PREDICTED BY IDOCK:   -3.24 KCAL/MOL
REMARK 924 INTRA-LIGAND FREE ENERGY PREDICTED BY IDOCK:   -0.13 KCAL/MOL
REMARK 927      BINDING AFFINITY PREDICTED BY RF-SCORE:    0.00 PKD
ROOT
HETATM    1  C   UNL     1      -9.030  10.782  62.529  1.00  0.00    -0.344 C  
HETATM    2  C   UNL     1     -10.177  11.489  63.236  1.00  0.00    -0.432 C  
ENDROOT
BRANCH   2   3
HETATM    3  C   UNL     1      -9.961  11.555  64.748  1.00  0.00    -0.304 C  
BRANCH   3   4
HETATM    4  C   UNL     1     -10.469  10.278  65.429  1.00  0.00    -0.125 C  
BRANCH   4   5
HETATM    5  C   UNL     1     -10.247  10.264  66.948  1.00  0.00    -0.286 C  
BRANCH   5   6
HETATM    6  C   UNL     1      -9.791  11.591  67.513  1.00  0.00    -0.203 A  
HETATM    7  C   UNL     1      -8.421  11.839  67.693  1.00  0.00    -0.149 A  
HETATM    8  C   UNL     1      -7.978  13.028  68.279  1.00  0.00    -0.151 A  
HETATM    9  C   UNL     1      -8.896  14.002  68.681  1.00  0.00    -0.104 A  
HETATM   10  C   UNL     1      -8.436  15.261  69.354  1.00  0.00    -0.231 C  
HETATM   11  C   UNL     1     -10.261  13.784  68.461  1.00  0.00    -0.235 A  
HETATM   12  C   UNL     1     -10.697  12.588  67.885  1.00  0.00    -0.217 A  
HETATM   13  O   UNL     1     -12.034  12.378  67.693  1.00  0.00    -0.454 OA 
HETATM   14  H   UNL     1     -12.650  13.055  67.946  1.00  0.00     0.000 HD 
ENDBRANCH   5   6
ENDBRANCH   4   5
ENDBRANCH   3   4
ENDBRANCH   2   3
TORSDOF 4
ENDMDL
MODEL      242
REMARK 921   NORMALIZED FREE ENERGY PREDICTED BY IDOCK:   -2.44 KCAL/MOL
REMARK 922        TOTAL FREE ENERGY PREDICTED BY IDOCK:   -3.33 KCAL/MOL
REMARK 923 INTER-LIGAND FREE ENERGY PREDICTED BY IDOCK:   -2.93 KCAL/MOL
REMARK 924 INTRA-LIGAND FREE ENERGY PREDICTED BY IDOCK:   -0.40 KCAL/MOL
REMARK 927      BINDING AFFINITY PREDICTED BY RF-SCORE:    0.00 PKD
ROOT
HETATM    1  C   UNL     1      -7.362   9.891  66.254  1.00  0.00    -0.102 C  
HETATM    2  C   UNL     1      -8.054   8.768  67.012  1.00  0.00    -0.099 C  
ENDROOT
BRANCH   2   3
HETATM    3  C   UNL     1      -9.436   8.458  66.436  1.00  0.00    -0.293 C  
BRANCH   3   4
HETATM    4  C   UNL     1     -10.498   8.451  67.541  1.00  0.00    -0.328 C  
BRANCH   4   5
HETATM    5  C   UNL     1     -11.141   7.074  67.763  1.00  0.00    -0.161 C  
BRANCH   5   6
HETATM    6  C   UNL     1     -10.731   6.407  69.057  1.00  0.00    -0.339 A  
HETATM    7  C   UNL     1     -11.434   6.686  70.239  1.00  0.00    -0.449 A  
HETATM    8  C   UNL     1     -11.030   6.138  71.460  1.00  0.00    -0.328 A  
HETATM    9  C   UNL     1      -9.925   5.285  71.520  1.00  0.00    -0.241 A  
HETATM   10  C   UNL     1      -9.453   4.728  72.831  1.00  0.00    -0.150 C  
HETATM   11  C   UNL     1      -9.248   4.963  70.338  1.00  0.00    -0.189 A  
HETATM   12  C   UNL     1      -9.649   5.523  69.123  1.00  0.00    -0.143 A  
HETATM   13  O   UNL     1      -8.968   5.217  67.978  1.00  0.00    -0.109 OA 
HETATM   14  H   UNL     1      -8.233   4.617  68.024  1.00  0.00     0.000 HD 
ENDBRANCH   5   6
ENDBRANCH   4   5
ENDBRANCH   3   4
ENDBRANCH   2   3
TORSDOF 4
ENDMDL
MODEL      243
REMARK 921   NORMALIZED FREE ENERGY PREDICTED BY IDOCK:   -2.44 KCAL/MOL
REMARK 922        TOTAL FREE ENERGY PREDICTED BY IDOCK:   -3.33 KCAL/MOL
REMARK 923 INTER-LIGAND FREE ENERGY PREDICTED BY IDOCK:   -2.81 KCAL/MOL
REMARK 924 INTRA-LIGAND FREE ENERGY PREDICTED BY IDOCK:   -0.52 KCAL/MOL
REMARK 927      BINDING AFFINITY PREDICTED BY RF-SCORE:    0.00 PKD
ROOT
HETATM    1  C   UNL     1      -7.591   5.598  70.386  1.00  0.00    -0.089 C  
HETATM    2  C   UNL     1      -8.569   4.471  70.684  1.00  0.00    -0.118 C  
ENDROOT
BRANCH   2   3
HETATM    3  C   UNL     1      -9.865   4.616  69.885  1.00  0.00    -0.296 C  
BRANCH   3   4
HETATM    4  C   UNL     1     -10.883   5.473  70.647  1.00  0.00    -0.257 C  
BRANCH   4   5
HETATM    5  C   UNL     1     -11.584   6.518  69.767  1.00  0.00    -0.392 C  
BRANCH   5   6
HETATM    6  C   UNL     1     -10.738   7.737  69.471  1.00  0.00    -0.200 A  
HETATM    7  C   UNL     1     -10.195   7.915  68.189  1.00  0.00    -0.248 A  
HETATM    8  C   UNL     1      -9.354   8.994  67.910  1.00  0.00    -0.155 A  
HETATM    9  C   UNL     1      -9.051   9.929  68.904  1.00  0.00    -0.156 A  
HETATM   10  C   UNL     1      -8.111  11.066  68.630  1.00  0.00    -0.149 C  
HETATM   11  C   UNL     1      -9.627   9.787  70.171  1.00  0.00    -0.287 A  
HETATM   12  C   UNL     1     -10.459   8.698  70.447  1.00  0.00    -0.208 A  
HETATM   13  O   UNL     1     -11.000   8.558  71.694  1.00  0.00    -0.252 OA 
HETATM   14  H   UNL     1     -10.810   9.212  72.356  1.00  0.00     0.000 HD 
ENDBRANCH   5   6
ENDBRANCH   4   5
ENDBRANCH   3   4
ENDBRANCH   2   3
TORSDOF 4
ENDMDL
MODEL      244
REMARK 921   NORMALIZED FREE ENERGY PREDICTED BY IDOCK:   -2.38 KCAL/MOL
REMARK 922        TOTAL FREE ENERGY PREDICTED BY IDOCK:   -3.26 KCAL/MOL
REMARK 923 INTER-LIGAND FREE ENERGY PREDICTED BY IDOCK:   -2.97 KCAL/MOL
REMARK 924 INTRA-LIGAND FREE ENERGY PREDICTED BY IDOCK:   -0.30 KCAL/MOL
REMARK 927      BINDING AFFINITY PREDICTED BY RF-SCORE:    0.00 PKD
ROOT
HETATM    1  C   UNL     1     -12.443   9.846  71.657  1.00  0.00    -0.507 C  
HETATM    2  C   UNL     1     -11.552   8.898  70.868  1.00  0.00    -0.331 C  
ENDROOT
BRANCH   2   3
HETATM    3  C   UNL     1     -10.846   9.609  69.712  1.00  0.00    -0.274 C  
BRANCH   3   4
HETATM    4  C   UNL     1      -9.978   8.628  68.917  1.00  0.00    -0.197 C  
BRANCH   4   5
HETATM    5  C   UNL     1     -10.768   7.805  67.889  1.00  0.00    -0.165 C  
BRANCH   5   6
HETATM    6  C   UNL     1     -10.054   6.555  67.425  1.00  0.00    -0.205 A  
HETATM    7  C   UNL     1     -10.182   5.365  68.157  1.00  0.00    -0.226 A  
HETATM    8  C   UNL     1      -9.477   4.216  67.789  1.00  0.00    -0.225 A  
HETATM    9  C   UNL     1      -8.640   4.229  66.670  1.00  0.00    -0.112 A  
HETATM   10  C   UNL     1      -7.841   3.017  66.292  1.00  0.00    -0.078 C  
HETATM   11  C   UNL     1      -8.544   5.398  65.905  1.00  0.00    -0.131 A  
HETATM   12  C   UNL     1      -9.244   6.546  66.285  1.00  0.00    -0.133 A  
HETATM   13  O   UNL     1      -9.127   7.687  65.542  1.00  0.00    -0.384 OA 
HETATM   14  H   UNL     1      -8.576   7.680  64.768  1.00  0.00     0.000 HD 
ENDBRANCH   5   6
ENDBRANCH   4   5
ENDBRANCH   3   4
ENDBRANCH   2   3
TORSDOF 4
ENDMDL
MODEL      245
REMARK 921   NORMALIZED FREE ENERGY PREDICTED BY IDOCK:   -2.37 KCAL/MOL
REMARK 922        TOTAL FREE ENERGY PREDICTED BY IDOCK:   -3.25 KCAL/MOL
REMARK 923 INTER-LIGAND FREE ENERGY PREDICTED BY IDOCK:   -2.97 KCAL/MOL
REMARK 924 INTRA-LIGAND FREE ENERGY PREDICTED BY IDOCK:   -0.28 KCAL/MOL
REMARK 927      BINDING AFFINITY PREDICTED BY RF-SCORE:    0.00 PKD
ROOT
HETATM    1  C   UNL     1     -12.377   9.783  71.702  1.00  0.00    -0.495 C  
HETATM    2  C   UNL     1     -11.562   9.062  70.639  1.00  0.00    -0.265 C  
ENDROOT
BRANCH   2   3
HETATM    3  C   UNL     1     -10.839  10.042  69.713  1.00  0.00    -0.308 C  
BRANCH   3   4
HETATM    4  C   UNL     1     -10.018   9.291  68.659  1.00  0.00    -0.193 C  
BRANCH   4   5
HETATM    5  C   UNL     1     -10.807   8.971  67.381  1.00  0.00    -0.116 C  
BRANCH   5   6
HETATM    6  C   UNL     1     -10.199   9.550  66.124  1.00  0.00    -0.272 A  
HETATM    7  C   UNL     1      -9.341   8.766  65.338  1.00  0.00    -0.095 A  
HETATM    8  C   UNL     1      -8.711   9.300  64.211  1.00  0.00    -0.204 A  
HETATM    9  C   UNL     1      -8.940  10.626  63.836  1.00  0.00    -0.205 A  
HETATM   10  C   UNL     1      -8.234  11.225  62.656  1.00  0.00     0.019 C  
HETATM   11  C   UNL     1      -9.832  11.401  64.585  1.00  0.00    -0.302 A  
HETATM   12  C   UNL     1     -10.450  10.865  65.718  1.00  0.00    -0.210 A  
HETATM   13  O   UNL     1     -11.304  11.637  66.454  1.00  0.00    -0.323 OA 
HETATM   14  H   UNL     1     -11.474  12.530  66.178  1.00  0.00     0.000 HD 
ENDBRANCH   5   6
ENDBRANCH   4   5
ENDBRANCH   3   4
ENDBRANCH   2   3
TORSDOF 4
ENDMDL
MODEL      246
REMARK 921   NORMALIZED FREE ENERGY PREDICTED BY IDOCK:   -2.34 KCAL/MOL
REMARK 922        TOTAL FREE ENERGY PREDICTED BY IDOCK:   -3.21 KCAL/MOL
REMARK 923 INTER-LIGAND FREE ENERGY PREDICTED BY IDOCK:   -2.85 KCAL/MOL
REMARK 924 INTRA-LIGAND FREE ENERGY PREDICTED BY IDOCK:   -0.36 KCAL/MOL
REMARK 927      BINDING AFFINITY PREDICTED BY RF-SCORE:    0.00 PKD
ROOT
HETATM    1  C   UNL     1      -6.656  12.567  67.935  1.00  0.00    -0.104 C  
HETATM    2  C   UNL     1      -6.229  11.878  69.222  1.00  0.00    -0.094 C  
ENDROOT
BRANCH   2   3
HETATM    3  C   UNL     1      -6.203  10.356  69.072  1.00  0.00    -0.044 C  
BRANCH   3   4
HETATM    4  C   UNL     1      -6.416   9.671  70.426  1.00  0.00    -0.088 C  
BRANCH   4   5
HETATM    5  C   UNL     1      -7.392   8.487  70.366  1.00  0.00    -0.054 C  
BRANCH   5   6
HETATM    6  C   UNL     1      -8.840   8.875  70.569  1.00  0.00    -0.221 A  
HETATM    7  C   UNL     1      -9.550   9.489  69.526  1.00  0.00    -0.198 A  
HETATM    8  C   UNL     1     -10.866   9.921  69.711  1.00  0.00    -0.300 A  
HETATM    9  C   UNL     1     -11.506   9.732  70.939  1.00  0.00    -0.447 A  
HETATM   10  C   UNL     1     -12.901  10.233  71.166  1.00  0.00    -0.504 C  
HETATM   11  C   UNL     1     -10.821   9.076  71.969  1.00  0.00    -0.342 A  
HETATM   12  C   UNL     1      -9.502   8.657  71.781  1.00  0.00    -0.284 A  
HETATM   13  O   UNL     1      -8.837   8.035  72.800  1.00  0.00    -0.170 OA 
HETATM   14  H   UNL     1      -9.287   7.888  73.624  1.00  0.00     0.000 HD 
ENDBRANCH   5   6
ENDBRANCH   4   5
ENDBRANCH   3   4
ENDBRANCH   2   3
TORSDOF 4
ENDMDL
MODEL      247
REMARK 921   NORMALIZED FREE ENERGY PREDICTED BY IDOCK:   -2.33 KCAL/MOL
REMARK 922        TOTAL FREE ENERGY PREDICTED BY IDOCK:   -3.20 KCAL/MOL
REMARK 923 INTER-LIGAND FREE ENERGY PREDICTED BY IDOCK:   -2.72 KCAL/MOL
REMARK 924 INTRA-LIGAND FREE ENERGY PREDICTED BY IDOCK:   -0.48 KCAL/MOL
REMARK 927      BINDING AFFINITY PREDICTED BY RF-SCORE:    0.00 PKD
ROOT
HETATM    1  C   UNL     1     -10.076   6.729  66.919  1.00  0.00    -0.268 C  
HETATM    2  C   UNL     1      -9.759   6.433  68.377  1.00  0.00    -0.131 C  
ENDROOT
BRANCH   2   3
HETATM    3  C   UNL     1     -10.348   7.490  69.313  1.00  0.00    -0.209 C  
BRANCH   3   4
HETATM    4  C   UNL     1      -9.280   8.511  69.724  1.00  0.00    -0.157 C  
BRANCH   4   5
HETATM    5  C   UNL     1      -9.711   9.968  69.505  1.00  0.00    -0.253 C  
BRANCH   5   6
HETATM    6  C   UNL     1      -9.675  10.407  68.058  1.00  0.00    -0.166 A  
HETATM    7  C   UNL     1     -10.867  10.758  67.406  1.00  0.00    -0.345 A  
HETATM    8  C   UNL     1     -10.870  11.099  66.051  1.00  0.00    -0.230 A  
HETATM    9  C   UNL     1      -9.677  11.113  65.323  1.00  0.00    -0.285 A  
HETATM   10  C   UNL     1      -9.673  11.431  63.857  1.00  0.00    -0.299 C  
HETATM   11  C   UNL     1      -8.477  10.811  65.978  1.00  0.00    -0.169 A  
HETATM   12  C   UNL     1      -8.483  10.461  67.330  1.00  0.00    -0.122 A  
HETATM   13  O   UNL     1      -7.307  10.149  67.954  1.00  0.00    -0.086 OA 
HETATM   14  H   UNL     1      -6.497  10.185  67.459  1.00  0.00     0.000 HD 
ENDBRANCH   5   6
ENDBRANCH   4   5
ENDBRANCH   3   4
ENDBRANCH   2   3
TORSDOF 4
ENDMDL
MODEL      248
REMARK 921   NORMALIZED FREE ENERGY PREDICTED BY IDOCK:   -2.32 KCAL/MOL
REMARK 922        TOTAL FREE ENERGY PREDICTED BY IDOCK:   -3.18 KCAL/MOL
REMARK 923 INTER-LIGAND FREE ENERGY PREDICTED BY IDOCK:   -2.90 KCAL/MOL
REMARK 924 INTRA-LIGAND FREE ENERGY PREDICTED BY IDOCK:   -0.28 KCAL/MOL
REMARK 927      BINDING AFFINITY PREDICTED BY RF-SCORE:    0.00 PKD
ROOT
HETATM    1  C   UNL     1     -12.016  12.330  68.562  1.00  0.00    -0.272 C  
HETATM    2  C   UNL     1     -10.932  11.382  69.053  1.00  0.00    -0.288 C  
ENDROOT
BRANCH   2   3
HETATM    3  C   UNL     1     -11.189   9.942  68.606  1.00  0.00    -0.122 C  
BRANCH   3   4
HETATM    4  C   UNL     1      -9.964   9.367  67.887  1.00  0.00    -0.220 C  
BRANCH   4   5
HETATM    5  C   UNL     1      -8.865   8.881  68.844  1.00  0.00    -0.137 C  
BRANCH   5   6
HETATM    6  C   UNL     1      -9.389   8.151  70.060  1.00  0.00    -0.159 A  
HETATM    7  C   UNL     1      -9.321   8.760  71.323  1.00  0.00    -0.319 A  
HETATM    8  C   UNL     1      -9.734   8.078  72.471  1.00  0.00    -0.325 A  
HETATM    9  C   UNL     1     -10.240   6.779  72.378  1.00  0.00    -0.201 A  
HETATM   10  C   UNL     1     -10.642   6.020  73.607  1.00  0.00    -0.281 C  
HETATM   11  C   UNL     1     -10.357   6.183  71.117  1.00  0.00    -0.257 A  
HETATM   12  C   UNL     1      -9.933   6.866  69.974  1.00  0.00    -0.180 A  
HETATM   13  O   UNL     1     -10.033   6.266  68.750  1.00  0.00    -0.139 OA 
HETATM   14  H   UNL     1     -10.402   5.392  68.693  1.00  0.00     0.000 HD 
ENDBRANCH   5   6
ENDBRANCH   4   5
ENDBRANCH   3   4
ENDBRANCH   2   3
TORSDOF 4
ENDMDL
MODEL      249
REMARK 921   NORMALIZED FREE ENERGY PREDICTED BY IDOCK:   -2.30 KCAL/MOL
REMARK 922        TOTAL FREE ENERGY PREDICTED BY IDOCK:   -3.16 KCAL/MOL
REMARK 923 INTER-LIGAND FREE ENERGY PREDICTED BY IDOCK:   -2.91 KCAL/MOL
REMARK 924 INTRA-LIGAND FREE ENERGY PREDICTED BY IDOCK:   -0.26 KCAL/MOL
REMARK 927      BINDING AFFINITY PREDICTED BY RF-SCORE:    0.00 PKD
ROOT
HETATM    1  C   UNL     1     -10.318  11.722  66.363  1.00  0.00    -0.257 C  
HETATM    2  C   UNL     1      -9.715  10.332  66.499  1.00  0.00    -0.243 C  
ENDROOT
BRANCH   2   3
HETATM    3  C   UNL     1      -8.483  10.332  67.405  1.00  0.00    -0.125 C  
BRANCH   3   4
HETATM    4  C   UNL     1      -7.706   9.017  67.269  1.00  0.00    -0.096 C  
BRANCH   4   5
HETATM    5  C   UNL     1      -8.532   7.777  67.639  1.00  0.00    -0.121 C  
BRANCH   5   6
HETATM    6  C   UNL     1      -9.314   7.922  68.925  1.00  0.00    -0.150 A  
HETATM    7  C   UNL     1      -8.666   8.365  70.089  1.00  0.00    -0.136 A  
HETATM    8  C   UNL     1      -9.349   8.440  71.306  1.00  0.00    -0.239 A  
HETATM    9  C   UNL     1     -10.700   8.089  71.380  1.00  0.00    -0.270 A  
HETATM   10  C   UNL     1     -11.432   8.120  72.690  1.00  0.00    -0.454 C  
HETATM   11  C   UNL     1     -11.366   7.692  70.215  1.00  0.00    -0.197 A  
HETATM   12  C   UNL     1     -10.674   7.609  69.004  1.00  0.00    -0.119 A  
HETATM   13  O   UNL     1     -11.330   7.201  67.876  1.00  0.00    -0.500 OA 
HETATM   14  H   UNL     1     -12.255   6.989  67.930  1.00  0.00     0.000 HD 
ENDBRANCH   5   6
ENDBRANCH   4   5
ENDBRANCH   3   4
ENDBRANCH   2   3
TORSDOF 4
ENDMDL
MODEL      250
REMARK 921   NORMALIZED FREE ENERGY PREDICTED BY IDOCK:   -2.30 KCAL/MOL
REMARK 922        TOTAL FREE ENERGY PREDICTED BY IDOCK:   -3.16 KCAL/MOL
REMARK 923 INTER-LIGAND FREE ENERGY PREDICTED BY IDOCK:   -2.47 KCAL/MOL
REMARK 924 INTRA-LIGAND FREE ENERGY PREDICTED BY IDOCK:   -0.69 KCAL/MOL
REMARK 927      BINDING AFFINITY PREDICTED BY RF-SCORE:    0.00 PKD
ROOT
HETATM    1  C   UNL     1     -10.546  12.453  65.147  1.00  0.00    -0.324 C  
HETATM    2  C   UNL     1     -10.699  13.650  66.073  1.00  0.00    -0.280 C  
ENDROOT
BRANCH   2   3
HETATM    3  C   UNL     1      -9.859  13.499  67.342  1.00  0.00    -0.227 C  
BRANCH   3   4
HETATM    4  C   UNL     1     -10.408  12.376  68.230  1.00  0.00    -0.232 C  
BRANCH   4   5
HETATM    5  C   UNL     1      -9.344  11.353  68.651  1.00  0.00    -0.155 C  
BRANCH   5   6
HETATM    6  C   UNL     1      -8.959  10.382  67.557  1.00  0.00    -0.138 A  
HETATM    7  C   UNL     1      -9.837   9.346  67.203  1.00  0.00    -0.242 A  
HETATM    8  C   UNL     1      -9.475   8.395  66.245  1.00  0.00    -0.292 A  
HETATM    9  C   UNL     1      -8.233   8.471  65.609  1.00  0.00    -0.130 A  
HETATM   10  C   UNL     1      -7.814   7.429  64.614  1.00  0.00    -0.123 C  
HETATM   11  C   UNL     1      -7.372   9.528  65.921  1.00  0.00    -0.097 A  
HETATM   12  C   UNL     1      -7.735  10.469  66.887  1.00  0.00    -0.114 A  
HETATM   13  O   UNL     1      -6.877  11.487  67.198  1.00  0.00    -0.116 OA 
HETATM   14  H   UNL     1      -6.045  11.546  66.743  1.00  0.00     0.000 HD 
ENDBRANCH   5   6
ENDBRANCH   4   5
ENDBRANCH   3   4
ENDBRANCH   2   3
TORSDOF 4
ENDMDL
MODEL      251
REMARK 921   NORMALIZED FREE ENERGY PREDICTED BY IDOCK:   -2.27 KCAL/MOL
REMARK 922        TOTAL FREE ENERGY PREDICTED BY IDOCK:   -3.12 KCAL/MOL
REMARK 923 INTER-LIGAND FREE ENERGY PREDICTED BY IDOCK:   -3.37 KCAL/MOL
REMARK 924 INTRA-LIGAND FREE ENERGY PREDICTED BY IDOCK:    0.25 KCAL/MOL
REMARK 927      BINDING AFFINITY PREDICTED BY RF-SCORE:    0.00 PKD
ROOT
HETATM    1  C   UNL     1     -11.252  14.729  70.408  1.00  0.00    -0.213 C  
HETATM    2  C   UNL     1     -11.986  13.566  69.759  1.00  0.00    -0.405 C  
ENDROOT
BRANCH   2   3
HETATM    3  C   UNL     1     -11.917  13.628  68.232  1.00  0.00    -0.385 C  
BRANCH   3   4
HETATM    4  C   UNL     1     -11.857  12.220  67.630  1.00  0.00    -0.334 C  
BRANCH   4   5
HETATM    5  C   UNL     1     -10.430  11.753  67.306  1.00  0.00    -0.242 C  
BRANCH   5   6
HETATM    6  C   UNL     1      -9.793  10.925  68.399  1.00  0.00    -0.183 A  
HETATM    7  C   UNL     1      -8.414  11.030  68.640  1.00  0.00    -0.157 A  
HETATM    8  C   UNL     1      -7.789  10.226  69.596  1.00  0.00    -0.168 A  
HETATM    9  C   UNL     1      -8.534   9.310  70.344  1.00  0.00    -0.234 A  
HETATM   10  C   UNL     1      -7.867   8.407  71.340  1.00  0.00    -0.137 C  
HETATM   11  C   UNL     1      -9.917   9.233  70.145  1.00  0.00    -0.251 A  
HETATM   12  C   UNL     1     -10.533  10.033  69.180  1.00  0.00    -0.219 A  
HETATM   13  O   UNL     1     -11.882   9.935  68.980  1.00  0.00    -0.445 OA 
HETATM   14  H   UNL     1     -12.385   9.328  69.511  1.00  0.00     0.000 HD 
ENDBRANCH   5   6
ENDBRANCH   4   5
ENDBRANCH   3   4
ENDBRANCH   2   3
TORSDOF 4
ENDMDL
MODEL      252
REMARK 921   NORMALIZED FREE ENERGY PREDICTED BY IDOCK:   -2.26 KCAL/MOL
REMARK 922        TOTAL FREE ENERGY PREDICTED BY IDOCK:   -3.11 KCAL/MOL
REMARK 923 INTER-LIGAND FREE ENERGY PREDICTED BY IDOCK:   -3.04 KCAL/MOL
REMARK 924 INTRA-LIGAND FREE ENERGY PREDICTED BY IDOCK:   -0.07 KCAL/MOL
REMARK 927      BINDING AFFINITY PREDICTED BY RF-SCORE:    0.00 PKD
ROOT
HETATM    1  C   UNL     1     -10.614  11.276  64.271  1.00  0.00    -0.422 C  
HETATM    2  C   UNL     1     -10.781  12.650  64.902  1.00  0.00    -0.327 C  
ENDROOT
BRANCH   2   3
HETATM    3  C   UNL     1     -11.921  12.675  65.920  1.00  0.00    -0.497 C  
BRANCH   3   4
HETATM    4  C   UNL     1     -11.421  12.269  67.311  1.00  0.00    -0.426 C  
BRANCH   4   5
HETATM    5  C   UNL     1     -11.156  10.763  67.451  1.00  0.00    -0.363 C  
BRANCH   5   6
HETATM    6  C   UNL     1      -9.689  10.398  67.477  1.00  0.00    -0.195 A  
HETATM    7  C   UNL     1      -8.718  11.398  67.310  1.00  0.00    -0.148 A  
HETATM    8  C   UNL     1      -7.359  11.077  67.260  1.00  0.00    -0.106 A  
HETATM    9  C   UNL     1      -6.941   9.750  67.393  1.00  0.00    -0.084 A  
HETATM   10  C   UNL     1      -5.489   9.387  67.293  1.00  0.00    -0.040 C  
HETATM   11  C   UNL     1      -7.899   8.753  67.609  1.00  0.00    -0.102 A  
HETATM   12  C   UNL     1      -9.257   9.079  67.647  1.00  0.00    -0.136 A  
HETATM   13  O   UNL     1     -10.185   8.094  67.839  1.00  0.00    -0.197 OA 
HETATM   14  H   UNL     1      -9.891   7.198  67.954  1.00  0.00     0.000 HD 
ENDBRANCH   5   6
ENDBRANCH   4   5
ENDBRANCH   3   4
ENDBRANCH   2   3
TORSDOF 4
ENDMDL
MODEL      253
REMARK 921   NORMALIZED FREE ENERGY PREDICTED BY IDOCK:   -2.25 KCAL/MOL
REMARK 922        TOTAL FREE ENERGY PREDICTED BY IDOCK:   -3.10 KCAL/MOL
REMARK 923 INTER-LIGAND FREE ENERGY PREDICTED BY IDOCK:   -2.83 KCAL/MOL
REMARK 924 INTRA-LIGAND FREE ENERGY PREDICTED BY IDOCK:   -0.28 KCAL/MOL
REMARK 927      BINDING AFFINITY PREDICTED BY RF-SCORE:    0.00 PKD
ROOT
HETATM    1  C   UNL     1      -7.649   4.910  68.142  1.00  0.00    -0.082 C  
HETATM    2  C   UNL     1      -7.396   4.997  69.639  1.00  0.00    -0.056 C  
ENDROOT
BRANCH   2   3
HETATM    3  C   UNL     1      -8.296   6.037  70.309  1.00  0.00    -0.124 C  
BRANCH   3   4
HETATM    4  C   UNL     1      -8.463   7.271  69.415  1.00  0.00    -0.133 C  
BRANCH   4   5
HETATM    5  C   UNL     1      -9.920   7.548  69.019  1.00  0.00    -0.175 C  
BRANCH   5   6
HETATM    6  C   UNL     1     -10.101   8.792  68.178  1.00  0.00    -0.228 A  
HETATM    7  C   UNL     1     -10.393  10.017  68.797  1.00  0.00    -0.216 A  
HETATM    8  C   UNL     1     -10.634  11.165  68.038  1.00  0.00    -0.233 A  
HETATM    9  C   UNL     1     -10.572  11.116  66.643  1.00  0.00    -0.314 A  
HETATM   10  C   UNL     1     -10.875  12.329  65.815  1.00  0.00    -0.313 C  
HETATM   11  C   UNL     1     -10.233   9.909  66.019  1.00  0.00    -0.269 A  
HETATM   12  C   UNL     1     -10.004   8.763  66.783  1.00  0.00    -0.268 A  
HETATM   13  O   UNL     1      -9.694   7.585  66.162  1.00  0.00    -0.417 OA 
HETATM   14  H   UNL     1      -9.628   7.566  65.214  1.00  0.00     0.000 HD 
ENDBRANCH   5   6
ENDBRANCH   4   5
ENDBRANCH   3   4
ENDBRANCH   2   3
TORSDOF 4
ENDMDL
MODEL      254
REMARK 921   NORMALIZED FREE ENERGY PREDICTED BY IDOCK:   -2.25 KCAL/MOL
REMARK 922        TOTAL FREE ENERGY PREDICTED BY IDOCK:   -3.10 KCAL/MOL
REMARK 923 INTER-LIGAND FREE ENERGY PREDICTED BY IDOCK:   -2.80 KCAL/MOL
REMARK 924 INTRA-LIGAND FREE ENERGY PREDICTED BY IDOCK:   -0.30 KCAL/MOL
REMARK 927      BINDING AFFINITY PREDICTED BY RF-SCORE:    0.00 PKD
ROOT
HETATM    1  C   UNL     1      -7.418  11.308  69.205  1.00  0.00    -0.084 C  
HETATM    2  C   UNL     1      -7.555   9.874  68.717  1.00  0.00    -0.081 C  
ENDROOT
BRANCH   2   3
HETATM    3  C   UNL     1      -8.730   9.156  69.382  1.00  0.00    -0.140 C  
BRANCH   3   4
HETATM    4  C   UNL     1      -9.906  10.116  69.595  1.00  0.00    -0.254 C  
BRANCH   4   5
HETATM    5  C   UNL     1     -10.376  10.193  71.055  1.00  0.00     0.456 C  
BRANCH   5   6
HETATM    6  C   UNL     1     -10.730   8.852  71.658  1.00  0.00    -0.418 A  
HETATM    7  C   UNL     1      -9.802   8.187  72.474  1.00  0.00    -0.363 A  
HETATM    8  C   UNL     1     -10.077   6.916  72.985  1.00  0.00    -0.226 A  
HETATM    9  C   UNL     1     -11.293   6.290  72.703  1.00  0.00    -0.283 A  
HETATM   10  C   UNL     1     -11.581   4.906  73.206  1.00  0.00    -0.276 C  
HETATM   11  C   UNL     1     -12.244   6.965  71.930  1.00  0.00    -0.370 A  
HETATM   12  C   UNL     1     -11.959   8.232  71.413  1.00  0.00    -0.299 A  
HETATM   13  O   UNL     1     -12.887   8.874  70.642  1.00  0.00    -0.461 OA 
HETATM   14  H   UNL     1     -13.722   8.452  70.477  1.00  0.00     0.000 HD 
ENDBRANCH   5   6
ENDBRANCH   4   5
ENDBRANCH   3   4
ENDBRANCH   2   3
TORSDOF 4
ENDMDL
MODEL      255
REMARK 921   NORMALIZED FREE ENERGY PREDICTED BY IDOCK:   -2.23 KCAL/MOL
REMARK 922        TOTAL FREE ENERGY PREDICTED BY IDOCK:   -3.08 KCAL/MOL
REMARK 923 INTER-LIGAND FREE ENERGY PREDICTED BY IDOCK:   -2.60 KCAL/MOL
REMARK 924 INTRA-LIGAND FREE ENERGY PREDICTED BY IDOCK:   -0.48 KCAL/MOL
REMARK 927      BINDING AFFINITY PREDICTED BY RF-SCORE:    0.00 PKD
ROOT
HETATM    1  C   UNL     1     -10.822   5.853  68.458  1.00  0.00    -0.323 C  
HETATM    2  C   UNL     1     -11.426   6.346  69.765  1.00  0.00    -0.468 C  
ENDROOT
BRANCH   2   3
HETATM    3  C   UNL     1     -10.584   5.933  70.973  1.00  0.00    -0.312 C  
BRANCH   3   4
HETATM    4  C   UNL     1      -9.254   5.314  70.526  1.00  0.00    -0.187 C  
BRANCH   4   5
HETATM    5  C   UNL     1      -8.033   6.188  70.849  1.00  0.00    -0.116 C  
BRANCH   5   6
HETATM    6  C   UNL     1      -8.023   7.518  70.130  1.00  0.00    -0.111 A  
HETATM    7  C   UNL     1      -7.997   7.553  68.727  1.00  0.00    -0.126 A  
HETATM    8  C   UNL     1      -7.916   8.767  68.041  1.00  0.00    -0.106 A  
HETATM    9  C   UNL     1      -7.876   9.974  68.743  1.00  0.00    -0.094 A  
HETATM   10  C   UNL     1      -7.741  11.282  68.020  1.00  0.00    -0.108 C  
HETATM   11  C   UNL     1      -7.951   9.951  70.141  1.00  0.00    -0.181 A  
HETATM   12  C   UNL     1      -8.021   8.733  70.821  1.00  0.00    -0.127 A  
HETATM   13  O   UNL     1      -8.073   8.722  72.187  1.00  0.00    -0.336 OA 
HETATM   14  H   UNL     1      -8.072   9.548  72.656  1.00  0.00     0.000 HD 
ENDBRANCH   5   6
ENDBRANCH   4   5
ENDBRANCH   3   4
ENDBRANCH   2   3
TORSDOF 4
ENDMDL
MODEL      256
REMARK 921   NORMALIZED FREE ENERGY PREDICTED BY IDOCK:   -2.20 KCAL/MOL
REMARK 922        TOTAL FREE ENERGY PREDICTED BY IDOCK:   -3.04 KCAL/MOL
REMARK 923 INTER-LIGAND FREE ENERGY PREDICTED BY IDOCK:   -2.88 KCAL/MOL
REMARK 924 INTRA-LIGAND FREE ENERGY PREDICTED BY IDOCK:   -0.16 KCAL/MOL
REMARK 927      BINDING AFFINITY PREDICTED BY RF-SCORE:    0.00 PKD
ROOT
HETATM    1  C   UNL     1      -6.561  10.290  69.744  1.00  0.00    -0.090 C  
HETATM    2  C   UNL     1      -7.267  10.676  68.452  1.00  0.00    -0.084 C  
ENDROOT
BRANCH   2   3
HETATM    3  C   UNL     1      -8.300  11.780  68.675  1.00  0.00    -0.079 C  
BRANCH   3   4
HETATM    4  C   UNL     1      -9.641  11.412  68.030  1.00  0.00    -0.184 C  
BRANCH   4   5
HETATM    5  C   UNL     1     -10.816  12.267  68.528  1.00  0.00    -0.267 C  
BRANCH   5   6
HETATM    6  C   UNL     1     -10.672  13.741  68.225  1.00  0.00    -0.264 A  
HETATM    7  C   UNL     1     -10.041  14.586  69.152  1.00  0.00    -0.145 A  
HETATM    8  C   UNL     1      -9.959  15.962  68.929  1.00  0.00    -0.225 A  
HETATM    9  C   UNL     1     -10.491  16.522  67.764  1.00  0.00    -0.308 A  
HETATM   10  C   UNL     1     -10.451  18.004  67.534  1.00  0.00    -0.408 C  
HETATM   11  C   UNL     1     -11.078  15.681  66.811  1.00  0.00    -0.169 A  
HETATM   12  C   UNL     1     -11.167  14.307  67.047  1.00  0.00    -0.323 A  
HETATM   13  O   UNL     1     -11.761  13.498  66.118  1.00  0.00    -0.335 OA 
HETATM   14  H   UNL     1     -12.097  13.883  65.317  1.00  0.00     0.000 HD 
ENDBRANCH   5   6
ENDBRANCH   4   5
ENDBRANCH   3   4
ENDBRANCH   2   3
TORSDOF 4
ENDMDL
MODEL      257
REMARK 921   NORMALIZED FREE ENERGY PREDICTED BY IDOCK:   -2.19 KCAL/MOL
REMARK 922        TOTAL FREE ENERGY PREDICTED BY IDOCK:   -3.02 KCAL/MOL
REMARK 923 INTER-LIGAND FREE ENERGY PREDICTED BY IDOCK:   -2.61 KCAL/MOL
REMARK 924 INTRA-LIGAND FREE ENERGY PREDICTED BY IDOCK:   -0.41 KCAL/MOL
REMARK 927      BINDING AFFINITY PREDICTED BY RF-SCORE:    0.00 PKD
ROOT
HETATM    1  C   UNL     1      -7.366   3.813  72.442  1.00  0.00    -0.050 C  
HETATM    2  C   UNL     1      -7.917   4.090  71.051  1.00  0.00    -0.063 C  
ENDROOT
BRANCH   2   3
HETATM    3  C   UNL     1      -8.410   5.531  70.910  1.00  0.00    -0.120 C  
BRANCH   3   4
HETATM    4  C   UNL     1      -8.664   5.879  69.439  1.00  0.00    -0.116 C  
BRANCH   4   5
HETATM    5  C   UNL     1      -9.963   5.277  68.884  1.00  0.00    -0.250 C  
BRANCH   5   6
HETATM    6  C   UNL     1      -9.785   4.533  67.579  1.00  0.00    -0.213 A  
HETATM    7  C   UNL     1      -8.940   3.414  67.524  1.00  0.00    -0.173 A  
HETATM    8  C   UNL     1      -8.704   2.752  66.317  1.00  0.00    -0.131 A  
HETATM    9  C   UNL     1      -9.322   3.185  65.141  1.00  0.00    -0.143 A  
HETATM   10  C   UNL     1      -9.039   2.513  63.830  1.00  0.00    -0.103 C  
HETATM   11  C   UNL     1     -10.204   4.270  65.196  1.00  0.00    -0.228 A  
HETATM   12  C   UNL     1     -10.427   4.935  66.404  1.00  0.00    -0.280 A  
HETATM   13  O   UNL     1     -11.276   6.006  66.442  1.00  0.00    -0.742 OA 
HETATM   14  H   UNL     1     -11.711   6.278  65.643  1.00  0.00     0.000 HD 
ENDBRANCH   5   6
ENDBRANCH   4   5
ENDBRANCH   3   4
ENDBRANCH   2   3
TORSDOF 4
ENDMDL
MODEL      258
REMARK 921   NORMALIZED FREE ENERGY PREDICTED BY IDOCK:   -2.19 KCAL/MOL
REMARK 922        TOTAL FREE ENERGY PREDICTED BY IDOCK:   -3.02 KCAL/MOL
REMARK 923 INTER-LIGAND FREE ENERGY PREDICTED BY IDOCK:   -2.76 KCAL/MOL
REMARK 924 INTRA-LIGAND FREE ENERGY PREDICTED BY IDOCK:   -0.27 KCAL/MOL
REMARK 927      BINDING AFFINITY PREDICTED BY RF-SCORE:    0.00 PKD
ROOT
HETATM    1  C   UNL     1     -11.847  16.092  68.641  1.00  0.00    -0.174 C  
HETATM    2  C   UNL     1     -11.359  14.667  68.857  1.00  0.00    -0.305 C  
ENDROOT
BRANCH   2   3
HETATM    3  C   UNL     1     -10.423  14.209  67.738  1.00  0.00    -0.246 C  
BRANCH   3   4
HETATM    4  C   UNL     1      -9.329  13.285  68.285  1.00  0.00    -0.205 C  
BRANCH   4   5
HETATM    5  C   UNL     1      -8.441  12.672  67.192  1.00  0.00    -0.186 C  
BRANCH   5   6
HETATM    6  C   UNL     1      -8.713  11.208  66.932  1.00  0.00    -0.152 A  
HETATM    7  C   UNL     1      -8.499  10.266  67.950  1.00  0.00    -0.118 A  
HETATM    8  C   UNL     1      -8.676   8.900  67.713  1.00  0.00    -0.125 A  
HETATM    9  C   UNL     1      -9.087   8.449  66.456  1.00  0.00    -0.217 A  
HETATM   10  C   UNL     1      -9.234   6.983  66.175  1.00  0.00    -0.119 C  
HETATM   11  C   UNL     1      -9.350   9.385  65.449  1.00  0.00    -0.311 A  
HETATM   12  C   UNL     1      -9.161  10.748  65.689  1.00  0.00    -0.194 A  
HETATM   13  O   UNL     1      -9.401  11.651  64.692  1.00  0.00    -0.406 OA 
HETATM   14  H   UNL     1      -9.705  11.338  63.848  1.00  0.00     0.000 HD 
ENDBRANCH   5   6
ENDBRANCH   4   5
ENDBRANCH   3   4
ENDBRANCH   2   3
TORSDOF 4
ENDMDL
MODEL      259
REMARK 921   NORMALIZED FREE ENERGY PREDICTED BY IDOCK:   -2.18 KCAL/MOL
REMARK 922        TOTAL FREE ENERGY PREDICTED BY IDOCK:   -3.02 KCAL/MOL
REMARK 923 INTER-LIGAND FREE ENERGY PREDICTED BY IDOCK:   -2.61 KCAL/MOL
REMARK 924 INTRA-LIGAND FREE ENERGY PREDICTED BY IDOCK:   -0.41 KCAL/MOL
REMARK 927      BINDING AFFINITY PREDICTED BY RF-SCORE:    0.00 PKD
ROOT
HETATM    1  C   UNL     1      -9.662  10.051  66.725  1.00  0.00    -0.239 C  
HETATM    2  C   UNL     1      -9.145   9.149  65.614  1.00  0.00    -0.273 C  
ENDROOT
BRANCH   2   3
HETATM    3  C   UNL     1      -8.030   8.224  66.104  1.00  0.00    -0.100 C  
BRANCH   3   4
HETATM    4  C   UNL     1      -8.143   7.985  67.614  1.00  0.00    -0.124 C  
BRANCH   4   5
HETATM    5  C   UNL     1      -9.013   6.774  67.979  1.00  0.00    -0.117 C  
BRANCH   5   6
HETATM    6  C   UNL     1      -9.519   6.790  69.404  1.00  0.00    -0.147 A  
HETATM    7  C   UNL     1      -9.636   8.010  70.089  1.00  0.00    -0.175 A  
HETATM    8  C   UNL     1     -10.033   8.045  71.428  1.00  0.00    -0.221 A  
HETATM    9  C   UNL     1     -10.338   6.861  72.106  1.00  0.00    -0.221 A  
HETATM   10  C   UNL     1     -10.720   6.882  73.557  1.00  0.00    -0.342 C  
HETATM   11  C   UNL     1     -10.272   5.645  71.416  1.00  0.00    -0.270 A  
HETATM   12  C   UNL     1      -9.863   5.616  70.081  1.00  0.00    -0.190 A  
HETATM   13  O   UNL     1      -9.783   4.421  69.423  1.00  0.00    -0.186 OA 
HETATM   14  H   UNL     1     -10.017   3.623  69.883  1.00  0.00     0.000 HD 
ENDBRANCH   5   6
ENDBRANCH   4   5
ENDBRANCH   3   4
ENDBRANCH   2   3
TORSDOF 4
ENDMDL
MODEL      260
REMARK 921   NORMALIZED FREE ENERGY PREDICTED BY IDOCK:   -2.18 KCAL/MOL
REMARK 922        TOTAL FREE ENERGY PREDICTED BY IDOCK:   -3.01 KCAL/MOL
REMARK 923 INTER-LIGAND FREE ENERGY PREDICTED BY IDOCK:   -2.75 KCAL/MOL
REMARK 924 INTRA-LIGAND FREE ENERGY PREDICTED BY IDOCK:   -0.27 KCAL/MOL
REMARK 927      BINDING AFFINITY PREDICTED BY RF-SCORE:    0.00 PKD
ROOT
HETATM    1  C   UNL     1      -6.867  10.320  66.401  1.00  0.00    -0.106 C  
HETATM    2  C   UNL     1      -8.351  10.469  66.700  1.00  0.00    -0.131 C  
ENDROOT
BRANCH   2   3
HETATM    3  C   UNL     1      -9.087   9.131  66.610  1.00  0.00    -0.182 C  
BRANCH   3   4
HETATM    4  C   UNL     1      -9.884   8.859  67.890  1.00  0.00    -0.205 C  
BRANCH   4   5
HETATM    5  C   UNL     1      -9.004   8.719  69.141  1.00  0.00    -0.137 C  
BRANCH   5   6
HETATM    6  C   UNL     1      -9.576   7.794  70.193  1.00  0.00    -0.168 A  
HETATM    7  C   UNL     1      -9.107   6.475  70.293  1.00  0.00    -0.155 A  
HETATM    8  C   UNL     1      -9.668   5.581  71.208  1.00  0.00    -0.215 A  
HETATM    9  C   UNL     1     -10.700   5.993  72.055  1.00  0.00    -0.281 A  
HETATM   10  C   UNL     1     -11.344   5.030  73.008  1.00  0.00    -0.374 C  
HETATM   11  C   UNL     1     -11.142   7.319  71.996  1.00  0.00    -0.277 A  
HETATM   12  C   UNL     1     -10.584   8.205  71.070  1.00  0.00    -0.210 A  
HETATM   13  O   UNL     1     -11.037   9.493  71.008  1.00  0.00    -0.303 OA 
HETATM   14  H   UNL     1     -11.722   9.772  71.605  1.00  0.00     0.000 HD 
ENDBRANCH   5   6
ENDBRANCH   4   5
ENDBRANCH   3   4
ENDBRANCH   2   3
TORSDOF 4
ENDMDL
MODEL      261
REMARK 921   NORMALIZED FREE ENERGY PREDICTED BY IDOCK:   -2.13 KCAL/MOL
REMARK 922        TOTAL FREE ENERGY PREDICTED BY IDOCK:   -2.95 KCAL/MOL
REMARK 923 INTER-LIGAND FREE ENERGY PREDICTED BY IDOCK:   -2.33 KCAL/MOL
REMARK 924 INTRA-LIGAND FREE ENERGY PREDICTED BY IDOCK:   -0.62 KCAL/MOL
REMARK 927      BINDING AFFINITY PREDICTED BY RF-SCORE:    0.00 PKD
ROOT
HETATM    1  C   UNL     1     -10.567  12.137  67.707  1.00  0.00    -0.229 C  
HETATM    2  C   UNL     1     -11.466  11.972  68.923  1.00  0.00    -0.356 C  
ENDROOT
BRANCH   2   3
HETATM    3  C   UNL     1     -11.972  10.536  69.068  1.00  0.00    -0.095 C  
BRANCH   3   4
HETATM    4  C   UNL     1     -11.640   9.978  70.456  1.00  0.00    -0.403 C  
BRANCH   4   5
HETATM    5  C   UNL     1     -10.137   9.964  70.767  1.00  0.00    -0.073 C  
BRANCH   5   6
HETATM    6  C   UNL     1      -9.319   9.135  69.803  1.00  0.00    -0.190 A  
HETATM    7  C   UNL     1      -9.714   7.822  69.501  1.00  0.00    -0.165 A  
HETATM    8  C   UNL     1      -8.938   7.012  68.668  1.00  0.00    -0.130 A  
HETATM    9  C   UNL     1      -7.757   7.504  68.106  1.00  0.00    -0.120 A  
HETATM   10  C   UNL     1      -6.890   6.629  67.249  1.00  0.00    -0.072 C  
HETATM   11  C   UNL     1      -7.380   8.827  68.362  1.00  0.00    -0.086 A  
HETATM   12  C   UNL     1      -8.155   9.628  69.205  1.00  0.00    -0.104 A  
HETATM   13  O   UNL     1      -7.767  10.913  69.464  1.00  0.00    -0.308 OA 
HETATM   14  H   UNL     1      -6.976  11.247  69.057  1.00  0.00     0.000 HD 
ENDBRANCH   5   6
ENDBRANCH   4   5
ENDBRANCH   3   4
ENDBRANCH   2   3
TORSDOF 4
ENDMDL
MODEL      262
REMARK 921   NORMALIZED FREE ENERGY PREDICTED BY IDOCK:   -2.11 KCAL/MOL
REMARK 922        TOTAL FREE ENERGY PREDICTED BY IDOCK:   -2.93 KCAL/MOL
REMARK 923 INTER-LIGAND FREE ENERGY PREDICTED BY IDOCK:   -2.21 KCAL/MOL
REMARK 924 INTRA-LIGAND FREE ENERGY PREDICTED BY IDOCK:   -0.72 KCAL/MOL
REMARK 927      BINDING AFFINITY PREDICTED BY RF-SCORE:    0.00 PKD
ROOT
HETATM    1  C   UNL     1      -6.984   7.569  73.108  1.00  0.00    -0.075 C  
HETATM    2  C   UNL     1      -8.362   8.064  73.522  1.00  0.00    -0.292 C  
ENDROOT
BRANCH   2   3
HETATM    3  C   UNL     1      -9.072   7.069  74.441  1.00  0.00    -0.239 C  
BRANCH   3   4
HETATM    4  C   UNL     1     -10.484   6.765  73.930  1.00  0.00    -0.356 C  
BRANCH   4   5
HETATM    5  C   UNL     1     -10.689   5.297  73.531  1.00  0.00    -0.337 C  
BRANCH   5   6
HETATM    6  C   UNL     1      -9.694   4.795  72.509  1.00  0.00    -0.191 A  
HETATM    7  C   UNL     1      -9.826   5.171  71.163  1.00  0.00    -0.250 A  
HETATM    8  C   UNL     1      -8.963   4.665  70.188  1.00  0.00    -0.136 A  
HETATM    9  C   UNL     1      -7.937   3.784  70.541  1.00  0.00    -0.055 A  
HETATM   10  C   UNL     1      -7.033   3.196  69.498  1.00  0.00    -0.041 C  
HETATM   11  C   UNL     1      -7.767   3.442  71.888  1.00  0.00    -0.057 A  
HETATM   12  C   UNL     1      -8.641   3.943  72.856  1.00  0.00    -0.099 A  
HETATM   13  O   UNL     1      -8.478   3.585  74.165  1.00  0.00    -0.084 OA 
HETATM   14  H   UNL     1      -7.763   3.006  74.401  1.00  0.00     0.000 HD 
ENDBRANCH   5   6
ENDBRANCH   4   5
ENDBRANCH   3   4
ENDBRANCH   2   3
TORSDOF 4
ENDMDL
MODEL      263
REMARK 921   NORMALIZED FREE ENERGY PREDICTED BY IDOCK:   -2.08 KCAL/MOL
REMARK 922        TOTAL FREE ENERGY PREDICTED BY IDOCK:   -2.89 KCAL/MOL
REMARK 923 INTER-LIGAND FREE ENERGY PREDICTED BY IDOCK:   -2.50 KCAL/MOL
REMARK 924 INTRA-LIGAND FREE ENERGY PREDICTED BY IDOCK:   -0.40 KCAL/MOL
REMARK 927      BINDING AFFINITY PREDICTED BY RF-SCORE:    0.00 PKD
ROOT
HETATM    1  C   UNL     1      -6.012   5.170  71.259  1.00  0.00    -0.021 C  
HETATM    2  C   UNL     1      -6.197   5.622  69.818  1.00  0.00    -0.029 C  
ENDROOT
BRANCH   2   3
HETATM    3  C   UNL     1      -5.916   7.115  69.649  1.00  0.00    -0.023 C  
BRANCH   3   4
HETATM    4  C   UNL     1      -7.116   7.829  69.017  1.00  0.00    -0.074 C  
BRANCH   4   5
HETATM    5  C   UNL     1      -8.433   7.050  69.153  1.00  0.00    -0.129 C  
BRANCH   5   6
HETATM    6  C   UNL     1      -9.545   7.835  69.810  1.00  0.00    -0.167 A  
HETATM    7  C   UNL     1      -9.906   9.093  69.302  1.00  0.00    -0.175 A  
HETATM    8  C   UNL     1     -10.881   9.869  69.933  1.00  0.00    -0.316 A  
HETATM    9  C   UNL     1     -11.529   9.396  71.077  1.00  0.00    -0.403 A  
HETATM   10  C   UNL     1     -12.544  10.238  71.791  1.00  0.00    -0.488 C  
HETATM   11  C   UNL     1     -11.211   8.122  71.562  1.00  0.00    -0.307 A  
HETATM   12  C   UNL     1     -10.226   7.356  70.933  1.00  0.00    -0.192 A  
HETATM   13  O   UNL     1      -9.909   6.122  71.428  1.00  0.00    -0.173 OA 
HETATM   14  H   UNL     1     -10.372   5.797  72.191  1.00  0.00     0.000 HD 
ENDBRANCH   5   6
ENDBRANCH   4   5
ENDBRANCH   3   4
ENDBRANCH   2   3
TORSDOF 4
ENDMDL
MODEL      264
REMARK 921   NORMALIZED FREE ENERGY PREDICTED BY IDOCK:   -2.05 KCAL/MOL
REMARK 922        TOTAL FREE ENERGY PREDICTED BY IDOCK:   -2.86 KCAL/MOL
REMARK 923 INTER-LIGAND FREE ENERGY PREDICTED BY IDOCK:   -2.57 KCAL/MOL
REMARK 924 INTRA-LIGAND FREE ENERGY PREDICTED BY IDOCK:   -0.29 KCAL/MOL
REMARK 927      BINDING AFFINITY PREDICTED BY RF-SCORE:    0.00 PKD
ROOT
HETATM    1  C   UNL     1      -9.384  10.330  63.589  1.00  0.00    -0.338 C  
HETATM    2  C   UNL     1     -10.127  11.018  64.725  1.00  0.00    -0.367 C  
ENDROOT
BRANCH   2   3
HETATM    3  C   UNL     1      -9.814  10.380  66.079  1.00  0.00    -0.289 C  
BRANCH   3   4
HETATM    4  C   UNL     1      -9.935   8.854  66.005  1.00  0.00    -0.199 C  
BRANCH   4   5
HETATM    5  C   UNL     1      -9.342   8.133  67.224  1.00  0.00    -0.174 C  
BRANCH   5   6
HETATM    6  C   UNL     1      -9.213   6.636  67.047  1.00  0.00    -0.147 A  
HETATM    7  C   UNL     1      -8.419   6.121  66.011  1.00  0.00    -0.141 A  
HETATM    8  C   UNL     1      -8.340   4.745  65.784  1.00  0.00    -0.117 A  
HETATM    9  C   UNL     1      -9.041   3.853  66.599  1.00  0.00    -0.160 A  
HETATM   10  C   UNL     1      -9.003   2.376  66.337  1.00  0.00    -0.124 C  
HETATM   11  C   UNL     1      -9.797   4.355  67.665  1.00  0.00    -0.168 A  
HETATM   12  C   UNL     1      -9.880   5.733  67.880  1.00  0.00    -0.127 A  
HETATM   13  O   UNL     1     -10.638   6.213  68.912  1.00  0.00    -0.215 OA 
HETATM   14  H   UNL     1     -11.091   5.598  69.478  1.00  0.00     0.000 HD 
ENDBRANCH   5   6
ENDBRANCH   4   5
ENDBRANCH   3   4
ENDBRANCH   2   3
TORSDOF 4
ENDMDL
MODEL      265
REMARK 921   NORMALIZED FREE ENERGY PREDICTED BY IDOCK:   -2.05 KCAL/MOL
REMARK 922        TOTAL FREE ENERGY PREDICTED BY IDOCK:   -2.85 KCAL/MOL
REMARK 923 INTER-LIGAND FREE ENERGY PREDICTED BY IDOCK:   -2.79 KCAL/MOL
REMARK 924 INTRA-LIGAND FREE ENERGY PREDICTED BY IDOCK:   -0.06 KCAL/MOL
REMARK 927      BINDING AFFINITY PREDICTED BY RF-SCORE:    0.00 PKD
ROOT
HETATM    1  C   UNL     1      -6.034   2.857  67.768  1.00  0.00    -0.027 C  
HETATM    2  C   UNL     1      -6.812   3.519  66.641  1.00  0.00    -0.054 C  
ENDROOT
BRANCH   2   3
HETATM    3  C   UNL     1      -7.519   4.792  67.109  1.00  0.00    -0.086 C  
BRANCH   3   4
HETATM    4  C   UNL     1      -7.501   5.862  66.011  1.00  0.00    -0.085 C  
BRANCH   4   5
HETATM    5  C   UNL     1      -8.605   6.917  66.165  1.00  0.00    -0.147 C  
BRANCH   5   6
HETATM    6  C   UNL     1      -9.309   6.877  67.503  1.00  0.00    -0.130 A  
HETATM    7  C   UNL     1      -8.631   7.291  68.661  1.00  0.00    -0.128 A  
HETATM    8  C   UNL     1      -9.235   7.197  69.917  1.00  0.00    -0.141 A  
HETATM    9  C   UNL     1     -10.536   6.703  70.041  1.00  0.00    -0.266 A  
HETATM   10  C   UNL     1     -11.177   6.552  71.389  1.00  0.00    -0.331 C  
HETATM   11  C   UNL     1     -11.237   6.334  68.887  1.00  0.00    -0.387 A  
HETATM   12  C   UNL     1     -10.623   6.420  67.635  1.00  0.00    -0.274 A  
HETATM   13  O   UNL     1     -11.310   6.038  66.516  1.00  0.00    -0.737 OA 
HETATM   14  H   UNL     1     -12.204   5.727  66.606  1.00  0.00     0.000 HD 
ENDBRANCH   5   6
ENDBRANCH   4   5
ENDBRANCH   3   4
ENDBRANCH   2   3
TORSDOF 4
ENDMDL
MODEL      266
REMARK 921   NORMALIZED FREE ENERGY PREDICTED BY IDOCK:   -2.05 KCAL/MOL
REMARK 922        TOTAL FREE ENERGY PREDICTED BY IDOCK:   -2.85 KCAL/MOL
REMARK 923 INTER-LIGAND FREE ENERGY PREDICTED BY IDOCK:   -2.59 KCAL/MOL
REMARK 924 INTRA-LIGAND FREE ENERGY PREDICTED BY IDOCK:   -0.26 KCAL/MOL
REMARK 927      BINDING AFFINITY PREDICTED BY RF-SCORE:    0.00 PKD
ROOT
HETATM    1  C   UNL     1      -7.241  13.796  68.221  1.00  0.00    -0.114 C  
HETATM    2  C   UNL     1      -6.558  12.442  68.100  1.00  0.00    -0.073 C  
ENDROOT
BRANCH   2   3
HETATM    3  C   UNL     1      -6.776  11.815  66.723  1.00  0.00    -0.048 C  
BRANCH   3   4
HETATM    4  C   UNL     1      -7.189  10.345  66.851  1.00  0.00    -0.099 C  
BRANCH   4   5
HETATM    5  C   UNL     1      -8.660  10.089  66.492  1.00  0.00    -0.131 C  
BRANCH   5   6
HETATM    6  C   UNL     1      -9.047   8.627  66.499  1.00  0.00    -0.206 A  
HETATM    7  C   UNL     1      -8.191   7.675  65.923  1.00  0.00    -0.133 A  
HETATM    8  C   UNL     1      -8.557   6.329  65.854  1.00  0.00    -0.150 A  
HETATM    9  C   UNL     1      -9.782   5.902  66.375  1.00  0.00    -0.168 A  
HETATM   10  C   UNL     1     -10.208   4.468  66.264  1.00  0.00    -0.270 C  
HETATM   11  C   UNL     1     -10.620   6.836  66.995  1.00  0.00    -0.405 A  
HETATM   12  C   UNL     1     -10.253   8.183  67.051  1.00  0.00    -0.308 A  
HETATM   13  O   UNL     1     -11.089   9.089  67.641  1.00  0.00    -0.484 OA 
HETATM   14  H   UNL     1     -11.908   8.787  68.015  1.00  0.00     0.000 HD 
ENDBRANCH   5   6
ENDBRANCH   4   5
ENDBRANCH   3   4
ENDBRANCH   2   3
TORSDOF 4
ENDMDL
MODEL      267
REMARK 921   NORMALIZED FREE ENERGY PREDICTED BY IDOCK:   -2.04 KCAL/MOL
REMARK 922        TOTAL FREE ENERGY PREDICTED BY IDOCK:   -2.84 KCAL/MOL
REMARK 923 INTER-LIGAND FREE ENERGY PREDICTED BY IDOCK:   -2.53 KCAL/MOL
REMARK 924 INTRA-LIGAND FREE ENERGY PREDICTED BY IDOCK:   -0.31 KCAL/MOL
REMARK 927      BINDING AFFINITY PREDICTED BY RF-SCORE:    0.00 PKD
ROOT
HETATM    1  C   UNL     1      -9.688   5.474  73.194  1.00  0.00    -0.162 C  
HETATM    2  C   UNL     1     -11.152   5.600  72.803  1.00  0.00    -0.334 C  
ENDROOT
BRANCH   2   3
HETATM    3  C   UNL     1     -11.322   6.265  71.437  1.00  0.00    -0.353 C  
BRANCH   3   4
HETATM    4  C   UNL     1      -9.969   6.422  70.734  1.00  0.00    -0.212 C  
BRANCH   4   5
HETATM    5  C   UNL     1     -10.067   6.389  69.202  1.00  0.00    -0.194 C  
BRANCH   5   6
HETATM    6  C   UNL     1      -9.284   7.485  68.514  1.00  0.00    -0.143 A  
HETATM    7  C   UNL     1      -7.919   7.304  68.245  1.00  0.00    -0.124 A  
HETATM    8  C   UNL     1      -7.158   8.327  67.675  1.00  0.00    -0.083 A  
HETATM    9  C   UNL     1      -7.751   9.549  67.346  1.00  0.00    -0.095 A  
HETATM   10  C   UNL     1      -6.935  10.672  66.777  1.00  0.00    -0.110 C  
HETATM   11  C   UNL     1      -9.122   9.721  67.565  1.00  0.00    -0.142 A  
HETATM   12  C   UNL     1      -9.875   8.698  68.146  1.00  0.00    -0.165 A  
HETATM   13  O   UNL     1     -11.210   8.884  68.374  1.00  0.00    -0.412 OA 
HETATM   14  H   UNL     1     -11.611   9.708  68.124  1.00  0.00     0.000 HD 
ENDBRANCH   5   6
ENDBRANCH   4   5
ENDBRANCH   3   4
ENDBRANCH   2   3
TORSDOF 4
ENDMDL
MODEL      268
REMARK 921   NORMALIZED FREE ENERGY PREDICTED BY IDOCK:   -1.97 KCAL/MOL
REMARK 922        TOTAL FREE ENERGY PREDICTED BY IDOCK:   -2.75 KCAL/MOL
REMARK 923 INTER-LIGAND FREE ENERGY PREDICTED BY IDOCK:   -2.37 KCAL/MOL
REMARK 924 INTRA-LIGAND FREE ENERGY PREDICTED BY IDOCK:   -0.38 KCAL/MOL
REMARK 927      BINDING AFFINITY PREDICTED BY RF-SCORE:    0.00 PKD
ROOT
HETATM    1  C   UNL     1      -8.939   9.589  63.242  1.00  0.00    -0.208 C  
HETATM    2  C   UNL     1      -9.251  11.005  63.703  1.00  0.00    -0.210 C  
ENDROOT
BRANCH   2   3
HETATM    3  C   UNL     1      -9.484  11.074  65.213  1.00  0.00    -0.259 C  
BRANCH   3   4
HETATM    4  C   UNL     1      -8.156  11.216  65.964  1.00  0.00    -0.064 C  
BRANCH   4   5
HETATM    5  C   UNL     1      -8.327  11.425  67.476  1.00  0.00    -0.137 C  
BRANCH   5   6
HETATM    6  C   UNL     1      -8.685  10.166  68.233  1.00  0.00    -0.120 A  
HETATM    7  C   UNL     1      -7.950   8.990  68.018  1.00  0.00    -0.101 A  
HETATM    8  C   UNL     1      -8.305   7.796  68.651  1.00  0.00    -0.129 A  
HETATM    9  C   UNL     1      -9.393   7.758  69.527  1.00  0.00    -0.149 A  
HETATM   10  C   UNL     1      -9.814   6.472  70.177  1.00  0.00    -0.185 C  
HETATM   11  C   UNL     1     -10.102   8.937  69.785  1.00  0.00    -0.205 A  
HETATM   12  C   UNL     1      -9.749  10.125  69.139  1.00  0.00    -0.215 A  
HETATM   13  O   UNL     1     -10.460  11.266  69.383  1.00  0.00    -0.392 OA 
HETATM   14  H   UNL     1     -11.183  11.237  70.000  1.00  0.00     0.000 HD 
ENDBRANCH   5   6
ENDBRANCH   4   5
ENDBRANCH   3   4
ENDBRANCH   2   3
TORSDOF 4
ENDMDL
MODEL      269
REMARK 921   NORMALIZED FREE ENERGY PREDICTED BY IDOCK:   -1.91 KCAL/MOL
REMARK 922        TOTAL FREE ENERGY PREDICTED BY IDOCK:   -2.68 KCAL/MOL
REMARK 923 INTER-LIGAND FREE ENERGY PREDICTED BY IDOCK:   -2.04 KCAL/MOL
REMARK 924 INTRA-LIGAND FREE ENERGY PREDICTED BY IDOCK:   -0.65 KCAL/MOL
REMARK 927      BINDING AFFINITY PREDICTED BY RF-SCORE:    0.00 PKD
ROOT
HETATM    1  C   UNL     1      -8.054   8.140  64.165  1.00  0.00    -0.128 C  
HETATM    2  C   UNL     1      -7.318   6.846  63.854  1.00  0.00    -0.080 C  
ENDROOT
BRANCH   2   3
HETATM    3  C   UNL     1      -8.258   5.640  63.861  1.00  0.00    -0.094 C  
BRANCH   3   4
HETATM    4  C   UNL     1      -7.829   4.618  64.920  1.00  0.00    -0.090 C  
BRANCH   4   5
HETATM    5  C   UNL     1      -8.874   4.407  66.026  1.00  0.00    -0.119 C  
BRANCH   5   6
HETATM    6  C   UNL     1      -9.241   5.670  66.772  1.00  0.00    -0.130 A  
HETATM    7  C   UNL     1     -10.561   6.147  66.731  1.00  0.00    -0.351 A  
HETATM    8  C   UNL     1     -10.910   7.348  67.352  1.00  0.00    -0.299 A  
HETATM    9  C   UNL     1      -9.949   8.091  68.043  1.00  0.00    -0.216 A  
HETATM   10  C   UNL     1     -10.300   9.406  68.674  1.00  0.00    -0.227 C  
HETATM   11  C   UNL     1      -8.641   7.600  68.130  1.00  0.00    -0.123 A  
HETATM   12  C   UNL     1      -8.296   6.403  67.497  1.00  0.00    -0.117 A  
HETATM   13  O   UNL     1      -7.011   5.943  67.572  1.00  0.00    -0.065 OA 
HETATM   14  H   UNL     1      -6.370   6.441  68.065  1.00  0.00     0.000 HD 
ENDBRANCH   5   6
ENDBRANCH   4   5
ENDBRANCH   3   4
ENDBRANCH   2   3
TORSDOF 4
ENDMDL
MODEL      270
REMARK 921   NORMALIZED FREE ENERGY PREDICTED BY IDOCK:   -1.90 KCAL/MOL
REMARK 922        TOTAL FREE ENERGY PREDICTED BY IDOCK:   -2.67 KCAL/MOL
REMARK 923 INTER-LIGAND FREE ENERGY PREDICTED BY IDOCK:   -2.35 KCAL/MOL
REMARK 924 INTRA-LIGAND FREE ENERGY PREDICTED BY IDOCK:   -0.32 KCAL/MOL
REMARK 927      BINDING AFFINITY PREDICTED BY RF-SCORE:    0.00 PKD
ROOT
HETATM    1  C   UNL     1      -7.155   2.972  67.472  1.00  0.00    -0.053 C  
HETATM    2  C   UNL     1      -7.320   3.766  66.184  1.00  0.00    -0.072 C  
ENDROOT
BRANCH   2   3
HETATM    3  C   UNL     1      -7.316   5.273  66.440  1.00  0.00    -0.082 C  
BRANCH   3   4
HETATM    4  C   UNL     1      -8.488   5.677  67.340  1.00  0.00    -0.106 C  
BRANCH   4   5
HETATM    5  C   UNL     1      -8.290   7.033  68.033  1.00  0.00    -0.119 C  
BRANCH   5   6
HETATM    6  C   UNL     1      -8.955   8.189  67.321  1.00  0.00    -0.149 A  
HETATM    7  C   UNL     1      -8.264   8.879  66.313  1.00  0.00    -0.111 A  
HETATM    8  C   UNL     1      -8.829   9.994  65.689  1.00  0.00    -0.184 A  
HETATM    9  C   UNL     1     -10.107  10.433  66.049  1.00  0.00    -0.307 A  
HETATM   10  C   UNL     1     -10.706  11.656  65.420  1.00  0.00    -0.341 C  
HETATM   11  C   UNL     1     -10.823   9.721  67.018  1.00  0.00    -0.165 A  
HETATM   12  C   UNL     1     -10.247   8.614  67.646  1.00  0.00    -0.239 A  
HETATM   13  O   UNL     1     -10.948   7.939  68.605  1.00  0.00    -0.421 OA 
HETATM   14  H   UNL     1     -11.826   8.228  68.826  1.00  0.00     0.000 HD 
ENDBRANCH   5   6
ENDBRANCH   4   5
ENDBRANCH   3   4
ENDBRANCH   2   3
TORSDOF 4
ENDMDL
MODEL      271
REMARK 921   NORMALIZED FREE ENERGY PREDICTED BY IDOCK:   -1.89 KCAL/MOL
REMARK 922        TOTAL FREE ENERGY PREDICTED BY IDOCK:   -2.65 KCAL/MOL
REMARK 923 INTER-LIGAND FREE ENERGY PREDICTED BY IDOCK:   -2.73 KCAL/MOL
REMARK 924 INTRA-LIGAND FREE ENERGY PREDICTED BY IDOCK:    0.07 KCAL/MOL
REMARK 927      BINDING AFFINITY PREDICTED BY RF-SCORE:    0.00 PKD
ROOT
HETATM    1  C   UNL     1     -11.776  12.042  63.509  1.00  0.00    -0.566 C  
HETATM    2  C   UNL     1     -12.083  11.623  64.939  1.00  0.00     0.178 C  
ENDROOT
BRANCH   2   3
HETATM    3  C   UNL     1     -12.123  12.822  65.888  1.00  0.00    -0.485 C  
BRANCH   3   4
HETATM    4  C   UNL     1     -11.168  12.615  67.069  1.00  0.00    -0.348 C  
BRANCH   4   5
HETATM    5  C   UNL     1     -10.062  11.587  66.790  1.00  0.00    -0.245 C  
BRANCH   5   6
HETATM    6  C   UNL     1      -8.759  11.881  67.500  1.00  0.00    -0.163 A  
HETATM    7  C   UNL     1      -8.140  10.879  68.263  1.00  0.00    -0.124 A  
HETATM    8  C   UNL     1      -6.974  11.146  68.986  1.00  0.00    -0.101 A  
HETATM    9  C   UNL     1      -6.393  12.416  68.946  1.00  0.00    -0.085 A  
HETATM   10  C   UNL     1      -5.169  12.729  69.754  1.00  0.00    -0.083 C  
HETATM   11  C   UNL     1      -6.977  13.407  68.148  1.00  0.00    -0.116 A  
HETATM   12  C   UNL     1      -8.149  13.137  67.437  1.00  0.00    -0.179 A  
HETATM   13  O   UNL     1      -8.722  14.119  66.677  1.00  0.00    -0.408 OA 
HETATM   14  H   UNL     1      -8.306  14.972  66.635  1.00  0.00     0.000 HD 
ENDBRANCH   5   6
ENDBRANCH   4   5
ENDBRANCH   3   4
ENDBRANCH   2   3
TORSDOF 4
ENDMDL
MODEL      272
REMARK 921   NORMALIZED FREE ENERGY PREDICTED BY IDOCK:   -1.85 KCAL/MOL
REMARK 922        TOTAL FREE ENERGY PREDICTED BY IDOCK:   -2.60 KCAL/MOL
REMARK 923 INTER-LIGAND FREE ENERGY PREDICTED BY IDOCK:   -2.24 KCAL/MOL
REMARK 924 INTRA-LIGAND FREE ENERGY PREDICTED BY IDOCK:   -0.36 KCAL/MOL
REMARK 927      BINDING AFFINITY PREDICTED BY RF-SCORE:    0.00 PKD
ROOT
HETATM    1  C   UNL     1      -9.739   5.431  73.202  1.00  0.00    -0.163 C  
HETATM    2  C   UNL     1     -11.223   5.484  72.872  1.00  0.00    -0.358 C  
ENDROOT
BRANCH   2   3
HETATM    3  C   UNL     1     -11.481   6.132  71.511  1.00  0.00    -0.325 C  
BRANCH   3   4
HETATM    4  C   UNL     1     -10.170   6.331  70.743  1.00  0.00    -0.238 C  
BRANCH   4   5
HETATM    5  C   UNL     1     -10.345   6.316  69.217  1.00  0.00    -0.266 C  
BRANCH   5   6
HETATM    6  C   UNL     1      -9.412   5.364  68.503  1.00  0.00    -0.156 A  
HETATM    7  C   UNL     1      -9.784   4.022  68.328  1.00  0.00    -0.133 A  
HETATM    8  C   UNL     1      -8.912   3.107  67.734  1.00  0.00    -0.188 A  
HETATM    9  C   UNL     1      -7.654   3.518  67.287  1.00  0.00    -0.078 A  
HETATM   10  C   UNL     1      -6.689   2.536  66.691  1.00  0.00    -0.040 C  
HETATM   11  C   UNL     1      -7.294   4.865  67.412  1.00  0.00    -0.078 A  
HETATM   12  C   UNL     1      -8.167   5.773  68.017  1.00  0.00    -0.104 A  
HETATM   13  O   UNL     1      -7.796   7.082  68.152  1.00  0.00    -0.114 OA 
HETATM   14  H   UNL     1      -6.950   7.359  67.822  1.00  0.00     0.000 HD 
ENDBRANCH   5   6
ENDBRANCH   4   5
ENDBRANCH   3   4
ENDBRANCH   2   3
TORSDOF 4
ENDMDL
MODEL      273
REMARK 921   NORMALIZED FREE ENERGY PREDICTED BY IDOCK:   -1.81 KCAL/MOL
REMARK 922        TOTAL FREE ENERGY PREDICTED BY IDOCK:   -2.56 KCAL/MOL
REMARK 923 INTER-LIGAND FREE ENERGY PREDICTED BY IDOCK:   -2.47 KCAL/MOL
REMARK 924 INTRA-LIGAND FREE ENERGY PREDICTED BY IDOCK:   -0.10 KCAL/MOL
REMARK 927      BINDING AFFINITY PREDICTED BY RF-SCORE:    0.00 PKD
ROOT
HETATM    1  C   UNL     1      -9.706  10.292  67.038  1.00  0.00    -0.217 C  
HETATM    2  C   UNL     1      -9.746   9.452  65.770  1.00  0.00    -0.354 C  
ENDROOT
BRANCH   2   3
HETATM    3  C   UNL     1      -8.691   8.345  65.787  1.00  0.00    -0.199 C  
BRANCH   3   4
HETATM    4  C   UNL     1      -9.289   7.029  66.294  1.00  0.00    -0.146 C  
BRANCH   4   5
HETATM    5  C   UNL     1      -9.795   7.103  67.742  1.00  0.00    -0.175 C  
BRANCH   5   6
HETATM    6  C   UNL     1      -9.389   5.922  68.595  1.00  0.00    -0.126 A  
HETATM    7  C   UNL     1      -8.151   5.298  68.379  1.00  0.00    -0.091 A  
HETATM    8  C   UNL     1      -7.783   4.162  69.105  1.00  0.00    -0.054 A  
HETATM    9  C   UNL     1      -8.640   3.636  70.076  1.00  0.00    -0.105 A  
HETATM   10  C   UNL     1      -8.278   2.391  70.829  1.00  0.00    -0.069 C  
HETATM   11  C   UNL     1      -9.856   4.281  70.332  1.00  0.00    -0.268 A  
HETATM   12  C   UNL     1     -10.222   5.410  69.594  1.00  0.00    -0.274 A  
HETATM   13  O   UNL     1     -11.421   6.020  69.839  1.00  0.00    -0.388 OA 
HETATM   14  H   UNL     1     -11.986   5.671  70.518  1.00  0.00     0.000 HD 
ENDBRANCH   5   6
ENDBRANCH   4   5
ENDBRANCH   3   4
ENDBRANCH   2   3
TORSDOF 4
ENDMDL
MODEL      274
REMARK 921   NORMALIZED FREE ENERGY PREDICTED BY IDOCK:   -1.81 KCAL/MOL
REMARK 922        TOTAL FREE ENERGY PREDICTED BY IDOCK:   -2.56 KCAL/MOL
REMARK 923 INTER-LIGAND FREE ENERGY PREDICTED BY IDOCK:   -2.30 KCAL/MOL
REMARK 924 INTRA-LIGAND FREE ENERGY PREDICTED BY IDOCK:   -0.26 KCAL/MOL
REMARK 927      BINDING AFFINITY PREDICTED BY RF-SCORE:    0.00 PKD
ROOT
HETATM    1  C   UNL     1      -8.873   1.984  67.866  1.00  0.00    -0.154 C  
HETATM    2  C   UNL     1      -8.366   2.990  66.844  1.00  0.00    -0.092 C  
ENDROOT
BRANCH   2   3
HETATM    3  C   UNL     1      -7.781   4.235  67.513  1.00  0.00    -0.084 C  
BRANCH   3   4
HETATM    4  C   UNL     1      -8.569   5.488  67.117  1.00  0.00    -0.109 C  
BRANCH   4   5
HETATM    5  C   UNL     1      -7.918   6.796  67.589  1.00  0.00    -0.113 C  
BRANCH   5   6
HETATM    6  C   UNL     1      -8.786   7.612  68.520  1.00  0.00    -0.130 A  
HETATM    7  C   UNL     1      -8.624   7.494  69.909  1.00  0.00    -0.139 A  
HETATM    8  C   UNL     1      -9.460   8.183  70.791  1.00  0.00    -0.180 A  
HETATM    9  C   UNL     1     -10.467   9.019  70.301  1.00  0.00    -0.248 A  
HETATM   10  C   UNL     1     -11.402   9.727  71.237  1.00  0.00    -0.445 C  
HETATM   11  C   UNL     1     -10.605   9.182  68.918  1.00  0.00    -0.214 A  
HETATM   12  C   UNL     1      -9.772   8.481  68.042  1.00  0.00    -0.154 A  
HETATM   13  O   UNL     1      -9.929   8.632  66.692  1.00  0.00    -0.241 OA 
HETATM   14  H   UNL     1     -10.599   9.222  66.368  1.00  0.00     0.000 HD 
ENDBRANCH   5   6
ENDBRANCH   4   5
ENDBRANCH   3   4
ENDBRANCH   2   3
TORSDOF 4
ENDMDL
MODEL      275
REMARK 921   NORMALIZED FREE ENERGY PREDICTED BY IDOCK:   -1.79 KCAL/MOL
REMARK 922        TOTAL FREE ENERGY PREDICTED BY IDOCK:   -2.53 KCAL/MOL
REMARK 923 INTER-LIGAND FREE ENERGY PREDICTED BY IDOCK:   -2.77 KCAL/MOL
REMARK 924 INTRA-LIGAND FREE ENERGY PREDICTED BY IDOCK:    0.25 KCAL/MOL
REMARK 927      BINDING AFFINITY PREDICTED BY RF-SCORE:    0.00 PKD
ROOT
HETATM    1  C   UNL     1     -11.563  12.374  70.223  1.00  0.00    -0.060 C  
HETATM    2  C   UNL     1     -12.667  11.685  71.010  1.00  0.00    -0.395 C  
ENDROOT
BRANCH   2   3
HETATM    3  C   UNL     1     -13.115  10.383  70.343  1.00  0.00    -0.112 C  
BRANCH   3   4
HETATM    4  C   UNL     1     -13.317   9.277  71.385  1.00  0.00    -0.390 C  
BRANCH   4   5
HETATM    5  C   UNL     1     -12.030   8.513  71.725  1.00  0.00    -0.393 C  
BRANCH   5   6
HETATM    6  C   UNL     1     -10.885   8.787  70.775  1.00  0.00    -0.282 A  
HETATM    7  C   UNL     1     -11.111   8.787  69.390  1.00  0.00     0.049 A  
HETATM    8  C   UNL     1     -10.058   8.967  68.491  1.00  0.00    -0.211 A  
HETATM    9  C   UNL     1      -8.756   9.170  68.959  1.00  0.00    -0.135 A  
HETATM   10  C   UNL     1      -7.609   9.317  68.004  1.00  0.00    -0.084 C  
HETATM   11  C   UNL     1      -8.529   9.220  70.339  1.00  0.00    -0.234 A  
HETATM   12  C   UNL     1      -9.586   9.028  71.233  1.00  0.00    -0.291 A  
HETATM   13  O   UNL     1      -9.349   9.059  72.579  1.00  0.00    -0.236 OA 
HETATM   14  H   UNL     1      -8.466   9.223  72.889  1.00  0.00     0.000 HD 
ENDBRANCH   5   6
ENDBRANCH   4   5
ENDBRANCH   3   4
ENDBRANCH   2   3
TORSDOF 4
ENDMDL
MODEL      276
REMARK 921   NORMALIZED FREE ENERGY PREDICTED BY IDOCK:   -1.78 KCAL/MOL
REMARK 922        TOTAL FREE ENERGY PREDICTED BY IDOCK:   -2.52 KCAL/MOL
REMARK 923 INTER-LIGAND FREE ENERGY PREDICTED BY IDOCK:   -2.30 KCAL/MOL
REMARK 924 INTRA-LIGAND FREE ENERGY PREDICTED BY IDOCK:   -0.22 KCAL/MOL
REMARK 927      BINDING AFFINITY PREDICTED BY RF-SCORE:    0.00 PKD
ROOT
HETATM    1  C   UNL     1      -8.889   1.981  67.893  1.00  0.00    -0.154 C  
HETATM    2  C   UNL     1      -8.563   3.202  67.046  1.00  0.00    -0.121 C  
ENDROOT
BRANCH   2   3
HETATM    3  C   UNL     1      -8.137   4.393  67.905  1.00  0.00    -0.094 C  
BRANCH   3   4
HETATM    4  C   UNL     1      -9.191   5.505  67.857  1.00  0.00    -0.112 C  
BRANCH   4   5
HETATM    5  C   UNL     1      -8.761   6.788  68.584  1.00  0.00    -0.125 C  
BRANCH   5   6
HETATM    6  C   UNL     1      -9.234   8.059  67.915  1.00  0.00    -0.137 A  
HETATM    7  C   UNL     1     -10.399   8.695  68.370  1.00  0.00    -0.239 A  
HETATM    8  C   UNL     1     -10.896   9.831  67.724  1.00  0.00    -0.306 A  
HETATM    9  C   UNL     1     -10.227  10.364  66.619  1.00  0.00    -0.292 A  
HETATM   10  C   UNL     1     -10.776  11.554  65.888  1.00  0.00    -0.325 C  
HETATM   11  C   UNL     1      -9.038   9.765  66.188  1.00  0.00    -0.198 A  
HETATM   12  C   UNL     1      -8.553   8.623  66.831  1.00  0.00    -0.120 A  
HETATM   13  O   UNL     1      -7.401   8.034  66.389  1.00  0.00    -0.080 OA 
HETATM   14  H   UNL     1      -6.939   8.418  65.653  1.00  0.00     0.000 HD 
ENDBRANCH   5   6
ENDBRANCH   4   5
ENDBRANCH   3   4
ENDBRANCH   2   3
TORSDOF 4
ENDMDL
MODEL      277
REMARK 921   NORMALIZED FREE ENERGY PREDICTED BY IDOCK:   -1.72 KCAL/MOL
REMARK 922        TOTAL FREE ENERGY PREDICTED BY IDOCK:   -2.44 KCAL/MOL
REMARK 923 INTER-LIGAND FREE ENERGY PREDICTED BY IDOCK:   -2.17 KCAL/MOL
REMARK 924 INTRA-LIGAND FREE ENERGY PREDICTED BY IDOCK:   -0.27 KCAL/MOL
REMARK 927      BINDING AFFINITY PREDICTED BY RF-SCORE:    0.00 PKD
ROOT
HETATM    1  C   UNL     1      -9.787   5.899  72.164  1.00  0.00    -0.185 C  
HETATM    2  C   UNL     1     -11.219   5.853  71.653  1.00  0.00    -0.300 C  
ENDROOT
BRANCH   2   3
HETATM    3  C   UNL     1     -11.286   5.999  70.132  1.00  0.00    -0.412 C  
BRANCH   3   4
HETATM    4  C   UNL     1      -9.913   5.744  69.499  1.00  0.00    -0.250 C  
BRANCH   4   5
HETATM    5  C   UNL     1      -9.727   4.303  69.000  1.00  0.00    -0.209 C  
BRANCH   5   6
HETATM    6  C   UNL     1      -9.019   4.202  67.668  1.00  0.00    -0.141 A  
HETATM    7  C   UNL     1      -9.741   4.387  66.478  1.00  0.00    -0.230 A  
HETATM    8  C   UNL     1      -9.126   4.230  65.234  1.00  0.00    -0.143 A  
HETATM    9  C   UNL     1      -7.770   3.900  65.152  1.00  0.00    -0.082 A  
HETATM   10  C   UNL     1      -7.109   3.682  63.824  1.00  0.00    -0.050 C  
HETATM   11  C   UNL     1      -7.031   3.763  66.333  1.00  0.00    -0.059 A  
HETATM   12  C   UNL     1      -7.655   3.910  67.574  1.00  0.00    -0.068 A  
HETATM   13  O   UNL     1      -6.928   3.754  68.721  1.00  0.00    -0.046 OA 
HETATM   14  H   UNL     1      -6.001   3.555  68.657  1.00  0.00     0.000 HD 
ENDBRANCH   5   6
ENDBRANCH   4   5
ENDBRANCH   3   4
ENDBRANCH   2   3
TORSDOF 4
ENDMDL
MODEL      278
REMARK 921   NORMALIZED FREE ENERGY PREDICTED BY IDOCK:   -1.70 KCAL/MOL
REMARK 922        TOTAL FREE ENERGY PREDICTED BY IDOCK:   -2.42 KCAL/MOL
REMARK 923 INTER-LIGAND FREE ENERGY PREDICTED BY IDOCK:   -2.19 KCAL/MOL
REMARK 924 INTRA-LIGAND FREE ENERGY PREDICTED BY IDOCK:   -0.23 KCAL/MOL
REMARK 927      BINDING AFFINITY PREDICTED BY RF-SCORE:    0.00 PKD
ROOT
HETATM    1  C   UNL     1      -7.764   7.435  64.257  1.00  0.00    -0.121 C  
HETATM    2  C   UNL     1      -8.773   7.078  65.338  1.00  0.00     0.009 C  
ENDROOT
BRANCH   2   3
HETATM    3  C   UNL     1      -8.457   7.770  66.665  1.00  0.00    -0.129 C  
BRANCH   3   4
HETATM    4  C   UNL     1      -8.996   9.205  66.673  1.00  0.00    -0.164 C  
BRANCH   4   5
HETATM    5  C   UNL     1      -8.560  10.016  67.902  1.00  0.00    -0.121 C  
BRANCH   5   6
HETATM    6  C   UNL     1      -8.986  11.467  67.862  1.00  0.00    -0.153 A  
HETATM    7  C   UNL     1      -8.114  12.436  67.342  1.00  0.00    -0.177 A  
HETATM    8  C   UNL     1      -8.455  13.791  67.359  1.00  0.00    -0.209 A  
HETATM    9  C   UNL     1      -9.684  14.203  67.881  1.00  0.00    -0.224 A  
HETATM   10  C   UNL     1     -10.043  15.658  67.949  1.00  0.00    -0.225 C  
HETATM   11  C   UNL     1     -10.580  13.239  68.357  1.00  0.00    -0.263 A  
HETATM   12  C   UNL     1     -10.228  11.887  68.348  1.00  0.00    -0.204 A  
HETATM   13  O   UNL     1     -11.103  10.956  68.833  1.00  0.00    -0.212 OA 
HETATM   14  H   UNL     1     -11.947  11.242  69.163  1.00  0.00     0.000 HD 
ENDBRANCH   5   6
ENDBRANCH   4   5
ENDBRANCH   3   4
ENDBRANCH   2   3
TORSDOF 4
ENDMDL
MODEL      279
REMARK 921   NORMALIZED FREE ENERGY PREDICTED BY IDOCK:   -1.70 KCAL/MOL
REMARK 922        TOTAL FREE ENERGY PREDICTED BY IDOCK:   -2.42 KCAL/MOL
REMARK 923 INTER-LIGAND FREE ENERGY PREDICTED BY IDOCK:   -2.11 KCAL/MOL
REMARK 924 INTRA-LIGAND FREE ENERGY PREDICTED BY IDOCK:   -0.31 KCAL/MOL
REMARK 927      BINDING AFFINITY PREDICTED BY RF-SCORE:    0.00 PKD
ROOT
HETATM    1  C   UNL     1      -9.992   6.159  72.444  1.00  0.00    -0.187 C  
HETATM    2  C   UNL     1     -11.279   6.487  71.702  1.00  0.00    -0.315 C  
ENDROOT
BRANCH   2   3
HETATM    3  C   UNL     1     -11.024   6.779  70.223  1.00  0.00    -0.339 C  
BRANCH   3   4
HETATM    4  C   UNL     1      -9.594   6.395  69.828  1.00  0.00    -0.163 C  
BRANCH   4   5
HETATM    5  C   UNL     1      -9.525   5.438  68.630  1.00  0.00    -0.159 C  
BRANCH   5   6
HETATM    6  C   UNL     1      -8.712   5.967  67.469  1.00  0.00    -0.104 A  
HETATM    7  C   UNL     1      -7.325   6.131  67.606  1.00  0.00    -0.080 A  
HETATM    8  C   UNL     1      -6.563   6.683  66.573  1.00  0.00    -0.044 A  
HETATM    9  C   UNL     1      -7.170   7.068  65.375  1.00  0.00    -0.073 A  
HETATM   10  C   UNL     1      -6.371   7.706  64.277  1.00  0.00    -0.049 C  
HETATM   11  C   UNL     1      -8.545   6.863  65.212  1.00  0.00    -0.006 A  
HETATM   12  C   UNL     1      -9.303   6.320  66.252  1.00  0.00    -0.127 A  
HETATM   13  O   UNL     1     -10.648   6.143  66.089  1.00  0.00    -0.459 OA 
HETATM   14  H   UNL     1     -11.049   6.384  65.261  1.00  0.00     0.000 HD 
ENDBRANCH   5   6
ENDBRANCH   4   5
ENDBRANCH   3   4
ENDBRANCH   2   3
TORSDOF 4
ENDMDL
MODEL      280
REMARK 921   NORMALIZED FREE ENERGY PREDICTED BY IDOCK:   -1.69 KCAL/MOL
REMARK 922        TOTAL FREE ENERGY PREDICTED BY IDOCK:   -2.41 KCAL/MOL
REMARK 923 INTER-LIGAND FREE ENERGY PREDICTED BY IDOCK:   -2.04 KCAL/MOL
REMARK 924 INTRA-LIGAND FREE ENERGY PREDICTED BY IDOCK:   -0.37 KCAL/MOL
REMARK 927      BINDING AFFINITY PREDICTED BY RF-SCORE:    0.00 PKD
ROOT
HETATM    1  C   UNL     1      -9.230   7.225  73.752  1.00  0.00    -0.281 C  
HETATM    2  C   UNL     1      -8.889   8.218  72.651  1.00  0.00    -0.304 C  
ENDROOT
BRANCH   2   3
HETATM    3  C   UNL     1     -10.088   8.498  71.745  1.00  0.00    -0.351 C  
BRANCH   3   4
HETATM    4  C   UNL     1      -9.650   9.227  70.469  1.00  0.00    -0.317 C  
BRANCH   4   5
HETATM    5  C   UNL     1      -8.129   9.238  70.262  1.00  0.00    -0.165 C  
BRANCH   5   6
HETATM    6  C   UNL     1      -7.697   8.841  68.868  1.00  0.00    -0.095 A  
HETATM    7  C   UNL     1      -7.809   9.761  67.814  1.00  0.00    -0.094 A  
HETATM    8  C   UNL     1      -7.483   9.396  66.505  1.00  0.00    -0.093 A  
HETATM    9  C   UNL     1      -7.022   8.107  66.226  1.00  0.00    -0.062 A  
HETATM   10  C   UNL     1      -6.714   7.687  64.819  1.00  0.00    -0.050 C  
HETATM   11  C   UNL     1      -6.860   7.198  67.278  1.00  0.00    -0.073 A  
HETATM   12  C   UNL     1      -7.198   7.566  68.583  1.00  0.00    -0.086 A  
HETATM   13  O   UNL     1      -7.055   6.664  69.600  1.00  0.00    -0.064 OA 
HETATM   14  H   UNL     1      -6.716   5.798  69.405  1.00  0.00     0.000 HD 
ENDBRANCH   5   6
ENDBRANCH   4   5
ENDBRANCH   3   4
ENDBRANCH   2   3
TORSDOF 4
ENDMDL
MODEL      281
REMARK 921   NORMALIZED FREE ENERGY PREDICTED BY IDOCK:   -1.68 KCAL/MOL
REMARK 922        TOTAL FREE ENERGY PREDICTED BY IDOCK:   -2.40 KCAL/MOL
REMARK 923 INTER-LIGAND FREE ENERGY PREDICTED BY IDOCK:   -2.20 KCAL/MOL
REMARK 924 INTRA-LIGAND FREE ENERGY PREDICTED BY IDOCK:   -0.20 KCAL/MOL
REMARK 927      BINDING AFFINITY PREDICTED BY RF-SCORE:    0.00 PKD
ROOT
HETATM    1  C   UNL     1     -11.116   7.640  72.977  1.00  0.00    -0.437 C  
HETATM    2  C   UNL     1     -10.319   8.191  71.805  1.00  0.00    -0.293 C  
ENDROOT
BRANCH   2   3
HETATM    3  C   UNL     1      -9.548   7.091  71.073  1.00  0.00    -0.170 C  
BRANCH   3   4
HETATM    4  C   UNL     1      -8.314   6.663  71.876  1.00  0.00    -0.114 C  
BRANCH   4   5
HETATM    5  C   UNL     1      -7.720   5.323  71.417  1.00  0.00    -0.106 C  
BRANCH   5   6
HETATM    6  C   UNL     1      -8.180   4.887  70.044  1.00  0.00    -0.073 A  
HETATM    7  C   UNL     1      -7.589   5.446  68.900  1.00  0.00    -0.079 A  
HETATM    8  C   UNL     1      -8.044   5.113  67.621  1.00  0.00    -0.099 A  
HETATM    9  C   UNL     1      -9.089   4.199  67.459  1.00  0.00    -0.161 A  
HETATM   10  C   UNL     1      -9.619   3.869  66.095  1.00  0.00    -0.193 C  
HETATM   11  C   UNL     1      -9.652   3.600  68.593  1.00  0.00    -0.159 A  
HETATM   12  C   UNL     1      -9.199   3.946  69.868  1.00  0.00    -0.144 A  
HETATM   13  O   UNL     1      -9.769   3.369  70.969  1.00  0.00    -0.171 OA 
HETATM   14  H   UNL     1     -10.462   2.730  70.849  1.00  0.00     0.000 HD 
ENDBRANCH   5   6
ENDBRANCH   4   5
ENDBRANCH   3   4
ENDBRANCH   2   3
TORSDOF 4
ENDMDL
MODEL      282
REMARK 921   NORMALIZED FREE ENERGY PREDICTED BY IDOCK:   -1.50 KCAL/MOL
REMARK 922        TOTAL FREE ENERGY PREDICTED BY IDOCK:   -2.17 KCAL/MOL
REMARK 923 INTER-LIGAND FREE ENERGY PREDICTED BY IDOCK:   -1.87 KCAL/MOL
REMARK 924 INTRA-LIGAND FREE ENERGY PREDICTED BY IDOCK:   -0.31 KCAL/MOL
REMARK 927      BINDING AFFINITY PREDICTED BY RF-SCORE:    0.00 PKD
ROOT
HETATM    1  C   UNL     1      -5.911   4.576  70.400  1.00  0.00    -0.014 C  
HETATM    2  C   UNL     1      -6.388   5.620  69.401  1.00  0.00    -0.037 C  
ENDROOT
BRANCH   2   3
HETATM    3  C   UNL     1      -6.248   7.040  69.951  1.00  0.00    -0.031 C  
BRANCH   3   4
HETATM    4  C   UNL     1      -6.736   8.072  68.929  1.00  0.00    -0.053 C  
BRANCH   4   5
HETATM    5  C   UNL     1      -7.599   7.467  67.812  1.00  0.00    -0.107 C  
BRANCH   5   6
HETATM    6  C   UNL     1      -8.245   8.495  66.911  1.00  0.00    -0.106 A  
HETATM    7  C   UNL     1      -7.463   9.508  66.335  1.00  0.00    -0.097 A  
HETATM    8  C   UNL     1      -8.047  10.511  65.556  1.00  0.00    -0.155 A  
HETATM    9  C   UNL     1      -9.425  10.512  65.323  1.00  0.00    -0.281 A  
HETATM   10  C   UNL     1     -10.070  11.609  64.529  1.00  0.00    -0.321 C  
HETATM   11  C   UNL     1     -10.206   9.478  65.853  1.00  0.00    -0.185 A  
HETATM   12  C   UNL     1      -9.617   8.485  66.640  1.00  0.00    -0.227 A  
HETATM   13  O   UNL     1     -10.393   7.492  67.169  1.00  0.00    -0.252 OA 
HETATM   14  H   UNL     1     -11.325   7.486  66.985  1.00  0.00     0.000 HD 
ENDBRANCH   5   6
ENDBRANCH   4   5
ENDBRANCH   3   4
ENDBRANCH   2   3
TORSDOF 4
ENDMDL
MODEL      283
REMARK 921   NORMALIZED FREE ENERGY PREDICTED BY IDOCK:   -1.47 KCAL/MOL
REMARK 922        TOTAL FREE ENERGY PREDICTED BY IDOCK:   -2.14 KCAL/MOL
REMARK 923 INTER-LIGAND FREE ENERGY PREDICTED BY IDOCK:   -1.51 KCAL/MOL
REMARK 924 INTRA-LIGAND FREE ENERGY PREDICTED BY IDOCK:   -0.62 KCAL/MOL
REMARK 927      BINDING AFFINITY PREDICTED BY RF-SCORE:    0.00 PKD
ROOT
HETATM    1  C   UNL     1      -9.805   6.746  69.687  1.00  0.00    -0.173 C  
HETATM    2  C   UNL     1      -8.632   7.630  70.086  1.00  0.00    -0.140 C  
ENDROOT
BRANCH   2   3
HETATM    3  C   UNL     1      -7.380   6.809  70.398  1.00  0.00    -0.081 C  
BRANCH   3   4
HETATM    4  C   UNL     1      -7.681   5.307  70.329  1.00  0.00    -0.072 C  
BRANCH   4   5
HETATM    5  C   UNL     1      -6.911   4.579  69.218  1.00  0.00    -0.050 C  
BRANCH   5   6
HETATM    6  C   UNL     1      -7.721   4.348  67.962  1.00  0.00    -0.080 A  
HETATM    7  C   UNL     1      -7.751   5.331  66.961  1.00  0.00    -0.096 A  
HETATM    8  C   UNL     1      -8.546   5.172  65.823  1.00  0.00    -0.135 A  
HETATM    9  C   UNL     1      -9.316   4.018  65.654  1.00  0.00    -0.160 A  
HETATM   10  C   UNL     1     -10.211   3.857  64.461  1.00  0.00    -0.231 C  
HETATM   11  C   UNL     1      -9.254   3.011  66.624  1.00  0.00    -0.152 A  
HETATM   12  C   UNL     1      -8.465   3.181  67.765  1.00  0.00    -0.089 A  
HETATM   13  O   UNL     1      -8.428   2.199  68.715  1.00  0.00    -0.055 OA 
HETATM   14  H   UNL     1      -8.934   1.406  68.580  1.00  0.00     0.000 HD 
ENDBRANCH   5   6
ENDBRANCH   4   5
ENDBRANCH   3   4
ENDBRANCH   2   3
TORSDOF 4
ENDMDL
MODEL      284
REMARK 921   NORMALIZED FREE ENERGY PREDICTED BY IDOCK:   -1.37 KCAL/MOL
REMARK 922        TOTAL FREE ENERGY PREDICTED BY IDOCK:   -2.02 KCAL/MOL
REMARK 923 INTER-LIGAND FREE ENERGY PREDICTED BY IDOCK:   -2.34 KCAL/MOL
REMARK 924 INTRA-LIGAND FREE ENERGY PREDICTED BY IDOCK:    0.32 KCAL/MOL
REMARK 927      BINDING AFFINITY PREDICTED BY RF-SCORE:    0.00 PKD
ROOT
HETATM    1  C   UNL     1      -5.675  10.768  65.487  1.00  0.00    -0.121 C  
HETATM    2  C   UNL     1      -7.108  10.329  65.748  1.00  0.00    -0.132 C  
ENDROOT
BRANCH   2   3
HETATM    3  C   UNL     1      -7.536   9.197  64.813  1.00  0.00    -0.106 C  
BRANCH   3   4
HETATM    4  C   UNL     1      -8.469   8.217  65.534  1.00  0.00    -0.177 C  
BRANCH   4   5
HETATM    5  C   UNL     1      -7.727   7.198  66.411  1.00  0.00    -0.100 C  
BRANCH   5   6
HETATM    6  C   UNL     1      -8.439   6.869  67.704  1.00  0.00    -0.122 A  
HETATM    7  C   UNL     1      -7.703   6.736  68.892  1.00  0.00    -0.110 A  
HETATM    8  C   UNL     1      -8.328   6.364  70.085  1.00  0.00    -0.134 A  
HETATM    9  C   UNL     1      -9.706   6.134  70.119  1.00  0.00    -0.194 A  
HETATM   10  C   UNL     1     -10.381   5.688  71.383  1.00  0.00    -0.287 C  
HETATM   11  C   UNL     1     -10.455   6.312  68.951  1.00  0.00    -0.280 A  
HETATM   12  C   UNL     1      -9.823   6.673  67.759  1.00  0.00    -0.124 A  
HETATM   13  O   UNL     1     -10.562   6.825  66.619  1.00  0.00    -0.452 OA 
HETATM   14  H   UNL     1     -11.502   6.691  66.656  1.00  0.00     0.000 HD 
ENDBRANCH   5   6
ENDBRANCH   4   5
ENDBRANCH   3   4
ENDBRANCH   2   3
TORSDOF 4
ENDMDL
MODEL      285
REMARK 921   NORMALIZED FREE ENERGY PREDICTED BY IDOCK:   -1.35 KCAL/MOL
REMARK 922        TOTAL FREE ENERGY PREDICTED BY IDOCK:   -1.99 KCAL/MOL
REMARK 923 INTER-LIGAND FREE ENERGY PREDICTED BY IDOCK:   -1.60 KCAL/MOL
REMARK 924 INTRA-LIGAND FREE ENERGY PREDICTED BY IDOCK:   -0.38 KCAL/MOL
REMARK 927      BINDING AFFINITY PREDICTED BY RF-SCORE:    0.00 PKD
ROOT
HETATM    1  C   UNL     1     -10.440   5.399  69.021  1.00  0.00    -0.252 C  
HETATM    2  C   UNL     1      -9.299   4.605  69.638  1.00  0.00    -0.212 C  
ENDROOT
BRANCH   2   3
HETATM    3  C   UNL     1      -9.708   3.953  70.960  1.00  0.00    -0.252 C  
BRANCH   3   4
HETATM    4  C   UNL     1      -8.724   2.845  71.349  1.00  0.00    -0.115 C  
BRANCH   4   5
HETATM    5  C   UNL     1      -8.018   3.096  72.690  1.00  0.00    -0.063 C  
BRANCH   5   6
HETATM    6  C   UNL     1      -7.610   4.535  72.907  1.00  0.00    -0.086 A  
HETATM    7  C   UNL     1      -6.435   5.024  72.317  1.00  0.00    -0.043 A  
HETATM    8  C   UNL     1      -5.999   6.330  72.559  1.00  0.00    -0.038 A  
HETATM    9  C   UNL     1      -6.739   7.179  73.386  1.00  0.00    -0.065 A  
HETATM   10  C   UNL     1      -6.258   8.566  73.693  1.00  0.00    -0.130 C  
HETATM   11  C   UNL     1      -7.938   6.716  73.940  1.00  0.00    -0.113 A  
HETATM   12  C   UNL     1      -8.362   5.406  73.702  1.00  0.00    -0.112 A  
HETATM   13  O   UNL     1      -9.524   4.958  74.265  1.00  0.00    -0.120 OA 
HETATM   14  H   UNL     1     -10.035   5.550  74.804  1.00  0.00     0.000 HD 
ENDBRANCH   5   6
ENDBRANCH   4   5
ENDBRANCH   3   4
ENDBRANCH   2   3
TORSDOF 4
ENDMDL
MODEL      286
REMARK 921   NORMALIZED FREE ENERGY PREDICTED BY IDOCK:   -1.31 KCAL/MOL
REMARK 922        TOTAL FREE ENERGY PREDICTED BY IDOCK:   -1.94 KCAL/MOL
REMARK 923 INTER-LIGAND FREE ENERGY PREDICTED BY IDOCK:   -1.63 KCAL/MOL
REMARK 924 INTRA-LIGAND FREE ENERGY PREDICTED BY IDOCK:   -0.31 KCAL/MOL
REMARK 927      BINDING AFFINITY PREDICTED BY RF-SCORE:    0.00 PKD
ROOT
HETATM    1  C   UNL     1      -6.951   5.367  71.233  1.00  0.00    -0.058 C  
HETATM    2  C   UNL     1      -6.969   4.875  69.793  1.00  0.00    -0.053 C  
ENDROOT
BRANCH   2   3
HETATM    3  C   UNL     1      -6.604   5.986  68.807  1.00  0.00    -0.055 C  
BRANCH   3   4
HETATM    4  C   UNL     1      -7.855   6.519  68.099  1.00  0.00    -0.106 C  
BRANCH   4   5
HETATM    5  C   UNL     1      -7.649   6.768  66.598  1.00  0.00    -0.086 C  
BRANCH   5   6
HETATM    6  C   UNL     1      -8.472   5.863  65.708  1.00  0.00    -0.148 A  
HETATM    7  C   UNL     1      -9.667   5.308  66.191  1.00  0.00    -0.179 A  
HETATM    8  C   UNL     1     -10.408   4.414  65.414  1.00  0.00    -0.238 A  
HETATM    9  C   UNL     1      -9.977   4.068  64.131  1.00  0.00    -0.169 A  
HETATM   10  C   UNL     1     -10.738   3.072  63.306  1.00  0.00    -0.239 C  
HETATM   11  C   UNL     1      -8.812   4.653  63.623  1.00  0.00    -0.129 A  
HETATM   12  C   UNL     1      -8.070   5.539  64.409  1.00  0.00    -0.124 A  
HETATM   13  O   UNL     1      -6.923   6.089  63.909  1.00  0.00    -0.046 OA 
HETATM   14  H   UNL     1      -6.651   5.869  63.026  1.00  0.00     0.000 HD 
ENDBRANCH   5   6
ENDBRANCH   4   5
ENDBRANCH   3   4
ENDBRANCH   2   3
TORSDOF 4
ENDMDL
MODEL      287
REMARK 921   NORMALIZED FREE ENERGY PREDICTED BY IDOCK:   -1.22 KCAL/MOL
REMARK 922        TOTAL FREE ENERGY PREDICTED BY IDOCK:   -1.83 KCAL/MOL
REMARK 923 INTER-LIGAND FREE ENERGY PREDICTED BY IDOCK:   -1.58 KCAL/MOL
REMARK 924 INTRA-LIGAND FREE ENERGY PREDICTED BY IDOCK:   -0.25 KCAL/MOL
REMARK 927      BINDING AFFINITY PREDICTED BY RF-SCORE:    0.00 PKD
ROOT
HETATM    1  C   UNL     1      -9.341   5.361  65.328  1.00  0.00     0.048 C  
HETATM    2  C   UNL     1      -8.056   6.163  65.464  1.00  0.00    -0.131 C  
ENDROOT
BRANCH   2   3
HETATM    3  C   UNL     1      -7.366   5.911  66.806  1.00  0.00    -0.079 C  
BRANCH   3   4
HETATM    4  C   UNL     1      -7.547   4.454  67.247  1.00  0.00    -0.081 C  
BRANCH   4   5
HETATM    5  C   UNL     1      -8.017   4.309  68.702  1.00  0.00    -0.073 C  
BRANCH   5   6
HETATM    6  C   UNL     1      -8.586   5.580  69.292  1.00  0.00    -0.104 A  
HETATM    7  C   UNL     1      -9.759   6.134  68.756  1.00  0.00    -0.148 A  
HETATM    8  C   UNL     1     -10.265   7.345  69.238  1.00  0.00    -0.199 A  
HETATM    9  C   UNL     1      -9.617   8.018  70.277  1.00  0.00    -0.171 A  
HETATM   10  C   UNL     1     -10.123   9.341  70.770  1.00  0.00    -0.358 C  
HETATM   11  C   UNL     1      -8.474   7.447  70.850  1.00  0.00    -0.123 A  
HETATM   12  C   UNL     1      -7.968   6.243  70.356  1.00  0.00    -0.111 A  
HETATM   13  O   UNL     1      -6.839   5.705  70.910  1.00  0.00    -0.053 OA 
HETATM   14  H   UNL     1      -6.420   6.156  71.634  1.00  0.00     0.000 HD 
ENDBRANCH   5   6
ENDBRANCH   4   5
ENDBRANCH   3   4
ENDBRANCH   2   3
TORSDOF 4
ENDMDL
MODEL      288
REMARK 921   NORMALIZED FREE ENERGY PREDICTED BY IDOCK:   -1.18 KCAL/MOL
REMARK 922        TOTAL FREE ENERGY PREDICTED BY IDOCK:   -1.77 KCAL/MOL
REMARK 923 INTER-LIGAND FREE ENERGY PREDICTED BY IDOCK:   -1.30 KCAL/MOL
REMARK 924 INTRA-LIGAND FREE ENERGY PREDICTED BY IDOCK:   -0.47 KCAL/MOL
REMARK 927      BINDING AFFINITY PREDICTED BY RF-SCORE:    0.00 PKD
ROOT
HETATM    1  C   UNL     1      -9.366   9.948  66.733  1.00  0.00    -0.187 C  
HETATM    2  C   UNL     1      -8.968   9.515  65.330  1.00  0.00    -0.244 C  
ENDROOT
BRANCH   2   3
HETATM    3  C   UNL     1      -7.513   9.046  65.270  1.00  0.00    -0.093 C  
BRANCH   3   4
HETATM    4  C   UNL     1      -7.092   8.401  66.595  1.00  0.00    -0.073 C  
BRANCH   4   5
HETATM    5  C   UNL     1      -7.063   6.867  66.547  1.00  0.00    -0.067 C  
BRANCH   5   6
HETATM    6  C   UNL     1      -7.347   6.206  67.877  1.00  0.00    -0.084 A  
HETATM    7  C   UNL     1      -8.098   6.887  68.848  1.00  0.00    -0.120 A  
HETATM    8  C   UNL     1      -8.315   6.328  70.110  1.00  0.00    -0.129 A  
HETATM    9  C   UNL     1      -7.798   5.067  70.422  1.00  0.00    -0.073 A  
HETATM   10  C   UNL     1      -7.982   4.477  71.789  1.00  0.00    -0.097 C  
HETATM   11  C   UNL     1      -7.089   4.361  69.444  1.00  0.00    -0.050 A  
HETATM   12  C   UNL     1      -6.867   4.930  68.188  1.00  0.00    -0.056 A  
HETATM   13  O   UNL     1      -6.156   4.239  67.247  1.00  0.00    -0.026 OA 
HETATM   14  H   UNL     1      -5.830   3.373  67.459  1.00  0.00     0.000 HD 
ENDBRANCH   5   6
ENDBRANCH   4   5
ENDBRANCH   3   4
ENDBRANCH   2   3
TORSDOF 4
ENDMDL
MODEL      289
REMARK 921   NORMALIZED FREE ENERGY PREDICTED BY IDOCK:   -1.16 KCAL/MOL
REMARK 922        TOTAL FREE ENERGY PREDICTED BY IDOCK:   -1.76 KCAL/MOL
REMARK 923 INTER-LIGAND FREE ENERGY PREDICTED BY IDOCK:   -1.26 KCAL/MOL
REMARK 924 INTRA-LIGAND FREE ENERGY PREDICTED BY IDOCK:   -0.50 KCAL/MOL
REMARK 927      BINDING AFFINITY PREDICTED BY RF-SCORE:    0.00 PKD
ROOT
HETATM    1  C   UNL     1      -6.834   8.928  72.891  1.00  0.00     0.177 C  
HETATM    2  C   UNL     1      -7.942   7.897  73.050  1.00  0.00    -0.183 C  
ENDROOT
BRANCH   2   3
HETATM    3  C   UNL     1      -7.623   6.883  74.150  1.00  0.00    -0.116 C  
BRANCH   3   4
HETATM    4  C   UNL     1      -8.683   5.777  74.197  1.00  0.00    -0.122 C  
BRANCH   4   5
HETATM    5  C   UNL     1      -8.198   4.440  73.618  1.00  0.00    -0.097 C  
BRANCH   5   6
HETATM    6  C   UNL     1      -8.414   4.302  72.128  1.00  0.00    -0.111 A  
HETATM    7  C   UNL     1      -9.674   3.927  71.637  1.00  0.00    -0.240 A  
HETATM    8  C   UNL     1      -9.880   3.725  70.270  1.00  0.00    -0.131 A  
HETATM    9  C   UNL     1      -8.834   3.910  69.362  1.00  0.00    -0.148 A  
HETATM   10  C   UNL     1      -9.029   3.650  67.898  1.00  0.00    -0.165 C  
HETATM   11  C   UNL     1      -7.587   4.332  69.838  1.00  0.00    -0.053 A  
HETATM   12  C   UNL     1      -7.385   4.521  71.207  1.00  0.00    -0.056 A  
HETATM   13  O   UNL     1      -6.157   4.914  71.663  1.00  0.00    -0.019 OA 
HETATM   14  H   UNL     1      -5.458   5.063  71.037  1.00  0.00     0.000 HD 
ENDBRANCH   5   6
ENDBRANCH   4   5
ENDBRANCH   3   4
ENDBRANCH   2   3
TORSDOF 4
ENDMDL
MODEL      290
REMARK 921   NORMALIZED FREE ENERGY PREDICTED BY IDOCK:   -1.06 KCAL/MOL
REMARK 922        TOTAL FREE ENERGY PREDICTED BY IDOCK:   -1.64 KCAL/MOL
REMARK 923 INTER-LIGAND FREE ENERGY PREDICTED BY IDOCK:   -1.23 KCAL/MOL
REMARK 924 INTRA-LIGAND FREE ENERGY PREDICTED BY IDOCK:   -0.41 KCAL/MOL
REMARK 927      BINDING AFFINITY PREDICTED BY RF-SCORE:    0.00 PKD
ROOT
HETATM    1  C   UNL     1      -7.383   3.338  71.888  1.00  0.00    -0.047 C  
HETATM    2  C   UNL     1      -7.545   3.875  70.474  1.00  0.00    -0.044 C  
ENDROOT
BRANCH   2   3
HETATM    3  C   UNL     1      -7.832   5.378  70.465  1.00  0.00    -0.093 C  
BRANCH   3   4
HETATM    4  C   UNL     1      -7.601   5.969  69.070  1.00  0.00    -0.091 C  
BRANCH   4   5
HETATM    5  C   UNL     1      -8.652   5.532  68.038  1.00  0.00    -0.100 C  
BRANCH   5   6
HETATM    6  C   UNL     1      -8.063   5.013  66.746  1.00  0.00    -0.108 A  
HETATM    7  C   UNL     1      -7.098   3.994  66.778  1.00  0.00    -0.064 A  
HETATM    8  C   UNL     1      -6.488   3.547  65.603  1.00  0.00    -0.033 A  
HETATM    9  C   UNL     1      -6.842   4.097  64.369  1.00  0.00    -0.045 A  
HETATM   10  C   UNL     1      -6.160   3.659  63.106  1.00  0.00    -0.014 C  
HETATM   11  C   UNL     1      -7.838   5.080  64.322  1.00  0.00    -0.091 A  
HETATM   12  C   UNL     1      -8.436   5.530  65.502  1.00  0.00    -0.144 A  
HETATM   13  O   UNL     1      -9.394   6.504  65.446  1.00  0.00    -0.352 OA 
HETATM   14  H   UNL     1      -9.647   6.855  64.600  1.00  0.00     0.000 HD 
ENDBRANCH   5   6
ENDBRANCH   4   5
ENDBRANCH   3   4
ENDBRANCH   2   3
TORSDOF 4
ENDMDL
MODEL      291
REMARK 921   NORMALIZED FREE ENERGY PREDICTED BY IDOCK:   -0.64 KCAL/MOL
REMARK 922        TOTAL FREE ENERGY PREDICTED BY IDOCK:   -1.12 KCAL/MOL
REMARK 923 INTER-LIGAND FREE ENERGY PREDICTED BY IDOCK:   -1.75 KCAL/MOL
REMARK 924 INTRA-LIGAND FREE ENERGY PREDICTED BY IDOCK:    0.64 KCAL/MOL
REMARK 927      BINDING AFFINITY PREDICTED BY RF-SCORE:    0.00 PKD
ROOT
HETATM    1  C   UNL     1      -9.641   4.548  74.475  1.00  0.00    -0.153 C  
HETATM    2  C   UNL     1      -9.802   5.211  73.115  1.00  0.00    -0.174 C  
ENDROOT
BRANCH   2   3
HETATM    3  C   UNL     1     -10.097   6.706  73.242  1.00  0.00    -0.232 C  
BRANCH   3   4
HETATM    4  C   UNL     1      -9.996   7.399  71.878  1.00  0.00    -0.196 C  
BRANCH   4   5
HETATM    5  C   UNL     1      -8.729   8.252  71.718  1.00  0.00    -0.218 C  
BRANCH   5   6
HETATM    6  C   UNL     1      -8.108   8.173  70.341  1.00  0.00    -0.108 A  
HETATM    7  C   UNL     1      -6.729   8.382  70.185  1.00  0.00    -0.039 A  
HETATM    8  C   UNL     1      -6.143   8.385  68.917  1.00  0.00    -0.044 A  
HETATM    9  C   UNL     1      -6.921   8.161  67.778  1.00  0.00    -0.078 A  
HETATM   10  C   UNL     1      -6.313   8.209  66.408  1.00  0.00    -0.050 C  
HETATM   11  C   UNL     1      -8.289   7.904  67.928  1.00  0.00    -0.126 A  
HETATM   12  C   UNL     1      -8.871   7.914  69.198  1.00  0.00    -0.142 A  
HETATM   13  O   UNL     1     -10.211   7.681  69.331  1.00  0.00    -0.195 OA 
HETATM   14  H   UNL     1     -10.729   7.504  68.555  1.00  0.00     0.000 HD 
ENDBRANCH   5   6
ENDBRANCH   4   5
ENDBRANCH   3   4
ENDBRANCH   2   3
TORSDOF 4
ENDMDL
MODEL      292
REMARK 921   NORMALIZED FREE ENERGY PREDICTED BY IDOCK:    0.30 KCAL/MOL
REMARK 922        TOTAL FREE ENERGY PREDICTED BY IDOCK:    0.05 KCAL/MOL
REMARK 923 INTER-LIGAND FREE ENERGY PREDICTED BY IDOCK:   -0.76 KCAL/MOL
REMARK 924 INTRA-LIGAND FREE ENERGY PREDICTED BY IDOCK:    0.81 KCAL/MOL
REMARK 927      BINDING AFFINITY PREDICTED BY RF-SCORE:    0.00 PKD
ROOT
HETATM    1  C   UNL     1      -6.906   9.197  72.900  1.00  0.00     0.447 C  
HETATM    2  C   UNL     1      -7.957   8.097  72.922  1.00  0.00    -0.211 C  
ENDROOT
BRANCH   2   3
HETATM    3  C   UNL     1      -7.677   7.065  74.015  1.00  0.00    -0.122 C  
BRANCH   3   4
HETATM    4  C   UNL     1      -8.567   5.829  73.840  1.00  0.00    -0.117 C  
BRANCH   4   5
HETATM    5  C   UNL     1      -8.115   4.906  72.698  1.00  0.00    -0.104 C  
BRANCH   5   6
HETATM    6  C   UNL     1      -7.561   5.642  71.498  1.00  0.00    -0.105 A  
HETATM    7  C   UNL     1      -6.204   5.998  71.464  1.00  0.00    -0.044 A  
HETATM    8  C   UNL     1      -5.684   6.739  70.400  1.00  0.00    -0.023 A  
HETATM    9  C   UNL     1      -6.507   7.125  69.338  1.00  0.00    -0.036 A  
HETATM   10  C   UNL     1      -5.971   7.961  68.214  1.00  0.00    -0.040 C  
HETATM   11  C   UNL     1      -7.850   6.732  69.341  1.00  0.00    -0.113 A  
HETATM   12  C   UNL     1      -8.366   6.000  70.413  1.00  0.00    -0.124 A  
HETATM   13  O   UNL     1      -9.685   5.639  70.414  1.00  0.00    -0.166 OA 
HETATM   14  H   UNL     1     -10.231   5.883  69.676  1.00  0.00     0.000 HD 
ENDBRANCH   5   6
ENDBRANCH   4   5
ENDBRANCH   3   4
ENDBRANCH   2   3
TORSDOF 4
ENDMDL
MODEL      293
REMARK 921   NORMALIZED FREE ENERGY PREDICTED BY IDOCK:    1.61 KCAL/MOL
REMARK 922        TOTAL FREE ENERGY PREDICTED BY IDOCK:    1.67 KCAL/MOL
REMARK 923 INTER-LIGAND FREE ENERGY PREDICTED BY IDOCK:   -0.78 KCAL/MOL
REMARK 924 INTRA-LIGAND FREE ENERGY PREDICTED BY IDOCK:    2.45 KCAL/MOL
REMARK 927      BINDING AFFINITY PREDICTED BY RF-SCORE:    0.00 PKD
ROOT
HETATM    1  C   UNL     1      -8.542   6.072  64.731  1.00  0.00     0.036 C  
HETATM    2  C   UNL     1      -7.231   6.772  64.407  1.00  0.00    -0.069 C  
ENDROOT
BRANCH   2   3
HETATM    3  C   UNL     1      -6.092   6.298  65.311  1.00  0.00    -0.030 C  
BRANCH   3   4
HETATM    4  C   UNL     1      -6.099   4.771  65.442  1.00  0.00    -0.033 C  
BRANCH   4   5
HETATM    5  C   UNL     1      -6.462   4.279  66.850  1.00  0.00    -0.041 C  
BRANCH   5   6
HETATM    6  C   UNL     1      -6.931   5.375  67.781  1.00  0.00    -0.066 A  
HETATM    7  C   UNL     1      -7.697   6.438  67.278  1.00  0.00    -0.100 A  
HETATM    8  C   UNL     1      -8.082   7.498  68.102  1.00  0.00    -0.124 A  
HETATM    9  C   UNL     1      -7.722   7.510  69.453  1.00  0.00    -0.111 A  
HETATM   10  C   UNL     1      -8.089   8.665  70.337  1.00  0.00    -0.107 C  
HETATM   11  C   UNL     1      -7.000   6.430  69.974  1.00  0.00    -0.066 A  
HETATM   12  C   UNL     1      -6.609   5.379  69.142  1.00  0.00    -0.051 A  
HETATM   13  O   UNL     1      -5.886   4.339  69.658  1.00  0.00    -0.016 OA 
HETATM   14  H   UNL     1      -5.668   4.342  70.582  1.00  0.00     0.000 HD 
ENDBRANCH   5   6
ENDBRANCH   4   5
ENDBRANCH   3   4
ENDBRANCH   2   3
TORSDOF 4
ENDMDL
