MODEL        1
REMARK 921   NORMALIZED FREE ENERGY PREDICTED BY IDOCK:   -6.90 KCAL/MOL
REMARK 922        TOTAL FREE ENERGY PREDICTED BY IDOCK:   -9.71 KCAL/MOL
REMARK 923 INTER-LIGAND FREE ENERGY PREDICTED BY IDOCK:   -8.92 KCAL/MOL
REMARK 924 INTRA-LIGAND FREE ENERGY PREDICTED BY IDOCK:   -0.79 KCAL/MOL
REMARK 927      BINDING AFFINITY PREDICTED BY RF-SCORE:    0.00 PKD
ROOT
HETATM    1  C   UNL     1      -8.697  16.627  67.468  1.00  0.00    -0.198 C  
HETATM    2  C   UNL     1     -10.227  16.846  67.450  1.00  0.00    -0.298 C  
HETATM    3  C   UNL     1     -10.503  18.155  68.228  1.00  0.00    -0.333 C  
ENDROOT
BRANCH   2   4
HETATM    4  C   UNL     1     -10.657  17.108  66.015  1.00  0.00    -0.204 C  
HETATM    5  H2  UNL     1     -11.858  17.840  65.079  1.00  0.00     0.000 HD 
HETATM    6  N   UNL     1     -11.015  17.325  64.826  1.00  0.00    -0.911 NA 
HETATM    7  H1  UNL     1     -11.304  17.500  63.864  1.00  0.00     0.000 HD 
ENDBRANCH   2   4
BRANCH   2   8
HETATM    8  C   UNL     1     -10.930  15.603  67.985  1.00  0.00    -0.318 A  
HETATM    9  C   UNL     1     -12.153  14.443  69.777  1.00  0.00    -0.386 A  
HETATM   10  C   UNL     1     -11.525  15.588  69.249  1.00  0.00    -0.349 A  
HETATM   11  C   UNL     1     -12.159  13.278  68.991  1.00  0.00    -0.268 A  
HETATM   12  C   UNL     1     -10.967  14.420  67.225  1.00  0.00    -0.301 A  
HETATM   13  C   UNL     1     -11.553  13.249  67.723  1.00  0.00    -0.380 A  
BRANCH   9  14
HETATM   14  C   UNL     1     -12.762  14.533  71.190  1.00  0.00    -0.408 C  
HETATM   15  C   UNL     1     -13.038  13.161  71.716  1.00  0.00    -0.383 C  
HETATM   16  C   UNL     1     -11.750  15.227  72.133  1.00  0.00    -0.537 C  
HETATM   17  C   UNL     1     -14.079  15.322  71.243  1.00  0.00    -0.527 C  
HETATM   18  N   UNL     1     -13.234  12.094  72.130  1.00  0.00    -0.453 NA 
ENDBRANCH   9  14
BRANCH  13  19
HETATM   19  C   UNL     1     -11.456  11.962  66.936  1.00  0.00    -0.322 C  
BRANCH  19  20
HETATM   20  N   UNL     1     -11.575  12.130  65.499  1.00  0.00    -0.360 NA 
HETATM   21  C   UNL     1     -10.757  11.639  64.526  1.00  0.00    -0.322 A  
HETATM   22  N   UNL     1     -11.337  11.770  63.355  1.00  0.00    -0.388 NA 
HETATM   23  C   UNL     1     -12.533  12.348  63.666  1.00  0.00    -0.508 A  
HETATM   24  N   UNL     1     -12.726  12.593  64.964  1.00  0.00    -0.771 NA 
ENDBRANCH  19  20
ENDBRANCH  13  19
ENDBRANCH   2   8
TORSDOF 5
ENDMDL
MODEL        2
REMARK 921   NORMALIZED FREE ENERGY PREDICTED BY IDOCK:   -6.90 KCAL/MOL
REMARK 922        TOTAL FREE ENERGY PREDICTED BY IDOCK:   -9.71 KCAL/MOL
REMARK 923 INTER-LIGAND FREE ENERGY PREDICTED BY IDOCK:   -8.89 KCAL/MOL
REMARK 924 INTRA-LIGAND FREE ENERGY PREDICTED BY IDOCK:   -0.82 KCAL/MOL
REMARK 927      BINDING AFFINITY PREDICTED BY RF-SCORE:    0.00 PKD
ROOT
HETATM    1  C   UNL     1     -14.381  15.064  71.549  1.00  0.00    -0.651 C  
HETATM    2  C   UNL     1     -12.889  14.692  71.709  1.00  0.00    -0.402 C  
HETATM    3  C   UNL     1     -12.071  15.813  71.025  1.00  0.00    -0.464 C  
ENDROOT
BRANCH   2   4
HETATM    4  C   UNL     1     -12.536  14.751  73.186  1.00  0.00    -0.425 C  
HETATM    5  H2  UNL     1     -12.918  14.086  74.693  1.00  0.00     0.000 HD 
HETATM    6  N   UNL     1     -12.244  14.799  74.412  1.00  0.00    -0.630 NA 
HETATM    7  H1  UNL     1     -12.007  14.839  75.403  1.00  0.00     0.000 HD 
ENDBRANCH   2   4
BRANCH   2   8
HETATM    8  C   UNL     1     -12.652  13.284  71.174  1.00  0.00    -0.412 A  
HETATM    9  C   UNL     1     -11.767  11.776  69.443  1.00  0.00    -0.405 A  
HETATM   10  C   UNL     1     -11.972  13.064  69.973  1.00  0.00    -0.383 A  
HETATM   11  C   UNL     1     -12.284  10.683  70.160  1.00  0.00    -0.398 A  
HETATM   12  C   UNL     1     -13.144  12.163  71.866  1.00  0.00    -0.475 A  
HETATM   13  C   UNL     1     -12.991  10.866  71.361  1.00  0.00    -0.527 A  
BRANCH   9  14
HETATM   14  C   UNL     1     -11.019  11.650  68.101  1.00  0.00    -0.275 C  
HETATM   15  C   UNL     1     -11.782  12.348  67.022  1.00  0.00    -0.353 C  
HETATM   16  C   UNL     1      -9.630  12.320  68.234  1.00  0.00    -0.212 C  
HETATM   17  C   UNL     1     -10.804  10.197  67.650  1.00  0.00    -0.346 C  
HETATM   18  N   UNL     1     -12.367  12.908  66.190  1.00  0.00    -0.509 NA 
ENDBRANCH   9  14
BRANCH  13  19
HETATM   19  C   UNL     1     -13.649   9.699  72.062  1.00  0.00    -0.385 C  
BRANCH  19  20
HETATM   20  N   UNL     1     -12.866   8.477  72.053  1.00  0.00    -0.354 NA 
HETATM   21  C   UNL     1     -13.033   7.379  71.263  1.00  0.00    -0.310 A  
HETATM   22  N   UNL     1     -11.977   6.604  71.358  1.00  0.00    -0.342 NA 
HETATM   23  C   UNL     1     -11.172   7.284  72.224  1.00  0.00    -0.267 A  
HETATM   24  N   UNL     1     -11.671   8.434  72.682  1.00  0.00    -0.361 NA 
ENDBRANCH  19  20
ENDBRANCH  13  19
ENDBRANCH   2   8
TORSDOF 5
ENDMDL
MODEL        3
REMARK 921   NORMALIZED FREE ENERGY PREDICTED BY IDOCK:   -6.89 KCAL/MOL
REMARK 922        TOTAL FREE ENERGY PREDICTED BY IDOCK:   -9.70 KCAL/MOL
REMARK 923 INTER-LIGAND FREE ENERGY PREDICTED BY IDOCK:   -8.84 KCAL/MOL
REMARK 924 INTRA-LIGAND FREE ENERGY PREDICTED BY IDOCK:   -0.86 KCAL/MOL
REMARK 927      BINDING AFFINITY PREDICTED BY RF-SCORE:    0.00 PKD
ROOT
HETATM    1  C   UNL     1     -12.498  13.650  66.047  1.00  0.00    -0.477 C  
HETATM    2  C   UNL     1     -11.260  14.555  65.849  1.00  0.00    -0.331 C  
HETATM    3  C   UNL     1     -10.086  13.630  65.452  1.00  0.00    -0.291 C  
ENDROOT
BRANCH   2   4
HETATM    4  C   UNL     1     -11.513  15.458  64.653  1.00  0.00    -0.337 C  
HETATM    5  H2  UNL     1     -10.753  16.517  63.577  1.00  0.00     0.000 HD 
HETATM    6  N   UNL     1     -11.721  16.207  63.660  1.00  0.00    -1.250 NA 
HETATM    7  H1  UNL     1     -11.890  16.813  62.857  1.00  0.00     0.000 HD 
ENDBRANCH   2   4
BRANCH   2   8
HETATM    8  C   UNL     1     -11.039  15.400  67.100  1.00  0.00    -0.291 A  
HETATM    9  C   UNL     1     -10.377  17.521  68.155  1.00  0.00    -0.375 A  
HETATM   10  C   UNL     1     -10.618  16.730  67.016  1.00  0.00    -0.234 A  
HETATM   11  C   UNL     1     -10.562  16.928  69.416  1.00  0.00    -0.292 A  
HETATM   12  C   UNL     1     -11.223  14.846  68.379  1.00  0.00    -0.304 A  
HETATM   13  C   UNL     1     -10.965  15.587  69.540  1.00  0.00    -0.273 A  
BRANCH   9  14
HETATM   14  C   UNL     1      -9.899  18.972  67.948  1.00  0.00    -0.400 C  
HETATM   15  C   UNL     1      -8.435  18.989  67.644  1.00  0.00    -0.288 C  
HETATM   16  C   UNL     1     -10.658  19.586  66.747  1.00  0.00    -0.597 C  
HETATM   17  C   UNL     1     -10.129  19.876  69.168  1.00  0.00    -0.337 C  
HETATM   18  N   UNL     1      -7.303  18.999  67.389  1.00  0.00    -0.227 NA 
ENDBRANCH   9  14
BRANCH  13  19
HETATM   19  C   UNL     1     -11.043  14.919  70.894  1.00  0.00    -0.103 C  
BRANCH  19  20
HETATM   20  N   UNL     1     -12.075  15.453  71.765  1.00  0.00    -0.350 NA 
HETATM   21  C   UNL     1     -13.419  15.489  71.548  1.00  0.00    -0.494 A  
HETATM   22  N   UNL     1     -14.037  15.793  72.667  1.00  0.00    -0.531 NA 
HETATM   23  C   UNL     1     -13.014  15.927  73.559  1.00  0.00    -0.594 A  
HETATM   24  N   UNL     1     -11.792  15.733  73.056  1.00  0.00    -0.460 NA 
ENDBRANCH  19  20
ENDBRANCH  13  19
ENDBRANCH   2   8
TORSDOF 5
ENDMDL
MODEL        4
REMARK 921   NORMALIZED FREE ENERGY PREDICTED BY IDOCK:   -6.82 KCAL/MOL
REMARK 922        TOTAL FREE ENERGY PREDICTED BY IDOCK:   -9.60 KCAL/MOL
REMARK 923 INTER-LIGAND FREE ENERGY PREDICTED BY IDOCK:   -8.80 KCAL/MOL
REMARK 924 INTRA-LIGAND FREE ENERGY PREDICTED BY IDOCK:   -0.80 KCAL/MOL
REMARK 927      BINDING AFFINITY PREDICTED BY RF-SCORE:    0.00 PKD
ROOT
HETATM    1  C   UNL     1      -9.650  12.446  68.382  1.00  0.00    -0.180 C  
HETATM    2  C   UNL     1     -11.089  11.909  68.205  1.00  0.00    -0.294 C  
HETATM    3  C   UNL     1     -11.695  12.641  66.984  1.00  0.00    -0.438 C  
ENDROOT
BRANCH   2   4
HETATM    4  C   UNL     1     -11.008  10.440  67.821  1.00  0.00    -0.309 C  
HETATM    5  H2  UNL     1     -11.273   9.361  66.547  1.00  0.00     0.000 HD 
HETATM    6  N   UNL     1     -10.942   9.222  67.501  1.00  0.00    -0.448 NA 
HETATM    7  H1  UNL     1     -10.888   8.236  67.244  1.00  0.00     0.000 HD 
ENDBRANCH   2   4
BRANCH   2   8
HETATM    8  C   UNL     1     -11.858  12.062  69.513  1.00  0.00    -0.390 A  
HETATM    9  C   UNL     1     -12.773  13.485  71.299  1.00  0.00    -0.432 A  
HETATM   10  C   UNL     1     -12.093  13.319  70.078  1.00  0.00    -0.385 A  
HETATM   11  C   UNL     1     -13.214  12.329  71.966  1.00  0.00    -0.508 A  
HETATM   12  C   UNL     1     -12.324  10.931  70.206  1.00  0.00    -0.412 A  
HETATM   13  C   UNL     1     -12.978  11.047  71.439  1.00  0.00    -0.517 A  
BRANCH   9  14
HETATM   14  C   UNL     1     -12.962  14.917  71.840  1.00  0.00    -0.414 C  
HETATM   15  C   UNL     1     -12.553  14.979  73.276  1.00  0.00    -0.485 C  
HETATM   16  C   UNL     1     -12.066  15.884  71.030  1.00  0.00    -0.438 C  
HETATM   17  C   UNL     1     -14.410  15.422  71.749  1.00  0.00    -0.639 C  
HETATM   18  N   UNL     1     -12.216  15.031  74.386  1.00  0.00    -0.551 NA 
ENDBRANCH   9  14
BRANCH  13  19
HETATM   19  C   UNL     1     -13.345   9.805  72.219  1.00  0.00    -0.379 C  
BRANCH  19  20
HETATM   20  N   UNL     1     -12.488   8.662  71.961  1.00  0.00    -0.348 NA 
HETATM   21  C   UNL     1     -11.275   8.382  72.514  1.00  0.00    -0.336 A  
HETATM   22  N   UNL     1     -10.943   7.141  72.240  1.00  0.00    -0.234 NA 
HETATM   23  C   UNL     1     -12.006   6.690  71.513  1.00  0.00    -0.352 A  
HETATM   24  N   UNL     1     -12.976   7.584  71.310  1.00  0.00    -0.312 NA 
ENDBRANCH  19  20
ENDBRANCH  13  19
ENDBRANCH   2   8
TORSDOF 5
ENDMDL
MODEL        5
REMARK 921   NORMALIZED FREE ENERGY PREDICTED BY IDOCK:   -6.72 KCAL/MOL
REMARK 922        TOTAL FREE ENERGY PREDICTED BY IDOCK:   -9.48 KCAL/MOL
REMARK 923 INTER-LIGAND FREE ENERGY PREDICTED BY IDOCK:   -8.57 KCAL/MOL
REMARK 924 INTRA-LIGAND FREE ENERGY PREDICTED BY IDOCK:   -0.90 KCAL/MOL
REMARK 927      BINDING AFFINITY PREDICTED BY RF-SCORE:    0.00 PKD
ROOT
HETATM    1  C   UNL     1     -10.453   8.560  72.285  1.00  0.00    -0.402 C  
HETATM    2  C   UNL     1     -11.482   8.624  71.134  1.00  0.00    -0.332 C  
HETATM    3  C   UNL     1     -10.889   7.818  69.954  1.00  0.00    -0.228 C  
ENDROOT
BRANCH   2   4
HETATM    4  C   UNL     1     -12.735   7.880  71.568  1.00  0.00    -0.322 C  
HETATM    5  H2  UNL     1     -13.507   7.207  72.913  1.00  0.00     0.000 HD 
HETATM    6  N   UNL     1     -13.774   7.263  71.930  1.00  0.00    -0.544 NA 
HETATM    7  H1  UNL     1     -14.614   6.764  72.221  1.00  0.00     0.000 HD 
ENDBRANCH   2   4
BRANCH   2   8
HETATM    8  C   UNL     1     -11.822  10.080  70.831  1.00  0.00    -0.459 A  
HETATM    9  C   UNL     1     -11.487  12.120  69.497  1.00  0.00    -0.334 A  
HETATM   10  C   UNL     1     -11.213  10.768  69.777  1.00  0.00    -0.365 A  
HETATM   11  C   UNL     1     -12.402  12.789  70.328  1.00  0.00    -0.277 A  
HETATM   12  C   UNL     1     -12.739  10.783  71.633  1.00  0.00    -0.520 A  
HETATM   13  C   UNL     1     -13.018  12.137  71.410  1.00  0.00    -0.357 A  
BRANCH   9  14
HETATM   14  C   UNL     1     -10.746  12.785  68.320  1.00  0.00    -0.257 C  
HETATM   15  C   UNL     1     -11.510  12.579  67.053  1.00  0.00    -0.356 C  
HETATM   16  C   UNL     1     -10.636  14.305  68.588  1.00  0.00    -0.254 C  
HETATM   17  C   UNL     1      -9.327  12.239  68.099  1.00  0.00    -0.205 C  
HETATM   18  N   UNL     1     -12.115  12.435  66.072  1.00  0.00    -0.638 NA 
ENDBRANCH   9  14
BRANCH  13  19
HETATM   19  C   UNL     1     -13.905  12.894  72.372  1.00  0.00    -0.345 C  
BRANCH  19  20
HETATM   20  N   UNL     1     -13.370  14.173  72.799  1.00  0.00    -0.578 NA 
HETATM   21  C   UNL     1     -13.878  15.416  72.565  1.00  0.00    -0.553 A  
HETATM   22  N   UNL     1     -13.272  16.291  73.334  1.00  0.00    -0.529 NA 
HETATM   23  C   UNL     1     -12.391  15.525  74.040  1.00  0.00    -0.660 A  
HETATM   24  N   UNL     1     -12.409  14.222  73.747  1.00  0.00    -0.062 NA 
ENDBRANCH  19  20
ENDBRANCH  13  19
ENDBRANCH   2   8
TORSDOF 5
ENDMDL
MODEL        6
REMARK 921   NORMALIZED FREE ENERGY PREDICTED BY IDOCK:   -6.72 KCAL/MOL
REMARK 922        TOTAL FREE ENERGY PREDICTED BY IDOCK:   -9.47 KCAL/MOL
REMARK 923 INTER-LIGAND FREE ENERGY PREDICTED BY IDOCK:   -8.55 KCAL/MOL
REMARK 924 INTRA-LIGAND FREE ENERGY PREDICTED BY IDOCK:   -0.92 KCAL/MOL
REMARK 927      BINDING AFFINITY PREDICTED BY RF-SCORE:    0.00 PKD
ROOT
HETATM    1  C   UNL     1      -9.339  12.188  68.323  1.00  0.00    -0.198 C  
HETATM    2  C   UNL     1     -10.785  12.727  68.415  1.00  0.00    -0.269 C  
HETATM    3  C   UNL     1     -10.690  14.271  68.412  1.00  0.00    -0.257 C  
ENDROOT
BRANCH   2   4
HETATM    4  C   UNL     1     -11.521  12.345  67.141  1.00  0.00    -0.357 C  
HETATM    5  H2  UNL     1     -12.753  11.356  66.539  1.00  0.00     0.000 HD 
HETATM    6  N   UNL     1     -12.133  12.027  66.085  1.00  0.00    -0.520 NA 
HETATM    7  H1  UNL     1     -12.627  11.771  65.231  1.00  0.00     0.000 HD 
ENDBRANCH   2   4
BRANCH   2   8
HETATM    8  C   UNL     1     -11.484  12.113  69.623  1.00  0.00    -0.308 A  
HETATM    9  C   UNL     1     -12.001  10.161  71.029  1.00  0.00    -0.474 A  
HETATM   10  C   UNL     1     -11.342  10.759  69.938  1.00  0.00    -0.385 A  
HETATM   11  C   UNL     1     -12.838  10.974  71.813  1.00  0.00    -0.496 A  
HETATM   12  C   UNL     1     -12.323  12.894  70.439  1.00  0.00    -0.333 A  
HETATM   13  C   UNL     1     -13.022  12.335  71.516  1.00  0.00    -0.390 A  
BRANCH   9  14
HETATM   14  C   UNL     1     -11.786   8.655  71.275  1.00  0.00    -0.344 C  
HETATM   15  C   UNL     1     -13.106   7.964  71.398  1.00  0.00    -0.254 C  
HETATM   16  C   UNL     1     -11.025   8.051  70.070  1.00  0.00    -0.202 C  
HETATM   17  C   UNL     1     -10.982   8.347  72.547  1.00  0.00    -0.388 C  
HETATM   18  N   UNL     1     -14.132   7.426  71.474  1.00  0.00    -0.434 NA 
ENDBRANCH   9  14
BRANCH  13  19
HETATM   19  C   UNL     1     -14.017  13.173  72.286  1.00  0.00    -0.394 C  
BRANCH  19  20
HETATM   20  N   UNL     1     -13.467  14.400  72.835  1.00  0.00    -0.624 NA 
HETATM   21  C   UNL     1     -13.948  15.667  72.701  1.00  0.00    -0.525 A  
HETATM   22  N   UNL     1     -13.342  16.460  73.556  1.00  0.00    -0.513 NA 
HETATM   23  C   UNL     1     -12.492  15.617  74.210  1.00  0.00    -0.654 A  
HETATM   24  N   UNL     1     -12.526  14.346  73.803  1.00  0.00    -0.234 NA 
ENDBRANCH  19  20
ENDBRANCH  13  19
ENDBRANCH   2   8
TORSDOF 5
ENDMDL
MODEL        7
REMARK 921   NORMALIZED FREE ENERGY PREDICTED BY IDOCK:   -6.71 KCAL/MOL
REMARK 922        TOTAL FREE ENERGY PREDICTED BY IDOCK:   -9.47 KCAL/MOL
REMARK 923 INTER-LIGAND FREE ENERGY PREDICTED BY IDOCK:   -8.68 KCAL/MOL
REMARK 924 INTRA-LIGAND FREE ENERGY PREDICTED BY IDOCK:   -0.79 KCAL/MOL
REMARK 927      BINDING AFFINITY PREDICTED BY RF-SCORE:    0.00 PKD
ROOT
HETATM    1  C   UNL     1     -13.896  15.453  71.253  1.00  0.00    -0.523 C  
HETATM    2  C   UNL     1     -12.589  14.628  71.292  1.00  0.00    -0.403 C  
HETATM    3  C   UNL     1     -11.712  15.229  72.416  1.00  0.00    -0.538 C  
ENDROOT
BRANCH   2   4
HETATM    4  C   UNL     1     -12.928  13.212  71.729  1.00  0.00    -0.338 C  
HETATM    5  H2  UNL     1     -13.532  12.308  73.023  1.00  0.00     0.000 HD 
HETATM    6  N   UNL     1     -13.210  12.038  72.094  1.00  0.00    -0.491 NA 
HETATM    7  H1  UNL     1     -13.437  11.089  72.387  1.00  0.00     0.000 HD 
ENDBRANCH   2   4
BRANCH   2   8
HETATM    8  C   UNL     1     -11.956  14.605  69.904  1.00  0.00    -0.381 A  
HETATM    9  C   UNL     1     -10.775  15.751  68.075  1.00  0.00    -0.296 A  
HETATM   10  C   UNL     1     -11.339  15.737  69.365  1.00  0.00    -0.348 A  
HETATM   11  C   UNL     1     -10.856  14.573  67.313  1.00  0.00    -0.297 A  
HETATM   12  C   UNL     1     -12.008  13.444  69.113  1.00  0.00    -0.363 A  
HETATM   13  C   UNL     1     -11.488  13.421  67.813  1.00  0.00    -0.351 A  
BRANCH   9  14
HETATM   14  C   UNL     1     -10.133  17.059  67.573  1.00  0.00    -0.294 C  
HETATM   15  C   UNL     1     -10.518  17.304  66.150  1.00  0.00    -0.278 C  
HETATM   16  C   UNL     1     -10.653  18.237  68.432  1.00  0.00    -0.194 C  
HETATM   17  C   UNL     1      -8.599  17.060  67.645  1.00  0.00    -0.213 C  
HETATM   18  N   UNL     1     -10.833  17.502  65.050  1.00  0.00    -0.754 NA 
ENDBRANCH   9  14
BRANCH  13  19
HETATM   19  C   UNL     1     -11.681  12.199  66.944  1.00  0.00    -0.301 C  
BRANCH  19  20
HETATM   20  N   UNL     1     -11.538  12.449  65.521  1.00  0.00    -0.369 NA 
HETATM   21  C   UNL     1     -10.471  12.165  64.722  1.00  0.00    -0.294 A  
HETATM   22  N   UNL     1     -10.820  12.286  63.462  1.00  0.00    -0.454 NA 
HETATM   23  C   UNL     1     -12.135  12.642  63.539  1.00  0.00    -0.561 A  
HETATM   24  N   UNL     1     -12.622  12.759  64.776  1.00  0.00    -0.638 NA 
ENDBRANCH  19  20
ENDBRANCH  13  19
ENDBRANCH   2   8
TORSDOF 5
ENDMDL
MODEL        8
REMARK 921   NORMALIZED FREE ENERGY PREDICTED BY IDOCK:   -6.71 KCAL/MOL
REMARK 922        TOTAL FREE ENERGY PREDICTED BY IDOCK:   -9.46 KCAL/MOL
REMARK 923 INTER-LIGAND FREE ENERGY PREDICTED BY IDOCK:   -8.70 KCAL/MOL
REMARK 924 INTRA-LIGAND FREE ENERGY PREDICTED BY IDOCK:   -0.76 KCAL/MOL
REMARK 927      BINDING AFFINITY PREDICTED BY RF-SCORE:    0.00 PKD
ROOT
HETATM    1  C   UNL     1     -12.675  13.701  66.029  1.00  0.00    -0.366 C  
HETATM    2  C   UNL     1     -11.364  14.519  65.986  1.00  0.00    -0.341 C  
HETATM    3  C   UNL     1     -10.234  13.537  65.598  1.00  0.00    -0.306 C  
ENDROOT
BRANCH   2   4
HETATM    4  C   UNL     1     -11.463  15.522  64.847  1.00  0.00    -0.279 C  
HETATM    5  H2  UNL     1     -12.499  16.100  63.644  1.00  0.00     0.000 HD 
HETATM    6  N   UNL     1     -11.546  16.354  63.903  1.00  0.00    -1.602 NA 
HETATM    7  H1  UNL     1     -11.612  17.026  63.139  1.00  0.00     0.000 HD 
ENDBRANCH   2   4
BRANCH   2   8
HETATM    8  C   UNL     1     -11.174  15.253  67.309  1.00  0.00    -0.306 A  
HETATM    9  C   UNL     1     -11.636  15.473  69.716  1.00  0.00    -0.345 A  
HETATM   10  C   UNL     1     -11.770  14.797  68.488  1.00  0.00    -0.347 A  
HETATM   11  C   UNL     1     -10.876  16.656  69.732  1.00  0.00    -0.238 A  
HETATM   12  C   UNL     1     -10.414  16.435  67.370  1.00  0.00    -0.309 A  
HETATM   13  C   UNL     1     -10.278  17.157  68.562  1.00  0.00    -0.346 A  
BRANCH   9  14
HETATM   14  C   UNL     1     -12.351  14.892  70.951  1.00  0.00    -0.392 C  
HETATM   15  C   UNL     1     -12.390  13.400  70.864  1.00  0.00    -0.353 C  
HETATM   16  C   UNL     1     -11.563  15.289  72.223  1.00  0.00    -0.530 C  
HETATM   17  C   UNL     1     -13.797  15.385  71.114  1.00  0.00    -0.452 C  
HETATM   18  N   UNL     1     -12.403  12.241  70.804  1.00  0.00    -0.356 NA 
ENDBRANCH   9  14
BRANCH  13  19
HETATM   19  C   UNL     1      -9.568  18.491  68.560  1.00  0.00    -0.358 C  
BRANCH  19  20
HETATM   20  N   UNL     1      -8.684  18.696  67.427  1.00  0.00    -0.268 NA 
HETATM   21  C   UNL     1      -8.885  19.494  66.341  1.00  0.00    -0.366 A  
HETATM   22  N   UNL     1      -7.760  19.625  65.677  1.00  0.00    -0.419 NA 
HETATM   23  C   UNL     1      -6.880  18.886  66.412  1.00  0.00    -0.211 A  
HETATM   24  N   UNL     1      -7.397  18.293  67.491  1.00  0.00    -0.208 NA 
ENDBRANCH  19  20
ENDBRANCH  13  19
ENDBRANCH   2   8
TORSDOF 5
ENDMDL
MODEL        9
REMARK 921   NORMALIZED FREE ENERGY PREDICTED BY IDOCK:   -6.62 KCAL/MOL
REMARK 922        TOTAL FREE ENERGY PREDICTED BY IDOCK:   -9.34 KCAL/MOL
REMARK 923 INTER-LIGAND FREE ENERGY PREDICTED BY IDOCK:   -8.55 KCAL/MOL
REMARK 924 INTRA-LIGAND FREE ENERGY PREDICTED BY IDOCK:   -0.79 KCAL/MOL
REMARK 927      BINDING AFFINITY PREDICTED BY RF-SCORE:    0.00 PKD
ROOT
HETATM    1  C   UNL     1     -12.850  12.511  64.380  1.00  0.00    -0.366 C  
HETATM    2  C   UNL     1     -11.636  13.373  64.794  1.00  0.00    -0.367 C  
HETATM    3  C   UNL     1     -10.416  12.838  64.008  1.00  0.00    -0.433 C  
ENDROOT
BRANCH   2   4
HETATM    4  C   UNL     1     -11.867  14.793  64.304  1.00  0.00    -0.319 C  
HETATM    5  H2  UNL     1     -11.779  15.780  62.934  1.00  0.00     0.000 HD 
HETATM    6  N   UNL     1     -12.058  15.971  63.896  1.00  0.00    -1.257 NA 
HETATM    7  H1  UNL     1     -12.213  16.924  63.568  1.00  0.00     0.000 HD 
ENDBRANCH   2   4
BRANCH   2   8
HETATM    8  C   UNL     1     -11.495  13.364  66.313  1.00  0.00    -0.354 A  
HETATM    9  C   UNL     1     -11.160  12.140  68.421  1.00  0.00    -0.289 A  
HETATM   10  C   UNL     1     -11.263  12.179  67.017  1.00  0.00    -0.370 A  
HETATM   11  C   UNL     1     -11.311  13.349  69.122  1.00  0.00    -0.333 A  
HETATM   12  C   UNL     1     -11.630  14.553  67.051  1.00  0.00    -0.402 A  
HETATM   13  C   UNL     1     -11.566  14.557  68.451  1.00  0.00    -0.356 A  
BRANCH   9  14
HETATM   14  C   UNL     1     -10.920  10.776  69.097  1.00  0.00    -0.293 C  
HETATM   15  C   UNL     1     -11.805  10.635  70.293  1.00  0.00    -0.342 C  
HETATM   16  C   UNL     1     -11.265   9.649  68.094  1.00  0.00     0.000 C  
HETATM   17  C   UNL     1      -9.472  10.568  69.566  1.00  0.00    -0.106 C  
HETATM   18  N   UNL     1     -12.508  10.519  71.210  1.00  0.00    -0.389 NA 
ENDBRANCH   9  14
BRANCH  13  19
HETATM   19  C   UNL     1     -11.849  15.829  69.216  1.00  0.00    -0.346 C  
BRANCH  19  20
HETATM   20  N   UNL     1     -12.367  15.618  70.556  1.00  0.00    -0.411 NA 
HETATM   21  C   UNL     1     -11.800  15.978  71.741  1.00  0.00    -0.519 A  
HETATM   22  N   UNL     1     -12.685  15.865  72.705  1.00  0.00    -0.443 NA 
HETATM   23  C   UNL     1     -13.802  15.435  72.049  1.00  0.00    -0.522 A  
HETATM   24  N   UNL     1     -13.658  15.263  70.733  1.00  0.00    -0.331 NA 
ENDBRANCH  19  20
ENDBRANCH  13  19
ENDBRANCH   2   8
TORSDOF 5
ENDMDL
MODEL       10
REMARK 921   NORMALIZED FREE ENERGY PREDICTED BY IDOCK:   -6.61 KCAL/MOL
REMARK 922        TOTAL FREE ENERGY PREDICTED BY IDOCK:   -9.33 KCAL/MOL
REMARK 923 INTER-LIGAND FREE ENERGY PREDICTED BY IDOCK:   -8.41 KCAL/MOL
REMARK 924 INTRA-LIGAND FREE ENERGY PREDICTED BY IDOCK:   -0.92 KCAL/MOL
REMARK 927      BINDING AFFINITY PREDICTED BY RF-SCORE:    0.00 PKD
ROOT
HETATM    1  C   UNL     1     -11.738  10.978  68.101  1.00  0.00    -0.277 C  
HETATM    2  C   UNL     1     -11.124  12.250  67.471  1.00  0.00    -0.326 C  
HETATM    3  C   UNL     1      -9.755  11.842  66.876  1.00  0.00    -0.212 C  
ENDROOT
BRANCH   2   4
HETATM    4  C   UNL     1     -11.990  12.667  66.293  1.00  0.00    -0.374 C  
HETATM    5  H2  UNL     1     -12.789  12.072  64.927  1.00  0.00     0.000 HD 
HETATM    6  N   UNL     1     -12.709  13.011  65.315  1.00  0.00    -0.665 NA 
HETATM    7  H1  UNL     1     -13.290  13.291  64.525  1.00  0.00     0.000 HD 
ENDBRANCH   2   4
BRANCH   2   8
HETATM    8  C   UNL     1     -11.085  13.367  68.508  1.00  0.00    -0.299 A  
HETATM    9  C   UNL     1     -11.981  14.432  70.537  1.00  0.00    -0.395 A  
HETATM   10  C   UNL     1     -11.976  13.395  69.584  1.00  0.00    -0.386 A  
HETATM   11  C   UNL     1     -11.052  15.474  70.375  1.00  0.00    -0.357 A  
HETATM   12  C   UNL     1     -10.165  14.424  68.387  1.00  0.00    -0.243 A  
HETATM   13  C   UNL     1     -10.154  15.492  69.294  1.00  0.00    -0.256 A  
BRANCH   9  14
HETATM   14  C   UNL     1     -13.018  14.372  71.675  1.00  0.00    -0.412 C  
HETATM   15  C   UNL     1     -12.475  15.037  72.898  1.00  0.00    -0.391 C  
HETATM   16  C   UNL     1     -14.296  15.124  71.232  1.00  0.00    -0.512 C  
HETATM   17  C   UNL     1     -13.421  12.941  72.067  1.00  0.00    -0.568 C  
HETATM   18  N   UNL     1     -12.059  15.572  73.842  1.00  0.00    -0.524 NA 
ENDBRANCH   9  14
BRANCH  13  19
HETATM   19  C   UNL     1      -9.244  16.675  69.056  1.00  0.00    -0.223 C  
BRANCH  19  20
HETATM   20  N   UNL     1      -9.920  17.860  68.560  1.00  0.00    -0.360 NA 
HETATM   21  C   UNL     1      -9.819  19.138  69.022  1.00  0.00    -0.375 A  
HETATM   22  N   UNL     1     -10.361  19.962  68.156  1.00  0.00    -0.426 NA 
HETATM   23  C   UNL     1     -10.780  19.131  67.158  1.00  0.00    -0.471 A  
HETATM   24  N   UNL     1     -10.537  17.834  67.359  1.00  0.00    -0.361 NA 
ENDBRANCH  19  20
ENDBRANCH  13  19
ENDBRANCH   2   8
TORSDOF 5
ENDMDL
MODEL       11
REMARK 921   NORMALIZED FREE ENERGY PREDICTED BY IDOCK:   -6.54 KCAL/MOL
REMARK 922        TOTAL FREE ENERGY PREDICTED BY IDOCK:   -9.24 KCAL/MOL
REMARK 923 INTER-LIGAND FREE ENERGY PREDICTED BY IDOCK:   -8.34 KCAL/MOL
REMARK 924 INTRA-LIGAND FREE ENERGY PREDICTED BY IDOCK:   -0.89 KCAL/MOL
REMARK 927      BINDING AFFINITY PREDICTED BY RF-SCORE:    0.00 PKD
ROOT
HETATM    1  C   UNL     1      -9.464  13.135  67.837  1.00  0.00    -0.218 C  
HETATM    2  C   UNL     1     -10.988  13.300  68.032  1.00  0.00    -0.266 C  
HETATM    3  C   UNL     1     -11.272  14.820  68.091  1.00  0.00    -0.307 C  
ENDROOT
BRANCH   2   4
HETATM    4  C   UNL     1     -11.690  12.786  66.784  1.00  0.00    -0.392 C  
HETATM    5  H2  UNL     1     -13.128  12.088  66.236  1.00  0.00     0.000 HD 
HETATM    6  N   UNL     1     -12.273  12.360  65.751  1.00  0.00    -0.638 NA 
HETATM    7  H1  UNL     1     -12.743  12.015  64.914  1.00  0.00     0.000 HD 
ENDBRANCH   2   4
BRANCH   2   8
HETATM    8  C   UNL     1     -11.439  12.498  69.248  1.00  0.00    -0.353 A  
HETATM    9  C   UNL     1     -11.477  10.397  70.528  1.00  0.00    -0.431 A  
HETATM   10  C   UNL     1     -11.050  11.168  69.430  1.00  0.00    -0.314 A  
HETATM   11  C   UNL     1     -12.336  11.005  71.460  1.00  0.00    -0.299 A  
HETATM   12  C   UNL     1     -12.290  13.072  70.209  1.00  0.00    -0.311 A  
HETATM   13  C   UNL     1     -12.765  12.334  71.300  1.00  0.00    -0.351 A  
BRANCH   9  14
HETATM   14  C   UNL     1     -11.002   8.934  70.621  1.00  0.00    -0.287 C  
HETATM   15  C   UNL     1      -9.888   8.820  71.611  1.00  0.00    -0.308 C  
HETATM   16  C   UNL     1     -12.179   8.051  71.102  1.00  0.00    -0.262 C  
HETATM   17  C   UNL     1     -10.496   8.365  69.287  1.00  0.00    -0.223 C  
HETATM   18  N   UNL     1      -9.035   8.731  72.394  1.00  0.00    -0.387 NA 
ENDBRANCH   9  14
BRANCH  13  19
HETATM   19  C   UNL     1     -13.784  12.942  72.237  1.00  0.00    -0.458 C  
BRANCH  19  20
HETATM   20  N   UNL     1     -13.424  14.255  72.742  1.00  0.00    -0.602 NA 
HETATM   21  C   UNL     1     -14.091  15.430  72.571  1.00  0.00    -0.499 A  
HETATM   22  N   UNL     1     -13.610  16.333  73.395  1.00  0.00    -0.522 NA 
HETATM   23  C   UNL     1     -12.639  15.650  74.068  1.00  0.00    -0.628 A  
HETATM   24  N   UNL     1     -12.483  14.376  73.703  1.00  0.00    -0.284 NA 
ENDBRANCH  19  20
ENDBRANCH  13  19
ENDBRANCH   2   8
TORSDOF 5
ENDMDL
MODEL       12
REMARK 921   NORMALIZED FREE ENERGY PREDICTED BY IDOCK:   -6.53 KCAL/MOL
REMARK 922        TOTAL FREE ENERGY PREDICTED BY IDOCK:   -9.23 KCAL/MOL
REMARK 923 INTER-LIGAND FREE ENERGY PREDICTED BY IDOCK:   -8.37 KCAL/MOL
REMARK 924 INTRA-LIGAND FREE ENERGY PREDICTED BY IDOCK:   -0.86 KCAL/MOL
REMARK 927      BINDING AFFINITY PREDICTED BY RF-SCORE:    0.00 PKD
ROOT
HETATM    1  C   UNL     1     -14.088  15.335  71.339  1.00  0.00    -0.595 C  
HETATM    2  C   UNL     1     -12.705  14.652  71.450  1.00  0.00    -0.403 C  
HETATM    3  C   UNL     1     -12.064  15.146  72.768  1.00  0.00    -0.486 C  
ENDROOT
BRANCH   2   4
HETATM    4  C   UNL     1     -12.921  13.157  71.617  1.00  0.00    -0.335 C  
HETATM    5  H2  UNL     1     -14.025  11.911  71.323  1.00  0.00     0.000 HD 
HETATM    6  N   UNL     1     -13.101  11.916  71.755  1.00  0.00    -0.432 NA 
HETATM    7  H1  UNL     1     -13.245  10.913  71.867  1.00  0.00     0.000 HD 
ENDBRANCH   2   4
BRANCH   2   8
HETATM    8  C   UNL     1     -11.898  14.922  70.184  1.00  0.00    -0.357 A  
HETATM    9  C   UNL     1     -11.171  14.254  67.930  1.00  0.00    -0.305 A  
HETATM   10  C   UNL     1     -11.930  14.044  69.097  1.00  0.00    -0.400 A  
HETATM   11  C   UNL     1     -10.348  15.393  67.882  1.00  0.00    -0.247 A  
HETATM   12  C   UNL     1     -11.070  16.055  70.091  1.00  0.00    -0.372 A  
HETATM   13  C   UNL     1     -10.274  16.288  68.962  1.00  0.00    -0.261 A  
BRANCH   9  14
HETATM   14  C   UNL     1     -11.268  13.212  66.799  1.00  0.00    -0.330 C  
HETATM   15  C   UNL     1     -12.334  13.608  65.829  1.00  0.00    -0.482 C  
HETATM   16  C   UNL     1      -9.916  13.155  66.048  1.00  0.00    -0.283 C  
HETATM   17  C   UNL     1     -11.596  11.795  67.294  1.00  0.00    -0.344 C  
HETATM   18  N   UNL     1     -13.149  13.927  65.066  1.00  0.00    -0.732 NA 
ENDBRANCH   9  14
BRANCH  13  19
HETATM   19  C   UNL     1      -9.297  17.442  68.953  1.00  0.00    -0.183 C  
BRANCH  19  20
HETATM   20  N   UNL     1      -9.535  18.419  67.907  1.00  0.00    -0.279 NA 
HETATM   21  C   UNL     1     -10.303  19.543  67.968  1.00  0.00    -0.445 A  
HETATM   22  N   UNL     1     -10.054  20.303  66.926  1.00  0.00    -0.452 NA 
HETATM   23  C   UNL     1      -9.103  19.597  66.249  1.00  0.00    -0.376 A  
HETATM   24  N   UNL     1      -8.754  18.434  66.805  1.00  0.00    -0.270 NA 
ENDBRANCH  19  20
ENDBRANCH  13  19
ENDBRANCH   2   8
TORSDOF 5
ENDMDL
MODEL       13
REMARK 921   NORMALIZED FREE ENERGY PREDICTED BY IDOCK:   -6.45 KCAL/MOL
REMARK 922        TOTAL FREE ENERGY PREDICTED BY IDOCK:   -9.12 KCAL/MOL
REMARK 923 INTER-LIGAND FREE ENERGY PREDICTED BY IDOCK:   -8.39 KCAL/MOL
REMARK 924 INTRA-LIGAND FREE ENERGY PREDICTED BY IDOCK:   -0.73 KCAL/MOL
REMARK 927      BINDING AFFINITY PREDICTED BY RF-SCORE:    0.00 PKD
ROOT
HETATM    1  C   UNL     1     -11.412  11.253  67.639  1.00  0.00    -0.341 C  
HETATM    2  C   UNL     1     -11.140  12.545  66.834  1.00  0.00    -0.323 C  
HETATM    3  C   UNL     1      -9.758  12.373  66.161  1.00  0.00    -0.254 C  
ENDROOT
BRANCH   2   4
HETATM    4  C   UNL     1     -12.154  12.629  65.705  1.00  0.00    -0.443 C  
HETATM    5  H2  UNL     1     -12.850  11.740  64.447  1.00  0.00     0.000 HD 
HETATM    6  N   UNL     1     -12.995  12.697  64.767  1.00  0.00    -0.867 NA 
HETATM    7  H1  UNL     1     -13.675  12.753  64.010  1.00  0.00     0.000 HD 
ENDBRANCH   2   4
BRANCH   2   8
HETATM    8  C   UNL     1     -11.280  13.757  67.749  1.00  0.00    -0.312 A  
HETATM    9  C   UNL     1     -12.042  14.764  69.861  1.00  0.00    -0.381 A  
HETATM   10  C   UNL     1     -11.873  13.655  69.011  1.00  0.00    -0.393 A  
HETATM   11  C   UNL     1     -11.601  16.016  69.399  1.00  0.00    -0.320 A  
HETATM   12  C   UNL     1     -10.842  15.026  67.329  1.00  0.00    -0.310 A  
HETATM   13  C   UNL     1     -11.018  16.162  68.128  1.00  0.00    -0.341 A  
BRANCH   9  14
HETATM   14  C   UNL     1     -12.725  14.540  71.225  1.00  0.00    -0.413 C  
HETATM   15  C   UNL     1     -12.913  13.078  71.468  1.00  0.00    -0.305 C  
HETATM   16  C   UNL     1     -11.820  15.113  72.342  1.00  0.00    -0.488 C  
HETATM   17  C   UNL     1     -14.103  15.210  71.340  1.00  0.00    -0.598 C  
HETATM   18  N   UNL     1     -13.041  11.940  71.664  1.00  0.00    -0.407 NA 
ENDBRANCH   9  14
BRANCH  13  19
HETATM   19  C   UNL     1     -10.658  17.528  67.589  1.00  0.00    -0.355 C  
BRANCH  19  20
HETATM   20  N   UNL     1      -9.247  17.703  67.298  1.00  0.00    -0.239 NA 
HETATM   21  C   UNL     1      -8.227  17.903  68.179  1.00  0.00    -0.269 A  
HETATM   22  N   UNL     1      -7.077  17.743  67.564  1.00  0.00    -0.183 NA 
HETATM   23  C   UNL     1      -7.449  17.431  66.289  1.00  0.00    -0.319 A  
HETATM   24  N   UNL     1      -8.766  17.398  66.073  1.00  0.00    -0.531 NA 
ENDBRANCH  19  20
ENDBRANCH  13  19
ENDBRANCH   2   8
TORSDOF 5
ENDMDL
MODEL       14
REMARK 921   NORMALIZED FREE ENERGY PREDICTED BY IDOCK:   -6.42 KCAL/MOL
REMARK 922        TOTAL FREE ENERGY PREDICTED BY IDOCK:   -9.08 KCAL/MOL
REMARK 923 INTER-LIGAND FREE ENERGY PREDICTED BY IDOCK:   -8.22 KCAL/MOL
REMARK 924 INTRA-LIGAND FREE ENERGY PREDICTED BY IDOCK:   -0.86 KCAL/MOL
REMARK 927      BINDING AFFINITY PREDICTED BY RF-SCORE:    0.00 PKD
ROOT
HETATM    1  C   UNL     1      -8.732  16.240  66.283  1.00  0.00    -0.370 C  
HETATM    2  C   UNL     1     -10.246  16.444  66.516  1.00  0.00    -0.310 C  
HETATM    3  C   UNL     1     -10.436  17.907  66.984  1.00  0.00    -0.345 C  
ENDROOT
BRANCH   2   4
HETATM    4  C   UNL     1     -10.957  16.332  65.177  1.00  0.00    -0.274 C  
HETATM    5  H2  UNL     1     -11.093  15.363  63.799  1.00  0.00     0.000 HD 
HETATM    6  N   UNL     1     -11.546  16.237  64.066  1.00  0.00    -1.504 NA 
HETATM    7  H1  UNL     1     -12.023  16.162  63.168  1.00  0.00     0.000 HD 
ENDBRANCH   2   4
BRANCH   2   8
HETATM    8  C   UNL     1     -10.766  15.375  67.472  1.00  0.00    -0.295 A  
HETATM    9  C   UNL     1     -10.898  13.022  68.178  1.00  0.00    -0.267 A  
HETATM   10  C   UNL     1     -10.407  14.032  67.328  1.00  0.00    -0.264 A  
HETATM   11  C   UNL     1     -11.790  13.399  69.196  1.00  0.00    -0.383 A  
HETATM   12  C   UNL     1     -11.653  15.712  68.510  1.00  0.00    -0.378 A  
HETATM   13  C   UNL     1     -12.190  14.737  69.359  1.00  0.00    -0.251 A  
BRANCH   9  14
HETATM   14  C   UNL     1     -10.450  11.570  67.918  1.00  0.00    -0.211 C  
HETATM   15  C   UNL     1      -8.995  11.421  68.223  1.00  0.00    -0.175 C  
HETATM   16  C   UNL     1     -11.247  10.623  68.848  1.00  0.00    -0.333 C  
HETATM   17  C   UNL     1     -10.669  11.108  66.469  1.00  0.00    -0.314 C  
HETATM   18  N   UNL     1      -7.868  11.303  68.479  1.00  0.00    -0.131 NA 
ENDBRANCH   9  14
BRANCH  13  19
HETATM   19  C   UNL     1     -13.242  15.117  70.376  1.00  0.00    -0.133 C  
BRANCH  19  20
HETATM   20  N   UNL     1     -12.733  15.304  71.722  1.00  0.00    -0.341 NA 
HETATM   21  C   UNL     1     -11.951  16.318  72.190  1.00  0.00    -0.494 A  
HETATM   22  N   UNL     1     -11.927  16.285  73.502  1.00  0.00    -0.413 NA 
HETATM   23  C   UNL     1     -12.729  15.222  73.799  1.00  0.00    -0.556 A  
HETATM   24  N   UNL     1     -13.243  14.585  72.745  1.00  0.00    -0.479 NA 
ENDBRANCH  19  20
ENDBRANCH  13  19
ENDBRANCH   2   8
TORSDOF 5
ENDMDL
MODEL       15
REMARK 921   NORMALIZED FREE ENERGY PREDICTED BY IDOCK:   -6.42 KCAL/MOL
REMARK 922        TOTAL FREE ENERGY PREDICTED BY IDOCK:   -9.08 KCAL/MOL
REMARK 923 INTER-LIGAND FREE ENERGY PREDICTED BY IDOCK:   -8.29 KCAL/MOL
REMARK 924 INTRA-LIGAND FREE ENERGY PREDICTED BY IDOCK:   -0.79 KCAL/MOL
REMARK 927      BINDING AFFINITY PREDICTED BY RF-SCORE:    0.00 PKD
ROOT
HETATM    1  C   UNL     1      -9.731  12.557  66.850  1.00  0.00    -0.232 C  
HETATM    2  C   UNL     1     -11.150  12.686  67.451  1.00  0.00    -0.315 C  
HETATM    3  C   UNL     1     -12.116  12.944  66.271  1.00  0.00    -0.433 C  
ENDROOT
BRANCH   2   4
HETATM    4  C   UNL     1     -11.546  11.341  68.037  1.00  0.00    -0.272 C  
HETATM    5  H2  UNL     1     -11.395  10.370  69.413  1.00  0.00     0.000 HD 
HETATM    6  N   UNL     1     -11.875  10.225  68.525  1.00  0.00    -0.710 NA 
HETATM    7  H1  UNL     1     -12.141   9.323  68.918  1.00  0.00     0.000 HD 
ENDBRANCH   2   4
BRANCH   2   8
HETATM    8  C   UNL     1     -11.148  13.749  68.545  1.00  0.00    -0.292 A  
HETATM    9  C   UNL     1     -12.061  14.661  70.639  1.00  0.00    -0.385 A  
HETATM   10  C   UNL     1     -12.022  13.677  69.633  1.00  0.00    -0.402 A  
HETATM   11  C   UNL     1     -11.186  15.755  70.520  1.00  0.00    -0.392 A  
HETATM   12  C   UNL     1     -10.281  14.854  68.467  1.00  0.00    -0.235 A  
HETATM   13  C   UNL     1     -10.307  15.872  69.429  1.00  0.00    -0.265 A  
BRANCH   9  14
HETATM   14  C   UNL     1     -13.076  14.492  71.786  1.00  0.00    -0.421 C  
HETATM   15  C   UNL     1     -12.561  15.147  73.027  1.00  0.00    -0.438 C  
HETATM   16  C   UNL     1     -14.407  15.174  71.386  1.00  0.00    -0.601 C  
HETATM   17  C   UNL     1     -13.378  13.025  72.129  1.00  0.00    -0.622 C  
HETATM   18  N   UNL     1     -12.168  15.674  73.984  1.00  0.00    -0.571 NA 
ENDBRANCH   9  14
BRANCH  13  19
HETATM   19  C   UNL     1      -9.458  17.109  69.242  1.00  0.00     0.025 C  
BRANCH  19  20
HETATM   20  N   UNL     1      -9.679  17.801  67.986  1.00  0.00    -0.292 NA 
HETATM   21  C   UNL     1      -9.056  17.593  66.792  1.00  0.00    -0.260 A  
HETATM   22  N   UNL     1      -9.710  18.216  65.839  1.00  0.00    -0.519 NA 
HETATM   23  C   UNL     1     -10.750  18.795  66.506  1.00  0.00    -0.268 A  
HETATM   24  N   UNL     1     -10.774  18.575  67.823  1.00  0.00    -0.389 NA 
ENDBRANCH  19  20
ENDBRANCH  13  19
ENDBRANCH   2   8
TORSDOF 5
ENDMDL
MODEL       16
REMARK 921   NORMALIZED FREE ENERGY PREDICTED BY IDOCK:   -6.33 KCAL/MOL
REMARK 922        TOTAL FREE ENERGY PREDICTED BY IDOCK:   -8.97 KCAL/MOL
REMARK 923 INTER-LIGAND FREE ENERGY PREDICTED BY IDOCK:   -8.04 KCAL/MOL
REMARK 924 INTRA-LIGAND FREE ENERGY PREDICTED BY IDOCK:   -0.93 KCAL/MOL
REMARK 927      BINDING AFFINITY PREDICTED BY RF-SCORE:    0.00 PKD
ROOT
HETATM    1  C   UNL     1     -11.030   8.183  69.634  1.00  0.00    -0.094 C  
HETATM    2  C   UNL     1     -11.302   8.882  70.986  1.00  0.00    -0.350 C  
HETATM    3  C   UNL     1     -12.344   8.020  71.737  1.00  0.00    -0.352 C  
ENDROOT
BRANCH   2   4
HETATM    4  C   UNL     1     -10.030   8.830  71.817  1.00  0.00    -0.326 C  
HETATM    5  H2  UNL     1      -8.526   9.571  72.031  1.00  0.00     0.000 HD 
HETATM    6  N   UNL     1      -8.975   8.788  72.506  1.00  0.00    -0.371 NA 
HETATM    7  H1  UNL     1      -8.122   8.753  73.064  1.00  0.00     0.000 HD 
ENDBRANCH   2   4
BRANCH   2   8
HETATM    8  C   UNL     1     -11.703  10.333  70.740  1.00  0.00    -0.453 A  
HETATM    9  C   UNL     1     -11.456  12.435  69.485  1.00  0.00    -0.309 A  
HETATM   10  C   UNL     1     -11.126  11.086  69.713  1.00  0.00    -0.303 A  
HETATM   11  C   UNL     1     -12.396  13.033  70.342  1.00  0.00    -0.351 A  
HETATM   12  C   UNL     1     -12.647  10.965  71.569  1.00  0.00    -0.480 A  
HETATM   13  C   UNL     1     -12.983  12.314  71.398  1.00  0.00    -0.354 A  
BRANCH   9  14
HETATM   14  C   UNL     1     -10.745  13.176  68.335  1.00  0.00    -0.270 C  
HETATM   15  C   UNL     1     -10.032  14.378  68.864  1.00  0.00    -0.182 C  
HETATM   16  C   UNL     1      -9.703  12.228  67.693  1.00  0.00    -0.194 C  
HETATM   17  C   UNL     1     -11.699  13.653  67.229  1.00  0.00    -0.416 C  
HETATM   18  N   UNL     1      -9.462  15.300  69.280  1.00  0.00    -0.238 NA 
ENDBRANCH   9  14
BRANCH  13  19
HETATM   19  C   UNL     1     -13.899  12.995  72.390  1.00  0.00    -0.427 C  
BRANCH  19  20
HETATM   20  N   UNL     1     -13.424  14.287  72.853  1.00  0.00    -0.647 NA 
HETATM   21  C   UNL     1     -14.017  15.503  72.696  1.00  0.00    -0.528 A  
HETATM   22  N   UNL     1     -13.433  16.381  73.479  1.00  0.00    -0.495 NA 
HETATM   23  C   UNL     1     -12.477  15.642  74.114  1.00  0.00    -0.661 A  
HETATM   24  N   UNL     1     -12.428  14.355  73.762  1.00  0.00    -0.234 NA 
ENDBRANCH  19  20
ENDBRANCH  13  19
ENDBRANCH   2   8
TORSDOF 5
ENDMDL
MODEL       17
REMARK 921   NORMALIZED FREE ENERGY PREDICTED BY IDOCK:   -6.31 KCAL/MOL
REMARK 922        TOTAL FREE ENERGY PREDICTED BY IDOCK:   -8.95 KCAL/MOL
REMARK 923 INTER-LIGAND FREE ENERGY PREDICTED BY IDOCK:   -8.19 KCAL/MOL
REMARK 924 INTRA-LIGAND FREE ENERGY PREDICTED BY IDOCK:   -0.76 KCAL/MOL
REMARK 927      BINDING AFFINITY PREDICTED BY RF-SCORE:    0.00 PKD
ROOT
HETATM    1  C   UNL     1     -11.588  10.238  70.164  1.00  0.00    -0.376 C  
HETATM    2  C   UNL     1     -10.688  10.575  68.953  1.00  0.00    -0.253 C  
HETATM    3  C   UNL     1      -9.226  10.546  69.457  1.00  0.00    -0.072 C  
ENDROOT
BRANCH   2   4
HETATM    4  C   UNL     1     -10.809   9.450  67.938  1.00  0.00    -0.154 C  
HETATM    5  H2  UNL     1     -11.908   8.366  67.248  1.00  0.00     0.000 HD 
HETATM    6  N   UNL     1     -10.911   8.516  67.096  1.00  0.00    -0.405 NA 
HETATM    7  H1  UNL     1     -10.991   7.761  66.416  1.00  0.00     0.000 HD 
ENDBRANCH   2   4
BRANCH   2   8
HETATM    8  C   UNL     1     -11.143  11.890  68.327  1.00  0.00    -0.289 A  
HETATM    9  C   UNL     1     -11.718  13.225  66.342  1.00  0.00    -0.418 A  
HETATM   10  C   UNL     1     -11.329  12.015  66.947  1.00  0.00    -0.400 A  
HETATM   11  C   UNL     1     -11.912  14.341  67.175  1.00  0.00    -0.449 A  
HETATM   12  C   UNL     1     -11.357  13.027  69.126  1.00  0.00    -0.328 A  
HETATM   13  C   UNL     1     -11.715  14.259  68.564  1.00  0.00    -0.376 A  
BRANCH   9  14
HETATM   14  C   UNL     1     -11.877  13.256  64.809  1.00  0.00    -0.411 C  
HETATM   15  C   UNL     1     -12.188  14.646  64.355  1.00  0.00    -0.452 C  
HETATM   16  C   UNL     1     -10.547  12.810  64.155  1.00  0.00    -0.441 C  
HETATM   17  C   UNL     1     -12.994  12.338  64.288  1.00  0.00    -0.237 C  
HETATM   18  N   UNL     1     -12.410  15.729  64.002  1.00  0.00    -0.635 NA 
ENDBRANCH   9  14
BRANCH  13  19
HETATM   19  C   UNL     1     -11.804  15.490  69.437  1.00  0.00    -0.374 C  
BRANCH  19  20
HETATM   20  N   UNL     1     -12.383  15.253  70.747  1.00  0.00    -0.348 NA 
HETATM   21  C   UNL     1     -11.744  15.192  71.948  1.00  0.00    -0.415 A  
HETATM   22  N   UNL     1     -12.627  15.234  72.919  1.00  0.00    -0.370 NA 
HETATM   23  C   UNL     1     -13.814  15.332  72.254  1.00  0.00    -0.530 A  
HETATM   24  N   UNL     1     -13.720  15.343  70.922  1.00  0.00    -0.456 NA 
ENDBRANCH  19  20
ENDBRANCH  13  19
ENDBRANCH   2   8
TORSDOF 5
ENDMDL
MODEL       18
REMARK 921   NORMALIZED FREE ENERGY PREDICTED BY IDOCK:   -6.29 KCAL/MOL
REMARK 922        TOTAL FREE ENERGY PREDICTED BY IDOCK:   -8.92 KCAL/MOL
REMARK 923 INTER-LIGAND FREE ENERGY PREDICTED BY IDOCK:   -8.20 KCAL/MOL
REMARK 924 INTRA-LIGAND FREE ENERGY PREDICTED BY IDOCK:   -0.72 KCAL/MOL
REMARK 927      BINDING AFFINITY PREDICTED BY RF-SCORE:    0.00 PKD
ROOT
HETATM    1  C   UNL     1      -8.430   8.472  67.812  1.00  0.00    -0.130 C  
HETATM    2  C   UNL     1      -9.587   8.678  66.808  1.00  0.00    -0.269 C  
HETATM    3  C   UNL     1      -8.956   8.734  65.397  1.00  0.00    -0.211 C  
ENDROOT
BRANCH   2   4
HETATM    4  C   UNL     1     -10.467   7.438  66.830  1.00  0.00    -0.309 C  
HETATM    5  H2  UNL     1     -10.437   5.766  67.079  1.00  0.00     0.000 HD 
HETATM    6  N   UNL     1     -11.195   6.408  66.849  1.00  0.00    -0.737 NA 
HETATM    7  H1  UNL     1     -11.785   5.577  66.863  1.00  0.00     0.000 HD 
ENDBRANCH   2   4
BRANCH   2   8
HETATM    8  C   UNL     1     -10.404   9.901  67.213  1.00  0.00    -0.303 A  
HETATM    9  C   UNL     1     -11.382  12.092  66.670  1.00  0.00    -0.405 A  
HETATM   10  C   UNL     1     -10.658  10.939  66.312  1.00  0.00    -0.276 A  
HETATM   11  C   UNL     1     -11.851  12.187  67.991  1.00  0.00    -0.351 A  
HETATM   12  C   UNL     1     -10.900  10.030  68.522  1.00  0.00    -0.270 A  
HETATM   13  C   UNL     1     -11.599  11.172  68.931  1.00  0.00    -0.385 A  
BRANCH   9  14
HETATM   14  C   UNL     1     -11.588  13.185  65.602  1.00  0.00    -0.371 C  
HETATM   15  C   UNL     1     -12.304  12.616  64.420  1.00  0.00    -0.446 C  
HETATM   16  C   UNL     1     -12.452  14.320  66.202  1.00  0.00    -0.362 C  
HETATM   17  C   UNL     1     -10.277  13.804  65.094  1.00  0.00    -0.367 C  
HETATM   18  N   UNL     1     -12.878  12.177  63.511  1.00  0.00    -0.796 NA 
ENDBRANCH   9  14
BRANCH  13  19
HETATM   19  C   UNL     1     -11.999  11.335  70.379  1.00  0.00    -0.380 C  
BRANCH  19  20
HETATM   20  N   UNL     1     -12.333  10.093  71.051  1.00  0.00    -0.342 NA 
HETATM   21  C   UNL     1     -11.515   9.295  71.793  1.00  0.00    -0.378 A  
HETATM   22  N   UNL     1     -12.237   8.418  72.454  1.00  0.00    -0.384 NA 
HETATM   23  C   UNL     1     -13.513   8.730  72.086  1.00  0.00    -0.427 A  
HETATM   24  N   UNL     1     -13.626   9.744  71.226  1.00  0.00    -0.297 NA 
ENDBRANCH  19  20
ENDBRANCH  13  19
ENDBRANCH   2   8
TORSDOF 5
ENDMDL
MODEL       19
REMARK 921   NORMALIZED FREE ENERGY PREDICTED BY IDOCK:   -6.17 KCAL/MOL
REMARK 922        TOTAL FREE ENERGY PREDICTED BY IDOCK:   -8.77 KCAL/MOL
REMARK 923 INTER-LIGAND FREE ENERGY PREDICTED BY IDOCK:   -7.95 KCAL/MOL
REMARK 924 INTRA-LIGAND FREE ENERGY PREDICTED BY IDOCK:   -0.82 KCAL/MOL
REMARK 927      BINDING AFFINITY PREDICTED BY RF-SCORE:    0.00 PKD
ROOT
HETATM    1  C   UNL     1     -10.548   8.761  72.305  1.00  0.00    -0.319 C  
HETATM    2  C   UNL     1     -11.846   8.943  71.484  1.00  0.00    -0.402 C  
HETATM    3  C   UNL     1     -11.992   7.688  70.591  1.00  0.00    -0.122 C  
ENDROOT
BRANCH   2   4
HETATM    4  C   UNL     1     -13.026   8.921  72.442  1.00  0.00    -0.404 C  
HETATM    5  H2  UNL     1     -13.505   8.419  73.983  1.00  0.00     0.000 HD 
HETATM    6  N   UNL     1     -14.005   8.903  73.238  1.00  0.00    -1.217 NA 
HETATM    7  H1  UNL     1     -14.797   8.888  73.880  1.00  0.00     0.000 HD 
ENDBRANCH   2   4
BRANCH   2   8
HETATM    8  C   UNL     1     -11.801  10.276  70.745  1.00  0.00    -0.459 A  
HETATM    9  C   UNL     1     -10.822  11.731  69.019  1.00  0.00    -0.239 A  
HETATM   10  C   UNL     1     -10.903  10.499  69.697  1.00  0.00    -0.320 A  
HETATM   11  C   UNL     1     -11.677  12.765  69.436  1.00  0.00    -0.380 A  
HETATM   12  C   UNL     1     -12.647  11.333  71.124  1.00  0.00    -0.501 A  
HETATM   13  C   UNL     1     -12.579  12.585  70.499  1.00  0.00    -0.177 A  
BRANCH   9  14
HETATM   14  C   UNL     1      -9.783  11.874  67.890  1.00  0.00    -0.192 C  
HETATM   15  C   UNL     1      -9.747  13.287  67.404  1.00  0.00    -0.221 C  
HETATM   16  C   UNL     1      -8.384  11.507  68.441  1.00  0.00    -0.154 C  
HETATM   17  C   UNL     1     -10.065  10.975  66.676  1.00  0.00    -0.262 C  
HETATM   18  N   UNL     1      -9.706  14.389  67.041  1.00  0.00    -0.247 NA 
ENDBRANCH   9  14
BRANCH  13  19
HETATM   19  C   UNL     1     -13.408  13.736  71.021  1.00  0.00    -0.086 C  
BRANCH  19  20
HETATM   20  N   UNL     1     -12.753  14.526  72.048  1.00  0.00    -0.328 NA 
HETATM   21  C   UNL     1     -12.285  15.802  71.954  1.00  0.00    -0.459 A  
HETATM   22  N   UNL     1     -12.012  16.260  73.155  1.00  0.00    -0.490 NA 
HETATM   23  C   UNL     1     -12.343  15.215  73.967  1.00  0.00    -0.591 A  
HETATM   24  N   UNL     1     -12.797  14.128  73.338  1.00  0.00    -0.383 NA 
ENDBRANCH  19  20
ENDBRANCH  13  19
ENDBRANCH   2   8
TORSDOF 5
ENDMDL
MODEL       20
REMARK 921   NORMALIZED FREE ENERGY PREDICTED BY IDOCK:   -6.14 KCAL/MOL
REMARK 922        TOTAL FREE ENERGY PREDICTED BY IDOCK:   -8.72 KCAL/MOL
REMARK 923 INTER-LIGAND FREE ENERGY PREDICTED BY IDOCK:   -7.83 KCAL/MOL
REMARK 924 INTRA-LIGAND FREE ENERGY PREDICTED BY IDOCK:   -0.90 KCAL/MOL
REMARK 927      BINDING AFFINITY PREDICTED BY RF-SCORE:    0.00 PKD
ROOT
HETATM    1  C   UNL     1     -12.610  13.426  65.895  1.00  0.00    -0.412 C  
HETATM    2  C   UNL     1     -11.237  14.058  65.573  1.00  0.00    -0.311 C  
HETATM    3  C   UNL     1     -10.440  13.012  64.759  1.00  0.00    -0.382 C  
ENDROOT
BRANCH   2   4
HETATM    4  C   UNL     1     -11.459  15.239  64.641  1.00  0.00    -0.354 C  
HETATM    5  H2  UNL     1     -12.653  16.260  64.018  1.00  0.00     0.000 HD 
HETATM    6  N   UNL     1     -11.645  16.219  63.869  1.00  0.00    -1.573 NA 
HETATM    7  H1  UNL     1     -11.794  17.011  63.244  1.00  0.00     0.000 HD 
ENDBRANCH   2   4
BRANCH   2   8
HETATM    8  C   UNL     1     -10.576  14.532  66.863  1.00  0.00    -0.279 A  
HETATM    9  C   UNL     1      -8.584  14.738  68.293  1.00  0.00    -0.164 A  
HETATM   10  C   UNL     1      -9.212  14.338  67.098  1.00  0.00    -0.230 A  
HETATM   11  C   UNL     1      -9.381  15.345  69.279  1.00  0.00    -0.254 A  
HETATM   12  C   UNL     1     -11.335  15.153  67.871  1.00  0.00    -0.346 A  
HETATM   13  C   UNL     1     -10.759  15.539  69.088  1.00  0.00    -0.250 A  
BRANCH   9  14
HETATM   14  C   UNL     1      -7.077  14.459  68.454  1.00  0.00    -0.106 C  
HETATM   15  C   UNL     1      -6.287  15.436  67.646  1.00  0.00    -0.151 C  
HETATM   16  C   UNL     1      -6.690  14.625  69.943  1.00  0.00    -0.157 C  
HETATM   17  C   UNL     1      -6.661  13.048  68.010  1.00  0.00    -0.114 C  
HETATM   18  N   UNL     1      -5.674  16.209  67.033  1.00  0.00    -0.340 NA 
ENDBRANCH   9  14
BRANCH  13  19
HETATM   19  C   UNL     1     -11.632  16.079  70.198  1.00  0.00    -0.317 C  
BRANCH  19  20
HETATM   20  N   UNL     1     -12.572  15.116  70.742  1.00  0.00    -0.363 NA 
HETATM   21  C   UNL     1     -12.299  13.914  71.323  1.00  0.00    -0.335 A  
HETATM   22  N   UNL     1     -13.374  13.464  71.928  1.00  0.00    -0.434 NA 
HETATM   23  C   UNL     1     -14.293  14.445  71.695  1.00  0.00    -0.432 A  
HETATM   24  N   UNL     1     -13.853  15.476  70.970  1.00  0.00    -0.520 NA 
ENDBRANCH  19  20
ENDBRANCH  13  19
ENDBRANCH   2   8
TORSDOF 5
ENDMDL
MODEL       21
REMARK 921   NORMALIZED FREE ENERGY PREDICTED BY IDOCK:   -6.13 KCAL/MOL
REMARK 922        TOTAL FREE ENERGY PREDICTED BY IDOCK:   -8.71 KCAL/MOL
REMARK 923 INTER-LIGAND FREE ENERGY PREDICTED BY IDOCK:   -8.04 KCAL/MOL
REMARK 924 INTRA-LIGAND FREE ENERGY PREDICTED BY IDOCK:   -0.68 KCAL/MOL
REMARK 927      BINDING AFFINITY PREDICTED BY RF-SCORE:    0.00 PKD
ROOT
HETATM    1  C   UNL     1      -8.276  16.872  68.599  1.00  0.00    -0.254 C  
HETATM    2  C   UNL     1      -9.783  17.142  68.383  1.00  0.00    -0.284 C  
HETATM    3  C   UNL     1     -10.145  18.381  69.236  1.00  0.00    -0.045 C  
ENDROOT
BRANCH   2   4
HETATM    4  C   UNL     1      -9.995  17.548  66.933  1.00  0.00    -0.313 C  
HETATM    5  H2  UNL     1      -9.574  18.713  65.783  1.00  0.00     0.000 HD 
HETATM    6  N   UNL     1     -10.169  17.886  65.731  1.00  0.00    -0.608 NA 
HETATM    7  H1  UNL     1     -10.311  18.159  64.759  1.00  0.00     0.000 HD 
ENDBRANCH   2   4
BRANCH   2   8
HETATM    8  C   UNL     1     -10.578  15.877  68.689  1.00  0.00    -0.250 A  
HETATM    9  C   UNL     1     -12.092  14.606  70.155  1.00  0.00    -0.385 A  
HETATM   10  C   UNL     1     -11.373  15.773  69.835  1.00  0.00    -0.349 A  
HETATM   11  C   UNL     1     -11.985  13.510  69.281  1.00  0.00    -0.378 A  
HETATM   12  C   UNL     1     -10.506  14.762  67.835  1.00  0.00    -0.246 A  
HETATM   13  C   UNL     1     -11.180  13.570  68.130  1.00  0.00    -0.302 A  
BRANCH   9  14
HETATM   14  C   UNL     1     -12.923  14.595  71.453  1.00  0.00    -0.404 C  
HETATM   15  C   UNL     1     -12.308  15.510  72.462  1.00  0.00    -0.411 C  
HETATM   16  C   UNL     1     -14.353  15.097  71.140  1.00  0.00    -0.406 C  
HETATM   17  C   UNL     1     -13.038  13.205  72.098  1.00  0.00    -0.481 C  
HETATM   18  N   UNL     1     -11.839  16.237  73.237  1.00  0.00    -0.393 NA 
ENDBRANCH   9  14
BRANCH  13  19
HETATM   19  C   UNL     1     -10.972  12.350  67.262  1.00  0.00    -0.260 C  
BRANCH  19  20
HETATM   20  N   UNL     1     -11.571  12.445  65.943  1.00  0.00    -0.379 NA 
HETATM   21  C   UNL     1     -12.502  13.339  65.508  1.00  0.00    -0.474 A  
HETATM   22  N   UNL     1     -12.590  13.280  64.199  1.00  0.00    -0.660 NA 
HETATM   23  C   UNL     1     -11.672  12.326  63.870  1.00  0.00    -0.451 A  
HETATM   24  N   UNL     1     -11.024  11.781  64.902  1.00  0.00    -0.304 NA 
ENDBRANCH  19  20
ENDBRANCH  13  19
ENDBRANCH   2   8
TORSDOF 5
ENDMDL
MODEL       22
REMARK 921   NORMALIZED FREE ENERGY PREDICTED BY IDOCK:   -6.11 KCAL/MOL
REMARK 922        TOTAL FREE ENERGY PREDICTED BY IDOCK:   -8.69 KCAL/MOL
REMARK 923 INTER-LIGAND FREE ENERGY PREDICTED BY IDOCK:   -7.93 KCAL/MOL
REMARK 924 INTRA-LIGAND FREE ENERGY PREDICTED BY IDOCK:   -0.76 KCAL/MOL
REMARK 927      BINDING AFFINITY PREDICTED BY RF-SCORE:    0.00 PKD
ROOT
HETATM    1  C   UNL     1      -8.826  16.012  66.165  1.00  0.00    -0.366 C  
HETATM    2  C   UNL     1     -10.349  16.199  66.354  1.00  0.00    -0.321 C  
HETATM    3  C   UNL     1     -10.559  17.613  66.946  1.00  0.00    -0.235 C  
ENDROOT
BRANCH   2   4
HETATM    4  C   UNL     1     -11.004  16.214  64.982  1.00  0.00    -0.344 C  
HETATM    5  H2  UNL     1     -12.465  15.934  64.180  1.00  0.00     0.000 HD 
HETATM    6  N   UNL     1     -11.548  16.225  63.844  1.00  0.00    -1.573 NA 
HETATM    7  H1  UNL     1     -11.987  16.235  62.924  1.00  0.00     0.000 HD 
ENDBRANCH   2   4
BRANCH   2   8
HETATM    8  C   UNL     1     -10.908  15.048  67.183  1.00  0.00    -0.314 A  
HETATM    9  C   UNL     1     -11.887  14.200  69.275  1.00  0.00    -0.381 A  
HETATM   10  C   UNL     1     -11.395  15.251  68.478  1.00  0.00    -0.337 A  
HETATM   11  C   UNL     1     -11.869  12.903  68.733  1.00  0.00    -0.353 A  
HETATM   12  C   UNL     1     -10.917  13.737  66.675  1.00  0.00    -0.298 A  
HETATM   13  C   UNL     1     -11.368  12.657  67.444  1.00  0.00    -0.367 A  
BRANCH   9  14
HETATM   14  C   UNL     1     -12.385  14.534  70.695  1.00  0.00    -0.407 C  
HETATM   15  C   UNL     1     -12.765  13.278  71.412  1.00  0.00    -0.309 C  
HETATM   16  C   UNL     1     -11.242  15.222  71.481  1.00  0.00    -0.369 C  
HETATM   17  C   UNL     1     -13.605  15.467  70.717  1.00  0.00    -0.263 C  
HETATM   18  N   UNL     1     -13.042  12.301  71.974  1.00  0.00    -0.412 NA 
ENDBRANCH   9  14
BRANCH  13  19
HETATM   19  C   UNL     1     -11.237  11.247  66.915  1.00  0.00    -0.230 C  
BRANCH  19  20
HETATM   20  N   UNL     1     -10.004  10.991  66.193  1.00  0.00    -0.222 NA 
HETATM   21  C   UNL     1      -8.729  11.033  66.671  1.00  0.00    -0.160 A  
HETATM   22  N   UNL     1      -7.915  10.481  65.800  1.00  0.00    -0.156 NA 
HETATM   23  C   UNL     1      -8.752  10.101  64.792  1.00  0.00    -0.185 A  
HETATM   24  N   UNL     1     -10.040  10.394  64.982  1.00  0.00    -0.323 NA 
ENDBRANCH  19  20
ENDBRANCH  13  19
ENDBRANCH   2   8
TORSDOF 5
ENDMDL
MODEL       23
REMARK 921   NORMALIZED FREE ENERGY PREDICTED BY IDOCK:   -6.08 KCAL/MOL
REMARK 922        TOTAL FREE ENERGY PREDICTED BY IDOCK:   -8.65 KCAL/MOL
REMARK 923 INTER-LIGAND FREE ENERGY PREDICTED BY IDOCK:   -8.21 KCAL/MOL
REMARK 924 INTRA-LIGAND FREE ENERGY PREDICTED BY IDOCK:   -0.44 KCAL/MOL
REMARK 927      BINDING AFFINITY PREDICTED BY RF-SCORE:    0.00 PKD
ROOT
HETATM    1  C   UNL     1     -12.609  12.944  65.178  1.00  0.00    -0.536 C  
HETATM    2  C   UNL     1     -11.369  13.866  65.133  1.00  0.00    -0.319 C  
HETATM    3  C   UNL     1     -10.295  13.133  64.294  1.00  0.00    -0.361 C  
ENDROOT
BRANCH   2   4
HETATM    4  C   UNL     1     -11.731  15.120  64.354  1.00  0.00    -0.295 C  
HETATM    5  H2  UNL     1     -11.112  16.267  63.278  1.00  0.00     0.000 HD 
HETATM    6  N   UNL     1     -12.031  16.161  63.708  1.00  0.00    -1.338 NA 
HETATM    7  H1  UNL     1     -12.274  17.002  63.186  1.00  0.00     0.000 HD 
ENDBRANCH   2   4
BRANCH   2   8
HETATM    8  C   UNL     1     -10.955  14.237  66.553  1.00  0.00    -0.316 A  
HETATM    9  C   UNL     1      -9.489  15.470  68.098  1.00  0.00    -0.198 A  
HETATM   10  C   UNL     1      -9.911  15.134  66.797  1.00  0.00    -0.251 A  
HETATM   11  C   UNL     1     -10.151  14.860  69.178  1.00  0.00    -0.227 A  
HETATM   12  C   UNL     1     -11.598  13.657  67.661  1.00  0.00    -0.381 A  
HETATM   13  C   UNL     1     -11.192  13.938  68.972  1.00  0.00    -0.312 A  
BRANCH   9  14
HETATM   14  C   UNL     1      -8.315  16.456  68.252  1.00  0.00    -0.189 C  
HETATM   15  C   UNL     1      -8.835  17.828  68.539  1.00  0.00    -0.283 C  
HETATM   16  C   UNL     1      -7.432  16.007  69.441  1.00  0.00    -0.201 C  
HETATM   17  C   UNL     1      -7.423  16.551  67.006  1.00  0.00    -0.239 C  
HETATM   18  N   UNL     1      -9.240  18.889  68.781  1.00  0.00    -0.337 NA 
ENDBRANCH   9  14
BRANCH  13  19
HETATM   19  C   UNL     1     -11.815  13.195  70.131  1.00  0.00    -0.257 C  
BRANCH  19  20
HETATM   20  N   UNL     1     -12.601  14.028  71.022  1.00  0.00    -0.346 NA 
HETATM   21  C   UNL     1     -13.461  13.631  72.001  1.00  0.00    -0.484 A  
HETATM   22  N   UNL     1     -13.767  14.657  72.762  1.00  0.00    -0.534 NA 
HETATM   23  C   UNL     1     -13.051  15.677  72.206  1.00  0.00    -0.456 A  
HETATM   24  N   UNL     1     -12.325  15.345  71.137  1.00  0.00    -0.349 NA 
ENDBRANCH  19  20
ENDBRANCH  13  19
ENDBRANCH   2   8
TORSDOF 5
ENDMDL
MODEL       24
REMARK 921   NORMALIZED FREE ENERGY PREDICTED BY IDOCK:   -6.07 KCAL/MOL
REMARK 922        TOTAL FREE ENERGY PREDICTED BY IDOCK:   -8.63 KCAL/MOL
REMARK 923 INTER-LIGAND FREE ENERGY PREDICTED BY IDOCK:   -7.88 KCAL/MOL
REMARK 924 INTRA-LIGAND FREE ENERGY PREDICTED BY IDOCK:   -0.75 KCAL/MOL
REMARK 927      BINDING AFFINITY PREDICTED BY RF-SCORE:    0.00 PKD
ROOT
HETATM    1  C   UNL     1      -9.076  11.615  68.062  1.00  0.00    -0.177 C  
HETATM    2  C   UNL     1     -10.596  11.766  67.822  1.00  0.00    -0.232 C  
HETATM    3  C   UNL     1     -10.871  11.299  66.373  1.00  0.00    -0.306 C  
ENDROOT
BRANCH   2   4
HETATM    4  C   UNL     1     -11.324  10.787  68.728  1.00  0.00    -0.288 C  
HETATM    5  H2  UNL     1     -12.085  10.648  70.232  1.00  0.00     0.000 HD 
HETATM    6  N   UNL     1     -11.929   9.975  69.481  1.00  0.00    -0.474 NA 
HETATM    7  H1  UNL     1     -12.417   9.318  70.089  1.00  0.00     0.000 HD 
ENDBRANCH   2   4
BRANCH   2   8
HETATM    8  C   UNL     1     -11.027  13.193  68.146  1.00  0.00    -0.275 A  
HETATM    9  C   UNL     1     -10.803  15.620  67.814  1.00  0.00    -0.307 A  
HETATM   10  C   UNL     1     -10.445  14.293  67.510  1.00  0.00    -0.252 A  
HETATM   11  C   UNL     1     -11.778  15.825  68.806  1.00  0.00    -0.387 A  
HETATM   12  C   UNL     1     -12.005  13.440  69.126  1.00  0.00    -0.363 A  
HETATM   13  C   UNL     1     -12.370  14.744  69.482  1.00  0.00    -0.214 A  
BRANCH   9  14
HETATM   14  C   UNL     1     -10.085  16.759  67.063  1.00  0.00    -0.276 C  
HETATM   15  C   UNL     1     -10.651  16.901  65.687  1.00  0.00    -0.221 C  
HETATM   16  C   UNL     1     -10.311  18.087  67.827  1.00  0.00    -0.403 C  
HETATM   17  C   UNL     1      -8.571  16.544  66.921  1.00  0.00    -0.237 C  
HETATM   18  N   UNL     1     -11.104  17.022  64.625  1.00  0.00    -1.014 NA 
ENDBRANCH   9  14
BRANCH  13  19
HETATM   19  C   UNL     1     -13.325  14.974  70.631  1.00  0.00    -0.237 C  
BRANCH  19  20
HETATM   20  N   UNL     1     -12.679  15.284  71.893  1.00  0.00    -0.333 NA 
HETATM   21  C   UNL     1     -12.021  16.426  72.241  1.00  0.00    -0.439 A  
HETATM   22  N   UNL     1     -11.816  16.438  73.538  1.00  0.00    -0.315 NA 
HETATM   23  C   UNL     1     -12.384  15.268  73.951  1.00  0.00    -0.626 A  
HETATM   24  N   UNL     1     -12.921  14.523  72.983  1.00  0.00    -0.503 NA 
ENDBRANCH  19  20
ENDBRANCH  13  19
ENDBRANCH   2   8
TORSDOF 5
ENDMDL
MODEL       25
REMARK 921   NORMALIZED FREE ENERGY PREDICTED BY IDOCK:   -6.02 KCAL/MOL
REMARK 922        TOTAL FREE ENERGY PREDICTED BY IDOCK:   -8.57 KCAL/MOL
REMARK 923 INTER-LIGAND FREE ENERGY PREDICTED BY IDOCK:   -7.68 KCAL/MOL
REMARK 924 INTRA-LIGAND FREE ENERGY PREDICTED BY IDOCK:   -0.89 KCAL/MOL
REMARK 927      BINDING AFFINITY PREDICTED BY RF-SCORE:    0.00 PKD
ROOT
HETATM    1  C   UNL     1     -11.715   9.392  70.580  1.00  0.00    -0.302 C  
HETATM    2  C   UNL     1     -10.767  10.122  69.602  1.00  0.00    -0.295 C  
HETATM    3  C   UNL     1      -9.329   9.918  70.132  1.00  0.00    -0.200 C  
ENDROOT
BRANCH   2   4
HETATM    4  C   UNL     1     -10.828   9.414  68.258  1.00  0.00    -0.112 C  
HETATM    5  H2  UNL     1     -10.198   8.106  67.391  1.00  0.00     0.000 HD 
HETATM    6  N   UNL     1     -10.877   8.826  67.143  1.00  0.00    -0.376 NA 
HETATM    7  H1  UNL     1     -10.917   8.351  66.242  1.00  0.00     0.000 HD 
ENDBRANCH   2   4
BRANCH   2   8
HETATM    8  C   UNL     1     -11.212  11.573  69.445  1.00  0.00    -0.324 A  
HETATM    9  C   UNL     1     -12.372  13.559  70.318  1.00  0.00    -0.370 A  
HETATM   10  C   UNL     1     -11.924  12.231  70.452  1.00  0.00    -0.349 A  
HETATM   11  C   UNL     1     -12.091  14.227  69.114  1.00  0.00    -0.337 A  
HETATM   12  C   UNL     1     -10.942  12.280  68.259  1.00  0.00    -0.268 A  
HETATM   13  C   UNL     1     -11.395  13.592  68.071  1.00  0.00    -0.318 A  
BRANCH   9  14
HETATM   14  C   UNL     1     -13.164  14.181  71.485  1.00  0.00    -0.423 C  
HETATM   15  C   UNL     1     -12.263  15.036  72.316  1.00  0.00    -0.357 C  
HETATM   16  C   UNL     1     -14.293  15.070  70.910  1.00  0.00    -0.041 C  
HETATM   17  C   UNL     1     -13.806  13.142  72.417  1.00  0.00    -0.583 C  
HETATM   18  N   UNL     1     -11.566  15.716  72.949  1.00  0.00    -0.389 NA 
ENDBRANCH   9  14
BRANCH  13  19
HETATM   19  C   UNL     1     -11.204  14.272  66.735  1.00  0.00    -0.332 C  
BRANCH  19  20
HETATM   20  N   UNL     1     -11.535  13.444  65.589  1.00  0.00    -0.311 NA 
HETATM   21  C   UNL     1     -12.772  13.103  65.131  1.00  0.00    -0.405 A  
HETATM   22  N   UNL     1     -12.668  12.579  63.932  1.00  0.00    -0.737 NA 
HETATM   23  C   UNL     1     -11.327  12.629  63.689  1.00  0.00    -0.481 A  
HETATM   24  N   UNL     1     -10.589  13.146  64.674  1.00  0.00    -0.370 NA 
ENDBRANCH  19  20
ENDBRANCH  13  19
ENDBRANCH   2   8
TORSDOF 5
ENDMDL
MODEL       26
REMARK 921   NORMALIZED FREE ENERGY PREDICTED BY IDOCK:   -6.01 KCAL/MOL
REMARK 922        TOTAL FREE ENERGY PREDICTED BY IDOCK:   -8.56 KCAL/MOL
REMARK 923 INTER-LIGAND FREE ENERGY PREDICTED BY IDOCK:   -7.85 KCAL/MOL
REMARK 924 INTRA-LIGAND FREE ENERGY PREDICTED BY IDOCK:   -0.70 KCAL/MOL
REMARK 927      BINDING AFFINITY PREDICTED BY RF-SCORE:    0.00 PKD
ROOT
HETATM    1  C   UNL     1      -8.547   8.540  67.895  1.00  0.00    -0.134 C  
HETATM    2  C   UNL     1      -9.692   8.811  66.893  1.00  0.00    -0.273 C  
HETATM    3  C   UNL     1      -9.051   8.889  65.487  1.00  0.00    -0.248 C  
ENDROOT
BRANCH   2   4
HETATM    4  C   UNL     1     -10.610   7.599  66.873  1.00  0.00    -0.289 C  
HETATM    5  H2  UNL     1     -12.230   7.134  66.745  1.00  0.00     0.000 HD 
HETATM    6  N   UNL     1     -11.372   6.594  66.857  1.00  0.00    -0.824 NA 
HETATM    7  H1  UNL     1     -11.987   5.781  66.844  1.00  0.00     0.000 HD 
ENDBRANCH   2   4
BRANCH   2   8
HETATM    8  C   UNL     1     -10.473  10.046  67.330  1.00  0.00    -0.313 A  
HETATM    9  C   UNL     1     -11.329  12.307  66.869  1.00  0.00    -0.392 A  
HETATM   10  C   UNL     1     -10.639  11.143  66.479  1.00  0.00    -0.314 A  
HETATM   11  C   UNL     1     -11.854  12.350  68.172  1.00  0.00    -0.372 A  
HETATM   12  C   UNL     1     -11.023  10.126  68.622  1.00  0.00    -0.273 A  
HETATM   13  C   UNL     1     -11.690  11.276  69.063  1.00  0.00    -0.410 A  
BRANCH   9  14
HETATM   14  C   UNL     1     -11.437  13.464  65.857  1.00  0.00    -0.344 C  
HETATM   15  C   UNL     1     -10.953  14.734  66.479  1.00  0.00    -0.325 C  
HETATM   16  C   UNL     1     -10.548  13.147  64.631  1.00  0.00    -0.410 C  
HETATM   17  C   UNL     1     -12.868  13.711  65.356  1.00  0.00    -0.440 C  
HETATM   18  N   UNL     1     -10.558  15.716  66.958  1.00  0.00    -0.308 NA 
ENDBRANCH   9  14
BRANCH  13  19
HETATM   19  C   UNL     1     -12.149  11.377  70.500  1.00  0.00    -0.394 C  
BRANCH  19  20
HETATM   20  N   UNL     1     -12.427  10.100  71.131  1.00  0.00    -0.354 NA 
HETATM   21  C   UNL     1     -11.564   9.296  71.813  1.00  0.00    -0.388 A  
HETATM   22  N   UNL     1     -12.240   8.374  72.460  1.00  0.00    -0.370 NA 
HETATM   23  C   UNL     1     -13.536   8.664  72.146  1.00  0.00    -0.398 A  
HETATM   24  N   UNL     1     -13.704   9.708  71.332  1.00  0.00    -0.279 NA 
ENDBRANCH  19  20
ENDBRANCH  13  19
ENDBRANCH   2   8
TORSDOF 5
ENDMDL
MODEL       27
REMARK 921   NORMALIZED FREE ENERGY PREDICTED BY IDOCK:   -6.00 KCAL/MOL
REMARK 922        TOTAL FREE ENERGY PREDICTED BY IDOCK:   -8.55 KCAL/MOL
REMARK 923 INTER-LIGAND FREE ENERGY PREDICTED BY IDOCK:   -8.06 KCAL/MOL
REMARK 924 INTRA-LIGAND FREE ENERGY PREDICTED BY IDOCK:   -0.49 KCAL/MOL
REMARK 927      BINDING AFFINITY PREDICTED BY RF-SCORE:    0.00 PKD
ROOT
HETATM    1  C   UNL     1     -10.351  13.813  65.191  1.00  0.00    -0.391 C  
HETATM    2  C   UNL     1     -11.576  12.911  65.462  1.00  0.00    -0.395 C  
HETATM    3  C   UNL     1     -12.772  13.850  65.747  1.00  0.00    -0.503 C  
ENDROOT
BRANCH   2   4
HETATM    4  C   UNL     1     -11.918  12.168  64.180  1.00  0.00    -0.408 C  
HETATM    5  H2  UNL     1     -13.114  11.993  62.999  1.00  0.00     0.000 HD 
HETATM    6  N   UNL     1     -12.202  11.552  63.117  1.00  0.00    -0.932 NA 
HETATM    7  H1  UNL     1     -12.430  11.053  62.257  1.00  0.00     0.000 HD 
ENDBRANCH   2   4
BRANCH   2   8
HETATM    8  C   UNL     1     -11.244  11.913  66.567  1.00  0.00    -0.383 A  
HETATM    9  C   UNL     1     -10.255   9.782  67.296  1.00  0.00    -0.289 A  
HETATM   10  C   UNL     1     -10.547  10.732  66.299  1.00  0.00    -0.257 A  
HETATM   11  C   UNL     1     -10.701  10.045  68.603  1.00  0.00    -0.256 A  
HETATM   12  C   UNL     1     -11.664  12.144  67.890  1.00  0.00    -0.403 A  
HETATM   13  C   UNL     1     -11.423  11.212  68.907  1.00  0.00    -0.363 A  
BRANCH   9  14
HETATM   14  C   UNL     1      -9.495   8.505  66.886  1.00  0.00    -0.237 C  
HETATM   15  C   UNL     1     -10.421   7.332  66.899  1.00  0.00    -0.299 C  
HETATM   16  C   UNL     1      -8.947   8.684  65.450  1.00  0.00    -0.181 C  
HETATM   17  C   UNL     1      -8.312   8.171  67.808  1.00  0.00    -0.128 C  
HETATM   18  N   UNL     1     -11.146   6.426  66.890  1.00  0.00    -0.363 NA 
ENDBRANCH   9  14
BRANCH  13  19
HETATM   19  C   UNL     1     -12.006  11.431  70.285  1.00  0.00    -0.373 C  
BRANCH  19  20
HETATM   20  N   UNL     1     -12.234  10.211  71.038  1.00  0.00    -0.342 NA 
HETATM   21  C   UNL     1     -11.308   9.402  71.625  1.00  0.00    -0.382 A  
HETATM   22  N   UNL     1     -11.909   8.560  72.434  1.00  0.00    -0.384 NA 
HETATM   23  C   UNL     1     -13.225   8.903  72.315  1.00  0.00    -0.447 A  
HETATM   24  N   UNL     1     -13.477   9.904  71.469  1.00  0.00    -0.344 NA 
ENDBRANCH  19  20
ENDBRANCH  13  19
ENDBRANCH   2   8
TORSDOF 5
ENDMDL
MODEL       28
REMARK 921   NORMALIZED FREE ENERGY PREDICTED BY IDOCK:   -5.96 KCAL/MOL
REMARK 922        TOTAL FREE ENERGY PREDICTED BY IDOCK:   -8.49 KCAL/MOL
REMARK 923 INTER-LIGAND FREE ENERGY PREDICTED BY IDOCK:   -7.58 KCAL/MOL
REMARK 924 INTRA-LIGAND FREE ENERGY PREDICTED BY IDOCK:   -0.91 KCAL/MOL
REMARK 927      BINDING AFFINITY PREDICTED BY RF-SCORE:    0.00 PKD
ROOT
HETATM    1  C   UNL     1     -13.088  12.483  64.387  1.00  0.00    -0.076 C  
HETATM    2  C   UNL     1     -11.792  13.273  64.682  1.00  0.00    -0.420 C  
HETATM    3  C   UNL     1     -10.683  12.667  63.788  1.00  0.00    -0.454 C  
ENDROOT
BRANCH   2   4
HETATM    4  C   UNL     1     -11.983  14.704  64.207  1.00  0.00    -0.386 C  
HETATM    5  H2  UNL     1     -11.184  16.003  63.479  1.00  0.00     0.000 HD 
HETATM    6  N   UNL     1     -12.141  15.892  63.813  1.00  0.00    -1.230 NA 
HETATM    7  H1  UNL     1     -12.270  16.852  63.495  1.00  0.00     0.000 HD 
ENDBRANCH   2   4
BRANCH   2   8
HETATM    8  C   UNL     1     -11.511  13.256  66.181  1.00  0.00    -0.359 A  
HETATM    9  C   UNL     1     -11.008  12.018  68.247  1.00  0.00    -0.275 A  
HETATM   10  C   UNL     1     -11.239  12.064  66.859  1.00  0.00    -0.375 A  
HETATM   11  C   UNL     1     -11.067  13.227  68.961  1.00  0.00    -0.291 A  
HETATM   12  C   UNL     1     -11.552  14.445  66.930  1.00  0.00    -0.404 A  
HETATM   13  C   UNL     1     -11.358  14.443  68.317  1.00  0.00    -0.311 A  
BRANCH   9  14
HETATM   14  C   UNL     1     -10.734  10.647  68.896  1.00  0.00    -0.254 C  
HETATM   15  C   UNL     1     -11.544  10.502  70.144  1.00  0.00    -0.326 C  
HETATM   16  C   UNL     1     -11.149   9.530  67.908  1.00  0.00    -0.053 C  
HETATM   17  C   UNL     1      -9.261  10.426  69.271  1.00  0.00    -0.198 C  
HETATM   18  N   UNL     1     -12.188  10.382  71.103  1.00  0.00    -0.368 NA 
ENDBRANCH   9  14
BRANCH  13  19
HETATM   19  C   UNL     1     -11.542  15.718  69.108  1.00  0.00    -0.392 C  
BRANCH  19  20
HETATM   20  N   UNL     1     -10.554  16.744  68.827  1.00  0.00    -0.328 NA 
HETATM   21  C   UNL     1      -9.202  16.669  68.977  1.00  0.00    -0.223 A  
HETATM   22  N   UNL     1      -8.635  17.685  68.368  1.00  0.00    -0.278 NA 
HETATM   23  C   UNL     1      -9.696  18.362  67.842  1.00  0.00    -0.308 A  
HETATM   24  N   UNL     1     -10.893  17.829  68.098  1.00  0.00    -0.274 NA 
ENDBRANCH  19  20
ENDBRANCH  13  19
ENDBRANCH   2   8
TORSDOF 5
ENDMDL
MODEL       29
REMARK 921   NORMALIZED FREE ENERGY PREDICTED BY IDOCK:   -5.95 KCAL/MOL
REMARK 922        TOTAL FREE ENERGY PREDICTED BY IDOCK:   -8.48 KCAL/MOL
REMARK 923 INTER-LIGAND FREE ENERGY PREDICTED BY IDOCK:   -7.96 KCAL/MOL
REMARK 924 INTRA-LIGAND FREE ENERGY PREDICTED BY IDOCK:   -0.51 KCAL/MOL
REMARK 927      BINDING AFFINITY PREDICTED BY RF-SCORE:    0.00 PKD
ROOT
HETATM    1  C   UNL     1     -10.621   8.452  72.449  1.00  0.00    -0.405 C  
HETATM    2  C   UNL     1     -11.877   8.579  71.557  1.00  0.00    -0.353 C  
HETATM    3  C   UNL     1     -12.090   7.203  70.881  1.00  0.00    -0.368 C  
ENDROOT
BRANCH   2   4
HETATM    4  C   UNL     1     -13.083   8.801  72.455  1.00  0.00    -0.391 C  
HETATM    5  H2  UNL     1     -14.762   8.622  72.529  1.00  0.00     0.000 HD 
HETATM    6  N   UNL     1     -14.085   8.985  73.199  1.00  0.00    -1.223 NA 
HETATM    7  H1  UNL     1     -14.894   9.135  73.801  1.00  0.00     0.000 HD 
ENDBRANCH   2   4
BRANCH   2   8
HETATM    8  C   UNL     1     -11.712   9.760  70.606  1.00  0.00    -0.377 A  
HETATM    9  C   UNL     1     -10.890  10.698  68.485  1.00  0.00    -0.275 A  
HETATM   10  C   UNL     1     -11.082   9.617  69.367  1.00  0.00    -0.170 A  
HETATM   11  C   UNL     1     -11.349  11.963  68.892  1.00  0.00    -0.335 A  
HETATM   12  C   UNL     1     -12.165  11.041  70.971  1.00  0.00    -0.456 A  
HETATM   13  C   UNL     1     -11.969  12.150  70.139  1.00  0.00    -0.394 A  
BRANCH   9  14
HETATM   14  C   UNL     1     -10.167  10.431  67.151  1.00  0.00    -0.271 C  
HETATM   15  C   UNL     1     -10.791  11.242  66.060  1.00  0.00    -0.213 C  
HETATM   16  C   UNL     1      -8.684  10.851  67.288  1.00  0.00    -0.131 C  
HETATM   17  C   UNL     1     -10.206   8.959  66.713  1.00  0.00    -0.348 C  
HETATM   18  N   UNL     1     -11.264  11.886  65.218  1.00  0.00    -0.314 NA 
ENDBRANCH   9  14
BRANCH  13  19
HETATM   19  C   UNL     1     -12.348  13.532  70.621  1.00  0.00    -0.358 C  
BRANCH  19  20
HETATM   20  N   UNL     1     -11.662  14.613  69.937  1.00  0.00    -0.282 NA 
HETATM   21  C   UNL     1     -11.885  15.083  68.677  1.00  0.00    -0.296 A  
HETATM   22  N   UNL     1     -11.263  16.229  68.519  1.00  0.00    -0.365 NA 
HETATM   23  C   UNL     1     -10.671  16.429  69.731  1.00  0.00    -0.324 A  
HETATM   24  N   UNL     1     -10.881  15.467  70.633  1.00  0.00    -0.316 NA 
ENDBRANCH  19  20
ENDBRANCH  13  19
ENDBRANCH   2   8
TORSDOF 5
ENDMDL
MODEL       30
REMARK 921   NORMALIZED FREE ENERGY PREDICTED BY IDOCK:   -5.94 KCAL/MOL
REMARK 922        TOTAL FREE ENERGY PREDICTED BY IDOCK:   -8.47 KCAL/MOL
REMARK 923 INTER-LIGAND FREE ENERGY PREDICTED BY IDOCK:   -7.57 KCAL/MOL
REMARK 924 INTRA-LIGAND FREE ENERGY PREDICTED BY IDOCK:   -0.89 KCAL/MOL
REMARK 927      BINDING AFFINITY PREDICTED BY RF-SCORE:    0.00 PKD
ROOT
HETATM    1  C   UNL     1     -11.462  16.249  69.185  1.00  0.00    -0.257 C  
HETATM    2  C   UNL     1     -11.797  15.094  70.156  1.00  0.00    -0.351 C  
HETATM    3  C   UNL     1     -10.830  15.221  71.357  1.00  0.00    -0.035 C  
ENDROOT
BRANCH   2   4
HETATM    4  C   UNL     1     -13.194  15.323  70.710  1.00  0.00    -0.390 C  
HETATM    5  H2  UNL     1     -14.245  16.524  71.267  1.00  0.00     0.000 HD 
HETATM    6  N   UNL     1     -14.352  15.514  71.170  1.00  0.00    -0.798 NA 
HETATM    7  H1  UNL     1     -15.289  15.667  71.542  1.00  0.00     0.000 HD 
ENDBRANCH   2   4
BRANCH   2   8
HETATM    8  C   UNL     1     -11.746  13.765  69.408  1.00  0.00    -0.379 A  
HETATM    9  C   UNL     1     -11.430  12.497  67.323  1.00  0.00    -0.416 A  
HETATM   10  C   UNL     1     -11.453  13.707  68.042  1.00  0.00    -0.345 A  
HETATM   11  C   UNL     1     -11.728  11.315  68.022  1.00  0.00    -0.305 A  
HETATM   12  C   UNL     1     -12.028  12.558  70.073  1.00  0.00    -0.372 A  
HETATM   13  C   UNL     1     -12.047  11.335  69.391  1.00  0.00    -0.384 A  
BRANCH   9  14
HETATM   14  C   UNL     1     -11.112  12.551  65.816  1.00  0.00    -0.343 C  
HETATM   15  C   UNL     1     -12.370  12.405  65.022  1.00  0.00    -0.369 C  
HETATM   16  C   UNL     1     -10.476  13.922  65.484  1.00  0.00    -0.333 C  
HETATM   17  C   UNL     1     -10.142  11.453  65.353  1.00  0.00    -0.308 C  
HETATM   18  N   UNL     1     -13.350  12.312  64.407  1.00  0.00    -0.632 NA 
ENDBRANCH   9  14
BRANCH  13  19
HETATM   19  C   UNL     1     -12.486  10.078  70.107  1.00  0.00     0.049 C  
BRANCH  19  20
HETATM   20  N   UNL     1     -11.508   9.551  71.042  1.00  0.00    -0.319 NA 
HETATM   21  C   UNL     1     -11.730   8.771  72.137  1.00  0.00    -0.363 A  
HETATM   22  N   UNL     1     -10.591   8.278  72.564  1.00  0.00    -0.337 NA 
HETATM   23  C   UNL     1      -9.684   8.783  71.679  1.00  0.00    -0.296 A  
HETATM   24  N   UNL     1     -10.194   9.572  70.730  1.00  0.00    -0.293 NA 
ENDBRANCH  19  20
ENDBRANCH  13  19
ENDBRANCH   2   8
TORSDOF 5
ENDMDL
MODEL       31
REMARK 921   NORMALIZED FREE ENERGY PREDICTED BY IDOCK:   -5.86 KCAL/MOL
REMARK 922        TOTAL FREE ENERGY PREDICTED BY IDOCK:   -8.36 KCAL/MOL
REMARK 923 INTER-LIGAND FREE ENERGY PREDICTED BY IDOCK:   -7.87 KCAL/MOL
REMARK 924 INTRA-LIGAND FREE ENERGY PREDICTED BY IDOCK:   -0.50 KCAL/MOL
REMARK 927      BINDING AFFINITY PREDICTED BY RF-SCORE:    0.00 PKD
ROOT
HETATM    1  C   UNL     1     -12.264  14.814  63.940  1.00  0.00    -0.023 C  
HETATM    2  C   UNL     1     -11.799  13.713  64.921  1.00  0.00    -0.398 C  
HETATM    3  C   UNL     1     -12.905  12.632  64.940  1.00  0.00    -0.312 C  
ENDROOT
BRANCH   2   4
HETATM    4  C   UNL     1     -10.563  13.045  64.341  1.00  0.00    -0.409 C  
HETATM    5  H2  UNL     1      -9.256  12.049  64.738  1.00  0.00     0.000 HD 
HETATM    6  N   UNL     1      -9.537  12.490  63.862  1.00  0.00    -0.614 NA 
HETATM    7  H1  UNL     1      -8.707  12.042  63.473  1.00  0.00     0.000 HD 
ENDBRANCH   2   4
BRANCH   2   8
HETATM    8  C   UNL     1     -11.467  14.338  66.272  1.00  0.00    -0.360 A  
HETATM    9  C   UNL     1     -10.483  16.162  67.599  1.00  0.00    -0.292 A  
HETATM   10  C   UNL     1     -10.828  15.578  66.365  1.00  0.00    -0.277 A  
HETATM   11  C   UNL     1     -10.792  15.448  68.770  1.00  0.00    -0.252 A  
HETATM   12  C   UNL     1     -11.769  13.662  67.467  1.00  0.00    -0.406 A  
HETATM   13  C   UNL     1     -11.416  14.190  68.716  1.00  0.00    -0.333 A  
BRANCH   9  14
HETATM   14  C   UNL     1      -9.764  17.525  67.585  1.00  0.00    -0.275 C  
HETATM   15  C   UNL     1     -10.251  18.348  66.436  1.00  0.00    -0.410 C  
HETATM   16  C   UNL     1     -10.084  18.277  68.900  1.00  0.00    -0.358 C  
HETATM   17  C   UNL     1      -8.237  17.415  67.460  1.00  0.00    -0.209 C  
HETATM   18  N   UNL     1     -10.645  18.994  65.555  1.00  0.00    -0.512 NA 
ENDBRANCH   9  14
BRANCH  13  19
HETATM   19  C   UNL     1     -11.634  13.374  69.970  1.00  0.00    -0.148 C  
BRANCH  19  20
HETATM   20  N   UNL     1     -12.725  13.842  70.805  1.00  0.00    -0.329 NA 
HETATM   21  C   UNL     1     -13.227  13.263  71.932  1.00  0.00    -0.431 A  
HETATM   22  N   UNL     1     -14.015  14.113  72.550  1.00  0.00    -0.633 NA 
HETATM   23  C   UNL     1     -13.956  15.222  71.757  1.00  0.00    -0.539 A  
HETATM   24  N   UNL     1     -13.184  15.106  70.674  1.00  0.00    -0.349 NA 
ENDBRANCH  19  20
ENDBRANCH  13  19
ENDBRANCH   2   8
TORSDOF 5
ENDMDL
MODEL       32
REMARK 921   NORMALIZED FREE ENERGY PREDICTED BY IDOCK:   -5.85 KCAL/MOL
REMARK 922        TOTAL FREE ENERGY PREDICTED BY IDOCK:   -8.35 KCAL/MOL
REMARK 923 INTER-LIGAND FREE ENERGY PREDICTED BY IDOCK:   -7.60 KCAL/MOL
REMARK 924 INTRA-LIGAND FREE ENERGY PREDICTED BY IDOCK:   -0.75 KCAL/MOL
REMARK 927      BINDING AFFINITY PREDICTED BY RF-SCORE:    0.00 PKD
ROOT
HETATM    1  C   UNL     1      -6.890  15.498  67.296  1.00  0.00    -0.168 C  
HETATM    2  C   UNL     1      -7.725  15.912  68.530  1.00  0.00    -0.147 C  
HETATM    3  C   UNL     1      -7.032  15.297  69.769  1.00  0.00    -0.168 C  
ENDROOT
BRANCH   2   4
HETATM    4  C   UNL     1      -7.623  17.420  68.693  1.00  0.00    -0.265 C  
HETATM    5  H2  UNL     1      -8.486  18.860  68.497  1.00  0.00     0.000 HD 
HETATM    6  N   UNL     1      -7.540  18.671  68.828  1.00  0.00    -0.310 NA 
HETATM    7  H1  UNL     1      -7.472  19.683  68.937  1.00  0.00     0.000 HD 
ENDBRANCH   2   4
BRANCH   2   8
HETATM    8  C   UNL     1      -9.181  15.509  68.322  1.00  0.00    -0.188 A  
HETATM    9  C   UNL     1     -10.996  14.740  66.849  1.00  0.00    -0.328 A  
HETATM   10  C   UNL     1      -9.650  15.087  67.074  1.00  0.00    -0.233 A  
HETATM   11  C   UNL     1     -11.887  14.838  67.931  1.00  0.00    -0.327 A  
HETATM   12  C   UNL     1     -10.103  15.585  69.381  1.00  0.00    -0.266 A  
HETATM   13  C   UNL     1     -11.457  15.278  69.195  1.00  0.00    -0.330 A  
BRANCH   9  14
HETATM   14  C   UNL     1     -11.408  14.304  65.429  1.00  0.00    -0.329 C  
HETATM   15  C   UNL     1     -11.553  15.503  64.549  1.00  0.00    -0.283 C  
HETATM   16  C   UNL     1     -10.305  13.391  64.841  1.00  0.00    -0.382 C  
HETATM   17  C   UNL     1     -12.737  13.533  65.384  1.00  0.00    -0.495 C  
HETATM   18  N   UNL     1     -11.646  16.434  63.861  1.00  0.00    -1.054 NA 
ENDBRANCH   9  14
BRANCH  13  19
HETATM   19  C   UNL     1     -12.443  15.500  70.320  1.00  0.00    -0.367 C  
BRANCH  19  20
HETATM   20  N   UNL     1     -12.658  14.338  71.164  1.00  0.00    -0.339 NA 
HETATM   21  C   UNL     1     -13.310  14.279  72.358  1.00  0.00    -0.474 A  
HETATM   22  N   UNL     1     -13.532  13.024  72.677  1.00  0.00    -0.517 NA 
HETATM   23  C   UNL     1     -12.997  12.340  71.625  1.00  0.00    -0.311 A  
HETATM   24  N   UNL     1     -12.446  13.098  70.674  1.00  0.00    -0.321 NA 
ENDBRANCH  19  20
ENDBRANCH  13  19
ENDBRANCH   2   8
TORSDOF 5
ENDMDL
MODEL       33
REMARK 921   NORMALIZED FREE ENERGY PREDICTED BY IDOCK:   -5.83 KCAL/MOL
REMARK 922        TOTAL FREE ENERGY PREDICTED BY IDOCK:   -8.32 KCAL/MOL
REMARK 923 INTER-LIGAND FREE ENERGY PREDICTED BY IDOCK:   -7.47 KCAL/MOL
REMARK 924 INTRA-LIGAND FREE ENERGY PREDICTED BY IDOCK:   -0.85 KCAL/MOL
REMARK 927      BINDING AFFINITY PREDICTED BY RF-SCORE:    0.00 PKD
ROOT
HETATM    1  C   UNL     1      -9.439  17.377  66.601  1.00  0.00    -0.285 C  
HETATM    2  C   UNL     1      -9.347  17.259  68.139  1.00  0.00    -0.274 C  
HETATM    3  C   UNL     1      -7.844  17.155  68.493  1.00  0.00    -0.257 C  
ENDROOT
BRANCH   2   4
HETATM    4  C   UNL     1      -9.837  18.562  68.751  1.00  0.00    -0.376 C  
HETATM    5  H2  UNL     1      -9.311  19.991  69.485  1.00  0.00     0.000 HD 
HETATM    6  N   UNL     1     -10.242  19.643  69.259  1.00  0.00    -0.628 NA 
HETATM    7  H1  UNL     1     -10.571  20.516  69.669  1.00  0.00     0.000 HD 
ENDBRANCH   2   4
BRANCH   2   8
HETATM    8  C   UNL     1     -10.217  16.101  68.617  1.00  0.00    -0.244 A  
HETATM    9  C   UNL     1     -10.920  13.749  68.458  1.00  0.00    -0.283 A  
HETATM   10  C   UNL     1     -10.107  14.826  68.056  1.00  0.00    -0.218 A  
HETATM   11  C   UNL     1     -11.879  13.989  69.457  1.00  0.00    -0.378 A  
HETATM   12  C   UNL     1     -11.182  16.298  69.621  1.00  0.00    -0.311 A  
HETATM   13  C   UNL     1     -12.032  15.263  70.031  1.00  0.00    -0.375 A  
BRANCH   9  14
HETATM   14  C   UNL     1     -10.726  12.389  67.759  1.00  0.00    -0.247 C  
HETATM   15  C   UNL     1     -11.507  12.353  66.485  1.00  0.00    -0.371 C  
HETATM   16  C   UNL     1      -9.227  12.204  67.422  1.00  0.00    -0.182 C  
HETATM   17  C   UNL     1     -11.174  11.190  68.609  1.00  0.00    -0.314 C  
HETATM   18  N   UNL     1     -12.098  12.334  65.486  1.00  0.00    -0.553 NA 
ENDBRANCH   9  14
BRANCH  13  19
HETATM   19  C   UNL     1     -13.146  15.545  71.014  1.00  0.00    -0.489 C  
BRANCH  19  20
HETATM   20  N   UNL     1     -12.714  15.628  72.397  1.00  0.00    -0.388 NA 
HETATM   21  C   UNL     1     -12.767  16.707  73.229  1.00  0.00     0.081 A  
HETATM   22  N   UNL     1     -12.543  16.321  74.464  1.00  0.00    -0.773 NA 
HETATM   23  C   UNL     1     -12.366  14.974  74.340  1.00  0.00    -0.308 A  
HETATM   24  N   UNL     1     -12.456  14.501  73.095  1.00  0.00    -0.298 NA 
ENDBRANCH  19  20
ENDBRANCH  13  19
ENDBRANCH   2   8
TORSDOF 5
ENDMDL
MODEL       34
REMARK 921   NORMALIZED FREE ENERGY PREDICTED BY IDOCK:   -5.80 KCAL/MOL
REMARK 922        TOTAL FREE ENERGY PREDICTED BY IDOCK:   -8.29 KCAL/MOL
REMARK 923 INTER-LIGAND FREE ENERGY PREDICTED BY IDOCK:   -7.57 KCAL/MOL
REMARK 924 INTRA-LIGAND FREE ENERGY PREDICTED BY IDOCK:   -0.72 KCAL/MOL
REMARK 927      BINDING AFFINITY PREDICTED BY RF-SCORE:    0.00 PKD
ROOT
HETATM    1  C   UNL     1      -9.652  13.842  66.417  1.00  0.00    -0.292 C  
HETATM    2  C   UNL     1     -11.032  14.309  66.935  1.00  0.00    -0.304 C  
HETATM    3  C   UNL     1     -10.930  15.834  67.173  1.00  0.00    -0.244 C  
ENDROOT
BRANCH   2   4
HETATM    4  C   UNL     1     -12.050  14.121  65.822  1.00  0.00    -0.420 C  
HETATM    5  H2  UNL     1     -13.233  13.064  65.239  1.00  0.00     0.000 HD 
HETATM    6  N   UNL     1     -12.896  13.964  64.899  1.00  0.00    -0.715 NA 
HETATM    7  H1  UNL     1     -13.579  13.838  64.153  1.00  0.00     0.000 HD 
ENDBRANCH   2   4
BRANCH   2   8
HETATM    8  C   UNL     1     -11.431  13.478  68.150  1.00  0.00    -0.338 A  
HETATM    9  C   UNL     1     -12.426  13.315  70.394  1.00  0.00    -0.295 A  
HETATM   10  C   UNL     1     -12.075  14.054  69.248  1.00  0.00    -0.380 A  
HETATM   11  C   UNL     1     -12.097  11.949  70.418  1.00  0.00    -0.421 A  
HETATM   12  C   UNL     1     -11.129  12.106  68.209  1.00  0.00    -0.288 A  
HETATM   13  C   UNL     1     -11.431  11.338  69.341  1.00  0.00    -0.370 A  
BRANCH   9  14
HETATM   14  C   UNL     1     -13.118  14.056  71.556  1.00  0.00    -0.436 C  
HETATM   15  C   UNL     1     -12.113  14.848  72.328  1.00  0.00    -0.323 C  
HETATM   16  C   UNL     1     -14.172  15.029  70.976  1.00  0.00    -0.264 C  
HETATM   17  C   UNL     1     -13.829  13.120  72.545  1.00  0.00    -0.495 C  
HETATM   18  N   UNL     1     -11.334  15.478  72.915  1.00  0.00    -0.164 NA 
ENDBRANCH   9  14
BRANCH  13  19
HETATM   19  C   UNL     1     -10.972   9.901  69.423  1.00  0.00    -0.230 C  
BRANCH  19  20
HETATM   20  N   UNL     1     -10.934   9.361  70.771  1.00  0.00    -0.277 NA 
HETATM   21  C   UNL     1     -11.929   8.720  71.446  1.00  0.00    -0.310 A  
HETATM   22  N   UNL     1     -11.434   8.147  72.519  1.00  0.00    -0.396 NA 
HETATM   23  C   UNL     1     -10.108   8.462  72.453  1.00  0.00    -0.316 A  
HETATM   24  N   UNL     1      -9.752   9.208  71.405  1.00  0.00    -0.294 NA 
ENDBRANCH  19  20
ENDBRANCH  13  19
ENDBRANCH   2   8
TORSDOF 5
ENDMDL
MODEL       35
REMARK 921   NORMALIZED FREE ENERGY PREDICTED BY IDOCK:   -5.80 KCAL/MOL
REMARK 922        TOTAL FREE ENERGY PREDICTED BY IDOCK:   -8.28 KCAL/MOL
REMARK 923 INTER-LIGAND FREE ENERGY PREDICTED BY IDOCK:   -7.75 KCAL/MOL
REMARK 924 INTRA-LIGAND FREE ENERGY PREDICTED BY IDOCK:   -0.53 KCAL/MOL
REMARK 927      BINDING AFFINITY PREDICTED BY RF-SCORE:    0.00 PKD
ROOT
HETATM    1  C   UNL     1     -10.441  13.873  65.380  1.00  0.00    -0.357 C  
HETATM    2  C   UNL     1     -11.670  12.968  65.622  1.00  0.00    -0.418 C  
HETATM    3  C   UNL     1     -12.860  13.901  65.944  1.00  0.00    -0.387 C  
ENDROOT
BRANCH   2   4
HETATM    4  C   UNL     1     -12.018  12.273  64.315  1.00  0.00    -0.407 C  
HETATM    5  H2  UNL     1     -12.719  12.524  62.798  1.00  0.00     0.000 HD 
HETATM    6  N   UNL     1     -12.308  11.697  63.231  1.00  0.00    -0.915 NA 
HETATM    7  H1  UNL     1     -12.542  11.231  62.355  1.00  0.00     0.000 HD 
ENDBRANCH   2   4
BRANCH   2   8
HETATM    8  C   UNL     1     -11.339  11.930  66.690  1.00  0.00    -0.400 A  
HETATM    9  C   UNL     1     -10.327   9.785  67.344  1.00  0.00    -0.297 A  
HETATM   10  C   UNL     1     -10.618  10.772  66.383  1.00  0.00    -0.266 A  
HETATM   11  C   UNL     1     -10.797   9.986  68.653  1.00  0.00    -0.265 A  
HETATM   12  C   UNL     1     -11.783  12.098  68.013  1.00  0.00    -0.409 A  
HETATM   13  C   UNL     1     -11.543  11.128  68.994  1.00  0.00    -0.392 A  
BRANCH   9  14
HETATM   14  C   UNL     1      -9.540   8.538  66.893  1.00  0.00    -0.257 C  
HETATM   15  C   UNL     1      -8.479   8.214  67.895  1.00  0.00    -0.132 C  
HETATM   16  C   UNL     1     -10.511   7.337  66.798  1.00  0.00    -0.311 C  
HETATM   17  C   UNL     1      -8.853   8.704  65.529  1.00  0.00    -0.220 C  
HETATM   18  N   UNL     1      -7.668   7.952  68.683  1.00  0.00    -0.111 NA 
ENDBRANCH   9  14
BRANCH  13  19
HETATM   19  C   UNL     1     -12.150  11.279  70.371  1.00  0.00    -0.384 C  
BRANCH  19  20
HETATM   20  N   UNL     1     -12.369  10.025  71.069  1.00  0.00    -0.334 NA 
HETATM   21  C   UNL     1     -11.446   9.239  71.690  1.00  0.00    -0.398 A  
HETATM   22  N   UNL     1     -12.058   8.344  72.431  1.00  0.00    -0.389 NA 
HETATM   23  C   UNL     1     -13.377   8.632  72.236  1.00  0.00    -0.375 A  
HETATM   24  N   UNL     1     -13.621   9.650  71.408  1.00  0.00    -0.329 NA 
ENDBRANCH  19  20
ENDBRANCH  13  19
ENDBRANCH   2   8
TORSDOF 5
ENDMDL
MODEL       36
REMARK 921   NORMALIZED FREE ENERGY PREDICTED BY IDOCK:   -5.79 KCAL/MOL
REMARK 922        TOTAL FREE ENERGY PREDICTED BY IDOCK:   -8.27 KCAL/MOL
REMARK 923 INTER-LIGAND FREE ENERGY PREDICTED BY IDOCK:   -7.46 KCAL/MOL
REMARK 924 INTRA-LIGAND FREE ENERGY PREDICTED BY IDOCK:   -0.81 KCAL/MOL
REMARK 927      BINDING AFFINITY PREDICTED BY RF-SCORE:    0.00 PKD
ROOT
HETATM    1  C   UNL     1      -9.491  10.331  67.034  1.00  0.00    -0.191 C  
HETATM    2  C   UNL     1     -10.158  11.637  67.525  1.00  0.00    -0.209 C  
HETATM    3  C   UNL     1      -9.061  12.728  67.531  1.00  0.00    -0.193 C  
ENDROOT
BRANCH   2   4
HETATM    4  C   UNL     1     -11.182  12.071  66.488  1.00  0.00    -0.334 C  
HETATM    5  H2  UNL     1     -11.388  13.038  65.118  1.00  0.00     0.000 HD 
HETATM    6  N   UNL     1     -12.030  12.432  65.628  1.00  0.00    -0.530 NA 
HETATM    7  H1  UNL     1     -12.717  12.723  64.933  1.00  0.00     0.000 HD 
ENDBRANCH   2   4
BRANCH   2   8
HETATM    8  C   UNL     1     -10.846  11.388  68.863  1.00  0.00    -0.259 A  
HETATM    9  C   UNL     1     -11.338   9.917  70.773  1.00  0.00    -0.430 A  
HETATM   10  C   UNL     1     -10.689  10.182  69.552  1.00  0.00    -0.277 A  
HETATM   11  C   UNL     1     -12.181  10.913  71.296  1.00  0.00    -0.395 A  
HETATM   12  C   UNL     1     -11.690  12.362  69.426  1.00  0.00    -0.384 A  
HETATM   13  C   UNL     1     -12.380  12.130  70.622  1.00  0.00    -0.385 A  
BRANCH   9  14
HETATM   14  C   UNL     1     -11.107   8.546  71.439  1.00  0.00    -0.328 C  
HETATM   15  C   UNL     1     -11.435   7.449  70.478  1.00  0.00    -0.255 C  
HETATM   16  C   UNL     1      -9.616   8.423  71.835  1.00  0.00    -0.324 C  
HETATM   17  C   UNL     1     -11.954   8.325  72.701  1.00  0.00    -0.360 C  
HETATM   18  N   UNL     1     -11.672   6.598  69.724  1.00  0.00    -0.296 NA 
ENDBRANCH   9  14
BRANCH  13  19
HETATM   19  C   UNL     1     -13.381  13.144  71.126  1.00  0.00     0.061 C  
BRANCH  19  20
HETATM   20  N   UNL     1     -12.804  14.204  71.933  1.00  0.00    -0.335 NA 
HETATM   21  C   UNL     1     -11.963  15.199  71.534  1.00  0.00    -0.360 A  
HETATM   22  N   UNL     1     -11.880  16.109  72.477  1.00  0.00    -0.527 NA 
HETATM   23  C   UNL     1     -12.708  15.625  73.448  1.00  0.00    -0.542 A  
HETATM   24  N   UNL     1     -13.294  14.460  73.165  1.00  0.00    -0.612 NA 
ENDBRANCH  19  20
ENDBRANCH  13  19
ENDBRANCH   2   8
TORSDOF 5
ENDMDL
MODEL       37
REMARK 921   NORMALIZED FREE ENERGY PREDICTED BY IDOCK:   -5.78 KCAL/MOL
REMARK 922        TOTAL FREE ENERGY PREDICTED BY IDOCK:   -8.27 KCAL/MOL
REMARK 923 INTER-LIGAND FREE ENERGY PREDICTED BY IDOCK:   -7.42 KCAL/MOL
REMARK 924 INTRA-LIGAND FREE ENERGY PREDICTED BY IDOCK:   -0.84 KCAL/MOL
REMARK 927      BINDING AFFINITY PREDICTED BY RF-SCORE:    0.00 PKD
ROOT
HETATM    1  C   UNL     1     -10.272  18.865  68.701  1.00  0.00    -0.371 C  
HETATM    2  C   UNL     1      -9.708  17.620  67.979  1.00  0.00    -0.301 C  
HETATM    3  C   UNL     1      -9.502  18.014  66.497  1.00  0.00    -0.306 C  
ENDROOT
BRANCH   2   4
HETATM    4  C   UNL     1      -8.324  17.329  68.536  1.00  0.00    -0.267 C  
HETATM    5  H2  UNL     1      -7.415  16.158  69.349  1.00  0.00     0.000 HD 
HETATM    6  N   UNL     1      -7.176  17.086  68.999  1.00  0.00    -0.236 NA 
HETATM    7  H1  UNL     1      -6.248  16.891  69.373  1.00  0.00     0.000 HD 
ENDBRANCH   2   4
BRANCH   2   8
HETATM    8  C   UNL     1     -10.627  16.427  68.221  1.00  0.00    -0.318 A  
HETATM    9  C   UNL     1     -12.018  15.074  69.733  1.00  0.00    -0.366 A  
HETATM   10  C   UNL     1     -11.192  16.185  69.476  1.00  0.00    -0.337 A  
HETATM   11  C   UNL     1     -12.262  14.181  68.675  1.00  0.00    -0.216 A  
HETATM   12  C   UNL     1     -10.904  15.515  67.187  1.00  0.00    -0.316 A  
HETATM   13  C   UNL     1     -11.694  14.380  67.405  1.00  0.00    -0.424 A  
BRANCH   9  14
HETATM   14  C   UNL     1     -12.575  14.893  71.159  1.00  0.00    -0.404 C  
HETATM   15  C   UNL     1     -12.707  13.438  71.476  1.00  0.00    -0.293 C  
HETATM   16  C   UNL     1     -11.591  15.530  72.169  1.00  0.00    -0.552 C  
HETATM   17  C   UNL     1     -13.954  15.539  71.367  1.00  0.00    -0.476 C  
HETATM   18  N   UNL     1     -12.790  12.308  71.728  1.00  0.00    -0.302 NA 
ENDBRANCH   9  14
BRANCH  13  19
HETATM   19  C   UNL     1     -11.860  13.353  66.308  1.00  0.00    -0.394 C  
BRANCH  19  20
HETATM   20  N   UNL     1     -11.179  12.096  66.559  1.00  0.00    -0.311 NA 
HETATM   21  C   UNL     1      -9.871  11.790  66.330  1.00  0.00    -0.221 A  
HETATM   22  N   UNL     1      -9.571  10.662  66.931  1.00  0.00    -0.168 NA 
HETATM   23  C   UNL     1     -10.743  10.312  67.534  1.00  0.00    -0.294 A  
HETATM   24  N   UNL     1     -11.760  11.154  67.333  1.00  0.00    -0.548 NA 
ENDBRANCH  19  20
ENDBRANCH  13  19
ENDBRANCH   2   8
TORSDOF 5
ENDMDL
MODEL       38
REMARK 921   NORMALIZED FREE ENERGY PREDICTED BY IDOCK:   -5.77 KCAL/MOL
REMARK 922        TOTAL FREE ENERGY PREDICTED BY IDOCK:   -8.24 KCAL/MOL
REMARK 923 INTER-LIGAND FREE ENERGY PREDICTED BY IDOCK:   -7.45 KCAL/MOL
REMARK 924 INTRA-LIGAND FREE ENERGY PREDICTED BY IDOCK:   -0.79 KCAL/MOL
REMARK 927      BINDING AFFINITY PREDICTED BY RF-SCORE:    0.00 PKD
ROOT
HETATM    1  C   UNL     1     -14.220  15.190  71.123  1.00  0.00    -0.433 C  
HETATM    2  C   UNL     1     -12.947  14.420  71.545  1.00  0.00    -0.406 C  
HETATM    3  C   UNL     1     -12.308  15.213  72.710  1.00  0.00    -0.485 C  
ENDROOT
BRANCH   2   4
HETATM    4  C   UNL     1     -13.368  13.079  72.125  1.00  0.00    -0.524 C  
HETATM    5  H2  UNL     1     -14.672  12.258  72.818  1.00  0.00     0.000 HD 
HETATM    6  N   UNL     1     -13.718  11.967  72.606  1.00  0.00    -0.355 NA 
HETATM    7  H1  UNL     1     -14.000  11.068  72.996  1.00  0.00     0.000 HD 
ENDBRANCH   2   4
BRANCH   2   8
HETATM    8  C   UNL     1     -12.053  14.202  70.329  1.00  0.00    -0.412 A  
HETATM    9  C   UNL     1     -10.313  15.003  68.785  1.00  0.00    -0.240 A  
HETATM   10  C   UNL     1     -11.127  15.167  69.921  1.00  0.00    -0.302 A  
HETATM   11  C   UNL     1     -10.460  13.821  68.039  1.00  0.00    -0.245 A  
HETATM   12  C   UNL     1     -12.163  13.029  69.561  1.00  0.00    -0.198 A  
HETATM   13  C   UNL     1     -11.395  12.837  68.405  1.00  0.00    -0.331 A  
BRANCH   9  14
HETATM   14  C   UNL     1      -9.337  16.138  68.416  1.00  0.00    -0.206 C  
HETATM   15  C   UNL     1      -9.918  17.458  68.809  1.00  0.00    -0.329 C  
HETATM   16  C   UNL     1      -8.012  15.935  69.189  1.00  0.00    -0.233 C  
HETATM   17  C   UNL     1      -9.008  16.205  66.917  1.00  0.00    -0.248 C  
HETATM   18  N   UNL     1     -10.362  18.481  69.132  1.00  0.00    -0.093 NA 
ENDBRANCH   9  14
BRANCH  13  19
HETATM   19  C   UNL     1     -11.635  11.627  67.532  1.00  0.00    -0.272 C  
BRANCH  19  20
HETATM   20  N   UNL     1     -11.563  11.894  66.107  1.00  0.00    -0.458 NA 
HETATM   21  C   UNL     1     -10.758  11.301  65.181  1.00  0.00    -0.246 A  
HETATM   22  N   UNL     1     -11.172  11.612  63.974  1.00  0.00    -0.374 NA 
HETATM   23  C   UNL     1     -12.258  12.403  64.214  1.00  0.00    -0.452 A  
HETATM   24  N   UNL     1     -12.537  12.610  65.503  1.00  0.00    -0.605 NA 
ENDBRANCH  19  20
ENDBRANCH  13  19
ENDBRANCH   2   8
TORSDOF 5
ENDMDL
MODEL       39
REMARK 921   NORMALIZED FREE ENERGY PREDICTED BY IDOCK:   -5.75 KCAL/MOL
REMARK 922        TOTAL FREE ENERGY PREDICTED BY IDOCK:   -8.21 KCAL/MOL
REMARK 923 INTER-LIGAND FREE ENERGY PREDICTED BY IDOCK:   -7.38 KCAL/MOL
REMARK 924 INTRA-LIGAND FREE ENERGY PREDICTED BY IDOCK:   -0.84 KCAL/MOL
REMARK 927      BINDING AFFINITY PREDICTED BY RF-SCORE:    0.00 PKD
ROOT
HETATM    1  C   UNL     1     -12.143  14.659  64.217  1.00  0.00    -0.437 C  
HETATM    2  C   UNL     1     -11.816  13.242  64.742  1.00  0.00    -0.411 C  
HETATM    3  C   UNL     1     -12.909  12.296  64.193  1.00  0.00    -0.371 C  
ENDROOT
BRANCH   2   4
HETATM    4  C   UNL     1     -10.508  12.788  64.115  1.00  0.00    -0.413 C  
HETATM    5  H2  UNL     1      -8.862  12.571  64.432  1.00  0.00     0.000 HD 
HETATM    6  N   UNL     1      -9.422  12.411  63.595  1.00  0.00    -0.577 NA 
HETATM    7  H1  UNL     1      -8.545  12.107  63.174  1.00  0.00     0.000 HD 
ENDBRANCH   2   4
BRANCH   2   8
HETATM    8  C   UNL     1     -11.678  13.278  66.261  1.00  0.00    -0.412 A  
HETATM    9  C   UNL     1     -11.040  14.462  68.321  1.00  0.00    -0.275 A  
HETATM   10  C   UNL     1     -11.206  14.414  66.924  1.00  0.00    -0.340 A  
HETATM   11  C   UNL     1     -11.359  13.308  69.058  1.00  0.00    -0.334 A  
HETATM   12  C   UNL     1     -11.995  12.148  67.035  1.00  0.00    -0.156 A  
HETATM   13  C   UNL     1     -11.817  12.140  68.425  1.00  0.00    -0.360 A  
BRANCH   9  14
HETATM   14  C   UNL     1     -10.495  15.760  68.947  1.00  0.00    -0.223 C  
HETATM   15  C   UNL     1     -11.142  16.000  70.273  1.00  0.00    -0.374 C  
HETATM   16  C   UNL     1      -8.970  15.614  69.163  1.00  0.00    -0.257 C  
HETATM   17  C   UNL     1     -10.735  17.008  68.084  1.00  0.00    -0.374 C  
HETATM   18  N   UNL     1     -11.631  16.174  71.312  1.00  0.00    -0.439 NA 
ENDBRANCH   9  14
BRANCH  13  19
HETATM   19  C   UNL     1     -12.040  10.866  69.207  1.00  0.00    -0.261 C  
BRANCH  19  20
HETATM   20  N   UNL     1     -10.859  10.367  69.887  1.00  0.00    -0.286 NA 
HETATM   21  C   UNL     1     -10.799   9.601  71.012  1.00  0.00    -0.342 A  
HETATM   22  N   UNL     1      -9.582   9.131  71.160  1.00  0.00    -0.283 NA 
HETATM   23  C   UNL     1      -8.922   9.635  70.078  1.00  0.00    -0.237 A  
HETATM   24  N   UNL     1      -9.658  10.402  69.270  1.00  0.00    -0.216 NA 
ENDBRANCH  19  20
ENDBRANCH  13  19
ENDBRANCH   2   8
TORSDOF 5
ENDMDL
MODEL       40
REMARK 921   NORMALIZED FREE ENERGY PREDICTED BY IDOCK:   -5.72 KCAL/MOL
REMARK 922        TOTAL FREE ENERGY PREDICTED BY IDOCK:   -8.18 KCAL/MOL
REMARK 923 INTER-LIGAND FREE ENERGY PREDICTED BY IDOCK:   -7.40 KCAL/MOL
REMARK 924 INTRA-LIGAND FREE ENERGY PREDICTED BY IDOCK:   -0.78 KCAL/MOL
REMARK 927      BINDING AFFINITY PREDICTED BY RF-SCORE:    0.00 PKD
ROOT
HETATM    1  C   UNL     1      -9.098  15.704  69.458  1.00  0.00    -0.240 C  
HETATM    2  C   UNL     1     -10.552  15.840  68.949  1.00  0.00    -0.233 C  
HETATM    3  C   UNL     1     -11.410  16.295  70.153  1.00  0.00    -0.292 C  
ENDROOT
BRANCH   2   4
HETATM    4  C   UNL     1     -10.602  16.976  67.939  1.00  0.00    -0.365 C  
HETATM    5  H2  UNL     1     -11.561  18.257  67.396  1.00  0.00     0.000 HD 
HETATM    6  N   UNL     1     -10.644  17.919  67.103  1.00  0.00    -0.343 NA 
HETATM    7  H1  UNL     1     -10.678  18.681  66.426  1.00  0.00     0.000 HD 
ENDBRANCH   2   4
BRANCH   2   8
HETATM    8  C   UNL     1     -10.986  14.537  68.285  1.00  0.00    -0.258 A  
HETATM    9  C   UNL     1     -11.558  13.255  66.265  1.00  0.00    -0.384 A  
HETATM   10  C   UNL     1     -11.129  14.437  66.898  1.00  0.00    -0.325 A  
HETATM   11  C   UNL     1     -11.859  12.148  67.078  1.00  0.00    -0.288 A  
HETATM   12  C   UNL     1     -11.288  13.404  69.062  1.00  0.00    -0.335 A  
HETATM   13  C   UNL     1     -11.747  12.217  68.477  1.00  0.00    -0.381 A  
BRANCH   9  14
HETATM   14  C   UNL     1     -11.698  13.260  64.730  1.00  0.00    -0.390 C  
HETATM   15  C   UNL     1     -12.098  14.620  64.257  1.00  0.00    -0.415 C  
HETATM   16  C   UNL     1     -10.331  12.902  64.098  1.00  0.00    -0.385 C  
HETATM   17  C   UNL     1     -12.740  12.262  64.203  1.00  0.00    -0.431 C  
HETATM   18  N   UNL     1     -12.391  15.682  63.891  1.00  0.00    -0.608 NA 
ENDBRANCH   9  14
BRANCH  13  19
HETATM   19  C   UNL     1     -12.189  11.066  69.352  1.00  0.00    -0.259 C  
BRANCH  19  20
HETATM   20  N   UNL     1     -11.114  10.425  70.085  1.00  0.00    -0.300 NA 
HETATM   21  C   UNL     1     -11.185   9.773  71.279  1.00  0.00    -0.347 A  
HETATM   22  N   UNL     1     -10.074   9.102  71.481  1.00  0.00    -0.328 NA 
HETATM   23  C   UNL     1      -9.344   9.370  70.360  1.00  0.00    -0.268 A  
HETATM   24  N   UNL     1      -9.933  10.178  69.477  1.00  0.00    -0.225 NA 
ENDBRANCH  19  20
ENDBRANCH  13  19
ENDBRANCH   2   8
TORSDOF 5
ENDMDL
MODEL       41
REMARK 921   NORMALIZED FREE ENERGY PREDICTED BY IDOCK:   -5.71 KCAL/MOL
REMARK 922        TOTAL FREE ENERGY PREDICTED BY IDOCK:   -8.16 KCAL/MOL
REMARK 923 INTER-LIGAND FREE ENERGY PREDICTED BY IDOCK:   -7.46 KCAL/MOL
REMARK 924 INTRA-LIGAND FREE ENERGY PREDICTED BY IDOCK:   -0.71 KCAL/MOL
REMARK 927      BINDING AFFINITY PREDICTED BY RF-SCORE:    0.00 PKD
ROOT
HETATM    1  C   UNL     1      -8.588   8.276  68.072  1.00  0.00    -0.132 C  
HETATM    2  C   UNL     1      -9.763   8.675  67.150  1.00  0.00    -0.248 C  
HETATM    3  C   UNL     1      -9.157   9.001  65.765  1.00  0.00    -0.272 C  
ENDROOT
BRANCH   2   4
HETATM    4  C   UNL     1     -10.649   7.456  66.949  1.00  0.00    -0.305 C  
HETATM    5  H2  UNL     1     -12.086   6.732  67.467  1.00  0.00     0.000 HD 
HETATM    6  N   UNL     1     -11.386   6.446  66.783  1.00  0.00    -0.769 NA 
HETATM    7  H1  UNL     1     -11.980   5.629  66.648  1.00  0.00     0.000 HD 
ENDBRANCH   2   4
BRANCH   2   8
HETATM    8  C   UNL     1     -10.564   9.799  67.799  1.00  0.00    -0.320 A  
HETATM    9  C   UNL     1     -11.965  10.637  69.640  1.00  0.00    -0.340 A  
HETATM   10  C   UNL     1     -11.195   9.626  69.035  1.00  0.00    -0.030 A  
HETATM   11  C   UNL     1     -12.102  11.855  68.953  1.00  0.00    -0.213 A  
HETATM   12  C   UNL     1     -10.717  11.037  67.149  1.00  0.00    -0.313 A  
HETATM   13  C   UNL     1     -11.500  12.059  67.700  1.00  0.00    -0.392 A  
BRANCH   9  14
HETATM   14  C   UNL     1     -12.631  10.333  70.996  1.00  0.00    -0.487 C  
HETATM   15  C   UNL     1     -11.754   9.433  71.806  1.00  0.00    -0.374 C  
HETATM   16  C   UNL     1     -12.825  11.658  71.771  1.00  0.00    -0.418 C  
HETATM   17  C   UNL     1     -14.002   9.651  70.870  1.00  0.00     0.208 C  
HETATM   18  N   UNL     1     -11.063   8.750  72.442  1.00  0.00    -0.266 NA 
ENDBRANCH   9  14
BRANCH  13  19
HETATM   19  C   UNL     1     -11.751  13.325  66.911  1.00  0.00    -0.388 C  
BRANCH  19  20
HETATM   20  N   UNL     1     -11.889  13.120  65.481  1.00  0.00    -0.358 NA 
HETATM   21  C   UNL     1     -10.916  13.170  64.529  1.00  0.00    -0.372 A  
HETATM   22  N   UNL     1     -11.374  12.668  63.405  1.00  0.00    -0.466 NA 
HETATM   23  C   UNL     1     -12.651  12.310  63.725  1.00  0.00    -0.470 A  
HETATM   24  N   UNL     1     -13.017  12.569  64.982  1.00  0.00    -0.730 NA 
ENDBRANCH  19  20
ENDBRANCH  13  19
ENDBRANCH   2   8
TORSDOF 5
ENDMDL
MODEL       42
REMARK 921   NORMALIZED FREE ENERGY PREDICTED BY IDOCK:   -5.70 KCAL/MOL
REMARK 922        TOTAL FREE ENERGY PREDICTED BY IDOCK:   -8.15 KCAL/MOL
REMARK 923 INTER-LIGAND FREE ENERGY PREDICTED BY IDOCK:   -7.31 KCAL/MOL
REMARK 924 INTRA-LIGAND FREE ENERGY PREDICTED BY IDOCK:   -0.84 KCAL/MOL
REMARK 927      BINDING AFFINITY PREDICTED BY RF-SCORE:    0.00 PKD
ROOT
HETATM    1  C   UNL     1     -10.764  16.726  68.004  1.00  0.00    -0.355 C  
HETATM    2  C   UNL     1     -10.445  15.637  69.053  1.00  0.00    -0.229 C  
HETATM    3  C   UNL     1      -8.945  15.776  69.404  1.00  0.00    -0.247 C  
ENDROOT
BRANCH   2   4
HETATM    4  C   UNL     1     -11.210  15.959  70.327  1.00  0.00    -0.380 C  
HETATM    5  H2  UNL     1     -11.200  15.730  72.002  1.00  0.00     0.000 HD 
HETATM    6  N   UNL     1     -11.843  16.225  71.385  1.00  0.00    -0.644 NA 
HETATM    7  H1  UNL     1     -12.357  16.441  72.239  1.00  0.00     0.000 HD 
ENDBRANCH   2   4
BRANCH   2   8
HETATM    8  C   UNL     1     -10.872  14.273  68.522  1.00  0.00    -0.264 A  
HETATM    9  C   UNL     1     -11.291  12.750  66.635  1.00  0.00    -0.364 A  
HETATM   10  C   UNL     1     -10.872  13.991  67.152  1.00  0.00    -0.288 A  
HETATM   11  C   UNL     1     -11.734  11.776  67.546  1.00  0.00    -0.312 A  
HETATM   12  C   UNL     1     -11.312  13.267  69.401  1.00  0.00    -0.280 A  
HETATM   13  C   UNL     1     -11.767  12.030  68.928  1.00  0.00    -0.383 A  
BRANCH   9  14
HETATM   14  C   UNL     1     -11.267  12.552  65.106  1.00  0.00    -0.342 C  
HETATM   15  C   UNL     1     -10.518  11.305  64.764  1.00  0.00    -0.323 C  
HETATM   16  C   UNL     1     -12.720  12.410  64.593  1.00  0.00    -0.372 C  
HETATM   17  C   UNL     1     -10.606  13.713  64.346  1.00  0.00    -0.360 C  
HETATM   18  N   UNL     1      -9.952  10.326  64.501  1.00  0.00    -0.330 NA 
ENDBRANCH   9  14
BRANCH  13  19
HETATM   19  C   UNL     1     -12.358  11.025  69.891  1.00  0.00    -0.288 C  
BRANCH  19  20
HETATM   20  N   UNL     1     -11.402  10.068  70.417  1.00  0.00    -0.296 NA 
HETATM   21  C   UNL     1     -10.126   9.840  69.999  1.00  0.00    -0.257 A  
HETATM   22  N   UNL     1      -9.497   9.103  70.885  1.00  0.00    -0.263 NA 
HETATM   23  C   UNL     1     -10.442   8.908  71.851  1.00  0.00    -0.345 A  
HETATM   24  N   UNL     1     -11.626   9.474  71.610  1.00  0.00    -0.393 NA 
ENDBRANCH  19  20
ENDBRANCH  13  19
ENDBRANCH   2   8
TORSDOF 5
ENDMDL
MODEL       43
REMARK 921   NORMALIZED FREE ENERGY PREDICTED BY IDOCK:   -5.69 KCAL/MOL
REMARK 922        TOTAL FREE ENERGY PREDICTED BY IDOCK:   -8.15 KCAL/MOL
REMARK 923 INTER-LIGAND FREE ENERGY PREDICTED BY IDOCK:   -7.44 KCAL/MOL
REMARK 924 INTRA-LIGAND FREE ENERGY PREDICTED BY IDOCK:   -0.71 KCAL/MOL
REMARK 927      BINDING AFFINITY PREDICTED BY RF-SCORE:    0.00 PKD
ROOT
HETATM    1  C   UNL     1     -12.640   9.489  71.979  1.00  0.00    -0.456 C  
HETATM    2  C   UNL     1     -11.489   9.222  70.983  1.00  0.00    -0.387 C  
HETATM    3  C   UNL     1     -10.204   9.029  71.823  1.00  0.00    -0.389 C  
ENDROOT
BRANCH   2   4
HETATM    4  C   UNL     1     -11.749   7.892  70.294  1.00  0.00     0.075 C  
HETATM    5  H2  UNL     1     -12.146   6.275  70.586  1.00  0.00     0.000 HD 
HETATM    6  N   UNL     1     -11.965   6.788  69.724  1.00  0.00    -0.647 NA 
HETATM    7  H1  UNL     1     -12.139   5.896  69.261  1.00  0.00     0.000 HD 
ENDBRANCH   2   4
BRANCH   2   8
HETATM    8  C   UNL     1     -11.437  10.341  69.949  1.00  0.00    -0.340 A  
HETATM    9  C   UNL     1     -10.736  11.185  67.746  1.00  0.00    -0.267 A  
HETATM   10  C   UNL     1     -10.824  10.158  68.706  1.00  0.00    -0.259 A  
HETATM   11  C   UNL     1     -11.282  12.437  68.075  1.00  0.00    -0.317 A  
HETATM   12  C   UNL     1     -11.980  11.607  70.235  1.00  0.00    -0.445 A  
HETATM   13  C   UNL     1     -11.888  12.665  69.323  1.00  0.00    -0.358 A  
BRANCH   9  14
HETATM   14  C   UNL     1     -10.023  10.879  66.414  1.00  0.00    -0.266 C  
HETATM   15  C   UNL     1     -10.717  11.579  65.290  1.00  0.00    -0.279 C  
HETATM   16  C   UNL     1      -8.566  11.396  66.492  1.00  0.00    -0.175 C  
HETATM   17  C   UNL     1      -9.978   9.382  66.070  1.00  0.00    -0.352 C  
HETATM   18  N   UNL     1     -11.245  12.139  64.421  1.00  0.00    -0.324 NA 
ENDBRANCH   9  14
BRANCH  13  19
HETATM   19  C   UNL     1     -12.363  14.045  69.717  1.00  0.00    -0.291 C  
BRANCH  19  20
HETATM   20  N   UNL     1     -12.334  14.302  71.146  1.00  0.00    -0.348 NA 
HETATM   21  C   UNL     1     -11.427  15.038  71.848  1.00  0.00    -0.289 A  
HETATM   22  N   UNL     1     -11.885  15.261  73.058  1.00  0.00    -0.420 NA 
HETATM   23  C   UNL     1     -13.099  14.640  73.049  1.00  0.00    -0.515 A  
HETATM   24  N   UNL     1     -13.419  14.034  71.904  1.00  0.00    -0.387 NA 
ENDBRANCH  19  20
ENDBRANCH  13  19
ENDBRANCH   2   8
TORSDOF 5
ENDMDL
MODEL       44
REMARK 921   NORMALIZED FREE ENERGY PREDICTED BY IDOCK:   -5.69 KCAL/MOL
REMARK 922        TOTAL FREE ENERGY PREDICTED BY IDOCK:   -8.14 KCAL/MOL
REMARK 923 INTER-LIGAND FREE ENERGY PREDICTED BY IDOCK:   -7.51 KCAL/MOL
REMARK 924 INTRA-LIGAND FREE ENERGY PREDICTED BY IDOCK:   -0.63 KCAL/MOL
REMARK 927      BINDING AFFINITY PREDICTED BY RF-SCORE:    0.00 PKD
ROOT
HETATM    1  C   UNL     1      -9.722  14.049  66.487  1.00  0.00    -0.305 C  
HETATM    2  C   UNL     1     -11.109  14.319  67.114  1.00  0.00    -0.318 C  
HETATM    3  C   UNL     1     -11.160  15.825  67.462  1.00  0.00    -0.258 C  
ENDROOT
BRANCH   2   4
HETATM    4  C   UNL     1     -12.169  14.095  66.047  1.00  0.00    -0.443 C  
HETATM    5  H2  UNL     1     -12.643  13.037  64.817  1.00  0.00     0.000 HD 
HETATM    6  N   UNL     1     -13.047  13.907  65.162  1.00  0.00    -0.764 NA 
HETATM    7  H1  UNL     1     -13.758  13.757  64.447  1.00  0.00     0.000 HD 
ENDBRANCH   2   4
BRANCH   2   8
HETATM    8  C   UNL     1     -11.337  13.365  68.282  1.00  0.00    -0.330 A  
HETATM    9  C   UNL     1     -11.020  11.165  69.337  1.00  0.00    -0.298 A  
HETATM   10  C   UNL     1     -10.798  12.075  68.286  1.00  0.00    -0.263 A  
HETATM   11  C   UNL     1     -11.826  11.587  70.409  1.00  0.00    -0.413 A  
HETATM   12  C   UNL     1     -12.129  13.751  69.377  1.00  0.00    -0.377 A  
HETATM   13  C   UNL     1     -12.402  12.869  70.430  1.00  0.00    -0.333 A  
BRANCH   9  14
HETATM   14  C   UNL     1     -10.392   9.762  69.231  1.00  0.00    -0.230 C  
HETATM   15  C   UNL     1     -10.368   9.318  67.804  1.00  0.00    -0.237 C  
HETATM   16  C   UNL     1      -8.936   9.820  69.753  1.00  0.00    -0.239 C  
HETATM   17  C   UNL     1     -11.142   8.689  70.036  1.00  0.00    -0.161 C  
HETATM   18  N   UNL     1     -10.332   8.984  66.693  1.00  0.00    -0.251 NA 
ENDBRANCH   9  14
BRANCH  13  19
HETATM   19  C   UNL     1     -13.365  13.272  71.523  1.00  0.00    -0.249 C  
BRANCH  19  20
HETATM   20  N   UNL     1     -13.121  14.590  72.079  1.00  0.00    -0.324 NA 
HETATM   21  C   UNL     1     -14.023  15.444  72.641  1.00  0.00    -0.496 A  
HETATM   22  N   UNL     1     -13.386  16.407  73.266  1.00  0.00    -0.336 NA 
HETATM   23  C   UNL     1     -12.074  16.091  73.066  1.00  0.00    -0.522 A  
HETATM   24  N   UNL     1     -11.858  14.991  72.342  1.00  0.00    -0.362 NA 
ENDBRANCH  19  20
ENDBRANCH  13  19
ENDBRANCH   2   8
TORSDOF 5
ENDMDL
MODEL       45
REMARK 921   NORMALIZED FREE ENERGY PREDICTED BY IDOCK:   -5.68 KCAL/MOL
REMARK 922        TOTAL FREE ENERGY PREDICTED BY IDOCK:   -8.14 KCAL/MOL
REMARK 923 INTER-LIGAND FREE ENERGY PREDICTED BY IDOCK:   -7.48 KCAL/MOL
REMARK 924 INTRA-LIGAND FREE ENERGY PREDICTED BY IDOCK:   -0.66 KCAL/MOL
REMARK 927      BINDING AFFINITY PREDICTED BY RF-SCORE:    0.00 PKD
ROOT
HETATM    1  C   UNL     1     -14.023  15.383  71.205  1.00  0.00    -0.410 C  
HETATM    2  C   UNL     1     -12.611  14.752  71.184  1.00  0.00    -0.407 C  
HETATM    3  C   UNL     1     -11.883  15.238  72.460  1.00  0.00    -0.532 C  
ENDROOT
BRANCH   2   4
HETATM    4  C   UNL     1     -12.757  13.246  71.327  1.00  0.00    -0.323 C  
HETATM    5  H2  UNL     1     -11.883  11.800  71.331  1.00  0.00     0.000 HD 
HETATM    6  N   UNL     1     -12.877  11.996  71.445  1.00  0.00    -0.350 NA 
HETATM    7  H1  UNL     1     -12.975  10.986  71.540  1.00  0.00     0.000 HD 
ENDBRANCH   2   4
BRANCH   2   8
HETATM    8  C   UNL     1     -11.921  15.085  69.865  1.00  0.00    -0.374 A  
HETATM    9  C   UNL     1     -11.274  14.460  67.575  1.00  0.00    -0.329 A  
HETATM   10  C   UNL     1     -11.930  14.190  68.791  1.00  0.00    -0.367 A  
HETATM   11  C   UNL     1     -10.581  15.678  67.461  1.00  0.00    -0.297 A  
HETATM   12  C   UNL     1     -11.225  16.297  69.707  1.00  0.00    -0.314 A  
HETATM   13  C   UNL     1     -10.533  16.594  68.526  1.00  0.00    -0.319 A  
BRANCH   9  14
HETATM   14  C   UNL     1     -11.333  13.395  66.463  1.00  0.00    -0.346 C  
HETATM   15  C   UNL     1     -11.482  12.035  67.064  1.00  0.00    -0.338 C  
HETATM   16  C   UNL     1     -12.562  13.673  65.564  1.00  0.00    -0.541 C  
HETATM   17  C   UNL     1     -10.085  13.371  65.567  1.00  0.00    -0.279 C  
HETATM   18  N   UNL     1     -11.617  10.981  67.533  1.00  0.00    -0.543 NA 
ENDBRANCH   9  14
BRANCH  13  19
HETATM   19  C   UNL     1      -9.685  17.843  68.442  1.00  0.00    -0.340 C  
BRANCH  19  20
HETATM   20  N   UNL     1      -8.309  17.606  68.046  1.00  0.00    -0.239 NA 
HETATM   21  C   UNL     1      -7.258  17.250  68.837  1.00  0.00    -0.243 A  
HETATM   22  N   UNL     1      -6.252  16.867  68.085  1.00  0.00    -0.130 NA 
HETATM   23  C   UNL     1      -6.744  16.998  66.819  1.00  0.00    -0.230 A  
HETATM   24  N   UNL     1      -7.997  17.451  66.741  1.00  0.00    -0.226 NA 
ENDBRANCH  19  20
ENDBRANCH  13  19
ENDBRANCH   2   8
TORSDOF 5
ENDMDL
MODEL       46
REMARK 921   NORMALIZED FREE ENERGY PREDICTED BY IDOCK:   -5.66 KCAL/MOL
REMARK 922        TOTAL FREE ENERGY PREDICTED BY IDOCK:   -8.11 KCAL/MOL
REMARK 923 INTER-LIGAND FREE ENERGY PREDICTED BY IDOCK:   -7.34 KCAL/MOL
REMARK 924 INTRA-LIGAND FREE ENERGY PREDICTED BY IDOCK:   -0.77 KCAL/MOL
REMARK 927      BINDING AFFINITY PREDICTED BY RF-SCORE:    0.00 PKD
ROOT
HETATM    1  C   UNL     1     -10.456  14.118  65.185  1.00  0.00    -0.422 C  
HETATM    2  C   UNL     1     -11.631  13.153  65.464  1.00  0.00    -0.365 C  
HETATM    3  C   UNL     1     -12.914  14.016  65.532  1.00  0.00    -0.353 C  
ENDROOT
BRANCH   2   4
HETATM    4  C   UNL     1     -11.798  12.240  64.260  1.00  0.00    -0.403 C  
HETATM    5  H2  UNL     1     -12.945  11.372  63.373  1.00  0.00     0.000 HD 
HETATM    6  N   UNL     1     -11.938  11.482  63.262  1.00  0.00    -0.877 NA 
HETATM    7  H1  UNL     1     -12.049  10.869  62.455  1.00  0.00     0.000 HD 
ENDBRANCH   2   4
BRANCH   2   8
HETATM    8  C   UNL     1     -11.329  12.324  66.708  1.00  0.00    -0.395 A  
HETATM    9  C   UNL     1     -10.374  10.312  67.754  1.00  0.00    -0.246 A  
HETATM   10  C   UNL     1     -10.638  11.111  66.626  1.00  0.00    -0.314 A  
HETATM   11  C   UNL     1     -10.841  10.765  69.001  1.00  0.00    -0.278 A  
HETATM   12  C   UNL     1     -11.770  12.746  67.975  1.00  0.00    -0.405 A  
HETATM   13  C   UNL     1     -11.557  11.968  69.120  1.00  0.00    -0.370 A  
BRANCH   9  14
HETATM   14  C   UNL     1      -9.619   8.984  67.547  1.00  0.00    -0.182 C  
HETATM   15  C   UNL     1      -8.747   8.702  68.728  1.00  0.00    -0.135 C  
HETATM   16  C   UNL     1     -10.647   7.836  67.409  1.00  0.00    -0.345 C  
HETATM   17  C   UNL     1      -8.724   8.974  66.298  1.00  0.00    -0.155 C  
HETATM   18  N   UNL     1      -8.086   8.474  69.655  1.00  0.00    -0.111 NA 
ENDBRANCH   9  14
BRANCH  13  19
HETATM   19  C   UNL     1     -12.161  12.387  70.440  1.00  0.00    -0.287 C  
BRANCH  19  20
HETATM   20  N   UNL     1     -12.360  13.818  70.580  1.00  0.00    -0.349 NA 
HETATM   21  C   UNL     1     -13.522  14.482  70.837  1.00  0.00    -0.214 A  
HETATM   22  N   UNL     1     -13.255  15.727  71.158  1.00  0.00    -0.526 NA 
HETATM   23  C   UNL     1     -11.893  15.778  71.092  1.00  0.00    -0.425 A  
HETATM   24  N   UNL     1     -11.298  14.637  70.738  1.00  0.00    -0.178 NA 
ENDBRANCH  19  20
ENDBRANCH  13  19
ENDBRANCH   2   8
TORSDOF 5
ENDMDL
MODEL       47
REMARK 921   NORMALIZED FREE ENERGY PREDICTED BY IDOCK:   -5.64 KCAL/MOL
REMARK 922        TOTAL FREE ENERGY PREDICTED BY IDOCK:   -8.07 KCAL/MOL
REMARK 923 INTER-LIGAND FREE ENERGY PREDICTED BY IDOCK:   -7.36 KCAL/MOL
REMARK 924 INTRA-LIGAND FREE ENERGY PREDICTED BY IDOCK:   -0.72 KCAL/MOL
REMARK 927      BINDING AFFINITY PREDICTED BY RF-SCORE:    0.00 PKD
ROOT
HETATM    1  C   UNL     1     -12.195  13.389  66.182  1.00  0.00    -0.471 C  
HETATM    2  C   UNL     1     -11.117  13.850  65.175  1.00  0.00    -0.334 C  
HETATM    3  C   UNL     1     -10.944  12.708  64.146  1.00  0.00    -0.427 C  
ENDROOT
BRANCH   2   4
HETATM    4  C   UNL     1     -11.662  15.040  64.400  1.00  0.00    -0.312 C  
HETATM    5  H2  UNL     1     -13.023  16.025  64.222  1.00  0.00     0.000 HD 
HETATM    6  N   UNL     1     -12.115  16.026  63.758  1.00  0.00    -1.255 NA 
HETATM    7  H1  UNL     1     -12.481  16.823  63.238  1.00  0.00     0.000 HD 
ENDBRANCH   2   4
BRANCH   2   8
HETATM    8  C   UNL     1      -9.853  14.256  65.926  1.00  0.00    -0.322 A  
HETATM    9  C   UNL     1      -7.952  13.679  67.378  1.00  0.00    -0.177 A  
HETATM   10  C   UNL     1      -9.105  13.324  66.651  1.00  0.00    -0.181 A  
HETATM   11  C   UNL     1      -7.563  15.029  67.370  1.00  0.00    -0.233 A  
HETATM   12  C   UNL     1      -9.424  15.595  65.936  1.00  0.00    -0.376 A  
HETATM   13  C   UNL     1      -8.302  15.999  66.670  1.00  0.00    -0.331 A  
BRANCH   9  14
HETATM   14  C   UNL     1      -7.212  12.573  68.156  1.00  0.00    -0.106 C  
HETATM   15  C   UNL     1      -6.104  12.015  67.323  1.00  0.00    -0.147 C  
HETATM   16  C   UNL     1      -6.602  13.183  69.441  1.00  0.00    -0.065 C  
HETATM   17  C   UNL     1      -8.116  11.401  68.570  1.00  0.00    -0.149 C  
HETATM   18  N   UNL     1      -5.232  11.596  66.681  1.00  0.00    -0.216 NA 
ENDBRANCH   9  14
BRANCH  13  19
HETATM   19  C   UNL     1      -7.950  17.466  66.766  1.00  0.00    -0.244 C  
BRANCH  19  20
HETATM   20  N   UNL     1      -9.094  18.358  66.744  1.00  0.00    -0.284 NA 
HETATM   21  C   UNL     1     -10.065  18.499  67.689  1.00  0.00    -0.364 A  
HETATM   22  N   UNL     1     -10.766  19.583  67.442  1.00  0.00    -0.483 NA 
HETATM   23  C   UNL     1     -10.171  20.086  66.322  1.00  0.00    -0.478 A  
HETATM   24  N   UNL     1      -9.146  19.371  65.852  1.00  0.00    -0.403 NA 
ENDBRANCH  19  20
ENDBRANCH  13  19
ENDBRANCH   2   8
TORSDOF 5
ENDMDL
MODEL       48
REMARK 921   NORMALIZED FREE ENERGY PREDICTED BY IDOCK:   -5.61 KCAL/MOL
REMARK 922        TOTAL FREE ENERGY PREDICTED BY IDOCK:   -8.04 KCAL/MOL
REMARK 923 INTER-LIGAND FREE ENERGY PREDICTED BY IDOCK:   -7.43 KCAL/MOL
REMARK 924 INTRA-LIGAND FREE ENERGY PREDICTED BY IDOCK:   -0.62 KCAL/MOL
REMARK 927      BINDING AFFINITY PREDICTED BY RF-SCORE:    0.00 PKD
ROOT
HETATM    1  C   UNL     1     -13.278  13.628  65.464  1.00  0.00     0.059 C  
HETATM    2  C   UNL     1     -11.827  13.814  64.963  1.00  0.00    -0.381 C  
HETATM    3  C   UNL     1     -11.621  12.814  63.802  1.00  0.00    -0.548 C  
ENDROOT
BRANCH   2   4
HETATM    4  C   UNL     1     -11.705  15.202  64.354  1.00  0.00    -0.295 C  
HETATM    5  H2  UNL     1     -12.283  16.785  64.476  1.00  0.00     0.000 HD 
HETATM    6  N   UNL     1     -11.604  16.353  63.849  1.00  0.00    -1.602 NA 
HETATM    7  H1  UNL     1     -11.522  17.284  63.440  1.00  0.00     0.000 HD 
ENDBRANCH   2   4
BRANCH   2   8
HETATM    8  C   UNL     1     -10.859  13.674  66.133  1.00  0.00    -0.279 A  
HETATM    9  C   UNL     1      -8.968  14.526  67.456  1.00  0.00    -0.191 A  
HETATM   10  C   UNL     1      -9.892  14.647  66.401  1.00  0.00    -0.302 A  
HETATM   11  C   UNL     1      -9.030  13.369  68.252  1.00  0.00    -0.176 A  
HETATM   12  C   UNL     1     -10.895  12.536  66.960  1.00  0.00    -0.287 A  
HETATM   13  C   UNL     1      -9.975  12.360  68.001  1.00  0.00    -0.207 A  
BRANCH   9  14
HETATM   14  C   UNL     1      -7.932  15.651  67.650  1.00  0.00    -0.170 C  
HETATM   15  C   UNL     1      -8.097  16.687  66.586  1.00  0.00    -0.274 C  
HETATM   16  C   UNL     1      -8.164  16.317  69.028  1.00  0.00    -0.238 C  
HETATM   17  C   UNL     1      -6.476  15.162  67.598  1.00  0.00    -0.180 C  
HETATM   18  N   UNL     1      -8.240  17.502  65.771  1.00  0.00    -0.522 NA 
ENDBRANCH   9  14
BRANCH  13  19
HETATM   19  C   UNL     1      -9.958  11.065  68.781  1.00  0.00    -0.207 C  
BRANCH  19  20
HETATM   20  N   UNL     1     -11.107  10.873  69.648  1.00  0.00    -0.259 NA 
HETATM   21  C   UNL     1     -11.456   9.755  70.343  1.00  0.00    -0.280 A  
HETATM   22  N   UNL     1     -12.391  10.053  71.215  1.00  0.00    -0.366 NA 
HETATM   23  C   UNL     1     -12.579  11.390  71.021  1.00  0.00    -0.386 A  
HETATM   24  N   UNL     1     -11.821  11.939  70.070  1.00  0.00    -0.337 NA 
ENDBRANCH  19  20
ENDBRANCH  13  19
ENDBRANCH   2   8
TORSDOF 5
ENDMDL
MODEL       49
REMARK 921   NORMALIZED FREE ENERGY PREDICTED BY IDOCK:   -5.61 KCAL/MOL
REMARK 922        TOTAL FREE ENERGY PREDICTED BY IDOCK:   -8.04 KCAL/MOL
REMARK 923 INTER-LIGAND FREE ENERGY PREDICTED BY IDOCK:   -7.30 KCAL/MOL
REMARK 924 INTRA-LIGAND FREE ENERGY PREDICTED BY IDOCK:   -0.74 KCAL/MOL
REMARK 927      BINDING AFFINITY PREDICTED BY RF-SCORE:    0.00 PKD
ROOT
HETATM    1  C   UNL     1      -6.812  13.729  69.645  1.00  0.00     0.049 C  
HETATM    2  C   UNL     1      -7.141  14.128  68.188  1.00  0.00    -0.127 C  
HETATM    3  C   UNL     1      -6.182  15.281  67.809  1.00  0.00    -0.178 C  
ENDROOT
BRANCH   2   4
HETATM    4  C   UNL     1      -6.784  12.963  67.279  1.00  0.00    -0.047 C  
HETATM    5  H2  UNL     1      -5.477  12.133  66.599  1.00  0.00     0.000 HD 
HETATM    6  N   UNL     1      -6.485  11.997  66.525  1.00  0.00    -0.441 NA 
HETATM    7  H1  UNL     1      -6.245  11.215  65.916  1.00  0.00     0.000 HD 
ENDBRANCH   2   4
BRANCH   2   8
HETATM    8  C   UNL     1      -8.629  14.443  68.067  1.00  0.00    -0.166 A  
HETATM    9  C   UNL     1     -10.697  14.514  66.735  1.00  0.00    -0.291 A  
HETATM   10  C   UNL     1      -9.331  14.203  66.882  1.00  0.00    -0.274 A  
HETATM   11  C   UNL     1     -11.357  15.096  67.831  1.00  0.00    -0.346 A  
HETATM   12  C   UNL     1      -9.329  15.017  69.143  1.00  0.00    -0.189 A  
HETATM   13  C   UNL     1     -10.680  15.371  69.031  1.00  0.00    -0.242 A  
BRANCH   9  14
HETATM   14  C   UNL     1     -11.369  14.224  65.379  1.00  0.00    -0.329 C  
HETATM   15  C   UNL     1     -11.526  15.493  64.605  1.00  0.00    -0.324 C  
HETATM   16  C   UNL     1     -10.470  13.260  64.567  1.00  0.00    -0.434 C  
HETATM   17  C   UNL     1     -12.759  13.584  65.505  1.00  0.00    -0.493 C  
HETATM   18  N   UNL     1     -11.629  16.477  63.996  1.00  0.00    -1.124 NA 
ENDBRANCH   9  14
BRANCH  13  19
HETATM   19  C   UNL     1     -11.363  16.108  70.160  1.00  0.00    -0.340 C  
BRANCH  19  20
HETATM   20  N   UNL     1     -12.228  15.278  70.979  1.00  0.00    -0.318 NA 
HETATM   21  C   UNL     1     -12.479  13.945  70.850  1.00  0.00    -0.375 A  
HETATM   22  N   UNL     1     -13.088  13.506  71.928  1.00  0.00    -0.380 NA 
HETATM   23  C   UNL     1     -13.181  14.622  72.707  1.00  0.00    -0.497 A  
HETATM   24  N   UNL     1     -12.673  15.734  72.170  1.00  0.00    -0.429 NA 
ENDBRANCH  19  20
ENDBRANCH  13  19
ENDBRANCH   2   8
TORSDOF 5
ENDMDL
MODEL       50
REMARK 921   NORMALIZED FREE ENERGY PREDICTED BY IDOCK:   -5.58 KCAL/MOL
REMARK 922        TOTAL FREE ENERGY PREDICTED BY IDOCK:   -8.01 KCAL/MOL
REMARK 923 INTER-LIGAND FREE ENERGY PREDICTED BY IDOCK:   -7.29 KCAL/MOL
REMARK 924 INTRA-LIGAND FREE ENERGY PREDICTED BY IDOCK:   -0.72 KCAL/MOL
REMARK 927      BINDING AFFINITY PREDICTED BY RF-SCORE:    0.00 PKD
ROOT
HETATM    1  C   UNL     1     -13.350  13.457  72.245  1.00  0.00    -0.641 C  
HETATM    2  C   UNL     1     -13.042  14.926  71.875  1.00  0.00    -0.425 C  
HETATM    3  C   UNL     1     -14.403  15.635  71.678  1.00  0.00    -0.334 C  
ENDROOT
BRANCH   2   4
HETATM    4  C   UNL     1     -12.386  15.594  73.073  1.00  0.00    -0.463 C  
HETATM    5  H2  UNL     1     -11.741  15.286  74.605  1.00  0.00     0.000 HD 
HETATM    6  N   UNL     1     -11.842  16.147  74.068  1.00  0.00    -0.134 NA 
HETATM    7  H1  UNL     1     -11.403  16.596  74.871  1.00  0.00     0.000 HD 
ENDBRANCH   2   4
BRANCH   2   8
HETATM    8  C   UNL     1     -12.099  14.967  70.678  1.00  0.00    -0.366 A  
HETATM    9  C   UNL     1     -10.930  13.824  68.838  1.00  0.00    -0.281 A  
HETATM   10  C   UNL     1     -11.821  13.819  69.929  1.00  0.00    -0.394 A  
HETATM   11  C   UNL     1     -10.300  15.037  68.513  1.00  0.00    -0.230 A  
HETATM   12  C   UNL     1     -11.455  16.163  70.313  1.00  0.00    -0.319 A  
HETATM   13  C   UNL     1     -10.539  16.207  69.255  1.00  0.00    -0.280 A  
BRANCH   9  14
HETATM   14  C   UNL     1     -10.683  12.498  68.093  1.00  0.00    -0.246 C  
HETATM   15  C   UNL     1      -9.310  11.989  68.397  1.00  0.00    -0.175 C  
HETATM   16  C   UNL     1     -11.714  11.449  68.576  1.00  0.00    -0.386 C  
HETATM   17  C   UNL     1     -10.805  12.617  66.567  1.00  0.00    -0.285 C  
HETATM   18  N   UNL     1      -8.251  11.586  68.649  1.00  0.00    -0.146 NA 
ENDBRANCH   9  14
BRANCH  13  19
HETATM   19  C   UNL     1      -9.766  17.477  68.978  1.00  0.00    -0.187 C  
BRANCH  19  20
HETATM   20  N   UNL     1     -10.252  18.237  67.841  1.00  0.00    -0.365 NA 
HETATM   21  C   UNL     1     -10.448  19.582  67.754  1.00  0.00    -0.449 A  
HETATM   22  N   UNL     1     -10.631  19.920  66.498  1.00  0.00    -0.460 NA 
HETATM   23  C   UNL     1     -10.529  18.729  65.840  1.00  0.00    -0.376 A  
HETATM   24  N   UNL     1     -10.302  17.667  66.618  1.00  0.00    -0.343 NA 
ENDBRANCH  19  20
ENDBRANCH  13  19
ENDBRANCH   2   8
TORSDOF 5
ENDMDL
MODEL       51
REMARK 921   NORMALIZED FREE ENERGY PREDICTED BY IDOCK:   -5.56 KCAL/MOL
REMARK 922        TOTAL FREE ENERGY PREDICTED BY IDOCK:   -7.97 KCAL/MOL
REMARK 923 INTER-LIGAND FREE ENERGY PREDICTED BY IDOCK:   -7.19 KCAL/MOL
REMARK 924 INTRA-LIGAND FREE ENERGY PREDICTED BY IDOCK:   -0.78 KCAL/MOL
REMARK 927      BINDING AFFINITY PREDICTED BY RF-SCORE:    0.00 PKD
ROOT
HETATM    1  C   UNL     1     -12.113   9.996  71.498  1.00  0.00    -0.475 C  
HETATM    2  C   UNL     1     -11.099   9.229  70.618  1.00  0.00    -0.335 C  
HETATM    3  C   UNL     1      -9.807   9.073  71.454  1.00  0.00    -0.381 C  
ENDROOT
BRANCH   2   4
HETATM    4  C   UNL     1     -11.630   7.823  70.391  1.00  0.00    -0.098 C  
HETATM    5  H2  UNL     1     -11.301   6.369  69.594  1.00  0.00     0.000 HD 
HETATM    6  N   UNL     1     -12.069   6.656  70.201  1.00  0.00    -0.595 NA 
HETATM    7  H1  UNL     1     -12.425   5.712  70.048  1.00  0.00     0.000 HD 
ENDBRANCH   2   4
BRANCH   2   8
HETATM    8  C   UNL     1     -10.936   9.945  69.281  1.00  0.00    -0.244 A  
HETATM    9  C   UNL     1      -9.914  10.095  67.048  1.00  0.00    -0.249 A  
HETATM   10  C   UNL     1     -10.105   9.437  68.278  1.00  0.00    -0.210 A  
HETATM   11  C   UNL     1     -10.585  11.313  66.846  1.00  0.00    -0.300 A  
HETATM   12  C   UNL     1     -11.598  11.161  69.035  1.00  0.00    -0.392 A  
HETATM   13  C   UNL     1     -11.413  11.865  67.839  1.00  0.00    -0.385 A  
BRANCH   9  14
HETATM   14  C   UNL     1      -8.962   9.454  66.019  1.00  0.00    -0.205 C  
HETATM   15  C   UNL     1      -9.352   9.865  64.636  1.00  0.00    -0.277 C  
HETATM   16  C   UNL     1      -7.520   9.948  66.291  1.00  0.00    -0.102 C  
HETATM   17  C   UNL     1      -8.953   7.919  66.061  1.00  0.00    -0.195 C  
HETATM   18  N   UNL     1      -9.645  10.201  63.564  1.00  0.00    -0.268 NA 
ENDBRANCH   9  14
BRANCH  13  19
HETATM   19  C   UNL     1     -12.033  13.233  67.664  1.00  0.00    -0.322 C  
BRANCH  19  20
HETATM   20  N   UNL     1     -11.942  13.763  66.315  1.00  0.00    -0.403 NA 
HETATM   21  C   UNL     1     -12.879  13.708  65.328  1.00  0.00    -0.369 A  
HETATM   22  N   UNL     1     -12.543  14.525  64.356  1.00  0.00    -0.663 NA 
HETATM   23  C   UNL     1     -11.377  15.075  64.805  1.00  0.00    -0.406 A  
HETATM   24  N   UNL     1     -10.964  14.638  65.997  1.00  0.00    -0.318 NA 
ENDBRANCH  19  20
ENDBRANCH  13  19
ENDBRANCH   2   8
TORSDOF 5
ENDMDL
MODEL       52
REMARK 921   NORMALIZED FREE ENERGY PREDICTED BY IDOCK:   -5.54 KCAL/MOL
REMARK 922        TOTAL FREE ENERGY PREDICTED BY IDOCK:   -7.94 KCAL/MOL
REMARK 923 INTER-LIGAND FREE ENERGY PREDICTED BY IDOCK:   -7.14 KCAL/MOL
REMARK 924 INTRA-LIGAND FREE ENERGY PREDICTED BY IDOCK:   -0.80 KCAL/MOL
REMARK 927      BINDING AFFINITY PREDICTED BY RF-SCORE:    0.00 PKD
ROOT
HETATM    1  C   UNL     1     -13.858  13.200  72.163  1.00  0.00    -0.506 C  
HETATM    2  C   UNL     1     -13.044  14.137  71.241  1.00  0.00    -0.420 C  
HETATM    3  C   UNL     1     -14.024  15.212  70.715  1.00  0.00    -0.097 C  
ENDROOT
BRANCH   2   4
HETATM    4  C   UNL     1     -12.022  14.875  72.091  1.00  0.00    -0.331 C  
HETATM    5  H2  UNL     1     -11.188  14.810  73.560  1.00  0.00     0.000 HD 
HETATM    6  N   UNL     1     -11.174  15.486  72.797  1.00  0.00    -0.062 NA 
HETATM    7  H1  UNL     1     -10.488  15.981  73.366  1.00  0.00     0.000 HD 
ENDBRANCH   2   4
BRANCH   2   8
HETATM    8  C   UNL     1     -12.334  13.314  70.172  1.00  0.00    -0.306 A  
HETATM    9  C   UNL     1     -11.245  11.228  69.454  1.00  0.00    -0.345 A  
HETATM   10  C   UNL     1     -11.929  11.998  70.413  1.00  0.00    -0.379 A  
HETATM   11  C   UNL     1     -10.958  11.828  68.216  1.00  0.00    -0.274 A  
HETATM   12  C   UNL     1     -12.037  13.874  68.917  1.00  0.00    -0.355 A  
HETATM   13  C   UNL     1     -11.330  13.156  67.944  1.00  0.00    -0.321 A  
BRANCH   9  14
HETATM   14  C   UNL     1     -10.830   9.792  69.832  1.00  0.00    -0.306 C  
HETATM   15  C   UNL     1     -11.821   9.208  70.786  1.00  0.00    -0.227 C  
HETATM   16  C   UNL     1     -10.805   8.921  68.553  1.00  0.00    -0.038 C  
HETATM   17  C   UNL     1      -9.445   9.706  70.492  1.00  0.00    -0.243 C  
HETATM   18  N   UNL     1     -12.602   8.749  71.512  1.00  0.00    -0.319 NA 
ENDBRANCH   9  14
BRANCH  13  19
HETATM   19  C   UNL     1     -10.912  13.835  66.660  1.00  0.00    -0.296 C  
BRANCH  19  20
HETATM   20  N   UNL     1     -11.375  13.172  65.454  1.00  0.00    -0.294 NA 
HETATM   21  C   UNL     1     -12.649  12.812  65.132  1.00  0.00    -0.444 A  
HETATM   22  N   UNL     1     -12.706  12.490  63.860  1.00  0.00    -0.737 NA 
HETATM   23  C   UNL     1     -11.424  12.681  63.435  1.00  0.00    -0.435 A  
HETATM   24  N   UNL     1     -10.569  13.094  64.373  1.00  0.00    -0.405 NA 
ENDBRANCH  19  20
ENDBRANCH  13  19
ENDBRANCH   2   8
TORSDOF 5
ENDMDL
MODEL       53
REMARK 921   NORMALIZED FREE ENERGY PREDICTED BY IDOCK:   -5.52 KCAL/MOL
REMARK 922        TOTAL FREE ENERGY PREDICTED BY IDOCK:   -7.93 KCAL/MOL
REMARK 923 INTER-LIGAND FREE ENERGY PREDICTED BY IDOCK:   -7.19 KCAL/MOL
REMARK 924 INTRA-LIGAND FREE ENERGY PREDICTED BY IDOCK:   -0.74 KCAL/MOL
REMARK 927      BINDING AFFINITY PREDICTED BY RF-SCORE:    0.00 PKD
ROOT
HETATM    1  C   UNL     1      -7.944  17.023  69.130  1.00  0.00    -0.066 C  
HETATM    2  C   UNL     1      -9.016  17.354  68.066  1.00  0.00    -0.255 C  
HETATM    3  C   UNL     1      -9.679  18.684  68.494  1.00  0.00    -0.409 C  
ENDROOT
BRANCH   2   4
HETATM    4  C   UNL     1      -8.312  17.637  66.748  1.00  0.00    -0.251 C  
HETATM    5  H2  UNL     1      -7.169  18.645  66.018  1.00  0.00     0.000 HD 
HETATM    6  N   UNL     1      -7.727  17.872  65.656  1.00  0.00    -0.517 NA 
HETATM    7  H1  UNL     1      -7.256  18.062  64.772  1.00  0.00     0.000 HD 
ENDBRANCH   2   4
BRANCH   2   8
HETATM    8  C   UNL     1      -9.961  16.168  67.905  1.00  0.00    -0.239 A  
HETATM    9  C   UNL     1     -11.312  14.691  66.475  1.00  0.00    -0.353 A  
HETATM   10  C   UNL     1     -10.415  15.762  66.647  1.00  0.00    -0.302 A  
HETATM   11  C   UNL     1     -11.764  14.024  67.627  1.00  0.00    -0.412 A  
HETATM   12  C   UNL     1     -10.429  15.468  69.032  1.00  0.00    -0.231 A  
HETATM   13  C   UNL     1     -11.346  14.416  68.910  1.00  0.00    -0.300 A  
BRANCH   9  14
HETATM   14  C   UNL     1     -11.762  14.339  65.043  1.00  0.00    -0.383 C  
HETATM   15  C   UNL     1     -10.764  13.429  64.403  1.00  0.00    -0.408 C  
HETATM   16  C   UNL     1     -13.124  13.607  65.108  1.00  0.00    -0.127 C  
HETATM   17  C   UNL     1     -11.924  15.564  64.131  1.00  0.00    -0.083 C  
HETATM   18  N   UNL     1      -9.997  12.707  63.914  1.00  0.00    -0.288 NA 
ENDBRANCH   9  14
BRANCH  13  19
HETATM   19  C   UNL     1     -11.929  13.776  70.149  1.00  0.00    -0.334 C  
BRANCH  19  20
HETATM   20  N   UNL     1     -12.406  14.721  71.142  1.00  0.00    -0.308 NA 
HETATM   21  C   UNL     1     -13.687  15.128  71.366  1.00  0.00    -0.495 A  
HETATM   22  N   UNL     1     -13.752  15.770  72.510  1.00  0.00    -0.534 NA 
HETATM   23  C   UNL     1     -12.466  15.722  72.964  1.00  0.00    -0.472 A  
HETATM   24  N   UNL     1     -11.603  15.095  72.162  1.00  0.00    -0.422 NA 
ENDBRANCH  19  20
ENDBRANCH  13  19
ENDBRANCH   2   8
TORSDOF 5
ENDMDL
MODEL       54
REMARK 921   NORMALIZED FREE ENERGY PREDICTED BY IDOCK:   -5.52 KCAL/MOL
REMARK 922        TOTAL FREE ENERGY PREDICTED BY IDOCK:   -7.92 KCAL/MOL
REMARK 923 INTER-LIGAND FREE ENERGY PREDICTED BY IDOCK:   -7.04 KCAL/MOL
REMARK 924 INTRA-LIGAND FREE ENERGY PREDICTED BY IDOCK:   -0.89 KCAL/MOL
REMARK 927      BINDING AFFINITY PREDICTED BY RF-SCORE:    0.00 PKD
ROOT
HETATM    1  C   UNL     1     -14.395  12.912  72.551  1.00  0.00     0.182 C  
HETATM    2  C   UNL     1     -13.444  13.937  71.892  1.00  0.00    -0.511 C  
HETATM    3  C   UNL     1     -14.317  15.126  71.426  1.00  0.00    -0.601 C  
ENDROOT
BRANCH   2   4
HETATM    4  C   UNL     1     -12.514  14.487  72.962  1.00  0.00    -0.254 C  
HETATM    5  H2  UNL     1     -12.182  14.434  74.618  1.00  0.00     0.000 HD 
HETATM    6  N   UNL     1     -11.744  14.942  73.850  1.00  0.00    -0.120 NA 
HETATM    7  H1  UNL     1     -11.120  15.311  74.568  1.00  0.00     0.000 HD 
ENDBRANCH   2   4
BRANCH   2   8
HETATM    8  C   UNL     1     -12.630  13.251  70.799  1.00  0.00    -0.357 A  
HETATM    9  C   UNL     1     -11.476  13.327  68.627  1.00  0.00    -0.339 A  
HETATM   10  C   UNL     1     -12.202  13.945  69.664  1.00  0.00    -0.374 A  
HETATM   11  C   UNL     1     -11.191  11.956  68.755  1.00  0.00    -0.314 A  
HETATM   12  C   UNL     1     -12.315  11.883  70.893  1.00  0.00    -0.400 A  
HETATM   13  C   UNL     1     -11.623  11.221  69.872  1.00  0.00    -0.413 A  
BRANCH   9  14
HETATM   14  C   UNL     1     -11.069  14.183  67.412  1.00  0.00    -0.318 C  
HETATM   15  C   UNL     1     -12.108  14.079  66.343  1.00  0.00    -0.455 C  
HETATM   16  C   UNL     1     -10.960  15.663  67.851  1.00  0.00    -0.319 C  
HETATM   17  C   UNL     1      -9.725  13.771  66.792  1.00  0.00    -0.277 C  
HETATM   18  N   UNL     1     -12.926  14.013  65.521  1.00  0.00    -0.692 NA 
ENDBRANCH   9  14
BRANCH  13  19
HETATM   19  C   UNL     1     -11.421   9.724  69.945  1.00  0.00    -0.140 C  
BRANCH  19  20
HETATM   20  N   UNL     1     -10.481   9.297  70.965  1.00  0.00    -0.289 NA 
HETATM   21  C   UNL     1     -10.748   8.639  72.128  1.00  0.00    -0.347 A  
HETATM   22  N   UNL     1      -9.628   8.190  72.647  1.00  0.00    -0.258 NA 
HETATM   23  C   UNL     1      -8.687   8.596  71.747  1.00  0.00    -0.197 A  
HETATM   24  N   UNL     1      -9.157   9.280  70.702  1.00  0.00    -0.245 NA 
ENDBRANCH  19  20
ENDBRANCH  13  19
ENDBRANCH   2   8
TORSDOF 5
ENDMDL
MODEL       55
REMARK 921   NORMALIZED FREE ENERGY PREDICTED BY IDOCK:   -5.52 KCAL/MOL
REMARK 922        TOTAL FREE ENERGY PREDICTED BY IDOCK:   -7.92 KCAL/MOL
REMARK 923 INTER-LIGAND FREE ENERGY PREDICTED BY IDOCK:   -7.24 KCAL/MOL
REMARK 924 INTRA-LIGAND FREE ENERGY PREDICTED BY IDOCK:   -0.68 KCAL/MOL
REMARK 927      BINDING AFFINITY PREDICTED BY RF-SCORE:    0.00 PKD
ROOT
HETATM    1  C   UNL     1      -9.551   8.653  65.961  1.00  0.00    -0.265 C  
HETATM    2  C   UNL     1      -9.911   8.875  67.447  1.00  0.00    -0.267 C  
HETATM    3  C   UNL     1     -10.689   7.622  67.914  1.00  0.00    -0.176 C  
ENDROOT
BRANCH   2   4
HETATM    4  C   UNL     1      -8.623   8.899  68.255  1.00  0.00    -0.134 C  
HETATM    5  H2  UNL     1      -7.279   9.856  68.623  1.00  0.00     0.000 HD 
HETATM    6  N   UNL     1      -7.554   8.921  68.924  1.00  0.00    -0.086 NA 
HETATM    7  H1  UNL     1      -6.690   8.937  69.465  1.00  0.00     0.000 HD 
ENDBRANCH   2   4
BRANCH   2   8
HETATM    8  C   UNL     1     -10.647  10.202  67.603  1.00  0.00    -0.316 A  
HETATM    9  C   UNL     1     -11.488  12.305  66.642  1.00  0.00    -0.431 A  
HETATM   10  C   UNL     1     -10.840  11.061  66.518  1.00  0.00    -0.269 A  
HETATM   11  C   UNL     1     -11.941  12.682  67.918  1.00  0.00    -0.307 A  
HETATM   12  C   UNL     1     -11.124  10.612  68.861  1.00  0.00    -0.314 A  
HETATM   13  C   UNL     1     -11.748  11.854  69.037  1.00  0.00    -0.391 A  
BRANCH   9  14
HETATM   14  C   UNL     1     -11.632  13.181  65.383  1.00  0.00    -0.362 C  
HETATM   15  C   UNL     1     -12.368  12.432  64.320  1.00  0.00    -0.455 C  
HETATM   16  C   UNL     1     -12.442  14.451  65.741  1.00  0.00    -0.334 C  
HETATM   17  C   UNL     1     -10.288  13.628  64.787  1.00  0.00    -0.414 C  
HETATM   18  N   UNL     1     -12.958  11.856  63.502  1.00  0.00    -0.690 NA 
ENDBRANCH   9  14
BRANCH  13  19
HETATM   19  C   UNL     1     -12.127  12.319  70.425  1.00  0.00    -0.300 C  
BRANCH  19  20
HETATM   20  N   UNL     1     -12.417  13.737  70.522  1.00  0.00    -0.347 NA 
HETATM   21  C   UNL     1     -13.558  14.331  70.972  1.00  0.00    -0.159 A  
HETATM   22  N   UNL     1     -13.342  15.612  71.163  1.00  0.00    -0.565 NA 
HETATM   23  C   UNL     1     -12.029  15.758  70.820  1.00  0.00    -0.407 A  
HETATM   24  N   UNL     1     -11.419  14.641  70.416  1.00  0.00    -0.253 NA 
ENDBRANCH  19  20
ENDBRANCH  13  19
ENDBRANCH   2   8
TORSDOF 5
ENDMDL
MODEL       56
REMARK 921   NORMALIZED FREE ENERGY PREDICTED BY IDOCK:   -5.52 KCAL/MOL
REMARK 922        TOTAL FREE ENERGY PREDICTED BY IDOCK:   -7.92 KCAL/MOL
REMARK 923 INTER-LIGAND FREE ENERGY PREDICTED BY IDOCK:   -7.59 KCAL/MOL
REMARK 924 INTRA-LIGAND FREE ENERGY PREDICTED BY IDOCK:   -0.33 KCAL/MOL
REMARK 927      BINDING AFFINITY PREDICTED BY RF-SCORE:    0.00 PKD
ROOT
HETATM    1  C   UNL     1     -11.171  11.449  67.031  1.00  0.00    -0.350 C  
HETATM    2  C   UNL     1     -10.173  12.614  66.839  1.00  0.00    -0.242 C  
HETATM    3  C   UNL     1      -8.765  12.055  67.153  1.00  0.00    -0.183 C  
ENDROOT
BRANCH   2   4
HETATM    4  C   UNL     1     -10.159  12.997  65.368  1.00  0.00    -0.252 C  
HETATM    5  H2  UNL     1     -10.593  12.452  63.828  1.00  0.00     0.000 HD 
HETATM    6  N   UNL     1     -10.149  13.313  64.147  1.00  0.00    -0.767 NA 
HETATM    7  H1  UNL     1     -10.140  13.570  63.161  1.00  0.00     0.000 HD 
ENDBRANCH   2   4
BRANCH   2   8
HETATM    8  C   UNL     1     -10.610  13.807  67.682  1.00  0.00    -0.244 A  
HETATM    9  C   UNL     1     -10.365  16.167  68.335  1.00  0.00    -0.257 A  
HETATM   10  C   UNL     1     -10.001  15.058  67.547  1.00  0.00    -0.226 A  
HETATM   11  C   UNL     1     -11.375  15.985  69.295  1.00  0.00    -0.356 A  
HETATM   12  C   UNL     1     -11.624  13.670  68.647  1.00  0.00    -0.364 A  
HETATM   13  C   UNL     1     -11.997  14.737  69.474  1.00  0.00    -0.351 A  
BRANCH   9  14
HETATM   14  C   UNL     1      -9.615  17.495  68.115  1.00  0.00    -0.294 C  
HETATM   15  C   UNL     1      -8.211  17.378  68.614  1.00  0.00    -0.264 C  
HETATM   16  C   UNL     1      -9.574  17.806  66.599  1.00  0.00    -0.311 C  
HETATM   17  C   UNL     1     -10.261  18.693  68.828  1.00  0.00    -0.316 C  
HETATM   18  N   UNL     1      -7.115  17.280  68.984  1.00  0.00    -0.242 NA 
ENDBRANCH   9  14
BRANCH  13  19
HETATM   19  C   UNL     1     -12.994  14.516  70.589  1.00  0.00    -0.301 C  
BRANCH  19  20
HETATM   20  N   UNL     1     -12.559  15.004  71.885  1.00  0.00    -0.315 NA 
HETATM   21  C   UNL     1     -12.113  16.251  72.205  1.00  0.00    -0.486 A  
HETATM   22  N   UNL     1     -12.076  16.383  73.511  1.00  0.00    -0.472 NA 
HETATM   23  C   UNL     1     -12.525  15.174  73.957  1.00  0.00    -0.573 A  
HETATM   24  N   UNL     1     -12.830  14.293  73.001  1.00  0.00    -0.425 NA 
ENDBRANCH  19  20
ENDBRANCH  13  19
ENDBRANCH   2   8
TORSDOF 5
ENDMDL
MODEL       57
REMARK 921   NORMALIZED FREE ENERGY PREDICTED BY IDOCK:   -5.51 KCAL/MOL
REMARK 922        TOTAL FREE ENERGY PREDICTED BY IDOCK:   -7.92 KCAL/MOL
REMARK 923 INTER-LIGAND FREE ENERGY PREDICTED BY IDOCK:   -7.05 KCAL/MOL
REMARK 924 INTRA-LIGAND FREE ENERGY PREDICTED BY IDOCK:   -0.87 KCAL/MOL
REMARK 927      BINDING AFFINITY PREDICTED BY RF-SCORE:    0.00 PKD
ROOT
HETATM    1  C   UNL     1      -9.852   9.389  66.152  1.00  0.00    -0.356 C  
HETATM    2  C   UNL     1      -9.844  10.886  66.536  1.00  0.00    -0.245 C  
HETATM    3  C   UNL     1      -8.372  11.359  66.474  1.00  0.00    -0.164 C  
ENDROOT
BRANCH   2   4
HETATM    4  C   UNL     1     -10.583  11.662  65.457  1.00  0.00    -0.279 C  
HETATM    5  H2  UNL     1     -12.129  12.075  64.911  1.00  0.00     0.000 HD 
HETATM    6  N   UNL     1     -11.198  12.304  64.562  1.00  0.00    -0.312 NA 
HETATM    7  H1  UNL     1     -11.694  12.824  63.839  1.00  0.00     0.000 HD 
ENDBRANCH   2   4
BRANCH   2   8
HETATM    8  C   UNL     1     -10.540  11.074  67.879  1.00  0.00    -0.244 A  
HETATM    9  C   UNL     1     -11.337  10.159  70.020  1.00  0.00    -0.351 A  
HETATM   10  C   UNL     1     -10.672  10.019  68.787  1.00  0.00    -0.250 A  
HETATM   11  C   UNL     1     -11.892  11.414  70.326  1.00  0.00    -0.438 A  
HETATM   12  C   UNL     1     -11.101  12.316  68.228  1.00  0.00    -0.282 A  
HETATM   13  C   UNL     1     -11.798  12.493  69.430  1.00  0.00    -0.368 A  
BRANCH   9  14
HETATM   14  C   UNL     1     -11.439   8.925  70.938  1.00  0.00    -0.339 C  
HETATM   15  C   UNL     1     -12.809   8.838  71.528  1.00  0.00    -0.325 C  
HETATM   16  C   UNL     1     -11.183   7.650  70.098  1.00  0.00    -0.193 C  
HETATM   17  C   UNL     1     -10.434   8.937  72.100  1.00  0.00    -0.320 C  
HETATM   18  N   UNL     1     -13.880   8.762  71.970  1.00  0.00    -0.426 NA 
ENDBRANCH   9  14
BRANCH  13  19
HETATM   19  C   UNL     1     -12.501  13.801  69.710  1.00  0.00    -0.162 C  
BRANCH  19  20
HETATM   20  N   UNL     1     -12.500  14.194  71.107  1.00  0.00    -0.351 NA 
HETATM   21  C   UNL     1     -11.608  14.998  71.752  1.00  0.00    -0.356 A  
HETATM   22  N   UNL     1     -12.089  15.335  72.926  1.00  0.00    -0.399 NA 
HETATM   23  C   UNL     1     -13.302  14.711  72.954  1.00  0.00    -0.487 A  
HETATM   24  N   UNL     1     -13.599  13.996  71.867  1.00  0.00    -0.400 NA 
ENDBRANCH  19  20
ENDBRANCH  13  19
ENDBRANCH   2   8
TORSDOF 5
ENDMDL
MODEL       58
REMARK 921   NORMALIZED FREE ENERGY PREDICTED BY IDOCK:   -5.50 KCAL/MOL
REMARK 922        TOTAL FREE ENERGY PREDICTED BY IDOCK:   -7.89 KCAL/MOL
REMARK 923 INTER-LIGAND FREE ENERGY PREDICTED BY IDOCK:   -6.99 KCAL/MOL
REMARK 924 INTRA-LIGAND FREE ENERGY PREDICTED BY IDOCK:   -0.90 KCAL/MOL
REMARK 927      BINDING AFFINITY PREDICTED BY RF-SCORE:    0.00 PKD
ROOT
HETATM    1  C   UNL     1      -9.118  11.006  69.028  1.00  0.00    -0.076 C  
HETATM    2  C   UNL     1     -10.631  11.144  68.748  1.00  0.00    -0.233 C  
HETATM    3  C   UNL     1     -10.869  10.645  67.303  1.00  0.00    -0.345 C  
ENDROOT
BRANCH   2   4
HETATM    4  C   UNL     1     -11.378  10.181  69.657  1.00  0.00    -0.235 C  
HETATM    5  H2  UNL     1     -12.489   8.907  69.653  1.00  0.00     0.000 HD 
HETATM    6  N   UNL     1     -11.997   9.381  70.411  1.00  0.00    -0.469 NA 
HETATM    7  H1  UNL     1     -12.497   8.736  71.021  1.00  0.00     0.000 HD 
ENDBRANCH   2   4
BRANCH   2   8
HETATM    8  C   UNL     1     -11.076  12.575  69.031  1.00  0.00    -0.287 A  
HETATM    9  C   UNL     1     -12.217  14.214  70.469  1.00  0.00    -0.431 A  
HETATM   10  C   UNL     1     -11.769  12.907  70.199  1.00  0.00    -0.234 A  
HETATM   11  C   UNL     1     -11.956  15.207  69.509  1.00  0.00    -0.351 A  
HETATM   12  C   UNL     1     -10.826  13.600  68.100  1.00  0.00    -0.262 A  
HETATM   13  C   UNL     1     -11.280  14.908  68.313  1.00  0.00    -0.306 A  
BRANCH   9  14
HETATM   14  C   UNL     1     -12.987  14.464  71.781  1.00  0.00    -0.419 C  
HETATM   15  C   UNL     1     -12.197  15.368  72.672  1.00  0.00    -0.416 C  
HETATM   16  C   UNL     1     -14.334  15.152  71.451  1.00  0.00    -0.601 C  
HETATM   17  C   UNL     1     -13.288  13.182  72.571  1.00  0.00    -0.525 C  
HETATM   18  N   UNL     1     -11.592  16.086  73.355  1.00  0.00    -0.061 NA 
ENDBRANCH   9  14
BRANCH  13  19
HETATM   19  C   UNL     1     -11.112  15.951  67.232  1.00  0.00    -0.172 C  
BRANCH  19  20
HETATM   20  N   UNL     1     -10.221  17.041  67.586  1.00  0.00    -0.306 NA 
HETATM   21  C   UNL     1     -10.509  18.371  67.651  1.00  0.00    -0.419 A  
HETATM   22  N   UNL     1      -9.534  19.003  68.265  1.00  0.00    -0.329 NA 
HETATM   23  C   UNL     1      -8.661  18.000  68.571  1.00  0.00    -0.295 A  
HETATM   24  N   UNL     1      -9.033  16.781  68.174  1.00  0.00    -0.218 NA 
ENDBRANCH  19  20
ENDBRANCH  13  19
ENDBRANCH   2   8
TORSDOF 5
ENDMDL
MODEL       59
REMARK 921   NORMALIZED FREE ENERGY PREDICTED BY IDOCK:   -5.48 KCAL/MOL
REMARK 922        TOTAL FREE ENERGY PREDICTED BY IDOCK:   -7.87 KCAL/MOL
REMARK 923 INTER-LIGAND FREE ENERGY PREDICTED BY IDOCK:   -7.23 KCAL/MOL
REMARK 924 INTRA-LIGAND FREE ENERGY PREDICTED BY IDOCK:   -0.64 KCAL/MOL
REMARK 927      BINDING AFFINITY PREDICTED BY RF-SCORE:    0.00 PKD
ROOT
HETATM    1  C   UNL     1     -12.754  13.700  65.556  1.00  0.00    -0.514 C  
HETATM    2  C   UNL     1     -11.360  13.794  66.218  1.00  0.00    -0.329 C  
HETATM    3  C   UNL     1     -10.334  13.990  65.077  1.00  0.00    -0.432 C  
ENDROOT
BRANCH   2   4
HETATM    4  C   UNL     1     -11.311  15.062  67.055  1.00  0.00    -0.318 C  
HETATM    5  H2  UNL     1     -10.773  16.664  67.048  1.00  0.00     0.000 HD 
HETATM    6  N   UNL     1     -11.269  16.115  67.749  1.00  0.00    -0.257 NA 
HETATM    7  H1  UNL     1     -11.236  16.965  68.310  1.00  0.00     0.000 HD 
ENDBRANCH   2   4
BRANCH   2   8
HETATM    8  C   UNL     1     -11.132  12.576  67.106  1.00  0.00    -0.321 A  
HETATM    9  C   UNL     1     -10.285  10.287  67.418  1.00  0.00    -0.265 A  
HETATM   10  C   UNL     1     -10.480  11.435  66.628  1.00  0.00    -0.285 A  
HETATM   11  C   UNL     1     -10.781  10.305  68.733  1.00  0.00    -0.247 A  
HETATM   12  C   UNL     1     -11.603  12.557  68.431  1.00  0.00    -0.368 A  
HETATM   13  C   UNL     1     -11.458  11.426  69.243  1.00  0.00    -0.370 A  
BRANCH   9  14
HETATM   14  C   UNL     1      -9.569   9.078  66.784  1.00  0.00    -0.259 C  
HETATM   15  C   UNL     1     -10.390   7.843  66.968  1.00  0.00    -0.341 C  
HETATM   16  C   UNL     1      -9.398   9.333  65.267  1.00  0.00    -0.269 C  
HETATM   17  C   UNL     1      -8.180   8.803  67.379  1.00  0.00    -0.109 C  
HETATM   18  N   UNL     1     -11.039   6.888  67.096  1.00  0.00    -0.357 NA 
ENDBRANCH   9  14
BRANCH  13  19
HETATM   19  C   UNL     1     -12.096  11.393  70.614  1.00  0.00    -0.372 C  
BRANCH  19  20
HETATM   20  N   UNL     1     -12.262  10.061  71.165  1.00  0.00    -0.349 NA 
HETATM   21  C   UNL     1     -11.329   9.290  71.792  1.00  0.00    -0.367 A  
HETATM   22  N   UNL     1     -11.921   8.277  72.383  1.00  0.00    -0.383 NA 
HETATM   23  C   UNL     1     -13.239   8.478  72.094  1.00  0.00    -0.352 A  
HETATM   24  N   UNL     1     -13.500   9.553  71.347  1.00  0.00    -0.369 NA 
ENDBRANCH  19  20
ENDBRANCH  13  19
ENDBRANCH   2   8
TORSDOF 5
ENDMDL
MODEL       60
REMARK 921   NORMALIZED FREE ENERGY PREDICTED BY IDOCK:   -5.48 KCAL/MOL
REMARK 922        TOTAL FREE ENERGY PREDICTED BY IDOCK:   -7.87 KCAL/MOL
REMARK 923 INTER-LIGAND FREE ENERGY PREDICTED BY IDOCK:   -7.06 KCAL/MOL
REMARK 924 INTRA-LIGAND FREE ENERGY PREDICTED BY IDOCK:   -0.80 KCAL/MOL
REMARK 927      BINDING AFFINITY PREDICTED BY RF-SCORE:    0.00 PKD
ROOT
HETATM    1  C   UNL     1      -9.779   4.649  68.463  1.00  0.00    -0.208 C  
HETATM    2  C   UNL     1      -9.653   5.590  67.244  1.00  0.00    -0.132 C  
HETATM    3  C   UNL     1      -8.246   5.360  66.641  1.00  0.00    -0.108 C  
ENDROOT
BRANCH   2   4
HETATM    4  C   UNL     1     -10.646   5.139  66.185  1.00  0.00    -0.236 C  
HETATM    5  H2  UNL     1     -10.905   5.078  64.516  1.00  0.00     0.000 HD 
HETATM    6  N   UNL     1     -11.469   4.766  65.306  1.00  0.00    -1.061 NA 
HETATM    7  H1  UNL     1     -12.136   4.463  64.596  1.00  0.00     0.000 HD 
ENDBRANCH   2   4
BRANCH   2   8
HETATM    8  C   UNL     1      -9.961   7.022  67.668  1.00  0.00    -0.194 A  
HETATM    9  C   UNL     1     -10.659   8.639  69.387  1.00  0.00    -0.207 A  
HETATM   10  C   UNL     1     -10.340   7.330  68.978  1.00  0.00    -0.208 A  
HETATM   11  C   UNL     1     -10.598   9.659  68.422  1.00  0.00    -0.264 A  
HETATM   12  C   UNL     1      -9.901   8.074  66.736  1.00  0.00    -0.327 A  
HETATM   13  C   UNL     1     -10.240   9.386  67.091  1.00  0.00    -0.319 A  
BRANCH   9  14
HETATM   14  C   UNL     1     -11.083   8.862  70.852  1.00  0.00    -0.328 C  
HETATM   15  C   UNL     1      -9.894   8.752  71.750  1.00  0.00    -0.321 C  
HETATM   16  C   UNL     1     -11.677  10.284  70.994  1.00  0.00    -0.461 C  
HETATM   17  C   UNL     1     -12.133   7.857  71.349  1.00  0.00    -0.333 C  
HETATM   18  N   UNL     1      -8.965   8.685  72.445  1.00  0.00    -0.373 NA 
ENDBRANCH   9  14
BRANCH  13  19
HETATM   19  C   UNL     1     -10.294  10.464  66.033  1.00  0.00    -0.192 C  
BRANCH  19  20
HETATM   20  N   UNL     1     -10.692  11.769  66.528  1.00  0.00    -0.254 NA 
HETATM   21  C   UNL     1      -9.889  12.813  66.879  1.00  0.00    -0.236 A  
HETATM   22  N   UNL     1     -10.615  13.899  67.015  1.00  0.00    -0.278 NA 
HETATM   23  C   UNL     1     -11.876  13.467  66.725  1.00  0.00    -0.403 A  
HETATM   24  N   UNL     1     -11.977  12.170  66.425  1.00  0.00    -0.621 NA 
ENDBRANCH  19  20
ENDBRANCH  13  19
ENDBRANCH   2   8
TORSDOF 5
ENDMDL
MODEL       61
REMARK 921   NORMALIZED FREE ENERGY PREDICTED BY IDOCK:   -5.46 KCAL/MOL
REMARK 922        TOTAL FREE ENERGY PREDICTED BY IDOCK:   -7.85 KCAL/MOL
REMARK 923 INTER-LIGAND FREE ENERGY PREDICTED BY IDOCK:   -7.81 KCAL/MOL
REMARK 924 INTRA-LIGAND FREE ENERGY PREDICTED BY IDOCK:   -0.04 KCAL/MOL
REMARK 927      BINDING AFFINITY PREDICTED BY RF-SCORE:    0.00 PKD
ROOT
HETATM    1  C   UNL     1     -12.586  13.149  65.941  1.00  0.00    -0.271 C  
HETATM    2  C   UNL     1     -11.441  14.181  65.830  1.00  0.00    -0.338 C  
HETATM    3  C   UNL     1     -10.187  13.413  65.348  1.00  0.00    -0.311 C  
ENDROOT
BRANCH   2   4
HETATM    4  C   UNL     1     -11.787  15.164  64.723  1.00  0.00    -0.291 C  
HETATM    5  H2  UNL     1     -11.319  16.631  64.026  1.00  0.00     0.000 HD 
HETATM    6  N   UNL     1     -12.073  15.981  63.805  1.00  0.00    -1.255 NA 
HETATM    7  H1  UNL     1     -12.305  16.640  63.063  1.00  0.00     0.000 HD 
ENDBRANCH   2   4
BRANCH   2   8
HETATM    8  C   UNL     1     -11.290  14.923  67.154  1.00  0.00    -0.348 A  
HETATM    9  C   UNL     1     -10.480  16.858  68.440  1.00  0.00    -0.355 A  
HETATM   10  C   UNL     1     -10.659  16.168  67.226  1.00  0.00    -0.305 A  
HETATM   11  C   UNL     1     -10.952  16.249  69.615  1.00  0.00    -0.346 A  
HETATM   12  C   UNL     1     -11.757  14.352  68.352  1.00  0.00    -0.367 A  
HETATM   13  C   UNL     1     -11.573  14.988  69.586  1.00  0.00    -0.333 A  
BRANCH   9  14
HETATM   14  C   UNL     1      -9.754  18.218  68.406  1.00  0.00    -0.373 C  
HETATM   15  C   UNL     1     -10.162  18.984  67.189  1.00  0.00    -0.388 C  
HETATM   16  C   UNL     1     -10.154  19.034  69.658  1.00  0.00     0.309 C  
HETATM   17  C   UNL     1      -8.223  18.098  68.385  1.00  0.00    -0.314 C  
HETATM   18  N   UNL     1     -10.495  19.587  66.253  1.00  0.00    -0.485 NA 
ENDBRANCH   9  14
BRANCH  13  19
HETATM   19  C   UNL     1     -11.967  14.284  70.865  1.00  0.00    -0.320 C  
BRANCH  19  20
HETATM   20  N   UNL     1     -12.333  12.890  70.691  1.00  0.00    -0.346 NA 
HETATM   21  C   UNL     1     -11.776  11.975  69.850  1.00  0.00    -0.299 A  
HETATM   22  N   UNL     1     -12.188  10.771  70.173  1.00  0.00    -0.327 NA 
HETATM   23  C   UNL     1     -13.003  11.001  71.243  1.00  0.00    -0.372 A  
HETATM   24  N   UNL     1     -13.129  12.282  71.597  1.00  0.00    -0.380 NA 
ENDBRANCH  19  20
ENDBRANCH  13  19
ENDBRANCH   2   8
TORSDOF 5
ENDMDL
MODEL       62
REMARK 921   NORMALIZED FREE ENERGY PREDICTED BY IDOCK:   -5.45 KCAL/MOL
REMARK 922        TOTAL FREE ENERGY PREDICTED BY IDOCK:   -7.84 KCAL/MOL
REMARK 923 INTER-LIGAND FREE ENERGY PREDICTED BY IDOCK:   -7.20 KCAL/MOL
REMARK 924 INTRA-LIGAND FREE ENERGY PREDICTED BY IDOCK:   -0.64 KCAL/MOL
REMARK 927      BINDING AFFINITY PREDICTED BY RF-SCORE:    0.00 PKD
ROOT
HETATM    1  C   UNL     1     -11.762  13.420  66.265  1.00  0.00    -0.405 C  
HETATM    2  C   UNL     1     -11.014  12.956  67.535  1.00  0.00    -0.283 C  
HETATM    3  C   UNL     1     -11.591  11.573  67.918  1.00  0.00    -0.352 C  
ENDROOT
BRANCH   2   4
HETATM    4  C   UNL     1      -9.556  12.721  67.174  1.00  0.00    -0.219 C  
HETATM    5  H2  UNL     1      -8.392  13.032  65.988  1.00  0.00     0.000 HD 
HETATM    6  N   UNL     1      -8.346  12.527  66.873  1.00  0.00    -0.339 NA 
HETATM    7  H1  UNL     1      -7.369  12.369  66.631  1.00  0.00     0.000 HD 
ENDBRANCH   2   4
BRANCH   2   8
HETATM    8  C   UNL     1     -11.115  14.033  68.611  1.00  0.00    -0.286 A  
HETATM    9  C   UNL     1     -12.057  14.854  70.731  1.00  0.00    -0.377 A  
HETATM   10  C   UNL     1     -11.923  13.863  69.739  1.00  0.00    -0.398 A  
HETATM   11  C   UNL     1     -11.351  16.056  70.554  1.00  0.00    -0.420 A  
HETATM   12  C   UNL     1     -10.417  15.246  68.478  1.00  0.00    -0.235 A  
HETATM   13  C   UNL     1     -10.545  16.271  69.423  1.00  0.00    -0.301 A  
BRANCH   9  14
HETATM   14  C   UNL     1     -12.989  14.569  71.925  1.00  0.00    -0.415 C  
HETATM   15  C   UNL     1     -12.361  15.055  73.191  1.00  0.00    -0.398 C  
HETATM   16  C   UNL     1     -14.323  15.326  71.715  1.00  0.00    -0.678 C  
HETATM   17  C   UNL     1     -13.313  13.079  72.111  1.00  0.00    -0.622 C  
HETATM   18  N   UNL     1     -11.880  15.450  74.171  1.00  0.00    -0.295 NA 
ENDBRANCH   9  14
BRANCH  13  19
HETATM   19  C   UNL     1      -9.887  17.611  69.179  1.00  0.00    -0.145 C  
BRANCH  19  20
HETATM   20  N   UNL     1      -8.481  17.531  68.828  1.00  0.00    -0.252 NA 
HETATM   21  C   UNL     1      -7.579  16.576  69.191  1.00  0.00    -0.210 A  
HETATM   22  N   UNL     1      -6.492  16.699  68.464  1.00  0.00    -0.135 NA 
HETATM   23  C   UNL     1      -6.783  17.754  67.649  1.00  0.00    -0.183 A  
HETATM   24  N   UNL     1      -7.986  18.302  67.835  1.00  0.00    -0.249 NA 
ENDBRANCH  19  20
ENDBRANCH  13  19
ENDBRANCH   2   8
TORSDOF 5
ENDMDL
MODEL       63
REMARK 921   NORMALIZED FREE ENERGY PREDICTED BY IDOCK:   -5.45 KCAL/MOL
REMARK 922        TOTAL FREE ENERGY PREDICTED BY IDOCK:   -7.83 KCAL/MOL
REMARK 923 INTER-LIGAND FREE ENERGY PREDICTED BY IDOCK:   -6.95 KCAL/MOL
REMARK 924 INTRA-LIGAND FREE ENERGY PREDICTED BY IDOCK:   -0.88 KCAL/MOL
REMARK 927      BINDING AFFINITY PREDICTED BY RF-SCORE:    0.00 PKD
ROOT
HETATM    1  C   UNL     1      -9.625   8.569  66.482  1.00  0.00    -0.303 C  
HETATM    2  C   UNL     1      -9.843   9.350  67.798  1.00  0.00    -0.207 C  
HETATM    3  C   UNL     1     -10.567   8.393  68.774  1.00  0.00    -0.154 C  
ENDROOT
BRANCH   2   4
HETATM    4  C   UNL     1      -8.484   9.637  68.416  1.00  0.00    -0.118 C  
HETATM    5  H2  UNL     1      -7.026  10.451  68.153  1.00  0.00     0.000 HD 
HETATM    6  N   UNL     1      -7.356   9.876  68.928  1.00  0.00    -0.076 NA 
HETATM    7  H1  UNL     1      -6.444  10.068  69.342  1.00  0.00     0.000 HD 
ENDBRANCH   2   4
BRANCH   2   8
HETATM    8  C   UNL     1     -10.566  10.660  67.503  1.00  0.00    -0.297 A  
HETATM    9  C   UNL     1     -11.500  12.269  65.893  1.00  0.00    -0.428 A  
HETATM   10  C   UNL     1     -10.862  11.051  66.194  1.00  0.00    -0.212 A  
HETATM   11  C   UNL     1     -11.836  13.114  66.965  1.00  0.00    -0.435 A  
HETATM   12  C   UNL     1     -10.927  11.529  68.548  1.00  0.00    -0.268 A  
HETATM   13  C   UNL     1     -11.536  12.765  68.293  1.00  0.00    -0.375 A  
BRANCH   9  14
HETATM   14  C   UNL     1     -11.763  12.609  64.413  1.00  0.00    -0.431 C  
HETATM   15  C   UNL     1     -12.163  14.043  64.281  1.00  0.00    -0.418 C  
HETATM   16  C   UNL     1     -10.461  12.386  63.606  1.00  0.00    -0.460 C  
HETATM   17  C   UNL     1     -12.870  11.758  63.773  1.00  0.00    -0.302 C  
HETATM   18  N   UNL     1     -12.455  15.162  64.178  1.00  0.00    -0.714 NA 
ENDBRANCH   9  14
BRANCH  13  19
HETATM   19  C   UNL     1     -11.788  13.730  69.429  1.00  0.00    -0.341 C  
BRANCH  19  20
HETATM   20  N   UNL     1     -11.031  14.966  69.341  1.00  0.00    -0.262 NA 
HETATM   21  C   UNL     1      -9.695  15.147  69.535  1.00  0.00    -0.165 A  
HETATM   22  N   UNL     1      -9.344  16.337  69.105  1.00  0.00    -0.251 NA 
HETATM   23  C   UNL     1     -10.518  16.854  68.639  1.00  0.00    -0.352 A  
HETATM   24  N   UNL     1     -11.581  16.057  68.765  1.00  0.00    -0.381 NA 
ENDBRANCH  19  20
ENDBRANCH  13  19
ENDBRANCH   2   8
TORSDOF 5
ENDMDL
MODEL       64
REMARK 921   NORMALIZED FREE ENERGY PREDICTED BY IDOCK:   -5.44 KCAL/MOL
REMARK 922        TOTAL FREE ENERGY PREDICTED BY IDOCK:   -7.82 KCAL/MOL
REMARK 923 INTER-LIGAND FREE ENERGY PREDICTED BY IDOCK:   -7.19 KCAL/MOL
REMARK 924 INTRA-LIGAND FREE ENERGY PREDICTED BY IDOCK:   -0.63 KCAL/MOL
REMARK 927      BINDING AFFINITY PREDICTED BY RF-SCORE:    0.00 PKD
ROOT
HETATM    1  C   UNL     1     -12.203   9.846  71.499  1.00  0.00    -0.505 C  
HETATM    2  C   UNL     1     -11.129   9.217  70.583  1.00  0.00    -0.320 C  
HETATM    3  C   UNL     1      -9.836   9.095  71.423  1.00  0.00    -0.354 C  
ENDROOT
BRANCH   2   4
HETATM    4  C   UNL     1     -11.554   7.795  70.252  1.00  0.00    -0.034 C  
HETATM    5  H2  UNL     1     -11.010   6.195  70.226  1.00  0.00     0.000 HD 
HETATM    6  N   UNL     1     -11.906   6.615  69.978  1.00  0.00    -0.638 NA 
HETATM    7  H1  UNL     1     -12.191   5.662  69.756  1.00  0.00     0.000 HD 
ENDBRANCH   2   4
BRANCH   2   8
HETATM    8  C   UNL     1     -11.006  10.033  69.300  1.00  0.00    -0.264 A  
HETATM    9  C   UNL     1     -10.114  10.318  67.025  1.00  0.00    -0.268 A  
HETATM   10  C   UNL     1     -10.268   9.570  68.208  1.00  0.00    -0.225 A  
HETATM   11  C   UNL     1     -10.726  11.582  66.966  1.00  0.00    -0.300 A  
HETATM   12  C   UNL     1     -11.611  11.299  69.197  1.00  0.00    -0.387 A  
HETATM   13  C   UNL     1     -11.459  12.091  68.052  1.00  0.00    -0.392 A  
BRANCH   9  14
HETATM   14  C   UNL     1      -9.264   9.718  65.888  1.00  0.00    -0.236 C  
HETATM   15  C   UNL     1      -7.844  10.166  66.021  1.00  0.00    -0.122 C  
HETATM   16  C   UNL     1      -9.304   8.174  65.989  1.00  0.00    -0.184 C  
HETATM   17  C   UNL     1      -9.745  10.116  64.484  1.00  0.00    -0.361 C  
HETATM   18  N   UNL     1      -6.737  10.499  66.137  1.00  0.00    -0.119 NA 
ENDBRANCH   9  14
BRANCH  13  19
HETATM   19  C   UNL     1     -12.010  13.498  68.029  1.00  0.00    -0.337 C  
BRANCH  19  20
HETATM   20  N   UNL     1     -11.928  14.151  66.735  1.00  0.00    -0.431 NA 
HETATM   21  C   UNL     1     -10.897  14.885  66.230  1.00  0.00    -0.331 A  
HETATM   22  N   UNL     1     -11.082  15.076  64.943  1.00  0.00    -0.408 NA 
HETATM   23  C   UNL     1     -12.254  14.422  64.700  1.00  0.00    -0.464 A  
HETATM   24  N   UNL     1     -12.815  13.844  65.764  1.00  0.00    -0.504 NA 
ENDBRANCH  19  20
ENDBRANCH  13  19
ENDBRANCH   2   8
TORSDOF 5
ENDMDL
MODEL       65
REMARK 921   NORMALIZED FREE ENERGY PREDICTED BY IDOCK:   -5.41 KCAL/MOL
REMARK 922        TOTAL FREE ENERGY PREDICTED BY IDOCK:   -7.79 KCAL/MOL
REMARK 923 INTER-LIGAND FREE ENERGY PREDICTED BY IDOCK:   -6.94 KCAL/MOL
REMARK 924 INTRA-LIGAND FREE ENERGY PREDICTED BY IDOCK:   -0.84 KCAL/MOL
REMARK 927      BINDING AFFINITY PREDICTED BY RF-SCORE:    0.00 PKD
ROOT
HETATM    1  C   UNL     1     -13.160  13.711  65.398  1.00  0.00    -0.180 C  
HETATM    2  C   UNL     1     -11.812  13.861  64.656  1.00  0.00    -0.428 C  
HETATM    3  C   UNL     1     -11.930  13.054  63.341  1.00  0.00    -0.592 C  
ENDROOT
BRANCH   2   4
HETATM    4  C   UNL     1     -11.649  15.316  64.248  1.00  0.00    -0.197 C  
HETATM    5  H2  UNL     1     -11.563  16.889  64.861  1.00  0.00     0.000 HD 
HETATM    6  N   UNL     1     -11.514  16.524  63.910  1.00  0.00    -1.599 NA 
HETATM    7  H1  UNL     1     -11.405  17.500  63.636  1.00  0.00     0.000 HD 
ENDBRANCH   2   4
BRANCH   2   8
HETATM    8  C   UNL     1     -10.671  13.450  65.580  1.00  0.00    -0.283 A  
HETATM    9  C   UNL     1      -8.734  14.042  66.977  1.00  0.00    -0.220 A  
HETATM   10  C   UNL     1      -9.813  14.398  66.146  1.00  0.00    -0.340 A  
HETATM   11  C   UNL     1      -8.522  12.675  67.226  1.00  0.00    -0.193 A  
HETATM   12  C   UNL     1     -10.430  12.094  65.863  1.00  0.00    -0.288 A  
HETATM   13  C   UNL     1      -9.350  11.692  66.659  1.00  0.00    -0.203 A  
BRANCH   9  14
HETATM   14  C   UNL     1      -7.840  15.168  67.534  1.00  0.00    -0.203 C  
HETATM   15  C   UNL     1      -7.827  16.325  66.588  1.00  0.00    -0.275 C  
HETATM   16  C   UNL     1      -8.417  15.647  68.888  1.00  0.00    -0.213 C  
HETATM   17  C   UNL     1      -6.382  14.740  67.763  1.00  0.00    -0.172 C  
HETATM   18  N   UNL     1      -7.833  17.231  65.861  1.00  0.00    -0.503 NA 
ENDBRANCH   9  14
BRANCH  13  19
HETATM   19  C   UNL     1      -9.044  10.222  66.830  1.00  0.00    -0.143 C  
BRANCH  19  20
HETATM   20  N   UNL     1      -9.239   9.723  68.179  1.00  0.00    -0.129 NA 
HETATM   21  C   UNL     1      -8.289   9.409  69.103  1.00  0.00    -0.125 A  
HETATM   22  N   UNL     1      -8.852   9.257  70.280  1.00  0.00    -0.204 NA 
HETATM   23  C   UNL     1     -10.170   9.500  70.025  1.00  0.00    -0.244 A  
HETATM   24  N   UNL     1     -10.460   9.786  68.754  1.00  0.00    -0.210 NA 
ENDBRANCH  19  20
ENDBRANCH  13  19
ENDBRANCH   2   8
TORSDOF 5
ENDMDL
MODEL       66
REMARK 921   NORMALIZED FREE ENERGY PREDICTED BY IDOCK:   -5.41 KCAL/MOL
REMARK 922        TOTAL FREE ENERGY PREDICTED BY IDOCK:   -7.78 KCAL/MOL
REMARK 923 INTER-LIGAND FREE ENERGY PREDICTED BY IDOCK:   -7.19 KCAL/MOL
REMARK 924 INTRA-LIGAND FREE ENERGY PREDICTED BY IDOCK:   -0.60 KCAL/MOL
REMARK 927      BINDING AFFINITY PREDICTED BY RF-SCORE:    0.00 PKD
ROOT
HETATM    1  C   UNL     1      -9.056   8.556  65.350  1.00  0.00    -0.103 C  
HETATM    2  C   UNL     1      -9.139  10.099  65.395  1.00  0.00    -0.227 C  
HETATM    3  C   UNL     1      -7.691  10.630  65.275  1.00  0.00    -0.021 C  
ENDROOT
BRANCH   2   4
HETATM    4  C   UNL     1      -9.871  10.577  64.152  1.00  0.00    -0.337 C  
HETATM    5  H2  UNL     1     -10.881  11.799  63.566  1.00  0.00     0.000 HD 
HETATM    6  N   UNL     1     -10.478  10.975  63.121  1.00  0.00    -0.755 NA 
HETATM    7  H1  UNL     1     -10.969  11.295  62.286  1.00  0.00     0.000 HD 
ENDBRANCH   2   4
BRANCH   2   8
HETATM    8  C   UNL     1      -9.898  10.534  66.644  1.00  0.00    -0.246 A  
HETATM    9  C   UNL     1     -10.700  10.078  68.925  1.00  0.00    -0.243 A  
HETATM   10  C   UNL     1      -9.980   9.712  67.772  1.00  0.00    -0.211 A  
HETATM   11  C   UNL     1     -11.364  11.318  68.917  1.00  0.00    -0.340 A  
HETATM   12  C   UNL     1     -10.567  11.771  66.681  1.00  0.00    -0.275 A  
HETATM   13  C   UNL     1     -11.321  12.162  67.794  1.00  0.00    -0.371 A  
BRANCH   9  14
HETATM   14  C   UNL     1     -10.740   9.088  70.105  1.00  0.00    -0.258 C  
HETATM   15  C   UNL     1     -11.925   9.371  70.971  1.00  0.00    -0.315 C  
HETATM   16  C   UNL     1     -10.867   7.648  69.551  1.00  0.00    -0.171 C  
HETATM   17  C   UNL     1      -9.490   9.144  70.998  1.00  0.00    -0.344 C  
HETATM   18  N   UNL     1     -12.856   9.579  71.632  1.00  0.00    -0.364 NA 
ENDBRANCH   9  14
BRANCH  13  19
HETATM   19  C   UNL     1     -12.135  13.435  67.745  1.00  0.00    -0.259 C  
BRANCH  19  20
HETATM   20  N   UNL     1     -12.051  14.150  66.485  1.00  0.00    -0.446 NA 
HETATM   21  C   UNL     1     -11.086  15.022  66.078  1.00  0.00    -0.329 A  
HETATM   22  N   UNL     1     -11.212  15.247  64.791  1.00  0.00    -0.410 NA 
HETATM   23  C   UNL     1     -12.280  14.472  64.444  1.00  0.00    -0.458 A  
HETATM   24  N   UNL     1     -12.832  13.784  65.446  1.00  0.00    -0.705 NA 
ENDBRANCH  19  20
ENDBRANCH  13  19
ENDBRANCH   2   8
TORSDOF 5
ENDMDL
MODEL       67
REMARK 921   NORMALIZED FREE ENERGY PREDICTED BY IDOCK:   -5.41 KCAL/MOL
REMARK 922        TOTAL FREE ENERGY PREDICTED BY IDOCK:   -7.78 KCAL/MOL
REMARK 923 INTER-LIGAND FREE ENERGY PREDICTED BY IDOCK:   -8.05 KCAL/MOL
REMARK 924 INTRA-LIGAND FREE ENERGY PREDICTED BY IDOCK:    0.26 KCAL/MOL
REMARK 927      BINDING AFFINITY PREDICTED BY RF-SCORE:    0.00 PKD
ROOT
HETATM    1  C   UNL     1     -10.397   9.534  66.503  1.00  0.00    -0.263 C  
HETATM    2  C   UNL     1      -9.891  10.871  65.914  1.00  0.00    -0.285 C  
HETATM    3  C   UNL     1      -8.354  10.750  65.782  1.00  0.00    -0.158 C  
ENDROOT
BRANCH   2   4
HETATM    4  C   UNL     1     -10.428  11.006  64.498  1.00  0.00    -0.342 C  
HETATM    5  H2  UNL     1     -11.490  11.904  63.538  1.00  0.00     0.000 HD 
HETATM    6  N   UNL     1     -10.875  11.119  63.324  1.00  0.00    -0.787 NA 
HETATM    7  H1  UNL     1     -11.236  11.209  62.375  1.00  0.00     0.000 HD 
ENDBRANCH   2   4
BRANCH   2   8
HETATM    8  C   UNL     1     -10.389  12.030  66.771  1.00  0.00    -0.233 A  
HETATM    9  C   UNL     1     -10.562  14.445  67.208  1.00  0.00    -0.279 A  
HETATM   10  C   UNL     1     -10.140  13.359  66.417  1.00  0.00    -0.292 A  
HETATM   11  C   UNL     1     -11.250  14.159  68.399  1.00  0.00    -0.289 A  
HETATM   12  C   UNL     1     -11.090  11.787  67.966  1.00  0.00    -0.297 A  
HETATM   13  C   UNL     1     -11.502  12.835  68.799  1.00  0.00    -0.347 A  
BRANCH   9  14
HETATM   14  C   UNL     1     -10.219  15.870  66.732  1.00  0.00    -0.283 C  
HETATM   15  C   UNL     1     -10.869  16.139  65.413  1.00  0.00    -0.307 C  
HETATM   16  C   UNL     1     -10.757  16.890  67.764  1.00  0.00    -0.315 C  
HETATM   17  C   UNL     1      -8.711  16.116  66.563  1.00  0.00    -0.337 C  
HETATM   18  N   UNL     1     -11.391  16.354  64.398  1.00  0.00    -0.876 NA 
ENDBRANCH   9  14
BRANCH  13  19
HETATM   19  C   UNL     1     -12.132  12.532  70.139  1.00  0.00    -0.292 C  
BRANCH  19  20
HETATM   20  N   UNL     1     -12.689  13.690  70.813  1.00  0.00    -0.298 NA 
HETATM   21  C   UNL     1     -12.824  14.957  70.331  1.00  0.00    -0.280 A  
HETATM   22  N   UNL     1     -13.611  15.649  71.124  1.00  0.00    -0.576 NA 
HETATM   23  C   UNL     1     -13.947  14.745  72.089  1.00  0.00    -0.490 A  
HETATM   24  N   UNL     1     -13.406  13.533  71.948  1.00  0.00    -0.419 NA 
ENDBRANCH  19  20
ENDBRANCH  13  19
ENDBRANCH   2   8
TORSDOF 5
ENDMDL
MODEL       68
REMARK 921   NORMALIZED FREE ENERGY PREDICTED BY IDOCK:   -5.41 KCAL/MOL
REMARK 922        TOTAL FREE ENERGY PREDICTED BY IDOCK:   -7.78 KCAL/MOL
REMARK 923 INTER-LIGAND FREE ENERGY PREDICTED BY IDOCK:   -7.20 KCAL/MOL
REMARK 924 INTRA-LIGAND FREE ENERGY PREDICTED BY IDOCK:   -0.58 KCAL/MOL
REMARK 927      BINDING AFFINITY PREDICTED BY RF-SCORE:    0.00 PKD
ROOT
HETATM    1  C   UNL     1     -13.132  13.157  71.916  1.00  0.00    -0.482 C  
HETATM    2  C   UNL     1     -12.949  14.575  71.330  1.00  0.00    -0.403 C  
HETATM    3  C   UNL     1     -14.365  15.146  71.082  1.00  0.00    -0.406 C  
ENDROOT
BRANCH   2   4
HETATM    4  C   UNL     1     -12.317  15.457  72.395  1.00  0.00    -0.381 C  
HETATM    5  H2  UNL     1     -12.256  17.045  72.971  1.00  0.00     0.000 HD 
HETATM    6  N   UNL     1     -11.794  16.189  73.279  1.00  0.00    -0.403 NA 
HETATM    7  H1  UNL     1     -11.370  16.780  73.993  1.00  0.00     0.000 HD 
ENDBRANCH   2   4
BRANCH   2   8
HETATM    8  C   UNL     1     -12.042  14.511  70.105  1.00  0.00    -0.394 A  
HETATM    9  C   UNL     1     -10.367  15.545  68.629  1.00  0.00    -0.219 A  
HETATM   10  C   UNL     1     -11.191  15.568  69.771  1.00  0.00    -0.307 A  
HETATM   11  C   UNL     1     -10.426  14.411  67.802  1.00  0.00    -0.245 A  
HETATM   12  C   UNL     1     -12.064  13.389  69.256  1.00  0.00    -0.312 A  
HETATM   13  C   UNL     1     -11.285  13.337  68.094  1.00  0.00    -0.302 A  
BRANCH   9  14
HETATM   14  C   UNL     1      -9.479  16.773  68.346  1.00  0.00    -0.241 C  
HETATM   15  C   UNL     1      -8.200  16.666  69.111  1.00  0.00    -0.126 C  
HETATM   16  C   UNL     1      -9.148  16.817  66.835  1.00  0.00    -0.248 C  
HETATM   17  C   UNL     1     -10.136  18.108  68.728  1.00  0.00    -0.392 C  
HETATM   18  N   UNL     1      -7.198  16.572  69.690  1.00  0.00    -0.045 NA 
ENDBRANCH   9  14
BRANCH  13  19
HETATM   19  C   UNL     1     -11.435  12.177  67.136  1.00  0.00    -0.346 C  
BRANCH  19  20
HETATM   20  N   UNL     1     -11.569  12.564  65.744  1.00  0.00    -0.372 NA 
HETATM   21  C   UNL     1     -12.714  12.799  65.045  1.00  0.00    -0.380 A  
HETATM   22  N   UNL     1     -12.423  13.385  63.906  1.00  0.00    -0.699 NA 
HETATM   23  C   UNL     1     -11.064  13.499  63.957  1.00  0.00    -0.183 A  
HETATM   24  N   UNL     1     -10.493  13.007  65.058  1.00  0.00    -0.315 NA 
ENDBRANCH  19  20
ENDBRANCH  13  19
ENDBRANCH   2   8
TORSDOF 5
ENDMDL
MODEL       69
REMARK 921   NORMALIZED FREE ENERGY PREDICTED BY IDOCK:   -5.40 KCAL/MOL
REMARK 922        TOTAL FREE ENERGY PREDICTED BY IDOCK:   -7.77 KCAL/MOL
REMARK 923 INTER-LIGAND FREE ENERGY PREDICTED BY IDOCK:   -6.96 KCAL/MOL
REMARK 924 INTRA-LIGAND FREE ENERGY PREDICTED BY IDOCK:   -0.80 KCAL/MOL
REMARK 927      BINDING AFFINITY PREDICTED BY RF-SCORE:    0.00 PKD
ROOT
HETATM    1  C   UNL     1     -11.683  15.524  68.315  1.00  0.00    -0.287 C  
HETATM    2  C   UNL     1     -11.700  14.788  69.675  1.00  0.00    -0.354 C  
HETATM    3  C   UNL     1     -10.592  15.427  70.546  1.00  0.00    -0.229 C  
ENDROOT
BRANCH   2   4
HETATM    4  C   UNL     1     -13.016  15.097  70.371  1.00  0.00    -0.256 C  
HETATM    5  H2  UNL     1     -14.480  15.921  70.185  1.00  0.00     0.000 HD 
HETATM    6  N   UNL     1     -14.108  15.354  70.947  1.00  0.00    -0.864 NA 
HETATM    7  H1  UNL     1     -14.991  15.561  71.414  1.00  0.00     0.000 HD 
ENDBRANCH   2   4
BRANCH   2   8
HETATM    8  C   UNL     1     -11.573  13.286  69.447  1.00  0.00    -0.364 A  
HETATM    9  C   UNL     1     -10.788  11.389  68.090  1.00  0.00    -0.259 A  
HETATM   10  C   UNL     1     -10.892  12.771  68.340  1.00  0.00    -0.272 A  
HETATM   11  C   UNL     1     -11.409  10.512  68.996  1.00  0.00    -0.319 A  
HETATM   12  C   UNL     1     -12.172  12.374  70.334  1.00  0.00    -0.370 A  
HETATM   13  C   UNL     1     -12.120  10.992  70.109  1.00  0.00    -0.438 A  
BRANCH   9  14
HETATM   14  C   UNL     1     -10.028  10.931  66.830  1.00  0.00    -0.245 C  
HETATM   15  C   UNL     1      -8.701  11.615  66.756  1.00  0.00    -0.189 C  
HETATM   16  C   UNL     1      -9.790   9.404  66.911  1.00  0.00    -0.261 C  
HETATM   17  C   UNL     1     -10.774  11.227  65.520  1.00  0.00    -0.283 C  
HETATM   18  N   UNL     1      -7.662  12.133  66.711  1.00  0.00    -0.040 NA 
ENDBRANCH   9  14
BRANCH  13  19
HETATM   19  C   UNL     1     -12.888  10.051  71.008  1.00  0.00    -0.365 C  
BRANCH  19  20
HETATM   20  N   UNL     1     -12.157   8.854  71.384  1.00  0.00    -0.309 NA 
HETATM   21  C   UNL     1     -10.955   8.770  72.021  1.00  0.00    -0.368 A  
HETATM   22  N   UNL     1     -10.757   7.536  72.425  1.00  0.00    -0.243 NA 
HETATM   23  C   UNL     1     -11.887   6.892  72.015  1.00  0.00    -0.310 A  
HETATM   24  N   UNL     1     -12.774   7.652  71.369  1.00  0.00    -0.338 NA 
ENDBRANCH  19  20
ENDBRANCH  13  19
ENDBRANCH   2   8
TORSDOF 5
ENDMDL
MODEL       70
REMARK 921   NORMALIZED FREE ENERGY PREDICTED BY IDOCK:   -5.33 KCAL/MOL
REMARK 922        TOTAL FREE ENERGY PREDICTED BY IDOCK:   -7.68 KCAL/MOL
REMARK 923 INTER-LIGAND FREE ENERGY PREDICTED BY IDOCK:   -6.87 KCAL/MOL
REMARK 924 INTRA-LIGAND FREE ENERGY PREDICTED BY IDOCK:   -0.81 KCAL/MOL
REMARK 927      BINDING AFFINITY PREDICTED BY RF-SCORE:    0.00 PKD
ROOT
HETATM    1  C   UNL     1      -7.964   7.117  67.614  1.00  0.00    -0.114 C  
HETATM    2  C   UNL     1      -9.249   7.779  67.065  1.00  0.00    -0.176 C  
HETATM    3  C   UNL     1      -8.870   8.451  65.724  1.00  0.00    -0.204 C  
ENDROOT
BRANCH   2   4
HETATM    4  C   UNL     1     -10.245   6.683  66.724  1.00  0.00    -0.195 C  
HETATM    5  H2  UNL     1     -11.890   6.295  66.758  1.00  0.00     0.000 HD 
HETATM    6  N   UNL     1     -11.073   5.774  66.441  1.00  0.00    -0.767 NA 
HETATM    7  H1  UNL     1     -11.741   5.039  66.212  1.00  0.00     0.000 HD 
ENDBRANCH   2   4
BRANCH   2   8
HETATM    8  C   UNL     1      -9.839   8.707  68.122  1.00  0.00    -0.192 A  
HETATM    9  C   UNL     1     -11.013   9.038  70.259  1.00  0.00    -0.274 A  
HETATM   10  C   UNL     1     -10.434   8.204  69.283  1.00  0.00    -0.221 A  
HETATM   11  C   UNL     1     -10.991  10.425  70.032  1.00  0.00    -0.370 A  
HETATM   12  C   UNL     1      -9.828  10.101  67.938  1.00  0.00    -0.176 A  
HETATM   13  C   UNL     1     -10.420  10.966  68.867  1.00  0.00    -0.228 A  
BRANCH   9  14
HETATM   14  C   UNL     1     -11.657   8.377  71.493  1.00  0.00    -0.338 C  
HETATM   15  C   UNL     1     -10.621   8.132  72.542  1.00  0.00    -0.340 C  
HETATM   16  C   UNL     1     -12.730   9.330  72.073  1.00  0.00    -0.479 C  
HETATM   17  C   UNL     1     -12.333   7.031  71.188  1.00  0.00    -0.423 C  
HETATM   18  N   UNL     1      -9.818   7.961  73.363  1.00  0.00    -0.288 NA 
ENDBRANCH   9  14
BRANCH  13  19
HETATM   19  C   UNL     1     -10.508  12.446  68.572  1.00  0.00    -0.228 C  
BRANCH  19  20
HETATM   20  N   UNL     1     -10.881  12.761  67.205  1.00  0.00    -0.252 NA 
HETATM   21  C   UNL     1     -10.066  13.129  66.177  1.00  0.00    -0.291 A  
HETATM   22  N   UNL     1     -10.728  13.063  65.045  1.00  0.00    -0.303 NA 
HETATM   23  C   UNL     1     -11.963  12.632  65.434  1.00  0.00    -0.446 A  
HETATM   24  N   UNL     1     -12.110  12.437  66.747  1.00  0.00    -0.565 NA 
ENDBRANCH  19  20
ENDBRANCH  13  19
ENDBRANCH   2   8
TORSDOF 5
ENDMDL
MODEL       71
REMARK 921   NORMALIZED FREE ENERGY PREDICTED BY IDOCK:   -5.33 KCAL/MOL
REMARK 922        TOTAL FREE ENERGY PREDICTED BY IDOCK:   -7.68 KCAL/MOL
REMARK 923 INTER-LIGAND FREE ENERGY PREDICTED BY IDOCK:   -6.97 KCAL/MOL
REMARK 924 INTRA-LIGAND FREE ENERGY PREDICTED BY IDOCK:   -0.71 KCAL/MOL
REMARK 927      BINDING AFFINITY PREDICTED BY RF-SCORE:    0.00 PKD
ROOT
HETATM    1  C   UNL     1     -10.111  12.201  66.312  1.00  0.00    -0.247 C  
HETATM    2  C   UNL     1     -10.385  12.202  67.834  1.00  0.00    -0.216 C  
HETATM    3  C   UNL     1     -11.457  11.119  68.099  1.00  0.00    -0.373 C  
ENDROOT
BRANCH   2   4
HETATM    4  C   UNL     1      -9.126  11.736  68.547  1.00  0.00    -0.144 C  
HETATM    5  H2  UNL     1      -7.465  12.020  68.678  1.00  0.00     0.000 HD 
HETATM    6  N   UNL     1      -8.080  11.350  69.138  1.00  0.00    -0.366 NA 
HETATM    7  H1  UNL     1      -7.236  11.037  69.617  1.00  0.00     0.000 HD 
ENDBRANCH   2   4
BRANCH   2   8
HETATM    8  C   UNL     1     -10.747  13.612  68.288  1.00  0.00    -0.266 A  
HETATM    9  C   UNL     1     -10.227  16.013  68.423  1.00  0.00    -0.236 A  
HETATM   10  C   UNL     1      -9.931  14.707  67.989  1.00  0.00    -0.220 A  
HETATM   11  C   UNL     1     -11.388  16.199  69.194  1.00  0.00    -0.323 A  
HETATM   12  C   UNL     1     -11.904  13.843  69.053  1.00  0.00    -0.397 A  
HETATM   13  C   UNL     1     -12.222  15.120  69.532  1.00  0.00    -0.268 A  
BRANCH   9  14
HETATM   14  C   UNL     1      -9.249  17.145  68.052  1.00  0.00    -0.250 C  
HETATM   15  C   UNL     1      -9.772  18.455  68.544  1.00  0.00    -0.361 C  
HETATM   16  C   UNL     1      -7.884  16.873  68.729  1.00  0.00    -0.250 C  
HETATM   17  C   UNL     1      -9.010  17.280  66.540  1.00  0.00    -0.294 C  
HETATM   18  N   UNL     1     -10.170  19.470  68.945  1.00  0.00    -0.385 NA 
ENDBRANCH   9  14
BRANCH  13  19
HETATM   19  C   UNL     1     -13.399  15.306  70.462  1.00  0.00    -0.164 C  
BRANCH  19  20
HETATM   20  N   UNL     1     -13.046  15.361  71.869  1.00  0.00    -0.396 NA 
HETATM   21  C   UNL     1     -13.231  14.402  72.819  1.00  0.00    -0.520 A  
HETATM   22  N   UNL     1     -12.544  14.709  73.895  1.00  0.00    -0.432 NA 
HETATM   23  C   UNL     1     -11.936  15.880  73.549  1.00  0.00    -0.388 A  
HETATM   24  N   UNL     1     -12.214  16.324  72.321  1.00  0.00    -0.476 NA 
ENDBRANCH  19  20
ENDBRANCH  13  19
ENDBRANCH   2   8
TORSDOF 5
ENDMDL
MODEL       72
REMARK 921   NORMALIZED FREE ENERGY PREDICTED BY IDOCK:   -5.32 KCAL/MOL
REMARK 922        TOTAL FREE ENERGY PREDICTED BY IDOCK:   -7.67 KCAL/MOL
REMARK 923 INTER-LIGAND FREE ENERGY PREDICTED BY IDOCK:   -7.01 KCAL/MOL
REMARK 924 INTRA-LIGAND FREE ENERGY PREDICTED BY IDOCK:   -0.66 KCAL/MOL
REMARK 927      BINDING AFFINITY PREDICTED BY RF-SCORE:    0.00 PKD
ROOT
HETATM    1  C   UNL     1     -13.045  13.772  65.530  1.00  0.00    -0.210 C  
HETATM    2  C   UNL     1     -11.727  13.929  64.738  1.00  0.00    -0.399 C  
HETATM    3  C   UNL     1     -11.868  13.076  63.456  1.00  0.00    -0.582 C  
ENDROOT
BRANCH   2   4
HETATM    4  C   UNL     1     -11.614  15.373  64.277  1.00  0.00    -0.191 C  
HETATM    5  H2  UNL     1     -11.224  16.932  64.802  1.00  0.00     0.000 HD 
HETATM    6  N   UNL     1     -11.519  16.571  63.895  1.00  0.00    -1.599 NA 
HETATM    7  H1  UNL     1     -11.444  17.540  63.585  1.00  0.00     0.000 HD 
ENDBRANCH   2   4
BRANCH   2   8
HETATM    8  C   UNL     1     -10.545  13.577  65.636  1.00  0.00    -0.284 A  
HETATM    9  C   UNL     1      -9.080  11.899  66.680  1.00  0.00    -0.203 A  
HETATM   10  C   UNL     1     -10.147  12.252  65.833  1.00  0.00    -0.272 A  
HETATM   11  C   UNL     1      -8.408  12.934  67.353  1.00  0.00    -0.190 A  
HETATM   12  C   UNL     1      -9.841  14.584  66.320  1.00  0.00    -0.322 A  
HETATM   13  C   UNL     1      -8.792  14.277  67.197  1.00  0.00    -0.243 A  
BRANCH   9  14
HETATM   14  C   UNL     1      -8.737  10.404  66.837  1.00  0.00    -0.130 C  
HETATM   15  C   UNL     1      -9.252   9.897  68.146  1.00  0.00    -0.128 C  
HETATM   16  C   UNL     1      -9.418   9.608  65.698  1.00  0.00    -0.318 C  
HETATM   17  C   UNL     1      -7.230  10.110  66.787  1.00  0.00    -0.093 C  
HETATM   18  N   UNL     1      -9.669   9.499  69.153  1.00  0.00    -0.171 NA 
ENDBRANCH   9  14
BRANCH  13  19
HETATM   19  C   UNL     1      -8.148  15.372  68.017  1.00  0.00    -0.140 C  
BRANCH  19  20
HETATM   20  N   UNL     1      -8.282  16.701  67.449  1.00  0.00    -0.166 NA 
HETATM   21  C   UNL     1      -7.659  17.211  66.350  1.00  0.00    -0.312 A  
HETATM   22  N   UNL     1      -8.236  18.337  65.999  1.00  0.00    -0.506 NA 
HETATM   23  C   UNL     1      -9.232  18.474  66.922  1.00  0.00    -0.290 A  
HETATM   24  N   UNL     1      -9.300  17.502  67.834  1.00  0.00    -0.260 NA 
ENDBRANCH  19  20
ENDBRANCH  13  19
ENDBRANCH   2   8
TORSDOF 5
ENDMDL
MODEL       73
REMARK 921   NORMALIZED FREE ENERGY PREDICTED BY IDOCK:   -5.32 KCAL/MOL
REMARK 922        TOTAL FREE ENERGY PREDICTED BY IDOCK:   -7.67 KCAL/MOL
REMARK 923 INTER-LIGAND FREE ENERGY PREDICTED BY IDOCK:   -6.99 KCAL/MOL
REMARK 924 INTRA-LIGAND FREE ENERGY PREDICTED BY IDOCK:   -0.68 KCAL/MOL
REMARK 927      BINDING AFFINITY PREDICTED BY RF-SCORE:    0.00 PKD
ROOT
HETATM    1  C   UNL     1      -8.335   8.169  67.666  1.00  0.00    -0.127 C  
HETATM    2  C   UNL     1      -9.699   8.624  67.099  1.00  0.00    -0.248 C  
HETATM    3  C   UNL     1      -9.433   9.179  65.680  1.00  0.00    -0.309 C  
ENDROOT
BRANCH   2   4
HETATM    4  C   UNL     1     -10.577   7.396  66.916  1.00  0.00    -0.305 C  
HETATM    5  H2  UNL     1     -10.970   5.904  67.605  1.00  0.00     0.000 HD 
HETATM    6  N   UNL     1     -11.304   6.377  66.766  1.00  0.00    -0.769 NA 
HETATM    7  H1  UNL     1     -11.893   5.553  66.643  1.00  0.00     0.000 HD 
ENDBRANCH   2   4
BRANCH   2   8
HETATM    8  C   UNL     1     -10.360   9.595  68.072  1.00  0.00    -0.262 A  
HETATM    9  C   UNL     1     -11.017  11.883  68.693  1.00  0.00    -0.271 A  
HETATM   10  C   UNL     1     -10.439  10.963  67.797  1.00  0.00    -0.238 A  
HETATM   11  C   UNL     1     -11.518  11.387  69.909  1.00  0.00    -0.353 A  
HETATM   12  C   UNL     1     -10.883   9.138  69.295  1.00  0.00    -0.150 A  
HETATM   13  C   UNL     1     -11.438  10.021  70.229  1.00  0.00    -0.372 A  
BRANCH   9  14
HETATM   14  C   UNL     1     -11.035  13.373  68.297  1.00  0.00    -0.282 C  
HETATM   15  C   UNL     1     -11.663  13.536  66.950  1.00  0.00    -0.384 C  
HETATM   16  C   UNL     1     -11.876  14.159  69.331  1.00  0.00    -0.378 C  
HETATM   17  C   UNL     1      -9.639  14.011  68.236  1.00  0.00    -0.224 C  
HETATM   18  N   UNL     1     -12.169  13.663  65.913  1.00  0.00    -0.436 NA 
ENDBRANCH   9  14
BRANCH  13  19
HETATM   19  C   UNL     1     -11.866   9.514  71.587  1.00  0.00    -0.397 C  
BRANCH  19  20
HETATM   20  N   UNL     1     -10.933   8.586  72.200  1.00  0.00    -0.336 NA 
HETATM   21  C   UNL     1      -9.582   8.714  72.324  1.00  0.00    -0.278 A  
HETATM   22  N   UNL     1      -9.130   7.813  73.166  1.00  0.00    -0.195 NA 
HETATM   23  C   UNL     1     -10.261   7.151  73.547  1.00  0.00    -0.351 A  
HETATM   24  N   UNL     1     -11.390   7.583  72.981  1.00  0.00    -0.318 NA 
ENDBRANCH  19  20
ENDBRANCH  13  19
ENDBRANCH   2   8
TORSDOF 5
ENDMDL
MODEL       74
REMARK 921   NORMALIZED FREE ENERGY PREDICTED BY IDOCK:   -5.32 KCAL/MOL
REMARK 922        TOTAL FREE ENERGY PREDICTED BY IDOCK:   -7.67 KCAL/MOL
REMARK 923 INTER-LIGAND FREE ENERGY PREDICTED BY IDOCK:   -6.91 KCAL/MOL
REMARK 924 INTRA-LIGAND FREE ENERGY PREDICTED BY IDOCK:   -0.76 KCAL/MOL
REMARK 927      BINDING AFFINITY PREDICTED BY RF-SCORE:    0.00 PKD
ROOT
HETATM    1  C   UNL     1      -8.536   7.827  65.751  1.00  0.00    -0.162 C  
HETATM    2  C   UNL     1      -9.426   7.814  67.015  1.00  0.00    -0.210 C  
HETATM    3  C   UNL     1     -10.387   6.609  66.877  1.00  0.00    -0.324 C  
ENDROOT
BRANCH   2   4
HETATM    4  C   UNL     1      -8.545   7.517  68.218  1.00  0.00    -0.124 C  
HETATM    5  H2  UNL     1      -8.581   7.276  69.891  1.00  0.00     0.000 HD 
HETATM    6  N   UNL     1      -7.815   7.271  69.217  1.00  0.00    -0.114 NA 
HETATM    7  H1  UNL     1      -7.224   7.072  70.024  1.00  0.00     0.000 HD 
ENDBRANCH   2   4
BRANCH   2   8
HETATM    8  C   UNL     1     -10.095   9.174  67.185  1.00  0.00    -0.301 A  
HETATM    9  C   UNL     1     -10.784  11.347  66.258  1.00  0.00    -0.322 A  
HETATM   10  C   UNL     1     -10.199  10.074  66.120  1.00  0.00    -0.283 A  
HETATM   11  C   UNL     1     -11.267  11.711  67.527  1.00  0.00    -0.355 A  
HETATM   12  C   UNL     1     -10.600   9.573  68.435  1.00  0.00    -0.261 A  
HETATM   13  C   UNL     1     -11.162  10.841  68.626  1.00  0.00    -0.333 A  
BRANCH   9  14
HETATM   14  C   UNL     1     -10.831  12.266  65.022  1.00  0.00    -0.337 C  
HETATM   15  C   UNL     1     -12.197  12.237  64.415  1.00  0.00    -0.402 C  
HETATM   16  C   UNL     1     -10.518  13.717  65.461  1.00  0.00    -0.314 C  
HETATM   17  C   UNL     1      -9.829  11.874  63.926  1.00  0.00    -0.284 C  
HETATM   18  N   UNL     1     -13.263  12.229  63.956  1.00  0.00    -0.665 NA 
ENDBRANCH   9  14
BRANCH  13  19
HETATM   19  C   UNL     1     -11.570  11.285  70.013  1.00  0.00    -0.321 C  
BRANCH  19  20
HETATM   20  N   UNL     1     -12.178  10.242  70.819  1.00  0.00    -0.323 NA 
HETATM   21  C   UNL     1     -11.570   9.404  71.704  1.00  0.00    -0.396 A  
HETATM   22  N   UNL     1     -12.479   8.795  72.430  1.00  0.00    -0.376 NA 
HETATM   23  C   UNL     1     -13.649   9.308  71.953  1.00  0.00    -0.427 A  
HETATM   24  N   UNL     1     -13.521  10.195  70.964  1.00  0.00    -0.278 NA 
ENDBRANCH  19  20
ENDBRANCH  13  19
ENDBRANCH   2   8
TORSDOF 5
ENDMDL
MODEL       75
REMARK 921   NORMALIZED FREE ENERGY PREDICTED BY IDOCK:   -5.30 KCAL/MOL
REMARK 922        TOTAL FREE ENERGY PREDICTED BY IDOCK:   -7.64 KCAL/MOL
REMARK 923 INTER-LIGAND FREE ENERGY PREDICTED BY IDOCK:   -6.91 KCAL/MOL
REMARK 924 INTRA-LIGAND FREE ENERGY PREDICTED BY IDOCK:   -0.73 KCAL/MOL
REMARK 927      BINDING AFFINITY PREDICTED BY RF-SCORE:    0.00 PKD
ROOT
HETATM    1  C   UNL     1      -6.548  14.296  69.824  1.00  0.00    -0.125 C  
HETATM    2  C   UNL     1      -6.928  14.658  68.370  1.00  0.00    -0.113 C  
HETATM    3  C   UNL     1      -5.714  15.396  67.758  1.00  0.00    -0.138 C  
ENDROOT
BRANCH   2   4
HETATM    4  C   UNL     1      -7.083  13.368  67.580  1.00  0.00    -0.162 C  
HETATM    5  H2  UNL     1      -6.513  11.781  67.461  1.00  0.00     0.000 HD 
HETATM    6  N   UNL     1      -7.211  12.298  66.926  1.00  0.00    -0.369 NA 
HETATM    7  H1  UNL     1      -7.315  11.433  66.395  1.00  0.00     0.000 HD 
ENDBRANCH   2   4
BRANCH   2   8
HETATM    8  C   UNL     1      -8.242  15.433  68.362  1.00  0.00    -0.142 A  
HETATM    9  C   UNL     1      -9.485  17.529  68.021  1.00  0.00    -0.280 A  
HETATM   10  C   UNL     1      -8.290  16.784  68.007  1.00  0.00    -0.200 A  
HETATM   11  C   UNL     1     -10.661  16.872  68.422  1.00  0.00    -0.365 A  
HETATM   12  C   UNL     1      -9.443  14.810  68.747  1.00  0.00    -0.206 A  
HETATM   13  C   UNL     1     -10.649  15.520  68.806  1.00  0.00    -0.242 A  
BRANCH   9  14
HETATM   14  C   UNL     1      -9.420  19.017  67.628  1.00  0.00    -0.355 C  
HETATM   15  C   UNL     1     -10.136  19.235  66.334  1.00  0.00    -0.429 C  
HETATM   16  C   UNL     1     -10.117  19.859  68.723  1.00  0.00    -0.487 C  
HETATM   17  C   UNL     1      -7.988  19.548  67.459  1.00  0.00    -0.308 C  
HETATM   18  N   UNL     1     -10.710  19.406  65.338  1.00  0.00    -0.438 NA 
ENDBRANCH   9  14
BRANCH  13  19
HETATM   19  C   UNL     1     -11.891  14.854  69.352  1.00  0.00    -0.324 C  
BRANCH  19  20
HETATM   20  N   UNL     1     -12.316  15.352  70.647  1.00  0.00    -0.373 NA 
HETATM   21  C   UNL     1     -13.457  15.051  71.328  1.00  0.00    -0.447 A  
HETATM   22  N   UNL     1     -13.357  15.478  72.566  1.00  0.00    -0.452 NA 
HETATM   23  C   UNL     1     -12.112  16.036  72.600  1.00  0.00    -0.538 A  
HETATM   24  N   UNL     1     -11.436  15.988  71.450  1.00  0.00    -0.419 NA 
ENDBRANCH  19  20
ENDBRANCH  13  19
ENDBRANCH   2   8
TORSDOF 5
ENDMDL
MODEL       76
REMARK 921   NORMALIZED FREE ENERGY PREDICTED BY IDOCK:   -5.28 KCAL/MOL
REMARK 922        TOTAL FREE ENERGY PREDICTED BY IDOCK:   -7.62 KCAL/MOL
REMARK 923 INTER-LIGAND FREE ENERGY PREDICTED BY IDOCK:   -7.04 KCAL/MOL
REMARK 924 INTRA-LIGAND FREE ENERGY PREDICTED BY IDOCK:   -0.58 KCAL/MOL
REMARK 927      BINDING AFFINITY PREDICTED BY RF-SCORE:    0.00 PKD
ROOT
HETATM    1  C   UNL     1     -12.785  11.854  63.747  1.00  0.00    -0.466 C  
HETATM    2  C   UNL     1     -11.560  12.613  64.308  1.00  0.00    -0.435 C  
HETATM    3  C   UNL     1     -10.371  12.303  63.369  1.00  0.00    -0.395 C  
ENDROOT
BRANCH   2   4
HETATM    4  C   UNL     1     -11.822  14.105  64.183  1.00  0.00    -0.337 C  
HETATM    5  H2  UNL     1     -12.358  15.296  63.109  1.00  0.00     0.000 HD 
HETATM    6  N   UNL     1     -12.040  15.343  64.077  1.00  0.00    -0.939 NA 
HETATM    7  H1  UNL     1     -12.215  16.344  63.993  1.00  0.00     0.000 HD 
ENDBRANCH   2   4
BRANCH   2   8
HETATM    8  C   UNL     1     -11.356  12.243  65.773  1.00  0.00    -0.400 A  
HETATM    9  C   UNL     1     -10.567  10.666  67.489  1.00  0.00    -0.297 A  
HETATM   10  C   UNL     1     -10.740  11.044  66.144  1.00  0.00    -0.257 A  
HETATM   11  C   UNL     1     -11.049  11.537  68.481  1.00  0.00    -0.287 A  
HETATM   12  C   UNL     1     -11.815  13.091  66.797  1.00  0.00    -0.451 A  
HETATM   13  C   UNL     1     -11.692  12.741  68.147  1.00  0.00    -0.392 A  
BRANCH   9  14
HETATM   14  C   UNL     1      -9.890   9.313  67.785  1.00  0.00    -0.210 C  
HETATM   15  C   UNL     1      -8.502   9.304  67.229  1.00  0.00    -0.125 C  
HETATM   16  C   UNL     1      -9.807   9.115  69.317  1.00  0.00    -0.175 C  
HETATM   17  C   UNL     1     -10.635   8.109  67.189  1.00  0.00    -0.355 C  
HETATM   18  N   UNL     1      -7.418   9.305  66.814  1.00  0.00    -0.086 NA 
ENDBRANCH   9  14
BRANCH  13  19
HETATM   19  C   UNL     1     -12.316  13.612  69.213  1.00  0.00    -0.116 C  
BRANCH  19  20
HETATM   20  N   UNL     1     -11.577  14.828  69.501  1.00  0.00    -0.286 NA 
HETATM   21  C   UNL     1     -10.980  15.676  68.617  1.00  0.00    -0.294 A  
HETATM   22  N   UNL     1     -10.652  16.790  69.230  1.00  0.00    -0.335 NA 
HETATM   23  C   UNL     1     -11.083  16.579  70.507  1.00  0.00    -0.085 A  
HETATM   24  N   UNL     1     -11.652  15.391  70.726  1.00  0.00    -0.313 NA 
ENDBRANCH  19  20
ENDBRANCH  13  19
ENDBRANCH   2   8
TORSDOF 5
ENDMDL
MODEL       77
REMARK 921   NORMALIZED FREE ENERGY PREDICTED BY IDOCK:   -5.28 KCAL/MOL
REMARK 922        TOTAL FREE ENERGY PREDICTED BY IDOCK:   -7.61 KCAL/MOL
REMARK 923 INTER-LIGAND FREE ENERGY PREDICTED BY IDOCK:   -7.48 KCAL/MOL
REMARK 924 INTRA-LIGAND FREE ENERGY PREDICTED BY IDOCK:   -0.13 KCAL/MOL
REMARK 927      BINDING AFFINITY PREDICTED BY RF-SCORE:    0.00 PKD
ROOT
HETATM    1  C   UNL     1     -13.059  12.202  64.128  1.00  0.00    -0.113 C  
HETATM    2  C   UNL     1     -11.688  12.838  64.452  1.00  0.00    -0.426 C  
HETATM    3  C   UNL     1     -10.692  12.325  63.385  1.00  0.00    -0.438 C  
ENDROOT
BRANCH   2   4
HETATM    4  C   UNL     1     -11.795  14.340  64.245  1.00  0.00    -0.379 C  
HETATM    5  H2  UNL     1     -11.842  15.538  63.053  1.00  0.00     0.000 HD 
HETATM    6  N   UNL     1     -11.884  15.586  64.071  1.00  0.00    -0.954 NA 
HETATM    7  H1  UNL     1     -11.955  16.594  63.933  1.00  0.00     0.000 HD 
ENDBRANCH   2   4
BRANCH   2   8
HETATM    8  C   UNL     1     -11.313  12.539  65.900  1.00  0.00    -0.380 A  
HETATM    9  C   UNL     1     -10.321  11.047  67.586  1.00  0.00    -0.223 A  
HETATM   10  C   UNL     1     -10.650  11.360  66.253  1.00  0.00    -0.312 A  
HETATM   11  C   UNL     1     -10.692  11.963  68.585  1.00  0.00    -0.266 A  
HETATM   12  C   UNL     1     -11.657  13.434  66.928  1.00  0.00    -0.404 A  
HETATM   13  C   UNL     1     -11.377  13.149  68.270  1.00  0.00    -0.333 A  
BRANCH   9  14
HETATM   14  C   UNL     1      -9.605   9.711  67.865  1.00  0.00    -0.159 C  
HETATM   15  C   UNL     1      -9.444   9.515  69.338  1.00  0.00    -0.176 C  
HETATM   16  C   UNL     1     -10.464   8.551  67.306  1.00  0.00    -0.366 C  
HETATM   17  C   UNL     1      -8.209   9.616  67.231  1.00  0.00    -0.114 C  
HETATM   18  N   UNL     1      -9.337   9.356  70.483  1.00  0.00    -0.255 NA 
ENDBRANCH   9  14
BRANCH  13  19
HETATM   19  C   UNL     1     -11.881  14.070  69.358  1.00  0.00    -0.333 C  
BRANCH  19  20
HETATM   20  N   UNL     1     -12.612  13.399  70.418  1.00  0.00    -0.220 NA 
HETATM   21  C   UNL     1     -12.531  12.093  70.796  1.00  0.00    -0.271 A  
HETATM   22  N   UNL     1     -13.133  11.931  71.952  1.00  0.00    -0.437 NA 
HETATM   23  C   UNL     1     -13.568  13.189  72.253  1.00  0.00    -0.581 A  
HETATM   24  N   UNL     1     -13.278  14.123  71.344  1.00  0.00    -0.345 NA 
ENDBRANCH  19  20
ENDBRANCH  13  19
ENDBRANCH   2   8
TORSDOF 5
ENDMDL
MODEL       78
REMARK 921   NORMALIZED FREE ENERGY PREDICTED BY IDOCK:   -5.27 KCAL/MOL
REMARK 922        TOTAL FREE ENERGY PREDICTED BY IDOCK:   -7.60 KCAL/MOL
REMARK 923 INTER-LIGAND FREE ENERGY PREDICTED BY IDOCK:   -6.88 KCAL/MOL
REMARK 924 INTRA-LIGAND FREE ENERGY PREDICTED BY IDOCK:   -0.73 KCAL/MOL
REMARK 927      BINDING AFFINITY PREDICTED BY RF-SCORE:    0.00 PKD
ROOT
HETATM    1  C   UNL     1      -7.654   9.745  66.180  1.00  0.00    -0.101 C  
HETATM    2  C   UNL     1      -9.153   9.402  66.025  1.00  0.00    -0.228 C  
HETATM    3  C   UNL     1      -9.559   9.800  64.586  1.00  0.00    -0.244 C  
ENDROOT
BRANCH   2   4
HETATM    4  C   UNL     1      -9.311   7.892  66.108  1.00  0.00    -0.125 C  
HETATM    5  H2  UNL     1      -9.460   6.497  65.165  1.00  0.00     0.000 HD 
HETATM    6  N   UNL     1      -9.442   6.640  66.175  1.00  0.00    -0.361 NA 
HETATM    7  H1  UNL     1      -9.549   5.627  66.231  1.00  0.00     0.000 HD 
ENDBRANCH   2   4
BRANCH   2   8
HETATM    8  C   UNL     1      -9.949  10.069  67.141  1.00  0.00    -0.251 A  
HETATM    9  C   UNL     1     -10.934  10.007  69.395  1.00  0.00    -0.280 A  
HETATM   10  C   UNL     1     -10.177   9.425  68.361  1.00  0.00    -0.224 A  
HETATM   11  C   UNL     1     -11.482  11.281  69.168  1.00  0.00    -0.364 A  
HETATM   12  C   UNL     1     -10.507  11.348  66.958  1.00  0.00    -0.271 A  
HETATM   13  C   UNL     1     -11.293  11.952  67.947  1.00  0.00    -0.358 A  
BRANCH   9  14
HETATM   14  C   UNL     1     -11.137   9.201  70.693  1.00  0.00    -0.320 C  
HETATM   15  C   UNL     1     -12.191   9.843  71.535  1.00  0.00    -0.416 C  
HETATM   16  C   UNL     1     -11.602   7.770  70.330  1.00  0.00    -0.049 C  
HETATM   17  C   UNL     1      -9.867   9.084  71.550  1.00  0.00    -0.381 C  
HETATM   18  N   UNL     1     -13.025  10.333  72.179  1.00  0.00    -0.388 NA 
ENDBRANCH   9  14
BRANCH  13  19
HETATM   19  C   UNL     1     -11.986  13.265  67.664  1.00  0.00    -0.322 C  
BRANCH  19  20
HETATM   20  N   UNL     1     -11.892  13.705  66.284  1.00  0.00    -0.370 NA 
HETATM   21  C   UNL     1     -12.767  13.467  65.267  1.00  0.00    -0.427 A  
HETATM   22  N   UNL     1     -12.483  14.248  64.250  1.00  0.00    -0.692 NA 
HETATM   23  C   UNL     1     -11.413  14.965  64.701  1.00  0.00    -0.379 A  
HETATM   24  N   UNL     1     -11.010  14.667  65.938  1.00  0.00    -0.324 NA 
ENDBRANCH  19  20
ENDBRANCH  13  19
ENDBRANCH   2   8
TORSDOF 5
ENDMDL
MODEL       79
REMARK 921   NORMALIZED FREE ENERGY PREDICTED BY IDOCK:   -5.27 KCAL/MOL
REMARK 922        TOTAL FREE ENERGY PREDICTED BY IDOCK:   -7.60 KCAL/MOL
REMARK 923 INTER-LIGAND FREE ENERGY PREDICTED BY IDOCK:   -7.09 KCAL/MOL
REMARK 924 INTRA-LIGAND FREE ENERGY PREDICTED BY IDOCK:   -0.51 KCAL/MOL
REMARK 927      BINDING AFFINITY PREDICTED BY RF-SCORE:    0.00 PKD
ROOT
HETATM    1  C   UNL     1      -9.899   9.041  66.014  1.00  0.00    -0.312 C  
HETATM    2  C   UNL     1      -9.712  10.556  65.771  1.00  0.00    -0.277 C  
HETATM    3  C   UNL     1      -8.193  10.802  65.614  1.00  0.00    -0.127 C  
ENDROOT
BRANCH   2   4
HETATM    4  C   UNL     1     -10.339  10.909  64.432  1.00  0.00    -0.361 C  
HETATM    5  H2  UNL     1     -10.096  11.811  63.024  1.00  0.00     0.000 HD 
HETATM    6  N   UNL     1     -10.859  11.202  63.321  1.00  0.00    -0.787 NA 
HETATM    7  H1  UNL     1     -11.280  11.439  62.423  1.00  0.00     0.000 HD 
ENDBRANCH   2   4
BRANCH   2   8
HETATM    8  C   UNL     1     -10.394  11.341  66.887  1.00  0.00    -0.272 A  
HETATM    9  C   UNL     1     -10.794  13.459  68.074  1.00  0.00    -0.264 A  
HETATM   10  C   UNL     1     -10.200  12.718  67.035  1.00  0.00    -0.245 A  
HETATM   11  C   UNL     1     -11.600  12.767  68.994  1.00  0.00    -0.366 A  
HETATM   12  C   UNL     1     -11.216  10.688  67.823  1.00  0.00    -0.383 A  
HETATM   13  C   UNL     1     -11.802  11.380  68.891  1.00  0.00    -0.413 A  
BRANCH   9  14
HETATM   14  C   UNL     1     -10.498  14.970  68.153  1.00  0.00    -0.245 C  
HETATM   15  C   UNL     1     -10.171  15.498  66.794  1.00  0.00    -0.280 C  
HETATM   16  C   UNL     1     -11.756  15.703  68.676  1.00  0.00    -0.364 C  
HETATM   17  C   UNL     1      -9.324  15.319  69.080  1.00  0.00    -0.236 C  
HETATM   18  N   UNL     1      -9.936  15.911  65.734  1.00  0.00    -0.341 NA 
ENDBRANCH   9  14
BRANCH  13  19
HETATM   19  C   UNL     1     -12.568  10.623  69.951  1.00  0.00    -0.101 C  
BRANCH  19  20
HETATM   20  N   UNL     1     -11.731   9.911  70.900  1.00  0.00    -0.334 NA 
HETATM   21  C   UNL     1     -12.124   9.096  71.919  1.00  0.00    -0.378 A  
HETATM   22  N   UNL     1     -11.087   8.430  72.374  1.00  0.00    -0.365 NA 
HETATM   23  C   UNL     1     -10.066   8.871  71.585  1.00  0.00    -0.341 A  
HETATM   24  N   UNL     1     -10.406   9.782  70.670  1.00  0.00    -0.292 NA 
ENDBRANCH  19  20
ENDBRANCH  13  19
ENDBRANCH   2   8
TORSDOF 5
ENDMDL
MODEL       80
REMARK 921   NORMALIZED FREE ENERGY PREDICTED BY IDOCK:   -5.26 KCAL/MOL
REMARK 922        TOTAL FREE ENERGY PREDICTED BY IDOCK:   -7.58 KCAL/MOL
REMARK 923 INTER-LIGAND FREE ENERGY PREDICTED BY IDOCK:   -6.66 KCAL/MOL
REMARK 924 INTRA-LIGAND FREE ENERGY PREDICTED BY IDOCK:   -0.92 KCAL/MOL
REMARK 927      BINDING AFFINITY PREDICTED BY RF-SCORE:    0.00 PKD
ROOT
HETATM    1  C   UNL     1     -12.880  12.477  64.380  1.00  0.00    -0.366 C  
HETATM    2  C   UNL     1     -11.565  13.274  64.537  1.00  0.00    -0.407 C  
HETATM    3  C   UNL     1     -10.557  12.683  63.524  1.00  0.00    -0.301 C  
ENDROOT
BRANCH   2   4
HETATM    4  C   UNL     1     -11.818  14.707  64.097  1.00  0.00    -0.241 C  
HETATM    5  H2  UNL     1     -13.032  15.867  63.909  1.00  0.00     0.000 HD 
HETATM    6  N   UNL     1     -12.028  15.896  63.733  1.00  0.00    -1.266 NA 
HETATM    7  H1  UNL     1     -12.198  16.857  63.437  1.00  0.00     0.000 HD 
ENDBRANCH   2   4
BRANCH   2   8
HETATM    8  C   UNL     1     -11.122  13.250  65.997  1.00  0.00    -0.298 A  
HETATM    9  C   UNL     1      -9.637  14.038  67.793  1.00  0.00    -0.216 A  
HETATM   10  C   UNL     1     -10.085  14.065  66.458  1.00  0.00    -0.287 A  
HETATM   11  C   UNL     1     -10.265  13.143  68.676  1.00  0.00    -0.177 A  
HETATM   12  C   UNL     1     -11.731  12.375  66.915  1.00  0.00    -0.432 A  
HETATM   13  C   UNL     1     -11.298  12.293  68.244  1.00  0.00    -0.339 A  
BRANCH   9  14
HETATM   14  C   UNL     1      -8.473  14.967  68.190  1.00  0.00    -0.151 C  
HETATM   15  C   UNL     1      -7.354  14.165  68.772  1.00  0.00    -0.128 C  
HETATM   16  C   UNL     1      -7.954  15.693  66.926  1.00  0.00    -0.278 C  
HETATM   17  C   UNL     1      -8.864  16.035  69.224  1.00  0.00    -0.227 C  
HETATM   18  N   UNL     1      -6.478  13.538  69.206  1.00  0.00    -0.108 NA 
ENDBRANCH   9  14
BRANCH  13  19
HETATM   19  C   UNL     1     -11.883  11.248  69.166  1.00  0.00    -0.355 C  
BRANCH  19  20
HETATM   20  N   UNL     1     -11.041  10.082  69.360  1.00  0.00    -0.235 NA 
HETATM   21  C   UNL     1     -10.494   9.275  68.408  1.00  0.00    -0.206 A  
HETATM   22  N   UNL     1      -9.584   8.502  68.956  1.00  0.00    -0.165 NA 
HETATM   23  C   UNL     1      -9.603   8.884  70.266  1.00  0.00    -0.186 A  
HETATM   24  N   UNL     1     -10.480   9.845  70.566  1.00  0.00    -0.291 NA 
ENDBRANCH  19  20
ENDBRANCH  13  19
ENDBRANCH   2   8
TORSDOF 5
ENDMDL
MODEL       81
REMARK 921   NORMALIZED FREE ENERGY PREDICTED BY IDOCK:   -5.26 KCAL/MOL
REMARK 922        TOTAL FREE ENERGY PREDICTED BY IDOCK:   -7.58 KCAL/MOL
REMARK 923 INTER-LIGAND FREE ENERGY PREDICTED BY IDOCK:   -6.73 KCAL/MOL
REMARK 924 INTRA-LIGAND FREE ENERGY PREDICTED BY IDOCK:   -0.85 KCAL/MOL
REMARK 927      BINDING AFFINITY PREDICTED BY RF-SCORE:    0.00 PKD
ROOT
HETATM    1  C   UNL     1      -8.460  16.838  66.363  1.00  0.00    -0.338 C  
HETATM    2  C   UNL     1      -9.246  17.242  67.631  1.00  0.00    -0.229 C  
HETATM    3  C   UNL     1      -8.214  17.782  68.648  1.00  0.00    -0.272 C  
ENDROOT
BRANCH   2   4
HETATM    4  C   UNL     1     -10.150  18.413  67.282  1.00  0.00    -0.352 C  
HETATM    5  H2  UNL     1     -10.274  20.096  67.372  1.00  0.00     0.000 HD 
HETATM    6  N   UNL     1     -10.899  19.386  66.992  1.00  0.00    -0.473 NA 
HETATM    7  H1  UNL     1     -11.505  20.171  66.758  1.00  0.00     0.000 HD 
ENDBRANCH   2   4
BRANCH   2   8
HETATM    8  C   UNL     1     -10.087  16.062  68.110  1.00  0.00    -0.234 A  
HETATM    9  C   UNL     1     -10.649  13.668  68.033  1.00  0.00    -0.256 A  
HETATM   10  C   UNL     1      -9.867  14.768  67.630  1.00  0.00    -0.218 A  
HETATM   11  C   UNL     1     -11.692  13.905  68.945  1.00  0.00    -0.373 A  
HETATM   12  C   UNL     1     -11.133  16.255  69.029  1.00  0.00    -0.331 A  
HETATM   13  C   UNL     1     -11.956  15.196  69.434  1.00  0.00    -0.337 A  
BRANCH   9  14
HETATM   14  C   UNL     1     -10.331  12.287  67.427  1.00  0.00    -0.219 C  
HETATM   15  C   UNL     1     -10.448  11.229  68.477  1.00  0.00    -0.197 C  
HETATM   16  C   UNL     1     -11.351  11.981  66.305  1.00  0.00    -0.415 C  
HETATM   17  C   UNL     1      -8.920  12.188  66.827  1.00  0.00    -0.203 C  
HETATM   18  N   UNL     1     -10.559  10.406  69.289  1.00  0.00    -0.216 NA 
ENDBRANCH   9  14
BRANCH  13  19
HETATM   19  C   UNL     1     -13.153  15.465  70.317  1.00  0.00    -0.071 C  
BRANCH  19  20
HETATM   20  N   UNL     1     -12.892  15.322  71.737  1.00  0.00    -0.349 NA 
HETATM   21  C   UNL     1     -11.720  14.987  72.346  1.00  0.00    -0.315 A  
HETATM   22  N   UNL     1     -11.809  15.225  73.634  1.00  0.00    -0.374 NA 
HETATM   23  C   UNL     1     -13.072  15.722  73.770  1.00  0.00    -0.398 A  
HETATM   24  N   UNL     1     -13.778  15.797  72.639  1.00  0.00    -0.566 NA 
ENDBRANCH  19  20
ENDBRANCH  13  19
ENDBRANCH   2   8
TORSDOF 5
ENDMDL
MODEL       82
REMARK 921   NORMALIZED FREE ENERGY PREDICTED BY IDOCK:   -5.24 KCAL/MOL
REMARK 922        TOTAL FREE ENERGY PREDICTED BY IDOCK:   -7.56 KCAL/MOL
REMARK 923 INTER-LIGAND FREE ENERGY PREDICTED BY IDOCK:   -6.77 KCAL/MOL
REMARK 924 INTRA-LIGAND FREE ENERGY PREDICTED BY IDOCK:   -0.80 KCAL/MOL
REMARK 927      BINDING AFFINITY PREDICTED BY RF-SCORE:    0.00 PKD
ROOT
HETATM    1  C   UNL     1     -12.834  13.198  65.190  1.00  0.00    -0.367 C  
HETATM    2  C   UNL     1     -11.406  13.668  64.832  1.00  0.00    -0.353 C  
HETATM    3  C   UNL     1     -10.932  12.800  63.642  1.00  0.00    -0.403 C  
ENDROOT
BRANCH   2   4
HETATM    4  C   UNL     1     -11.487  15.094  64.311  1.00  0.00    -0.136 C  
HETATM    5  H2  UNL     1     -11.196  16.052  62.950  1.00  0.00     0.000 HD 
HETATM    6  N   UNL     1     -11.553  16.277  63.878  1.00  0.00    -1.573 NA 
HETATM    7  H1  UNL     1     -11.607  17.233  63.529  1.00  0.00     0.000 HD 
ENDBRANCH   2   4
BRANCH   2   8
HETATM    8  C   UNL     1     -10.524  13.618  66.075  1.00  0.00    -0.300 A  
HETATM    9  C   UNL     1      -8.862  12.460  67.472  1.00  0.00    -0.181 A  
HETATM   10  C   UNL     1      -9.664  12.544  66.317  1.00  0.00    -0.259 A  
HETATM   11  C   UNL     1      -8.955  13.502  68.410  1.00  0.00    -0.146 A  
HETATM   12  C   UNL     1     -10.579  14.646  67.034  1.00  0.00    -0.280 A  
HETATM   13  C   UNL     1      -9.823  14.589  68.211  1.00  0.00    -0.229 A  
BRANCH   9  14
HETATM   14  C   UNL     1      -7.962  11.221  67.646  1.00  0.00    -0.118 C  
HETATM   15  C   UNL     1      -6.627  11.467  67.023  1.00  0.00    -0.138 C  
HETATM   16  C   UNL     1      -7.759  10.954  69.157  1.00  0.00    -0.127 C  
HETATM   17  C   UNL     1      -8.541   9.946  67.013  1.00  0.00    -0.130 C  
HETATM   18  N   UNL     1      -5.583  11.668  66.555  1.00  0.00    -0.251 NA 
ENDBRANCH   9  14
BRANCH  13  19
HETATM   19  C   UNL     1     -10.008  15.643  69.279  1.00  0.00    -0.265 C  
BRANCH  19  20
HETATM   20  N   UNL     1     -11.077  15.360  70.220  1.00  0.00    -0.287 NA 
HETATM   21  C   UNL     1     -11.002  15.293  71.579  1.00  0.00    -0.079 A  
HETATM   22  N   UNL     1     -12.213  15.287  72.087  1.00  0.00    -0.349 NA 
HETATM   23  C   UNL     1     -13.011  15.362  70.982  1.00  0.00    -0.492 A  
HETATM   24  N   UNL     1     -12.365  15.404  69.815  1.00  0.00    -0.301 NA 
ENDBRANCH  19  20
ENDBRANCH  13  19
ENDBRANCH   2   8
TORSDOF 5
ENDMDL
MODEL       83
REMARK 921   NORMALIZED FREE ENERGY PREDICTED BY IDOCK:   -5.22 KCAL/MOL
REMARK 922        TOTAL FREE ENERGY PREDICTED BY IDOCK:   -7.53 KCAL/MOL
REMARK 923 INTER-LIGAND FREE ENERGY PREDICTED BY IDOCK:   -6.86 KCAL/MOL
REMARK 924 INTRA-LIGAND FREE ENERGY PREDICTED BY IDOCK:   -0.67 KCAL/MOL
REMARK 927      BINDING AFFINITY PREDICTED BY RF-SCORE:    0.00 PKD
ROOT
HETATM    1  C   UNL     1     -12.344   9.667  71.640  1.00  0.00    -0.489 C  
HETATM    2  C   UNL     1     -11.091   9.102  70.932  1.00  0.00    -0.356 C  
HETATM    3  C   UNL     1     -10.092   8.697  72.042  1.00  0.00    -0.401 C  
ENDROOT
BRANCH   2   4
HETATM    4  C   UNL     1     -11.480   7.815  70.223  1.00  0.00    -0.104 C  
HETATM    5  H2  UNL     1     -12.809   6.892  69.734  1.00  0.00     0.000 HD 
HETATM    6  N   UNL     1     -11.805   6.747  69.635  1.00  0.00    -0.646 NA 
HETATM    7  H1  UNL     1     -12.066   5.884  69.159  1.00  0.00     0.000 HD 
ENDBRANCH   2   4
BRANCH   2   8
HETATM    8  C   UNL     1     -10.574  10.117  69.919  1.00  0.00    -0.331 A  
HETATM    9  C   UNL     1      -8.721  11.096  68.629  1.00  0.00    -0.153 A  
HETATM   10  C   UNL     1      -9.229  10.149  69.539  1.00  0.00    -0.223 A  
HETATM   11  C   UNL     1      -9.616  12.043  68.102  1.00  0.00    -0.200 A  
HETATM   12  C   UNL     1     -11.438  11.076  69.361  1.00  0.00    -0.364 A  
HETATM   13  C   UNL     1     -10.971  12.056  68.476  1.00  0.00    -0.280 A  
BRANCH   9  14
HETATM   14  C   UNL     1      -7.217  11.051  68.294  1.00  0.00    -0.085 C  
HETATM   15  C   UNL     1      -6.463  11.967  69.204  1.00  0.00    -0.099 C  
HETATM   16  C   UNL     1      -6.696   9.610  68.505  1.00  0.00    -0.052 C  
HETATM   17  C   UNL     1      -6.896  11.466  66.850  1.00  0.00    -0.142 C  
HETATM   18  N   UNL     1      -5.877  12.664  69.924  1.00  0.00    -0.121 NA 
ENDBRANCH   9  14
BRANCH  13  19
HETATM   19  C   UNL     1     -11.899  13.150  68.002  1.00  0.00    -0.358 C  
BRANCH  19  20
HETATM   20  N   UNL     1     -12.239  13.078  66.592  1.00  0.00    -0.407 NA 
HETATM   21  C   UNL     1     -12.651  14.088  65.776  1.00  0.00    -0.479 A  
HETATM   22  N   UNL     1     -12.596  13.692  64.525  1.00  0.00    -0.643 NA 
HETATM   23  C   UNL     1     -12.128  12.415  64.625  1.00  0.00    -0.415 A  
HETATM   24  N   UNL     1     -11.898  11.989  65.869  1.00  0.00    -0.510 NA 
ENDBRANCH  19  20
ENDBRANCH  13  19
ENDBRANCH   2   8
TORSDOF 5
ENDMDL
MODEL       84
REMARK 921   NORMALIZED FREE ENERGY PREDICTED BY IDOCK:   -5.16 KCAL/MOL
REMARK 922        TOTAL FREE ENERGY PREDICTED BY IDOCK:   -7.46 KCAL/MOL
REMARK 923 INTER-LIGAND FREE ENERGY PREDICTED BY IDOCK:   -6.72 KCAL/MOL
REMARK 924 INTRA-LIGAND FREE ENERGY PREDICTED BY IDOCK:   -0.75 KCAL/MOL
REMARK 927      BINDING AFFINITY PREDICTED BY RF-SCORE:    0.00 PKD
ROOT
HETATM    1  C   UNL     1      -9.554   9.053  67.203  1.00  0.00    -0.218 C  
HETATM    2  C   UNL     1      -9.214  10.291  68.064  1.00  0.00    -0.138 C  
HETATM    3  C   UNL     1      -7.829  10.029  68.701  1.00  0.00    -0.091 C  
ENDROOT
BRANCH   2   4
HETATM    4  C   UNL     1      -9.037  11.485  67.140  1.00  0.00    -0.167 C  
HETATM    5  H2  UNL     1      -8.141  12.051  65.823  1.00  0.00     0.000 HD 
HETATM    6  N   UNL     1      -8.889  12.474  66.372  1.00  0.00    -0.415 NA 
HETATM    7  H1  UNL     1      -8.770  13.275  65.752  1.00  0.00     0.000 HD 
ENDBRANCH   2   4
BRANCH   2   8
HETATM    8  C   UNL     1     -10.350  10.559  69.046  1.00  0.00    -0.232 A  
HETATM    9  C   UNL     1     -11.926   9.763  70.760  1.00  0.00    -0.382 A  
HETATM   10  C   UNL     1     -10.858   9.549  69.868  1.00  0.00    -0.272 A  
HETATM   11  C   UNL     1     -12.496  11.047  70.802  1.00  0.00    -0.491 A  
HETATM   12  C   UNL     1     -10.942  11.832  69.126  1.00  0.00    -0.261 A  
HETATM   13  C   UNL     1     -12.026  12.083  69.977  1.00  0.00    -0.400 A  
BRANCH   9  14
HETATM   14  C   UNL     1     -12.419   8.573  71.607  1.00  0.00    -0.370 C  
HETATM   15  C   UNL     1     -11.328   8.108  72.517  1.00  0.00    -0.401 C  
HETATM   16  C   UNL     1     -13.619   9.031  72.470  1.00  0.00    -0.492 C  
HETATM   17  C   UNL     1     -12.869   7.366  70.769  1.00  0.00    -0.017 C  
HETATM   18  N   UNL     1     -10.487   7.760  73.238  1.00  0.00    -0.346 NA 
ENDBRANCH   9  14
BRANCH  13  19
HETATM   19  C   UNL     1     -12.722  13.424  69.938  1.00  0.00     0.181 C  
BRANCH  19  20
HETATM   20  N   UNL     1     -12.758  14.116  71.214  1.00  0.00    -0.341 NA 
HETATM   21  C   UNL     1     -13.615  13.914  72.253  1.00  0.00    -0.544 A  
HETATM   22  N   UNL     1     -13.166  14.533  73.321  1.00  0.00    -0.596 NA 
HETATM   23  C   UNL     1     -12.006  15.101  72.883  1.00  0.00    -0.363 A  
HETATM   24  N   UNL     1     -11.713  14.880  71.599  1.00  0.00    -0.357 NA 
ENDBRANCH  19  20
ENDBRANCH  13  19
ENDBRANCH   2   8
TORSDOF 5
ENDMDL
MODEL       85
REMARK 921   NORMALIZED FREE ENERGY PREDICTED BY IDOCK:   -5.15 KCAL/MOL
REMARK 922        TOTAL FREE ENERGY PREDICTED BY IDOCK:   -7.45 KCAL/MOL
REMARK 923 INTER-LIGAND FREE ENERGY PREDICTED BY IDOCK:   -6.53 KCAL/MOL
REMARK 924 INTRA-LIGAND FREE ENERGY PREDICTED BY IDOCK:   -0.92 KCAL/MOL
REMARK 927      BINDING AFFINITY PREDICTED BY RF-SCORE:    0.00 PKD
ROOT
HETATM    1  C   UNL     1     -11.946  14.475  64.116  1.00  0.00    -0.346 C  
HETATM    2  C   UNL     1     -11.658  13.015  64.534  1.00  0.00    -0.406 C  
HETATM    3  C   UNL     1     -12.842  12.159  64.026  1.00  0.00    -0.383 C  
ENDROOT
BRANCH   2   4
HETATM    4  C   UNL     1     -10.431  12.533  63.776  1.00  0.00    -0.419 C  
HETATM    5  H2  UNL     1      -8.863  11.936  63.985  1.00  0.00     0.000 HD 
HETATM    6  N   UNL     1      -9.412  12.132  63.149  1.00  0.00    -0.600 NA 
HETATM    7  H1  UNL     1      -8.590  11.809  62.641  1.00  0.00     0.000 HD 
ENDBRANCH   2   4
BRANCH   2   8
HETATM    8  C   UNL     1     -11.398  12.953  66.035  1.00  0.00    -0.354 A  
HETATM    9  C   UNL     1     -10.846  14.072  68.156  1.00  0.00    -0.260 A  
HETATM   10  C   UNL     1     -11.119  14.106  66.776  1.00  0.00    -0.314 A  
HETATM   11  C   UNL     1     -10.847  12.818  68.793  1.00  0.00    -0.270 A  
HETATM   12  C   UNL     1     -11.400  11.720  66.712  1.00  0.00    -0.385 A  
HETATM   13  C   UNL     1     -11.103  11.636  68.079  1.00  0.00    -0.299 A  
BRANCH   9  14
HETATM   14  C   UNL     1     -10.534  15.401  68.871  1.00  0.00    -0.238 C  
HETATM   15  C   UNL     1     -11.138  15.400  70.239  1.00  0.00    -0.311 C  
HETATM   16  C   UNL     1      -9.000  15.551  69.010  1.00  0.00    -0.237 C  
HETATM   17  C   UNL     1     -11.067  16.637  68.131  1.00  0.00    -0.285 C  
HETATM   18  N   UNL     1     -11.591  15.390  71.308  1.00  0.00    -0.350 NA 
ENDBRANCH   9  14
BRANCH  13  19
HETATM   19  C   UNL     1     -10.982  10.283  68.743  1.00  0.00    -0.243 C  
BRANCH  19  20
HETATM   20  N   UNL     1     -10.069   9.370  68.079  1.00  0.00    -0.181 NA 
HETATM   21  C   UNL     1      -8.710   9.329  68.171  1.00  0.00    -0.125 A  
HETATM   22  N   UNL     1      -8.268   8.208  67.649  1.00  0.00    -0.126 NA 
HETATM   23  C   UNL     1      -9.412   7.580  67.251  1.00  0.00    -0.151 A  
HETATM   24  N   UNL     1     -10.541   8.252  67.487  1.00  0.00    -0.248 NA 
ENDBRANCH  19  20
ENDBRANCH  13  19
ENDBRANCH   2   8
TORSDOF 5
ENDMDL
MODEL       86
REMARK 921   NORMALIZED FREE ENERGY PREDICTED BY IDOCK:   -5.14 KCAL/MOL
REMARK 922        TOTAL FREE ENERGY PREDICTED BY IDOCK:   -7.44 KCAL/MOL
REMARK 923 INTER-LIGAND FREE ENERGY PREDICTED BY IDOCK:   -6.58 KCAL/MOL
REMARK 924 INTRA-LIGAND FREE ENERGY PREDICTED BY IDOCK:   -0.86 KCAL/MOL
REMARK 927      BINDING AFFINITY PREDICTED BY RF-SCORE:    0.00 PKD
ROOT
HETATM    1  C   UNL     1      -9.458   8.401  66.067  1.00  0.00    -0.224 C  
HETATM    2  C   UNL     1      -9.441   9.942  66.179  1.00  0.00    -0.254 C  
HETATM    3  C   UNL     1      -7.963  10.385  66.072  1.00  0.00    -0.144 C  
ENDROOT
BRANCH   2   4
HETATM    4  C   UNL     1     -10.145  10.520  64.961  1.00  0.00    -0.321 C  
HETATM    5  H2  UNL     1     -10.129  11.821  63.883  1.00  0.00     0.000 HD 
HETATM    6  N   UNL     1     -10.729  10.999  63.951  1.00  0.00    -0.510 NA 
HETATM    7  H1  UNL     1     -11.201  11.386  63.134  1.00  0.00     0.000 HD 
ENDBRANCH   2   4
BRANCH   2   8
HETATM    8  C   UNL     1     -10.167  10.371  67.450  1.00  0.00    -0.259 A  
HETATM    9  C   UNL     1     -11.017   9.860  69.701  1.00  0.00    -0.285 A  
HETATM   10  C   UNL     1     -10.325   9.498  68.530  1.00  0.00    -0.234 A  
HETATM   11  C   UNL     1     -11.572  11.150  69.762  1.00  0.00    -0.409 A  
HETATM   12  C   UNL     1     -10.729  11.656  67.555  1.00  0.00    -0.257 A  
HETATM   13  C   UNL     1     -11.452  12.048  68.688  1.00  0.00    -0.350 A  
BRANCH   9  14
HETATM   14  C   UNL     1     -11.147   8.812  70.825  1.00  0.00    -0.306 C  
HETATM   15  C   UNL     1     -11.427   7.466  70.238  1.00  0.00    -0.181 C  
HETATM   16  C   UNL     1      -9.812   8.741  71.604  1.00  0.00    -0.378 C  
HETATM   17  C   UNL     1     -12.267   9.122  71.829  1.00  0.00    -0.442 C  
HETATM   18  N   UNL     1     -11.625   6.417  69.780  1.00  0.00    -0.412 NA 
ENDBRANCH   9  14
BRANCH  13  19
HETATM   19  C   UNL     1     -12.155  13.387  68.710  1.00  0.00    -0.246 C  
BRANCH  19  20
HETATM   20  N   UNL     1     -11.262  14.531  68.681  1.00  0.00    -0.249 NA 
HETATM   21  C   UNL     1     -10.994  15.360  67.633  1.00  0.00    -0.315 A  
HETATM   22  N   UNL     1     -10.359  16.425  68.066  1.00  0.00    -0.277 NA 
HETATM   23  C   UNL     1     -10.267  16.205  69.409  1.00  0.00    -0.266 A  
HETATM   24  N   UNL     1     -10.801  15.058  69.836  1.00  0.00    -0.260 NA 
ENDBRANCH  19  20
ENDBRANCH  13  19
ENDBRANCH   2   8
TORSDOF 5
ENDMDL
MODEL       87
REMARK 921   NORMALIZED FREE ENERGY PREDICTED BY IDOCK:   -5.14 KCAL/MOL
REMARK 922        TOTAL FREE ENERGY PREDICTED BY IDOCK:   -7.43 KCAL/MOL
REMARK 923 INTER-LIGAND FREE ENERGY PREDICTED BY IDOCK:   -6.62 KCAL/MOL
REMARK 924 INTRA-LIGAND FREE ENERGY PREDICTED BY IDOCK:   -0.81 KCAL/MOL
REMARK 927      BINDING AFFINITY PREDICTED BY RF-SCORE:    0.00 PKD
ROOT
HETATM    1  C   UNL     1      -8.618  10.710  68.034  1.00  0.00    -0.122 C  
HETATM    2  C   UNL     1      -7.572  11.839  67.888  1.00  0.00    -0.121 C  
HETATM    3  C   UNL     1      -6.730  11.843  69.186  1.00  0.00    -0.105 C  
ENDROOT
BRANCH   2   4
HETATM    4  C   UNL     1      -6.617  11.466  66.765  1.00  0.00    -0.136 C  
HETATM    5  H2  UNL     1      -6.205  10.218  65.702  1.00  0.00     0.000 HD 
HETATM    6  N   UNL     1      -5.826  11.156  65.833  1.00  0.00    -0.317 NA 
HETATM    7  H1  UNL     1      -5.186  10.906  65.080  1.00  0.00     0.000 HD 
ENDBRANCH   2   4
BRANCH   2   8
HETATM    8  C   UNL     1      -8.277  13.150  67.557  1.00  0.00    -0.183 A  
HETATM    9  C   UNL     1     -10.000  14.397  66.320  1.00  0.00    -0.320 A  
HETATM   10  C   UNL     1      -9.353  13.195  66.665  1.00  0.00    -0.242 A  
HETATM   11  C   UNL     1      -9.523  15.587  66.896  1.00  0.00    -0.244 A  
HETATM   12  C   UNL     1      -7.837  14.362  68.119  1.00  0.00    -0.138 A  
HETATM   13  C   UNL     1      -8.431  15.584  67.780  1.00  0.00    -0.159 A  
BRANCH   9  14
HETATM   14  C   UNL     1     -11.166  14.334  65.313  1.00  0.00    -0.337 C  
HETATM   15  C   UNL     1     -11.328  15.656  64.635  1.00  0.00    -0.349 C  
HETATM   16  C   UNL     1     -10.847  13.266  64.239  1.00  0.00    -0.414 C  
HETATM   17  C   UNL     1     -12.514  13.973  65.955  1.00  0.00    -0.513 C  
HETATM   18  N   UNL     1     -11.441  16.678  64.096  1.00  0.00    -1.112 NA 
ENDBRANCH   9  14
BRANCH  13  19
HETATM   19  C   UNL     1      -7.846  16.878  68.300  1.00  0.00    -0.208 C  
BRANCH  19  20
HETATM   20  N   UNL     1      -7.663  17.901  67.286  1.00  0.00    -0.201 NA 
HETATM   21  C   UNL     1      -6.987  17.803  66.108  1.00  0.00    -0.303 A  
HETATM   22  N   UNL     1      -7.274  18.835  65.349  1.00  0.00    -0.491 NA 
HETATM   23  C   UNL     1      -8.152  19.546  66.113  1.00  0.00    -0.333 A  
HETATM   24  N   UNL     1      -8.421  19.019  67.310  1.00  0.00    -0.274 NA 
ENDBRANCH  19  20
ENDBRANCH  13  19
ENDBRANCH   2   8
TORSDOF 5
ENDMDL
MODEL       88
REMARK 921   NORMALIZED FREE ENERGY PREDICTED BY IDOCK:   -5.13 KCAL/MOL
REMARK 922        TOTAL FREE ENERGY PREDICTED BY IDOCK:   -7.41 KCAL/MOL
REMARK 923 INTER-LIGAND FREE ENERGY PREDICTED BY IDOCK:   -6.68 KCAL/MOL
REMARK 924 INTRA-LIGAND FREE ENERGY PREDICTED BY IDOCK:   -0.74 KCAL/MOL
REMARK 927      BINDING AFFINITY PREDICTED BY RF-SCORE:    0.00 PKD
ROOT
HETATM    1  C   UNL     1      -9.073   7.810  69.624  1.00  0.00    -0.146 C  
HETATM    2  C   UNL     1     -10.275   8.025  70.573  1.00  0.00    -0.201 C  
HETATM    3  C   UNL     1     -11.180   6.777  70.443  1.00  0.00    -0.378 C  
ENDROOT
BRANCH   2   4
HETATM    4  C   UNL     1      -9.761   8.029  72.004  1.00  0.00    -0.203 C  
HETATM    5  H2  UNL     1     -10.246   8.224  73.611  1.00  0.00     0.000 HD 
HETATM    6  N   UNL     1      -9.337   8.032  73.191  1.00  0.00    -0.271 NA 
HETATM    7  H1  UNL     1      -8.992   8.035  74.151  1.00  0.00     0.000 HD 
ENDBRANCH   2   4
BRANCH   2   8
HETATM    8  C   UNL     1     -10.943   9.359  70.257  1.00  0.00    -0.305 A  
HETATM    9  C   UNL     1     -11.243  11.303  68.778  1.00  0.00    -0.311 A  
HETATM   10  C   UNL     1     -10.663  10.055  69.078  1.00  0.00    -0.244 A  
HETATM   11  C   UNL     1     -12.128  11.856  69.720  1.00  0.00    -0.321 A  
HETATM   12  C   UNL     1     -11.842   9.942  71.168  1.00  0.00    -0.472 A  
HETATM   13  C   UNL     1     -12.419  11.195  70.926  1.00  0.00    -0.509 A  
BRANCH   9  14
HETATM   14  C   UNL     1     -10.849  11.991  67.457  1.00  0.00    -0.284 C  
HETATM   15  C   UNL     1     -10.466  10.965  66.440  1.00  0.00    -0.250 C  
HETATM   16  C   UNL     1     -12.064  12.786  66.921  1.00  0.00    -0.267 C  
HETATM   17  C   UNL     1      -9.669  12.965  67.599  1.00  0.00    -0.212 C  
HETATM   18  N   UNL     1     -10.188  10.166  65.645  1.00  0.00    -0.256 NA 
ENDBRANCH   9  14
BRANCH  13  19
HETATM   19  C   UNL     1     -13.274  11.851  71.986  1.00  0.00    -0.356 C  
BRANCH  19  20
HETATM   20  N   UNL     1     -13.299  13.301  71.922  1.00  0.00    -0.444 NA 
HETATM   21  C   UNL     1     -14.381  14.116  71.774  1.00  0.00    -0.384 A  
HETATM   22  N   UNL     1     -14.037  15.356  72.034  1.00  0.00    -0.530 NA 
HETATM   23  C   UNL     1     -12.714  15.250  72.350  1.00  0.00    -0.363 A  
HETATM   24  N   UNL     1     -12.213  14.014  72.292  1.00  0.00     0.030 NA 
ENDBRANCH  19  20
ENDBRANCH  13  19
ENDBRANCH   2   8
TORSDOF 5
ENDMDL
MODEL       89
REMARK 921   NORMALIZED FREE ENERGY PREDICTED BY IDOCK:   -5.12 KCAL/MOL
REMARK 922        TOTAL FREE ENERGY PREDICTED BY IDOCK:   -7.41 KCAL/MOL
REMARK 923 INTER-LIGAND FREE ENERGY PREDICTED BY IDOCK:   -6.74 KCAL/MOL
REMARK 924 INTRA-LIGAND FREE ENERGY PREDICTED BY IDOCK:   -0.68 KCAL/MOL
REMARK 927      BINDING AFFINITY PREDICTED BY RF-SCORE:    0.00 PKD
ROOT
HETATM    1  C   UNL     1      -9.913  14.528  67.669  1.00  0.00    -0.224 C  
HETATM    2  C   UNL     1     -11.290  13.914  68.010  1.00  0.00    -0.317 C  
HETATM    3  C   UNL     1     -11.924  14.810  69.101  1.00  0.00    -0.317 C  
ENDROOT
BRANCH   2   4
HETATM    4  C   UNL     1     -12.186  14.035  66.788  1.00  0.00    -0.404 C  
HETATM    5  H2  UNL     1     -12.457  14.960  65.399  1.00  0.00     0.000 HD 
HETATM    6  N   UNL     1     -12.928  14.137  65.774  1.00  0.00    -0.546 NA 
HETATM    7  H1  UNL     1     -13.529  14.218  64.954  1.00  0.00     0.000 HD 
ENDBRANCH   2   4
BRANCH   2   8
HETATM    8  C   UNL     1     -11.117  12.445  68.384  1.00  0.00    -0.288 A  
HETATM    9  C   UNL     1     -10.396  10.164  67.807  1.00  0.00    -0.253 A  
HETATM   10  C   UNL     1     -10.539  11.531  67.498  1.00  0.00    -0.243 A  
HETATM   11  C   UNL     1     -10.870   9.722  69.055  1.00  0.00    -0.223 A  
HETATM   12  C   UNL     1     -11.568  11.964  69.626  1.00  0.00    -0.387 A  
HETATM   13  C   UNL     1     -11.475  10.608  69.963  1.00  0.00    -0.404 A  
BRANCH   9  14
HETATM   14  C   UNL     1      -9.760   9.241  66.750  1.00  0.00    -0.260 C  
HETATM   15  C   UNL     1     -10.379   7.882  66.819  1.00  0.00    -0.287 C  
HETATM   16  C   UNL     1     -10.022   9.830  65.343  1.00  0.00    -0.302 C  
HETATM   17  C   UNL     1      -8.243   9.067  66.917  1.00  0.00    -0.116 C  
HETATM   18  N   UNL     1     -10.875   6.833  66.861  1.00  0.00    -0.359 NA 
ENDBRANCH   9  14
BRANCH  13  19
HETATM   19  C   UNL     1     -12.091  10.105  71.248  1.00  0.00    -0.394 C  
BRANCH  19  20
HETATM   20  N   UNL     1     -11.461   8.914  71.788  1.00  0.00    -0.330 NA 
HETATM   21  C   UNL     1     -10.164   8.754  72.176  1.00  0.00    -0.301 A  
HETATM   22  N   UNL     1     -10.043   7.638  72.856  1.00  0.00    -0.258 NA 
HETATM   23  C   UNL     1     -11.315   7.144  72.868  1.00  0.00    -0.217 A  
HETATM   24  N   UNL     1     -12.219   7.885  72.224  1.00  0.00    -0.308 NA 
ENDBRANCH  19  20
ENDBRANCH  13  19
ENDBRANCH   2   8
TORSDOF 5
ENDMDL
MODEL       90
REMARK 921   NORMALIZED FREE ENERGY PREDICTED BY IDOCK:   -5.12 KCAL/MOL
REMARK 922        TOTAL FREE ENERGY PREDICTED BY IDOCK:   -7.41 KCAL/MOL
REMARK 923 INTER-LIGAND FREE ENERGY PREDICTED BY IDOCK:   -6.81 KCAL/MOL
REMARK 924 INTRA-LIGAND FREE ENERGY PREDICTED BY IDOCK:   -0.60 KCAL/MOL
REMARK 927      BINDING AFFINITY PREDICTED BY RF-SCORE:    0.00 PKD
ROOT
HETATM    1  C   UNL     1     -10.277  10.547  65.547  1.00  0.00    -0.325 C  
HETATM    2  C   UNL     1     -10.915  11.951  65.660  1.00  0.00    -0.353 C  
HETATM    3  C   UNL     1      -9.917  12.950  65.030  1.00  0.00    -0.163 C  
ENDROOT
BRANCH   2   4
HETATM    4  C   UNL     1     -12.158  11.984  64.784  1.00  0.00    -0.205 C  
HETATM    5  H2  UNL     1     -13.547  11.111  64.378  1.00  0.00     0.000 HD 
HETATM    6  N   UNL     1     -13.189  12.011  64.058  1.00  0.00    -0.677 NA 
HETATM    7  H1  UNL     1     -14.022  12.033  63.471  1.00  0.00     0.000 HD 
ENDBRANCH   2   4
BRANCH   2   8
HETATM    8  C   UNL     1     -11.295  12.226  67.111  1.00  0.00    -0.398 A  
HETATM    9  C   UNL     1     -11.644  13.804  68.966  1.00  0.00    -0.356 A  
HETATM   10  C   UNL     1     -11.327  13.526  67.623  1.00  0.00    -0.326 A  
HETATM   11  C   UNL     1     -11.926  12.716  69.810  1.00  0.00    -0.365 A  
HETATM   12  C   UNL     1     -11.594  11.166  67.986  1.00  0.00    -0.337 A  
HETATM   13  C   UNL     1     -11.885  11.393  69.337  1.00  0.00    -0.419 A  
BRANCH   9  14
HETATM   14  C   UNL     1     -11.632  15.274  69.429  1.00  0.00    -0.347 C  
HETATM   15  C   UNL     1     -12.776  15.526  70.358  1.00  0.00    -0.338 C  
HETATM   16  C   UNL     1     -10.312  15.553  70.187  1.00  0.00    -0.279 C  
HETATM   17  C   UNL     1     -11.741  16.283  68.276  1.00  0.00     0.007 C  
HETATM   18  N   UNL     1     -13.653  15.716  71.095  1.00  0.00    -0.576 NA 
ENDBRANCH   9  14
BRANCH  13  19
HETATM   19  C   UNL     1     -12.068  10.223  70.277  1.00  0.00    -0.249 C  
BRANCH  19  20
HETATM   20  N   UNL     1     -10.861   9.454  70.516  1.00  0.00    -0.254 NA 
HETATM   21  C   UNL     1      -9.604   9.697  70.048  1.00  0.00    -0.243 A  
HETATM   22  N   UNL     1      -8.741   8.947  70.694  1.00  0.00    -0.177 NA 
HETATM   23  C   UNL     1      -9.527   8.257  71.571  1.00  0.00    -0.186 A  
HETATM   24  N   UNL     1     -10.832   8.527  71.498  1.00  0.00    -0.244 NA 
ENDBRANCH  19  20
ENDBRANCH  13  19
ENDBRANCH   2   8
TORSDOF 5
ENDMDL
MODEL       91
REMARK 921   NORMALIZED FREE ENERGY PREDICTED BY IDOCK:   -5.11 KCAL/MOL
REMARK 922        TOTAL FREE ENERGY PREDICTED BY IDOCK:   -7.39 KCAL/MOL
REMARK 923 INTER-LIGAND FREE ENERGY PREDICTED BY IDOCK:   -6.69 KCAL/MOL
REMARK 924 INTRA-LIGAND FREE ENERGY PREDICTED BY IDOCK:   -0.70 KCAL/MOL
REMARK 927      BINDING AFFINITY PREDICTED BY RF-SCORE:    0.00 PKD
ROOT
HETATM    1  C   UNL     1     -12.128  14.697  63.976  1.00  0.00    -0.229 C  
HETATM    2  C   UNL     1     -11.652  13.496  64.826  1.00  0.00    -0.372 C  
HETATM    3  C   UNL     1     -12.827  12.492  64.881  1.00  0.00    -0.216 C  
ENDROOT
BRANCH   2   4
HETATM    4  C   UNL     1     -10.530  12.795  64.078  1.00  0.00    -0.406 C  
HETATM    5  H2  UNL     1      -9.981  12.399  62.529  1.00  0.00     0.000 HD 
HETATM    6  N   UNL     1      -9.599  12.213  63.456  1.00  0.00    -0.659 NA 
HETATM    7  H1  UNL     1      -8.847  11.742  62.955  1.00  0.00     0.000 HD 
ENDBRANCH   2   4
BRANCH   2   8
HETATM    8  C   UNL     1     -11.146  13.992  66.176  1.00  0.00    -0.302 A  
HETATM    9  C   UNL     1      -9.499  15.239  67.514  1.00  0.00    -0.202 A  
HETATM   10  C   UNL     1     -10.005  14.794  66.278  1.00  0.00    -0.308 A  
HETATM   11  C   UNL     1     -10.178  14.841  68.680  1.00  0.00    -0.236 A  
HETATM   12  C   UNL     1     -11.801  13.626  67.365  1.00  0.00    -0.429 A  
HETATM   13  C   UNL     1     -11.316  14.020  68.619  1.00  0.00    -0.307 A  
BRANCH   9  14
HETATM   14  C   UNL     1      -8.224  16.104  67.512  1.00  0.00    -0.167 C  
HETATM   15  C   UNL     1      -7.013  15.229  67.558  1.00  0.00    -0.196 C  
HETATM   16  C   UNL     1      -8.181  16.935  66.207  1.00  0.00    -0.344 C  
HETATM   17  C   UNL     1      -8.138  17.076  68.698  1.00  0.00    -0.254 C  
HETATM   18  N   UNL     1      -6.073  14.548  67.574  1.00  0.00    -0.346 NA 
ENDBRANCH   9  14
BRANCH  13  19
HETATM   19  C   UNL     1     -11.967  13.496  69.879  1.00  0.00    -0.348 C  
BRANCH  19  20
HETATM   20  N   UNL     1     -11.755  12.080  70.117  1.00  0.00    -0.282 NA 
HETATM   21  C   UNL     1     -12.571  11.209  70.774  1.00  0.00    -0.352 A  
HETATM   22  N   UNL     1     -12.174   9.978  70.547  1.00  0.00    -0.251 NA 
HETATM   23  C   UNL     1     -11.099  10.147  69.724  1.00  0.00    -0.279 A  
HETATM   24  N   UNL     1     -10.799  11.414  69.434  1.00  0.00    -0.203 NA 
ENDBRANCH  19  20
ENDBRANCH  13  19
ENDBRANCH   2   8
TORSDOF 5
ENDMDL
MODEL       92
REMARK 921   NORMALIZED FREE ENERGY PREDICTED BY IDOCK:   -5.11 KCAL/MOL
REMARK 922        TOTAL FREE ENERGY PREDICTED BY IDOCK:   -7.39 KCAL/MOL
REMARK 923 INTER-LIGAND FREE ENERGY PREDICTED BY IDOCK:   -6.58 KCAL/MOL
REMARK 924 INTRA-LIGAND FREE ENERGY PREDICTED BY IDOCK:   -0.81 KCAL/MOL
REMARK 927      BINDING AFFINITY PREDICTED BY RF-SCORE:    0.00 PKD
ROOT
HETATM    1  C   UNL     1      -6.652  12.731  69.395  1.00  0.00    -0.064 C  
HETATM    2  C   UNL     1      -7.479  12.351  68.145  1.00  0.00    -0.118 C  
HETATM    3  C   UNL     1      -6.471  11.949  67.043  1.00  0.00    -0.136 C  
ENDROOT
BRANCH   2   4
HETATM    4  C   UNL     1      -8.280  11.098  68.464  1.00  0.00    -0.149 C  
HETATM    5  H2  UNL     1      -9.377  10.443  69.570  1.00  0.00     0.000 HD 
HETATM    6  N   UNL     1      -8.946  10.060  68.729  1.00  0.00    -0.138 NA 
HETATM    7  H1  UNL     1      -9.483   9.220  68.942  1.00  0.00     0.000 HD 
ENDBRANCH   2   4
BRANCH   2   8
HETATM    8  C   UNL     1      -8.423  13.494  67.789  1.00  0.00    -0.184 A  
HETATM    9  C   UNL     1     -10.220  14.424  66.389  1.00  0.00    -0.294 A  
HETATM   10  C   UNL     1      -9.359  13.373  66.758  1.00  0.00    -0.260 A  
HETATM   11  C   UNL     1     -10.111  15.637  67.091  1.00  0.00    -0.256 A  
HETATM   12  C   UNL     1      -8.352  14.721  68.473  1.00  0.00    -0.160 A  
HETATM   13  C   UNL     1      -9.168  15.804  68.120  1.00  0.00    -0.189 A  
BRANCH   9  14
HETATM   14  C   UNL     1     -11.203  14.188  65.225  1.00  0.00    -0.326 C  
HETATM   15  C   UNL     1     -11.464  15.473  64.508  1.00  0.00    -0.308 C  
HETATM   16  C   UNL     1     -10.572  13.187  64.228  1.00  0.00    -0.432 C  
HETATM   17  C   UNL     1     -12.560  13.623  65.671  1.00  0.00    -0.531 C  
HETATM   18  N   UNL     1     -11.650  16.468  63.939  1.00  0.00    -1.071 NA 
ENDBRANCH   9  14
BRANCH  13  19
HETATM   19  C   UNL     1      -8.971  17.146  68.786  1.00  0.00    -0.233 C  
BRANCH  19  20
HETATM   20  N   UNL     1      -9.216  18.285  67.921  1.00  0.00    -0.271 NA 
HETATM   21  C   UNL     1     -10.070  19.327  68.126  1.00  0.00    -0.412 A  
HETATM   22  N   UNL     1      -9.813  20.283  67.264  1.00  0.00    -0.433 NA 
HETATM   23  C   UNL     1      -8.771  19.778  66.544  1.00  0.00    -0.360 A  
HETATM   24  N   UNL     1      -8.370  18.556  66.903  1.00  0.00    -0.256 NA 
ENDBRANCH  19  20
ENDBRANCH  13  19
ENDBRANCH   2   8
TORSDOF 5
ENDMDL
MODEL       93
REMARK 921   NORMALIZED FREE ENERGY PREDICTED BY IDOCK:   -5.10 KCAL/MOL
REMARK 922        TOTAL FREE ENERGY PREDICTED BY IDOCK:   -7.39 KCAL/MOL
REMARK 923 INTER-LIGAND FREE ENERGY PREDICTED BY IDOCK:   -6.80 KCAL/MOL
REMARK 924 INTRA-LIGAND FREE ENERGY PREDICTED BY IDOCK:   -0.59 KCAL/MOL
REMARK 927      BINDING AFFINITY PREDICTED BY RF-SCORE:    0.00 PKD
ROOT
HETATM    1  C   UNL     1     -13.759  15.251  70.742  1.00  0.00    -0.255 C  
HETATM    2  C   UNL     1     -12.527  14.362  71.029  1.00  0.00    -0.425 C  
HETATM    3  C   UNL     1     -11.615  15.156  71.994  1.00  0.00    -0.496 C  
ENDROOT
BRANCH   2   4
HETATM    4  C   UNL     1     -12.989  13.135  71.797  1.00  0.00    -0.338 C  
HETATM    5  H2  UNL     1     -13.428  12.591  73.337  1.00  0.00     0.000 HD 
HETATM    6  N   UNL     1     -13.373  12.117  72.436  1.00  0.00    -0.536 NA 
HETATM    7  H1  UNL     1     -13.683  11.293  72.951  1.00  0.00     0.000 HD 
ENDBRANCH   2   4
BRANCH   2   8
HETATM    8  C   UNL     1     -11.883  13.939  69.713  1.00  0.00    -0.390 A  
HETATM    9  C   UNL     1     -10.804  14.518  67.579  1.00  0.00    -0.289 A  
HETATM   10  C   UNL     1     -11.375  14.881  68.813  1.00  0.00    -0.304 A  
HETATM   11  C   UNL     1     -10.762  13.151  67.254  1.00  0.00    -0.262 A  
HETATM   12  C   UNL     1     -11.812  12.581  69.355  1.00  0.00    -0.368 A  
HETATM   13  C   UNL     1     -11.280  12.176  68.124  1.00  0.00    -0.320 A  
BRANCH   9  14
HETATM   14  C   UNL     1     -10.291  15.639  66.654  1.00  0.00    -0.290 C  
HETATM   15  C   UNL     1     -10.495  16.970  67.304  1.00  0.00    -0.301 C  
HETATM   16  C   UNL     1      -8.776  15.438  66.410  1.00  0.00    -0.307 C  
HETATM   17  C   UNL     1     -10.992  15.679  65.288  1.00  0.00    -0.375 C  
HETATM   18  N   UNL     1     -10.636  18.002  67.818  1.00  0.00    -0.411 NA 
ENDBRANCH   9  14
BRANCH  13  19
HETATM   19  C   UNL     1     -11.343  10.722  67.716  1.00  0.00    -0.279 C  
BRANCH  19  20
HETATM   20  N   UNL     1     -10.403   9.864  68.413  1.00  0.00    -0.188 NA 
HETATM   21  C   UNL     1      -9.146   9.508  68.025  1.00  0.00    -0.123 A  
HETATM   22  N   UNL     1      -8.515   8.953  69.034  1.00  0.00    -0.131 NA 
HETATM   23  C   UNL     1      -9.437   8.999  70.038  1.00  0.00    -0.187 A  
HETATM   24  N   UNL     1     -10.611   9.543  69.708  1.00  0.00    -0.223 NA 
ENDBRANCH  19  20
ENDBRANCH  13  19
ENDBRANCH   2   8
TORSDOF 5
ENDMDL
MODEL       94
REMARK 921   NORMALIZED FREE ENERGY PREDICTED BY IDOCK:   -5.10 KCAL/MOL
REMARK 922        TOTAL FREE ENERGY PREDICTED BY IDOCK:   -7.38 KCAL/MOL
REMARK 923 INTER-LIGAND FREE ENERGY PREDICTED BY IDOCK:   -6.62 KCAL/MOL
REMARK 924 INTRA-LIGAND FREE ENERGY PREDICTED BY IDOCK:   -0.76 KCAL/MOL
REMARK 927      BINDING AFFINITY PREDICTED BY RF-SCORE:    0.00 PKD
ROOT
HETATM    1  C   UNL     1      -7.001  13.539  68.618  1.00  0.00    -0.100 C  
HETATM    2  C   UNL     1      -7.312  12.060  68.293  1.00  0.00    -0.095 C  
HETATM    3  C   UNL     1      -6.265  11.599  67.252  1.00  0.00    -0.115 C  
ENDROOT
BRANCH   2   4
HETATM    4  C   UNL     1      -7.061  11.232  69.543  1.00  0.00    -0.058 C  
HETATM    5  H2  UNL     1      -6.017  11.061  70.862  1.00  0.00     0.000 HD 
HETATM    6  N   UNL     1      -6.851  10.545  70.580  1.00  0.00    -0.435 NA 
HETATM    7  H1  UNL     1      -6.682   9.989  71.418  1.00  0.00     0.000 HD 
ENDBRANCH   2   4
BRANCH   2   8
HETATM    8  C   UNL     1      -8.770  11.925  67.865  1.00  0.00    -0.167 A  
HETATM    9  C   UNL     1     -10.537  12.214  66.178  1.00  0.00    -0.290 A  
HETATM   10  C   UNL     1      -9.193  12.300  66.587  1.00  0.00    -0.208 A  
HETATM   11  C   UNL     1     -11.476  11.740  67.111  1.00  0.00    -0.366 A  
HETATM   12  C   UNL     1      -9.739  11.447  68.765  1.00  0.00    -0.155 A  
HETATM   13  C   UNL     1     -11.092  11.373  68.412  1.00  0.00    -0.296 A  
BRANCH   9  14
HETATM   14  C   UNL     1     -10.896  12.671  64.751  1.00  0.00    -0.332 C  
HETATM   15  C   UNL     1     -12.299  12.272  64.424  1.00  0.00    -0.404 C  
HETATM   16  C   UNL     1     -10.792  14.213  64.674  1.00  0.00    -0.401 C  
HETATM   17  C   UNL     1      -9.983  12.078  63.667  1.00  0.00    -0.387 C  
HETATM   18  N   UNL     1     -13.396  11.979  64.179  1.00  0.00    -0.618 NA 
ENDBRANCH   9  14
BRANCH  13  19
HETATM   19  C   UNL     1     -12.122  10.982  69.447  1.00  0.00    -0.318 C  
BRANCH  19  20
HETATM   20  N   UNL     1     -12.351  11.985  70.472  1.00  0.00    -0.319 NA 
HETATM   21  C   UNL     1     -12.212  13.337  70.368  1.00  0.00    -0.332 A  
HETATM   22  N   UNL     1     -12.767  13.917  71.408  1.00  0.00    -0.351 NA 
HETATM   23  C   UNL     1     -13.249  12.863  72.128  1.00  0.00    -0.448 A  
HETATM   24  N   UNL     1     -13.017  11.659  71.601  1.00  0.00    -0.427 NA 
ENDBRANCH  19  20
ENDBRANCH  13  19
ENDBRANCH   2   8
TORSDOF 5
ENDMDL
MODEL       95
REMARK 921   NORMALIZED FREE ENERGY PREDICTED BY IDOCK:   -5.10 KCAL/MOL
REMARK 922        TOTAL FREE ENERGY PREDICTED BY IDOCK:   -7.37 KCAL/MOL
REMARK 923 INTER-LIGAND FREE ENERGY PREDICTED BY IDOCK:   -6.79 KCAL/MOL
REMARK 924 INTRA-LIGAND FREE ENERGY PREDICTED BY IDOCK:   -0.59 KCAL/MOL
REMARK 927      BINDING AFFINITY PREDICTED BY RF-SCORE:    0.00 PKD
ROOT
HETATM    1  C   UNL     1     -12.019  14.216  66.533  1.00  0.00    -0.466 C  
HETATM    2  C   UNL     1     -10.861  14.427  65.532  1.00  0.00    -0.335 C  
HETATM    3  C   UNL     1     -10.822  13.179  64.619  1.00  0.00    -0.383 C  
ENDROOT
BRANCH   2   4
HETATM    4  C   UNL     1     -11.214  15.600  64.630  1.00  0.00    -0.369 C  
HETATM    5  H2  UNL     1     -12.032  16.012  63.210  1.00  0.00     0.000 HD 
HETATM    6  N   UNL     1     -11.508  16.571  63.882  1.00  0.00    -1.599 NA 
HETATM    7  H1  UNL     1     -11.745  17.358  63.277  1.00  0.00     0.000 HD 
ENDBRANCH   2   4
BRANCH   2   8
HETATM    8  C   UNL     1      -9.574  14.727  66.293  1.00  0.00    -0.339 A  
HETATM    9  C   UNL     1      -7.885  16.330  67.087  1.00  0.00    -0.225 A  
HETATM   10  C   UNL     1      -9.086  16.031  66.416  1.00  0.00    -0.354 A  
HETATM   11  C   UNL     1      -7.158  15.260  67.637  1.00  0.00    -0.206 A  
HETATM   12  C   UNL     1      -8.823  13.686  66.867  1.00  0.00    -0.201 A  
HETATM   13  C   UNL     1      -7.607  13.934  67.516  1.00  0.00    -0.190 A  
BRANCH   9  14
HETATM   14  C   UNL     1      -7.430  17.802  67.148  1.00  0.00    -0.216 C  
HETATM   15  C   UNL     1      -8.494  18.639  67.781  1.00  0.00    -0.275 C  
HETATM   16  C   UNL     1      -6.149  17.898  68.010  1.00  0.00    -0.169 C  
HETATM   17  C   UNL     1      -7.123  18.409  65.770  1.00  0.00    -0.258 C  
HETATM   18  N   UNL     1      -9.313  19.285  68.292  1.00  0.00    -0.334 NA 
ENDBRANCH   9  14
BRANCH  13  19
HETATM   19  C   UNL     1      -6.761  12.778  68.002  1.00  0.00    -0.100 C  
BRANCH  19  20
HETATM   20  N   UNL     1      -6.498  11.766  66.996  1.00  0.00    -0.148 NA 
HETATM   21  C   UNL     1      -7.362  10.843  66.489  1.00  0.00    -0.142 A  
HETATM   22  N   UNL     1      -6.838  10.291  65.418  1.00  0.00    -0.138 NA 
HETATM   23  C   UNL     1      -5.636  10.926  65.301  1.00  0.00    -0.044 A  
HETATM   24  N   UNL     1      -5.378  11.834  66.245  1.00  0.00    -0.298 NA 
ENDBRANCH  19  20
ENDBRANCH  13  19
ENDBRANCH   2   8
TORSDOF 5
ENDMDL
MODEL       96
REMARK 921   NORMALIZED FREE ENERGY PREDICTED BY IDOCK:   -5.09 KCAL/MOL
REMARK 922        TOTAL FREE ENERGY PREDICTED BY IDOCK:   -7.37 KCAL/MOL
REMARK 923 INTER-LIGAND FREE ENERGY PREDICTED BY IDOCK:   -7.00 KCAL/MOL
REMARK 924 INTRA-LIGAND FREE ENERGY PREDICTED BY IDOCK:   -0.37 KCAL/MOL
REMARK 927      BINDING AFFINITY PREDICTED BY RF-SCORE:    0.00 PKD
ROOT
HETATM    1  C   UNL     1     -10.523   8.217  72.490  1.00  0.00    -0.406 C  
HETATM    2  C   UNL     1     -11.647   8.250  71.429  1.00  0.00    -0.322 C  
HETATM    3  C   UNL     1     -12.091   6.786  71.198  1.00  0.00    -0.422 C  
ENDROOT
BRANCH   2   4
HETATM    4  C   UNL     1     -12.848   8.968  72.025  1.00  0.00    -0.401 C  
HETATM    5  H2  UNL     1     -14.370   8.709  72.713  1.00  0.00     0.000 HD 
HETATM    6  N   UNL     1     -13.845   9.562  72.519  1.00  0.00    -0.682 NA 
HETATM    7  H1  UNL     1     -14.650  10.043  72.918  1.00  0.00     0.000 HD 
ENDBRANCH   2   4
BRANCH   2   8
HETATM    8  C   UNL     1     -11.160   8.994  70.190  1.00  0.00    -0.228 A  
HETATM    9  C   UNL     1      -9.900   9.030  68.077  1.00  0.00    -0.197 A  
HETATM   10  C   UNL     1     -10.387   8.357  69.214  1.00  0.00    -0.220 A  
HETATM   11  C   UNL     1     -10.205  10.395  67.943  1.00  0.00    -0.211 A  
HETATM   12  C   UNL     1     -11.452  10.358  70.013  1.00  0.00    -0.382 A  
HETATM   13  C   UNL     1     -10.962  11.074  68.913  1.00  0.00    -0.277 A  
BRANCH   9  14
HETATM   14  C   UNL     1      -9.042   8.235  67.072  1.00  0.00    -0.172 C  
HETATM   15  C   UNL     1      -7.650   8.086  67.595  1.00  0.00    -0.102 C  
HETATM   16  C   UNL     1      -9.654   6.825  66.892  1.00  0.00    -0.200 C  
HETATM   17  C   UNL     1      -8.949   8.894  65.687  1.00  0.00    -0.249 C  
HETATM   18  N   UNL     1      -6.574   7.954  68.011  1.00  0.00    -0.055 NA 
ENDBRANCH   9  14
BRANCH  13  19
HETATM   19  C   UNL     1     -11.182  12.567  68.825  1.00  0.00    -0.273 C  
BRANCH  19  20
HETATM   20  N   UNL     1     -11.740  13.016  67.563  1.00  0.00    -0.358 NA 
HETATM   21  C   UNL     1     -11.684  14.263  67.017  1.00  0.00    -0.403 A  
HETATM   22  N   UNL     1     -12.060  14.210  65.760  1.00  0.00    -0.404 NA 
HETATM   23  C   UNL     1     -12.333  12.887  65.575  1.00  0.00    -0.461 A  
HETATM   24  N   UNL     1     -12.158  12.114  66.649  1.00  0.00    -0.578 NA 
ENDBRANCH  19  20
ENDBRANCH  13  19
ENDBRANCH   2   8
TORSDOF 5
ENDMDL
MODEL       97
REMARK 921   NORMALIZED FREE ENERGY PREDICTED BY IDOCK:   -5.07 KCAL/MOL
REMARK 922        TOTAL FREE ENERGY PREDICTED BY IDOCK:   -7.34 KCAL/MOL
REMARK 923 INTER-LIGAND FREE ENERGY PREDICTED BY IDOCK:   -6.73 KCAL/MOL
REMARK 924 INTRA-LIGAND FREE ENERGY PREDICTED BY IDOCK:   -0.61 KCAL/MOL
REMARK 927      BINDING AFFINITY PREDICTED BY RF-SCORE:    0.00 PKD
ROOT
HETATM    1  C   UNL     1     -11.684  14.244  64.286  1.00  0.00    -0.348 C  
HETATM    2  C   UNL     1     -11.461  12.757  64.644  1.00  0.00    -0.367 C  
HETATM    3  C   UNL     1     -12.778  12.013  64.317  1.00  0.00    -0.293 C  
ENDROOT
BRANCH   2   4
HETATM    4  C   UNL     1     -10.410  12.189  63.704  1.00  0.00    -0.452 C  
HETATM    5  H2  UNL     1      -9.685  12.418  62.194  1.00  0.00     0.000 HD 
HETATM    6  N   UNL     1      -9.538  11.720  62.923  1.00  0.00    -0.602 NA 
HETATM    7  H1  UNL     1      -8.832  11.339  62.293  1.00  0.00     0.000 HD 
ENDBRANCH   2   4
BRANCH   2   8
HETATM    8  C   UNL     1     -10.982  12.644  66.088  1.00  0.00    -0.313 A  
HETATM    9  C   UNL     1     -10.048  11.308  67.931  1.00  0.00    -0.195 A  
HETATM   10  C   UNL     1     -10.468  11.446  66.594  1.00  0.00    -0.285 A  
HETATM   11  C   UNL     1     -10.169  12.426  68.774  1.00  0.00    -0.103 A  
HETATM   12  C   UNL     1     -11.077  13.741  66.961  1.00  0.00    -0.313 A  
HETATM   13  C   UNL     1     -10.700  13.640  68.307  1.00  0.00    -0.266 A  
BRANCH   9  14
HETATM   14  C   UNL     1      -9.513   9.937  68.389  1.00  0.00    -0.142 C  
HETATM   15  C   UNL     1     -10.231   8.842  67.668  1.00  0.00    -0.239 C  
HETATM   16  C   UNL     1      -8.006   9.845  68.049  1.00  0.00    -0.100 C  
HETATM   17  C   UNL     1      -9.677   9.684  69.895  1.00  0.00    -0.262 C  
HETATM   18  N   UNL     1     -10.776   7.992  67.093  1.00  0.00    -0.289 NA 
ENDBRANCH   9  14
BRANCH  13  19
HETATM   19  C   UNL     1     -10.941  14.799  69.248  1.00  0.00    -0.261 C  
BRANCH  19  20
HETATM   20  N   UNL     1     -12.114  14.651  70.089  1.00  0.00    -0.308 NA 
HETATM   21  C   UNL     1     -12.487  13.567  70.826  1.00  0.00    -0.353 A  
HETATM   22  N   UNL     1     -13.445  13.908  71.657  1.00  0.00    -0.357 NA 
HETATM   23  C   UNL     1     -13.624  15.235  71.395  1.00  0.00    -0.514 A  
HETATM   24  N   UNL     1     -12.837  15.737  70.440  1.00  0.00    -0.367 NA 
ENDBRANCH  19  20
ENDBRANCH  13  19
ENDBRANCH   2   8
TORSDOF 5
ENDMDL
MODEL       98
REMARK 921   NORMALIZED FREE ENERGY PREDICTED BY IDOCK:   -5.06 KCAL/MOL
REMARK 922        TOTAL FREE ENERGY PREDICTED BY IDOCK:   -7.33 KCAL/MOL
REMARK 923 INTER-LIGAND FREE ENERGY PREDICTED BY IDOCK:   -6.46 KCAL/MOL
REMARK 924 INTRA-LIGAND FREE ENERGY PREDICTED BY IDOCK:   -0.87 KCAL/MOL
REMARK 927      BINDING AFFINITY PREDICTED BY RF-SCORE:    0.00 PKD
ROOT
HETATM    1  C   UNL     1      -7.385  10.507  64.377  1.00  0.00     0.094 C  
HETATM    2  C   UNL     1      -8.790   9.863  64.340  1.00  0.00    -0.245 C  
HETATM    3  C   UNL     1      -9.333  10.048  62.903  1.00  0.00    -0.290 C  
ENDROOT
BRANCH   2   4
HETATM    4  C   UNL     1      -8.636   8.364  64.546  1.00  0.00     0.012 C  
HETATM    5  H2  UNL     1      -7.848   7.205  65.490  1.00  0.00     0.000 HD 
HETATM    6  N   UNL     1      -8.508   7.122  64.717  1.00  0.00    -0.344 NA 
HETATM    7  H1  UNL     1      -8.405   6.116  64.855  1.00  0.00     0.000 HD 
ENDBRANCH   2   4
BRANCH   2   8
HETATM    8  C   UNL     1      -9.653  10.454  65.451  1.00  0.00    -0.303 A  
HETATM    9  C   UNL     1     -10.448  10.432  67.779  1.00  0.00    -0.268 A  
HETATM   10  C   UNL     1      -9.639   9.925  66.745  1.00  0.00    -0.231 A  
HETATM   11  C   UNL     1     -11.304  11.505  67.475  1.00  0.00    -0.366 A  
HETATM   12  C   UNL     1     -10.515  11.533  65.190  1.00  0.00    -0.340 A  
HETATM   13  C   UNL     1     -11.360  12.050  66.180  1.00  0.00    -0.407 A  
BRANCH   9  14
HETATM   14  C   UNL     1     -10.366   9.762  69.165  1.00  0.00    -0.225 C  
HETATM   15  C   UNL     1      -8.971   9.852  69.694  1.00  0.00    -0.216 C  
HETATM   16  C   UNL     1     -11.311  10.504  70.140  1.00  0.00    -0.400 C  
HETATM   17  C   UNL     1     -10.763   8.278  69.155  1.00  0.00    -0.117 C  
HETATM   18  N   UNL     1      -7.891   9.940  70.112  1.00  0.00    -0.180 NA 
ENDBRANCH   9  14
BRANCH  13  19
HETATM   19  C   UNL     1     -12.369  13.120  65.829  1.00  0.00    -0.435 C  
BRANCH  19  20
HETATM   20  N   UNL     1     -11.799  14.293  65.193  1.00  0.00    -0.367 NA 
HETATM   21  C   UNL     1     -12.254  14.955  64.092  1.00  0.00    -0.255 A  
HETATM   22  N   UNL     1     -11.638  16.110  63.987  1.00  0.00    -0.889 NA 
HETATM   23  C   UNL     1     -10.808  16.117  65.070  1.00  0.00    -0.363 A  
HETATM   24  N   UNL     1     -10.865  15.026  65.837  1.00  0.00    -0.328 NA 
ENDBRANCH  19  20
ENDBRANCH  13  19
ENDBRANCH   2   8
TORSDOF 5
ENDMDL
MODEL       99
REMARK 921   NORMALIZED FREE ENERGY PREDICTED BY IDOCK:   -5.05 KCAL/MOL
REMARK 922        TOTAL FREE ENERGY PREDICTED BY IDOCK:   -7.32 KCAL/MOL
REMARK 923 INTER-LIGAND FREE ENERGY PREDICTED BY IDOCK:   -6.89 KCAL/MOL
REMARK 924 INTRA-LIGAND FREE ENERGY PREDICTED BY IDOCK:   -0.43 KCAL/MOL
REMARK 927      BINDING AFFINITY PREDICTED BY RF-SCORE:    0.00 PKD
ROOT
HETATM    1  C   UNL     1     -12.349  13.560  66.352  1.00  0.00    -0.413 C  
HETATM    2  C   UNL     1     -11.448  13.615  67.607  1.00  0.00    -0.357 C  
HETATM    3  C   UNL     1     -10.133  14.314  67.187  1.00  0.00    -0.254 C  
ENDROOT
BRANCH   2   4
HETATM    4  C   UNL     1     -12.106  14.528  68.629  1.00  0.00    -0.218 C  
HETATM    5  H2  UNL     1     -13.535  15.361  68.973  1.00  0.00     0.000 HD 
HETATM    6  N   UNL     1     -12.652  15.286  69.477  1.00  0.00    -0.607 NA 
HETATM    7  H1  UNL     1     -13.093  15.898  70.163  1.00  0.00     0.000 HD 
ENDBRANCH   2   4
BRANCH   2   8
HETATM    8  C   UNL     1     -11.292  12.213  68.187  1.00  0.00    -0.349 A  
HETATM    9  C   UNL     1     -10.526   9.885  67.973  1.00  0.00    -0.266 A  
HETATM   10  C   UNL     1     -10.656  11.194  67.472  1.00  0.00    -0.258 A  
HETATM   11  C   UNL     1     -11.075   9.610  69.238  1.00  0.00    -0.149 A  
HETATM   12  C   UNL     1     -11.818  11.900  69.453  1.00  0.00    -0.389 A  
HETATM   13  C   UNL     1     -11.740  10.603  69.977  1.00  0.00    -0.405 A  
BRANCH   9  14
HETATM   14  C   UNL     1      -9.821   8.834  67.093  1.00  0.00    -0.268 C  
HETATM   15  C   UNL     1      -9.479   9.427  65.764  1.00  0.00    -0.259 C  
HETATM   16  C   UNL     1      -8.510   8.393  67.787  1.00  0.00    -0.131 C  
HETATM   17  C   UNL     1     -10.668   7.578  66.835  1.00  0.00    -0.299 C  
HETATM   18  N   UNL     1      -9.197   9.894  64.739  1.00  0.00    -0.237 NA 
ENDBRANCH   9  14
BRANCH  13  19
HETATM   19  C   UNL     1     -12.433  10.272  71.279  1.00  0.00    -0.408 C  
BRANCH  19  20
HETATM   20  N   UNL     1     -12.199   8.920  71.754  1.00  0.00    -0.335 NA 
HETATM   21  C   UNL     1     -12.963   7.813  71.543  1.00  0.00    -0.325 A  
HETATM   22  N   UNL     1     -12.291   6.740  71.895  1.00  0.00    -0.343 NA 
HETATM   23  C   UNL     1     -11.096   7.249  72.314  1.00  0.00    -0.260 A  
HETATM   24  N   UNL     1     -10.991   8.578  72.252  1.00  0.00    -0.359 NA 
ENDBRANCH  19  20
ENDBRANCH  13  19
ENDBRANCH   2   8
TORSDOF 5
ENDMDL
MODEL      100
REMARK 921   NORMALIZED FREE ENERGY PREDICTED BY IDOCK:   -5.05 KCAL/MOL
REMARK 922        TOTAL FREE ENERGY PREDICTED BY IDOCK:   -7.31 KCAL/MOL
REMARK 923 INTER-LIGAND FREE ENERGY PREDICTED BY IDOCK:   -6.51 KCAL/MOL
REMARK 924 INTRA-LIGAND FREE ENERGY PREDICTED BY IDOCK:   -0.80 KCAL/MOL
REMARK 927      BINDING AFFINITY PREDICTED BY RF-SCORE:    0.00 PKD
ROOT
HETATM    1  C   UNL     1      -6.877  14.284  69.576  1.00  0.00    -0.110 C  
HETATM    2  C   UNL     1      -6.582  14.571  68.086  1.00  0.00    -0.140 C  
HETATM    3  C   UNL     1      -5.241  15.341  68.033  1.00  0.00    -0.130 C  
ENDROOT
BRANCH   2   4
HETATM    4  C   UNL     1      -6.339  13.247  67.381  1.00  0.00    -0.014 C  
HETATM    5  H2  UNL     1      -6.296  11.575  67.627  1.00  0.00     0.000 HD 
HETATM    6  N   UNL     1      -6.138  12.147  66.798  1.00  0.00    -0.473 NA 
HETATM    7  H1  UNL     1      -5.975  11.258  66.325  1.00  0.00     0.000 HD 
ENDBRANCH   2   4
BRANCH   2   8
HETATM    8  C   UNL     1      -7.775  15.283  67.456  1.00  0.00    -0.200 A  
HETATM    9  C   UNL     1      -8.993  17.356  66.930  1.00  0.00    -0.260 A  
HETATM   10  C   UNL     1      -7.887  16.677  67.477  1.00  0.00    -0.191 A  
HETATM   11  C   UNL     1     -10.017  16.583  66.356  1.00  0.00    -0.318 A  
HETATM   12  C   UNL     1      -8.817  14.548  66.863  1.00  0.00    -0.257 A  
HETATM   13  C   UNL     1      -9.950  15.179  66.335  1.00  0.00    -0.288 A  
BRANCH   9  14
HETATM   14  C   UNL     1      -9.022  18.894  67.022  1.00  0.00    -0.306 C  
HETATM   15  C   UNL     1      -8.027  19.482  66.075  1.00  0.00    -0.303 C  
HETATM   16  C   UNL     1     -10.433  19.396  66.629  1.00  0.00    -0.568 C  
HETATM   17  C   UNL     1      -8.701  19.432  68.425  1.00  0.00    -0.397 C  
HETATM   18  N   UNL     1      -7.267  19.938  65.324  1.00  0.00    -0.370 NA 
ENDBRANCH   9  14
BRANCH  13  19
HETATM   19  C   UNL     1     -11.108  14.351  65.828  1.00  0.00    -0.316 C  
BRANCH  19  20
HETATM   20  N   UNL     1     -11.588  13.355  66.769  1.00  0.00    -0.346 NA 
HETATM   21  C   UNL     1     -11.619  12.002  66.615  1.00  0.00    -0.319 A  
HETATM   22  N   UNL     1     -11.863  11.433  67.773  1.00  0.00    -0.630 NA 
HETATM   23  C   UNL     1     -11.967  12.495  68.623  1.00  0.00    -0.224 A  
HETATM   24  N   UNL     1     -11.812  13.694  68.057  1.00  0.00    -0.354 NA 
ENDBRANCH  19  20
ENDBRANCH  13  19
ENDBRANCH   2   8
TORSDOF 5
ENDMDL
MODEL      101
REMARK 921   NORMALIZED FREE ENERGY PREDICTED BY IDOCK:   -5.04 KCAL/MOL
REMARK 922        TOTAL FREE ENERGY PREDICTED BY IDOCK:   -7.31 KCAL/MOL
REMARK 923 INTER-LIGAND FREE ENERGY PREDICTED BY IDOCK:   -6.45 KCAL/MOL
REMARK 924 INTRA-LIGAND FREE ENERGY PREDICTED BY IDOCK:   -0.86 KCAL/MOL
REMARK 927      BINDING AFFINITY PREDICTED BY RF-SCORE:    0.00 PKD
ROOT
HETATM    1  C   UNL     1      -7.457  16.977  66.225  1.00  0.00    -0.318 C  
HETATM    2  C   UNL     1      -8.118  16.611  67.573  1.00  0.00    -0.184 C  
HETATM    3  C   UNL     1      -7.018  16.718  68.657  1.00  0.00    -0.180 C  
ENDROOT
BRANCH   2   4
HETATM    4  C   UNL     1      -9.148  17.677  67.908  1.00  0.00    -0.260 C  
HETATM    5  H2  UNL     1      -9.998  18.377  69.190  1.00  0.00     0.000 HD 
HETATM    6  N   UNL     1     -10.003  18.561  68.187  1.00  0.00    -0.342 NA 
HETATM    7  H1  UNL     1     -10.694  19.276  68.412  1.00  0.00     0.000 HD 
ENDBRANCH   2   4
BRANCH   2   8
HETATM    8  C   UNL     1      -8.797  15.250  67.457  1.00  0.00    -0.188 A  
HETATM    9  C   UNL     1      -8.667  12.794  67.404  1.00  0.00    -0.196 A  
HETATM   10  C   UNL     1      -8.068  14.061  67.538  1.00  0.00    -0.197 A  
HETATM   11  C   UNL     1     -10.052  12.746  67.168  1.00  0.00    -0.234 A  
HETATM   12  C   UNL     1     -10.182  15.159  67.231  1.00  0.00    -0.243 A  
HETATM   13  C   UNL     1     -10.815  13.921  67.060  1.00  0.00    -0.288 A  
BRANCH   9  14
HETATM   14  C   UNL     1      -7.764  11.547  67.493  1.00  0.00    -0.132 C  
HETATM   15  C   UNL     1      -6.390  11.875  67.004  1.00  0.00    -0.141 C  
HETATM   16  C   UNL     1      -7.667  11.100  68.971  1.00  0.00    -0.114 C  
HETATM   17  C   UNL     1      -8.277  10.356  66.668  1.00  0.00    -0.128 C  
HETATM   18  N   UNL     1      -5.318  12.136  66.642  1.00  0.00    -0.321 NA 
ENDBRANCH   9  14
BRANCH  13  19
HETATM   19  C   UNL     1     -12.279  13.867  66.686  1.00  0.00    -0.424 C  
BRANCH  19  20
HETATM   20  N   UNL     1     -12.528  13.535  65.295  1.00  0.00    -0.476 NA 
HETATM   21  C   UNL     1     -12.194  14.255  64.188  1.00  0.00    -0.378 A  
HETATM   22  N   UNL     1     -12.339  13.509  63.117  1.00  0.00    -0.685 NA 
HETATM   23  C   UNL     1     -12.763  12.316  63.627  1.00  0.00    -0.411 A  
HETATM   24  N   UNL     1     -12.899  12.282  64.954  1.00  0.00    -0.610 NA 
ENDBRANCH  19  20
ENDBRANCH  13  19
ENDBRANCH   2   8
TORSDOF 5
ENDMDL
MODEL      102
REMARK 921   NORMALIZED FREE ENERGY PREDICTED BY IDOCK:   -5.04 KCAL/MOL
REMARK 922        TOTAL FREE ENERGY PREDICTED BY IDOCK:   -7.30 KCAL/MOL
REMARK 923 INTER-LIGAND FREE ENERGY PREDICTED BY IDOCK:   -6.45 KCAL/MOL
REMARK 924 INTRA-LIGAND FREE ENERGY PREDICTED BY IDOCK:   -0.85 KCAL/MOL
REMARK 927      BINDING AFFINITY PREDICTED BY RF-SCORE:    0.00 PKD
ROOT
HETATM    1  C   UNL     1      -6.820  14.127  69.614  1.00  0.00    -0.056 C  
HETATM    2  C   UNL     1      -6.833  14.460  68.104  1.00  0.00    -0.126 C  
HETATM    3  C   UNL     1      -5.712  15.498  67.862  1.00  0.00    -0.155 C  
ENDROOT
BRANCH   2   4
HETATM    4  C   UNL     1      -6.430  13.213  67.334  1.00  0.00    -0.068 C  
HETATM    5  H2  UNL     1      -5.336  11.924  67.330  1.00  0.00     0.000 HD 
HETATM    6  N   UNL     1      -6.095  12.178  66.697  1.00  0.00    -0.496 NA 
HETATM    7  H1  UNL     1      -5.824  11.341  66.180  1.00  0.00     0.000 HD 
ENDBRANCH   2   4
BRANCH   2   8
HETATM    8  C   UNL     1      -8.234  14.897  67.688  1.00  0.00    -0.184 A  
HETATM    9  C   UNL     1     -10.363  14.439  66.543  1.00  0.00    -0.281 A  
HETATM   10  C   UNL     1      -9.078  14.049  66.965  1.00  0.00    -0.256 A  
HETATM   11  C   UNL     1     -10.791  15.739  66.863  1.00  0.00    -0.265 A  
HETATM   12  C   UNL     1      -8.704  16.186  67.997  1.00  0.00    -0.176 A  
HETATM   13  C   UNL     1      -9.963  16.627  67.571  1.00  0.00    -0.264 A  
BRANCH   9  14
HETATM   14  C   UNL     1     -11.203  13.430  65.735  1.00  0.00    -0.305 C  
HETATM   15  C   UNL     1     -11.528  12.241  66.582  1.00  0.00    -0.373 C  
HETATM   16  C   UNL     1     -12.528  14.105  65.307  1.00  0.00    -0.474 C  
HETATM   17  C   UNL     1     -10.500  12.918  64.469  1.00  0.00    -0.400 C  
HETATM   18  N   UNL     1     -11.795  11.328  67.247  1.00  0.00    -0.511 NA 
ENDBRANCH   9  14
BRANCH  13  19
HETATM   19  C   UNL     1     -10.379  18.062  67.804  1.00  0.00    -0.393 C  
BRANCH  19  20
HETATM   20  N   UNL     1      -9.429  19.046  67.318  1.00  0.00    -0.304 NA 
HETATM   21  C   UNL     1      -8.563  19.806  68.045  1.00  0.00    -0.295 A  
HETATM   22  N   UNL     1      -7.690  20.369  67.242  1.00  0.00    -0.321 NA 
HETATM   23  C   UNL     1      -8.061  19.909  66.012  1.00  0.00    -0.304 A  
HETATM   24  N   UNL     1      -9.123  19.099  66.004  1.00  0.00    -0.447 NA 
ENDBRANCH  19  20
ENDBRANCH  13  19
ENDBRANCH   2   8
TORSDOF 5
ENDMDL
MODEL      103
REMARK 921   NORMALIZED FREE ENERGY PREDICTED BY IDOCK:   -5.02 KCAL/MOL
REMARK 922        TOTAL FREE ENERGY PREDICTED BY IDOCK:   -7.27 KCAL/MOL
REMARK 923 INTER-LIGAND FREE ENERGY PREDICTED BY IDOCK:   -6.41 KCAL/MOL
REMARK 924 INTRA-LIGAND FREE ENERGY PREDICTED BY IDOCK:   -0.86 KCAL/MOL
REMARK 927      BINDING AFFINITY PREDICTED BY RF-SCORE:    0.00 PKD
ROOT
HETATM    1  C   UNL     1      -9.130   9.910  62.670  1.00  0.00    -0.304 C  
HETATM    2  C   UNL     1      -8.427   9.359  63.931  1.00  0.00    -0.204 C  
HETATM    3  C   UNL     1      -8.138   7.862  63.667  1.00  0.00    -0.074 C  
ENDROOT
BRANCH   2   4
HETATM    4  C   UNL     1      -7.072  10.036  64.060  1.00  0.00    -0.126 C  
HETATM    5  H2  UNL     1      -5.915  10.535  65.186  1.00  0.00     0.000 HD 
HETATM    6  N   UNL     1      -5.948  10.597  64.169  1.00  0.00    -0.369 NA 
HETATM    7  H1  UNL     1      -5.039  11.051  64.255  1.00  0.00     0.000 HD 
ENDBRANCH   2   4
BRANCH   2   8
HETATM    8  C   UNL     1      -9.276   9.658  65.162  1.00  0.00    -0.305 A  
HETATM    9  C   UNL     1     -10.513  11.253  66.569  1.00  0.00    -0.299 A  
HETATM   10  C   UNL     1      -9.754  10.945  65.424  1.00  0.00    -0.287 A  
HETATM   11  C   UNL     1     -10.781  10.213  67.476  1.00  0.00    -0.347 A  
HETATM   12  C   UNL     1      -9.575   8.643  66.090  1.00  0.00    -0.305 A  
HETATM   13  C   UNL     1     -10.300   8.911  67.258  1.00  0.00    -0.350 A  
BRANCH   9  14
HETATM   14  C   UNL     1     -10.974  12.710  66.768  1.00  0.00    -0.296 C  
HETATM   15  C   UNL     1     -12.062  13.039  65.798  1.00  0.00    -0.454 C  
HETATM   16  C   UNL     1     -11.530  12.872  68.204  1.00  0.00    -0.354 C  
HETATM   17  C   UNL     1      -9.853  13.743  66.574  1.00  0.00    -0.294 C  
HETATM   18  N   UNL     1     -12.921  13.287  65.056  1.00  0.00    -0.732 NA 
ENDBRANCH   9  14
BRANCH  13  19
HETATM   19  C   UNL     1     -10.487   7.827  68.295  1.00  0.00    -0.168 C  
BRANCH  19  20
HETATM   20  N   UNL     1     -10.388   8.291  69.668  1.00  0.00    -0.214 NA 
HETATM   21  C   UNL     1     -11.343   8.244  70.639  1.00  0.00    -0.244 A  
HETATM   22  N   UNL     1     -10.797   8.503  71.805  1.00  0.00    -0.279 NA 
HETATM   23  C   UNL     1      -9.482   8.695  71.495  1.00  0.00    -0.250 A  
HETATM   24  N   UNL     1      -9.181   8.580  70.199  1.00  0.00    -0.153 NA 
ENDBRANCH  19  20
ENDBRANCH  13  19
ENDBRANCH   2   8
TORSDOF 5
ENDMDL
MODEL      104
REMARK 921   NORMALIZED FREE ENERGY PREDICTED BY IDOCK:   -5.00 KCAL/MOL
REMARK 922        TOTAL FREE ENERGY PREDICTED BY IDOCK:   -7.26 KCAL/MOL
REMARK 923 INTER-LIGAND FREE ENERGY PREDICTED BY IDOCK:   -6.91 KCAL/MOL
REMARK 924 INTRA-LIGAND FREE ENERGY PREDICTED BY IDOCK:   -0.35 KCAL/MOL
REMARK 927      BINDING AFFINITY PREDICTED BY RF-SCORE:    0.00 PKD
ROOT
HETATM    1  C   UNL     1     -13.352  15.561  70.530  1.00  0.00    -0.079 C  
HETATM    2  C   UNL     1     -11.967  14.927  70.267  1.00  0.00    -0.365 C  
HETATM    3  C   UNL     1     -11.038  15.382  71.417  1.00  0.00    -0.319 C  
ENDROOT
BRANCH   2   4
HETATM    4  C   UNL     1     -12.098  13.418  70.399  1.00  0.00    -0.333 C  
HETATM    5  H2  UNL     1     -11.499  12.080  71.240  1.00  0.00     0.000 HD 
HETATM    6  N   UNL     1     -12.205  12.166  70.510  1.00  0.00    -0.358 NA 
HETATM    7  H1  UNL     1     -12.293  11.154  70.598  1.00  0.00     0.000 HD 
ENDBRANCH   2   4
BRANCH   2   8
HETATM    8  C   UNL     1     -11.498  15.286  68.861  1.00  0.00    -0.346 A  
HETATM    9  C   UNL     1     -10.530  16.903  67.279  1.00  0.00    -0.301 A  
HETATM   10  C   UNL     1     -10.942  16.536  68.574  1.00  0.00    -0.350 A  
HETATM   11  C   UNL     1     -10.703  15.965  66.247  1.00  0.00    -0.261 A  
HETATM   12  C   UNL     1     -11.644  14.372  67.802  1.00  0.00    -0.384 A  
HETATM   13  C   UNL     1     -11.277  14.706  66.492  1.00  0.00    -0.346 A  
BRANCH   9  14
HETATM   14  C   UNL     1      -9.946  18.315  67.072  1.00  0.00    -0.349 C  
HETATM   15  C   UNL     1     -10.085  19.114  68.327  1.00  0.00    -0.416 C  
HETATM   16  C   UNL     1      -8.442  18.192  66.730  1.00  0.00    -0.273 C  
HETATM   17  C   UNL     1     -10.628  19.103  65.943  1.00  0.00    -0.495 C  
HETATM   18  N   UNL     1     -10.175  19.728  69.309  1.00  0.00    -0.287 NA 
ENDBRANCH   9  14
BRANCH  13  19
HETATM   19  C   UNL     1     -11.573  13.750  65.359  1.00  0.00    -0.320 C  
BRANCH  19  20
HETATM   20  N   UNL     1     -10.960  12.442  65.504  1.00  0.00    -0.284 NA 
HETATM   21  C   UNL     1     -11.154  11.531  66.498  1.00  0.00    -0.282 A  
HETATM   22  N   UNL     1     -10.642  10.375  66.142  1.00  0.00    -0.144 NA 
HETATM   23  C   UNL     1     -10.146  10.628  64.896  1.00  0.00    -0.335 A  
HETATM   24  N   UNL     1     -10.311  11.880  64.462  1.00  0.00    -0.277 NA 
ENDBRANCH  19  20
ENDBRANCH  13  19
ENDBRANCH   2   8
TORSDOF 5
ENDMDL
MODEL      105
REMARK 921   NORMALIZED FREE ENERGY PREDICTED BY IDOCK:   -5.00 KCAL/MOL
REMARK 922        TOTAL FREE ENERGY PREDICTED BY IDOCK:   -7.25 KCAL/MOL
REMARK 923 INTER-LIGAND FREE ENERGY PREDICTED BY IDOCK:   -6.58 KCAL/MOL
REMARK 924 INTRA-LIGAND FREE ENERGY PREDICTED BY IDOCK:   -0.67 KCAL/MOL
REMARK 927      BINDING AFFINITY PREDICTED BY RF-SCORE:    0.00 PKD
ROOT
HETATM    1  C   UNL     1     -13.791   9.603  70.584  1.00  0.00     0.345 C  
HETATM    2  C   UNL     1     -12.478  10.341  70.934  1.00  0.00    -0.466 C  
HETATM    3  C   UNL     1     -12.827  11.396  72.010  1.00  0.00    -0.265 C  
ENDROOT
BRANCH   2   4
HETATM    4  C   UNL     1     -11.535   9.351  71.601  1.00  0.00    -0.393 C  
HETATM    5  H2  UNL     1     -10.715   9.031  73.044  1.00  0.00     0.000 HD 
HETATM    6  N   UNL     1     -10.754   8.532  72.156  1.00  0.00    -0.337 NA 
HETATM    7  H1  UNL     1     -10.122   7.868  72.603  1.00  0.00     0.000 HD 
ENDBRANCH   2   4
BRANCH   2   8
HETATM    8  C   UNL     1     -11.841  10.885  69.660  1.00  0.00    -0.416 A  
HETATM    9  C   UNL     1     -10.526  10.536  67.610  1.00  0.00    -0.276 A  
HETATM   10  C   UNL     1     -11.148  10.052  68.776  1.00  0.00    -0.219 A  
HETATM   11  C   UNL     1     -10.607  11.915  67.348  1.00  0.00    -0.257 A  
HETATM   12  C   UNL     1     -11.908  12.257  69.356  1.00  0.00    -0.370 A  
HETATM   13  C   UNL     1     -11.278  12.786  68.223  1.00  0.00    -0.308 A  
BRANCH   9  14
HETATM   14  C   UNL     1      -9.773   9.532  66.715  1.00  0.00    -0.254 C  
HETATM   15  C   UNL     1     -10.348   8.163  66.887  1.00  0.00    -0.331 C  
HETATM   16  C   UNL     1      -9.938   9.953  65.235  1.00  0.00    -0.320 C  
HETATM   17  C   UNL     1      -8.269   9.443  67.019  1.00  0.00    -0.116 C  
HETATM   18  N   UNL     1     -10.809   7.104  67.007  1.00  0.00    -0.362 NA 
ENDBRANCH   9  14
BRANCH  13  19
HETATM   19  C   UNL     1     -11.257  14.282  68.000  1.00  0.00    -0.280 C  
BRANCH  19  20
HETATM   20  N   UNL     1     -11.593  14.690  66.648  1.00  0.00    -0.365 NA 
HETATM   21  C   UNL     1     -10.863  15.468  65.801  1.00  0.00    -0.331 A  
HETATM   22  N   UNL     1     -11.362  15.387  64.589  1.00  0.00    -0.397 NA 
HETATM   23  C   UNL     1     -12.409  14.526  64.743  1.00  0.00    -0.391 A  
HETATM   24  N   UNL     1     -12.595  14.074  65.985  1.00  0.00    -0.468 NA 
ENDBRANCH  19  20
ENDBRANCH  13  19
ENDBRANCH   2   8
TORSDOF 5
ENDMDL
MODEL      106
REMARK 921   NORMALIZED FREE ENERGY PREDICTED BY IDOCK:   -5.00 KCAL/MOL
REMARK 922        TOTAL FREE ENERGY PREDICTED BY IDOCK:   -7.25 KCAL/MOL
REMARK 923 INTER-LIGAND FREE ENERGY PREDICTED BY IDOCK:   -6.38 KCAL/MOL
REMARK 924 INTRA-LIGAND FREE ENERGY PREDICTED BY IDOCK:   -0.87 KCAL/MOL
REMARK 927      BINDING AFFINITY PREDICTED BY RF-SCORE:    0.00 PKD
ROOT
HETATM    1  C   UNL     1     -13.692   9.647  70.735  1.00  0.00     0.119 C  
HETATM    2  C   UNL     1     -12.387  10.463  70.880  1.00  0.00    -0.480 C  
HETATM    3  C   UNL     1     -12.693  11.631  71.847  1.00  0.00    -0.233 C  
ENDROOT
BRANCH   2   4
HETATM    4  C   UNL     1     -11.353   9.594  71.578  1.00  0.00    -0.350 C  
HETATM    5  H2  UNL     1     -10.981   8.862  73.055  1.00  0.00     0.000 HD 
HETATM    6  N   UNL     1     -10.496   8.874  72.158  1.00  0.00    -0.317 NA 
HETATM    7  H1  UNL     1      -9.802   8.291  72.625  1.00  0.00     0.000 HD 
ENDBRANCH   2   4
BRANCH   2   8
HETATM    8  C   UNL     1     -11.880  10.867  69.499  1.00  0.00    -0.404 A  
HETATM    9  C   UNL     1     -10.599  10.360  67.461  1.00  0.00    -0.312 A  
HETATM   10  C   UNL     1     -11.105   9.999  68.724  1.00  0.00    -0.219 A  
HETATM   11  C   UNL     1     -10.887  11.650  66.984  1.00  0.00    -0.311 A  
HETATM   12  C   UNL     1     -12.155  12.145  68.981  1.00  0.00    -0.208 A  
HETATM   13  C   UNL     1     -11.646  12.557  67.743  1.00  0.00    -0.401 A  
BRANCH   9  14
HETATM   14  C   UNL     1      -9.741   9.331  66.699  1.00  0.00    -0.281 C  
HETATM   15  C   UNL     1     -10.365   7.976  66.789  1.00  0.00    -0.290 C  
HETATM   16  C   UNL     1      -9.668   9.741  65.208  1.00  0.00    -0.371 C  
HETATM   17  C   UNL     1      -8.304   9.215  67.230  1.00  0.00    -0.121 C  
HETATM   18  N   UNL     1     -10.862   6.928  66.844  1.00  0.00    -0.354 NA 
ENDBRANCH   9  14
BRANCH  13  19
HETATM   19  C   UNL     1     -11.849  13.982  67.280  1.00  0.00    -0.411 C  
BRANCH  19  20
HETATM   20  N   UNL     1     -11.056  14.963  67.999  1.00  0.00    -0.283 NA 
HETATM   21  C   UNL     1     -11.491  16.072  68.659  1.00  0.00    -0.377 A  
HETATM   22  N   UNL     1     -10.520  16.550  69.404  1.00  0.00    -0.312 NA 
HETATM   23  C   UNL     1      -9.495  15.681  69.171  1.00  0.00    -0.256 A  
HETATM   24  N   UNL     1      -9.770  14.694  68.314  1.00  0.00    -0.209 NA 
ENDBRANCH  19  20
ENDBRANCH  13  19
ENDBRANCH   2   8
TORSDOF 5
ENDMDL
MODEL      107
REMARK 921   NORMALIZED FREE ENERGY PREDICTED BY IDOCK:   -4.99 KCAL/MOL
REMARK 922        TOTAL FREE ENERGY PREDICTED BY IDOCK:   -7.24 KCAL/MOL
REMARK 923 INTER-LIGAND FREE ENERGY PREDICTED BY IDOCK:   -6.53 KCAL/MOL
REMARK 924 INTRA-LIGAND FREE ENERGY PREDICTED BY IDOCK:   -0.72 KCAL/MOL
REMARK 927      BINDING AFFINITY PREDICTED BY RF-SCORE:    0.00 PKD
ROOT
HETATM    1  C   UNL     1     -11.739  15.677  70.790  1.00  0.00    -0.408 C  
HETATM    2  C   UNL     1     -11.090  15.136  69.495  1.00  0.00    -0.287 C  
HETATM    3  C   UNL     1     -11.730  15.906  68.316  1.00  0.00    -0.191 C  
ENDROOT
BRANCH   2   4
HETATM    4  C   UNL     1      -9.618  15.517  69.501  1.00  0.00    -0.278 C  
HETATM    5  H2  UNL     1      -8.395  16.192  68.550  1.00  0.00     0.000 HD 
HETATM    6  N   UNL     1      -8.397  15.834  69.505  1.00  0.00    -0.208 NA 
HETATM    7  H1  UNL     1      -7.410  16.089  69.509  1.00  0.00     0.000 HD 
ENDBRANCH   2   4
BRANCH   2   8
HETATM    8  C   UNL     1     -11.234  13.619  69.446  1.00  0.00    -0.252 A  
HETATM    9  C   UNL     1     -10.822  11.469  68.322  1.00  0.00    -0.257 A  
HETATM   10  C   UNL     1     -10.677  12.867  68.407  1.00  0.00    -0.273 A  
HETATM   11  C   UNL     1     -11.567  10.826  69.325  1.00  0.00    -0.376 A  
HETATM   12  C   UNL     1     -11.963  12.936  70.435  1.00  0.00    -0.329 A  
HETATM   13  C   UNL     1     -12.159  11.550  70.374  1.00  0.00    -0.471 A  
BRANCH   9  14
HETATM   14  C   UNL     1     -10.181  10.741  67.124  1.00  0.00    -0.255 C  
HETATM   15  C   UNL     1     -10.786  11.229  65.847  1.00  0.00    -0.232 C  
HETATM   16  C   UNL     1      -8.665  11.048  67.099  1.00  0.00    -0.135 C  
HETATM   17  C   UNL     1     -10.357   9.215  67.165  1.00  0.00    -0.337 C  
HETATM   18  N   UNL     1     -11.242  11.624  64.854  1.00  0.00    -0.262 NA 
ENDBRANCH   9  14
BRANCH  13  19
HETATM   19  C   UNL     1     -13.060  10.870  71.379  1.00  0.00    -0.356 C  
BRANCH  19  20
HETATM   20  N   UNL     1     -12.875   9.433  71.472  1.00  0.00    -0.341 NA 
HETATM   21  C   UNL     1     -11.828   8.756  72.019  1.00  0.00    -0.372 A  
HETATM   22  N   UNL     1     -12.147   7.489  72.158  1.00  0.00    -0.288 NA 
HETATM   23  C   UNL     1     -13.424   7.439  71.682  1.00  0.00    -0.366 A  
HETATM   24  N   UNL     1     -13.915   8.601  71.246  1.00  0.00    -0.250 NA 
ENDBRANCH  19  20
ENDBRANCH  13  19
ENDBRANCH   2   8
TORSDOF 5
ENDMDL
MODEL      108
REMARK 921   NORMALIZED FREE ENERGY PREDICTED BY IDOCK:   -4.96 KCAL/MOL
REMARK 922        TOTAL FREE ENERGY PREDICTED BY IDOCK:   -7.20 KCAL/MOL
REMARK 923 INTER-LIGAND FREE ENERGY PREDICTED BY IDOCK:   -6.34 KCAL/MOL
REMARK 924 INTRA-LIGAND FREE ENERGY PREDICTED BY IDOCK:   -0.87 KCAL/MOL
REMARK 927      BINDING AFFINITY PREDICTED BY RF-SCORE:    0.00 PKD
ROOT
HETATM    1  C   UNL     1     -12.444   9.731  71.608  1.00  0.00    -0.500 C  
HETATM    2  C   UNL     1     -11.163   9.122  70.993  1.00  0.00    -0.380 C  
HETATM    3  C   UNL     1     -10.221   8.773  72.170  1.00  0.00    -0.371 C  
ENDROOT
BRANCH   2   4
HETATM    4  C   UNL     1     -11.529   7.801  70.336  1.00  0.00    -0.158 C  
HETATM    5  H2  UNL     1     -11.544   6.989  68.854  1.00  0.00     0.000 HD 
HETATM    6  N   UNL     1     -11.831   6.705  69.790  1.00  0.00    -0.654 NA 
HETATM    7  H1  UNL     1     -12.077   5.819  69.349  1.00  0.00     0.000 HD 
ENDBRANCH   2   4
BRANCH   2   8
HETATM    8  C   UNL     1     -10.590  10.078  69.953  1.00  0.00    -0.324 A  
HETATM    9  C   UNL     1      -8.660  11.038  68.766  1.00  0.00    -0.144 A  
HETATM   10  C   UNL     1      -9.216  10.142  69.699  1.00  0.00    -0.206 A  
HETATM   11  C   UNL     1      -9.535  11.899  68.082  1.00  0.00    -0.195 A  
HETATM   12  C   UNL     1     -11.432  10.950  69.240  1.00  0.00    -0.372 A  
HETATM   13  C   UNL     1     -10.919  11.878  68.325  1.00  0.00    -0.273 A  
BRANCH   9  14
HETATM   14  C   UNL     1      -7.130  11.036  68.577  1.00  0.00    -0.078 C  
HETATM   15  C   UNL     1      -6.451  11.192  69.900  1.00  0.00    -0.142 C  
HETATM   16  C   UNL     1      -6.699   9.684  67.960  1.00  0.00    -0.062 C  
HETATM   17  C   UNL     1      -6.622  12.160  67.661  1.00  0.00    -0.116 C  
HETATM   18  N   UNL     1      -5.926  11.294  70.931  1.00  0.00    -0.363 NA 
ENDBRANCH   9  14
BRANCH  13  19
HETATM   19  C   UNL     1     -11.839  12.889  67.679  1.00  0.00    -0.346 C  
BRANCH  19  20
HETATM   20  N   UNL     1     -11.923  14.156  68.382  1.00  0.00    -0.349 NA 
HETATM   21  C   UNL     1     -12.312  14.377  69.669  1.00  0.00    -0.255 A  
HETATM   22  N   UNL     1     -11.998  15.603  70.019  1.00  0.00    -0.365 NA 
HETATM   23  C   UNL     1     -11.401  16.101  68.898  1.00  0.00    -0.350 A  
HETATM   24  N   UNL     1     -11.334  15.257  67.867  1.00  0.00    -0.331 NA 
ENDBRANCH  19  20
ENDBRANCH  13  19
ENDBRANCH   2   8
TORSDOF 5
ENDMDL
MODEL      109
REMARK 921   NORMALIZED FREE ENERGY PREDICTED BY IDOCK:   -4.95 KCAL/MOL
REMARK 922        TOTAL FREE ENERGY PREDICTED BY IDOCK:   -7.19 KCAL/MOL
REMARK 923 INTER-LIGAND FREE ENERGY PREDICTED BY IDOCK:   -7.49 KCAL/MOL
REMARK 924 INTRA-LIGAND FREE ENERGY PREDICTED BY IDOCK:    0.30 KCAL/MOL
REMARK 927      BINDING AFFINITY PREDICTED BY RF-SCORE:    0.00 PKD
ROOT
HETATM    1  C   UNL     1     -10.649   7.955  67.057  1.00  0.00    -0.381 C  
HETATM    2  C   UNL     1      -9.811   9.241  66.872  1.00  0.00    -0.276 C  
HETATM    3  C   UNL     1      -8.410   8.953  67.461  1.00  0.00    -0.109 C  
ENDROOT
BRANCH   2   4
HETATM    4  C   UNL     1      -9.606   9.469  65.383  1.00  0.00    -0.272 C  
HETATM    5  H2  UNL     1      -8.462   9.350  64.144  1.00  0.00     0.000 HD 
HETATM    6  N   UNL     1      -9.434   9.657  64.147  1.00  0.00    -0.403 NA 
HETATM    7  H1  UNL     1      -9.297   9.810  63.149  1.00  0.00     0.000 HD 
ENDBRANCH   2   4
BRANCH   2   8
HETATM    8  C   UNL     1     -10.551  10.427  67.481  1.00  0.00    -0.312 A  
HETATM    9  C   UNL     1     -11.255  12.783  67.389  1.00  0.00    -0.337 A  
HETATM   10  C   UNL     1     -10.605  11.664  66.833  1.00  0.00    -0.276 A  
HETATM   11  C   UNL     1     -11.857  12.630  68.650  1.00  0.00    -0.342 A  
HETATM   12  C   UNL     1     -11.175  10.313  68.737  1.00  0.00    -0.260 A  
HETATM   13  C   UNL     1     -11.806  11.407  69.341  1.00  0.00    -0.419 A  
BRANCH   9  14
HETATM   14  C   UNL     1     -11.239  14.104  66.596  1.00  0.00    -0.330 C  
HETATM   15  C   UNL     1     -11.239  15.265  67.537  1.00  0.00    -0.317 C  
HETATM   16  C   UNL     1      -9.950  14.163  65.741  1.00  0.00    -0.331 C  
HETATM   17  C   UNL     1     -12.442  14.272  65.655  1.00  0.00    -0.432 C  
HETATM   18  N   UNL     1     -11.219  16.166  68.270  1.00  0.00    -0.357 NA 
ENDBRANCH   9  14
BRANCH  13  19
HETATM   19  C   UNL     1     -12.347  11.284  70.748  1.00  0.00    -0.398 C  
BRANCH  19  20
HETATM   20  N   UNL     1     -12.804  12.536  71.324  1.00  0.00    -0.313 NA 
HETATM   21  C   UNL     1     -12.728  13.785  70.785  1.00  0.00    -0.290 A  
HETATM   22  N   UNL     1     -13.483  14.609  71.475  1.00  0.00    -0.366 NA 
HETATM   23  C   UNL     1     -14.020  13.803  72.437  1.00  0.00    -0.548 A  
HETATM   24  N   UNL     1     -13.633  12.527  72.391  1.00  0.00    -0.425 NA 
ENDBRANCH  19  20
ENDBRANCH  13  19
ENDBRANCH   2   8
TORSDOF 5
ENDMDL
MODEL      110
REMARK 921   NORMALIZED FREE ENERGY PREDICTED BY IDOCK:   -4.94 KCAL/MOL
REMARK 922        TOTAL FREE ENERGY PREDICTED BY IDOCK:   -7.17 KCAL/MOL
REMARK 923 INTER-LIGAND FREE ENERGY PREDICTED BY IDOCK:   -6.34 KCAL/MOL
REMARK 924 INTRA-LIGAND FREE ENERGY PREDICTED BY IDOCK:   -0.84 KCAL/MOL
REMARK 927      BINDING AFFINITY PREDICTED BY RF-SCORE:    0.00 PKD
ROOT
HETATM    1  C   UNL     1     -13.047  13.174  71.912  1.00  0.00    -0.482 C  
HETATM    2  C   UNL     1     -12.875  14.655  71.505  1.00  0.00    -0.404 C  
HETATM    3  C   UNL     1     -14.292  15.217  71.241  1.00  0.00    -0.488 C  
ENDROOT
BRANCH   2   4
HETATM    4  C   UNL     1     -12.331  15.421  72.700  1.00  0.00    -0.396 C  
HETATM    5  H2  UNL     1     -10.899  15.868  73.479  1.00  0.00     0.000 HD 
HETATM    6  N   UNL     1     -11.879  16.056  73.692  1.00  0.00    -0.286 NA 
HETATM    7  H1  UNL     1     -11.514  16.570  74.494  1.00  0.00     0.000 HD 
ENDBRANCH   2   4
BRANCH   2   8
HETATM    8  C   UNL     1     -11.899  14.755  70.337  1.00  0.00    -0.352 A  
HETATM    9  C   UNL     1     -10.701  13.712  68.457  1.00  0.00    -0.269 A  
HETATM   10  C   UNL     1     -11.621  13.654  69.522  1.00  0.00    -0.361 A  
HETATM   11  C   UNL     1     -10.040  14.931  68.229  1.00  0.00    -0.221 A  
HETATM   12  C   UNL     1     -11.224  15.959  70.069  1.00  0.00    -0.354 A  
HETATM   13  C   UNL     1     -10.278  16.054  69.040  1.00  0.00    -0.236 A  
BRANCH   9  14
HETATM   14  C   UNL     1     -10.458  12.432  67.633  1.00  0.00    -0.229 C  
HETATM   15  C   UNL     1     -11.543  12.264  66.619  1.00  0.00    -0.375 C  
HETATM   16  C   UNL     1      -9.106  12.560  66.890  1.00  0.00    -0.213 C  
HETATM   17  C   UNL     1     -10.415  11.153  68.482  1.00  0.00    -0.212 C  
HETATM   18  N   UNL     1     -12.376  12.144  65.819  1.00  0.00    -0.450 NA 
ENDBRANCH   9  14
BRANCH  13  19
HETATM   19  C   UNL     1      -9.475  17.324  68.868  1.00  0.00    -0.210 C  
BRANCH  19  20
HETATM   20  N   UNL     1      -8.050  17.110  68.688  1.00  0.00    -0.260 NA 
HETATM   21  C   UNL     1      -7.198  16.416  69.494  1.00  0.00    -0.082 A  
HETATM   22  N   UNL     1      -6.062  16.218  68.866  1.00  0.00    -0.127 NA 
HETATM   23  C   UNL     1      -6.271  16.811  67.655  1.00  0.00    -0.152 A  
HETATM   24  N   UNL     1      -7.471  17.375  67.497  1.00  0.00    -0.180 NA 
ENDBRANCH  19  20
ENDBRANCH  13  19
ENDBRANCH   2   8
TORSDOF 5
ENDMDL
MODEL      111
REMARK 921   NORMALIZED FREE ENERGY PREDICTED BY IDOCK:   -4.94 KCAL/MOL
REMARK 922        TOTAL FREE ENERGY PREDICTED BY IDOCK:   -7.17 KCAL/MOL
REMARK 923 INTER-LIGAND FREE ENERGY PREDICTED BY IDOCK:   -6.28 KCAL/MOL
REMARK 924 INTRA-LIGAND FREE ENERGY PREDICTED BY IDOCK:   -0.90 KCAL/MOL
REMARK 927      BINDING AFFINITY PREDICTED BY RF-SCORE:    0.00 PKD
ROOT
HETATM    1  C   UNL     1     -10.720   8.003  72.803  1.00  0.00    -0.431 C  
HETATM    2  C   UNL     1     -11.689   8.234  71.620  1.00  0.00    -0.341 C  
HETATM    3  C   UNL     1     -12.374   6.878  71.328  1.00  0.00    -0.422 C  
ENDROOT
BRANCH   2   4
HETATM    4  C   UNL     1     -12.791   9.176  72.080  1.00  0.00    -0.408 C  
HETATM    5  H2  UNL     1     -14.062   9.329  73.184  1.00  0.00     0.000 HD 
HETATM    6  N   UNL     1     -13.705   9.955  72.462  1.00  0.00    -0.610 NA 
HETATM    7  H1  UNL     1     -14.444  10.587  72.770  1.00  0.00     0.000 HD 
ENDBRANCH   2   4
BRANCH   2   8
HETATM    8  C   UNL     1     -10.931   8.854  70.451  1.00  0.00    -0.275 A  
HETATM    9  C   UNL     1     -10.527  10.743  68.926  1.00  0.00    -0.228 A  
HETATM   10  C   UNL     1     -11.191  10.159  70.022  1.00  0.00    -0.361 A  
HETATM   11  C   UNL     1      -9.577   9.963  68.245  1.00  0.00    -0.151 A  
HETATM   12  C   UNL     1      -9.965   8.111  69.749  1.00  0.00    -0.191 A  
HETATM   13  C   UNL     1      -9.302   8.641  68.634  1.00  0.00    -0.142 A  
BRANCH   9  14
HETATM   14  C   UNL     1     -10.906  12.183  68.528  1.00  0.00    -0.267 C  
HETATM   15  C   UNL     1     -11.572  12.185  67.190  1.00  0.00    -0.335 C  
HETATM   16  C   UNL     1     -11.896  12.752  69.572  1.00  0.00    -0.379 C  
HETATM   17  C   UNL     1      -9.702  13.135  68.447  1.00  0.00    -0.196 C  
HETATM   18  N   UNL     1     -12.108  12.183  66.160  1.00  0.00    -0.590 NA 
ENDBRANCH   9  14
BRANCH  13  19
HETATM   19  C   UNL     1      -8.371   7.768  67.824  1.00  0.00    -0.125 C  
BRANCH  19  20
HETATM   20  N   UNL     1      -8.993   6.573  67.282  1.00  0.00    -0.114 NA 
HETATM   21  C   UNL     1      -8.743   5.275  67.611  1.00  0.00    -0.106 A  
HETATM   22  N   UNL     1      -9.684   4.506  67.111  1.00  0.00    -0.189 NA 
HETATM   23  C   UNL     1     -10.507   5.394  66.482  1.00  0.00    -0.294 A  
HETATM   24  N   UNL     1     -10.125   6.671  66.553  1.00  0.00    -0.122 NA 
ENDBRANCH  19  20
ENDBRANCH  13  19
ENDBRANCH   2   8
TORSDOF 5
ENDMDL
MODEL      112
REMARK 921   NORMALIZED FREE ENERGY PREDICTED BY IDOCK:   -4.93 KCAL/MOL
REMARK 922        TOTAL FREE ENERGY PREDICTED BY IDOCK:   -7.16 KCAL/MOL
REMARK 923 INTER-LIGAND FREE ENERGY PREDICTED BY IDOCK:   -6.31 KCAL/MOL
REMARK 924 INTRA-LIGAND FREE ENERGY PREDICTED BY IDOCK:   -0.84 KCAL/MOL
REMARK 927      BINDING AFFINITY PREDICTED BY RF-SCORE:    0.00 PKD
ROOT
HETATM    1  C   UNL     1     -13.018   7.204  70.900  1.00  0.00    -0.132 C  
HETATM    2  C   UNL     1     -12.437   8.367  71.735  1.00  0.00    -0.375 C  
HETATM    3  C   UNL     1     -13.633   9.074  72.415  1.00  0.00    -0.533 C  
ENDROOT
BRANCH   2   4
HETATM    4  C   UNL     1     -11.598   7.778  72.859  1.00  0.00    -0.246 C  
HETATM    5  H2  UNL     1     -11.123   6.318  73.565  1.00  0.00     0.000 HD 
HETATM    6  N   UNL     1     -10.903   7.288  73.790  1.00  0.00    -0.528 NA 
HETATM    7  H1  UNL     1     -10.341   6.893  74.544  1.00  0.00     0.000 HD 
ENDBRANCH   2   4
BRANCH   2   8
HETATM    8  C   UNL     1     -11.567   9.251  70.847  1.00  0.00    -0.364 A  
HETATM    9  C   UNL     1      -9.386   9.778  69.837  1.00  0.00    -0.262 A  
HETATM   10  C   UNL     1     -10.217   8.961  70.628  1.00  0.00    -0.267 A  
HETATM   11  C   UNL     1      -9.953  10.930  69.265  1.00  0.00    -0.137 A  
HETATM   12  C   UNL     1     -12.098  10.407  70.248  1.00  0.00    -0.370 A  
HETATM   13  C   UNL     1     -11.301  11.265  69.480  1.00  0.00    -0.362 A  
BRANCH   9  14
HETATM   14  C   UNL     1      -7.907   9.374  69.676  1.00  0.00    -0.105 C  
HETATM   15  C   UNL     1      -7.021  10.503  70.093  1.00  0.00    -0.113 C  
HETATM   16  C   UNL     1      -7.615   8.157  70.587  1.00  0.00    -0.073 C  
HETATM   17  C   UNL     1      -7.527   8.993  68.237  1.00  0.00    -0.083 C  
HETATM   18  N   UNL     1      -6.333  11.374  70.435  1.00  0.00    -0.273 NA 
ENDBRANCH   9  14
BRANCH  13  19
HETATM   19  C   UNL     1     -11.872  12.566  68.964  1.00  0.00    -0.296 C  
BRANCH  19  20
HETATM   20  N   UNL     1     -11.538  12.860  67.582  1.00  0.00    -0.334 NA 
HETATM   21  C   UNL     1     -10.499  13.604  67.110  1.00  0.00    -0.264 A  
HETATM   22  N   UNL     1     -10.374  13.414  65.817  1.00  0.00    -0.288 NA 
HETATM   23  C   UNL     1     -11.369  12.523  65.538  1.00  0.00    -0.331 A  
HETATM   24  N   UNL     1     -12.113  12.156  66.583  1.00  0.00    -0.578 NA 
ENDBRANCH  19  20
ENDBRANCH  13  19
ENDBRANCH   2   8
TORSDOF 5
ENDMDL
MODEL      113
REMARK 921   NORMALIZED FREE ENERGY PREDICTED BY IDOCK:   -4.92 KCAL/MOL
REMARK 922        TOTAL FREE ENERGY PREDICTED BY IDOCK:   -7.15 KCAL/MOL
REMARK 923 INTER-LIGAND FREE ENERGY PREDICTED BY IDOCK:   -6.29 KCAL/MOL
REMARK 924 INTRA-LIGAND FREE ENERGY PREDICTED BY IDOCK:   -0.86 KCAL/MOL
REMARK 927      BINDING AFFINITY PREDICTED BY RF-SCORE:    0.00 PKD
ROOT
HETATM    1  C   UNL     1     -11.387  15.710  64.740  1.00  0.00    -0.348 C  
HETATM    2  C   UNL     1     -11.338  14.450  65.633  1.00  0.00    -0.330 C  
HETATM    3  C   UNL     1     -12.789  13.925  65.751  1.00  0.00    -0.437 C  
ENDROOT
BRANCH   2   4
HETATM    4  C   UNL     1     -10.556  13.372  64.899  1.00  0.00    -0.385 C  
HETATM    5  H2  UNL     1      -9.853  12.992  63.410  1.00  0.00     0.000 HD 
HETATM    6  N   UNL     1      -9.908  12.479  64.289  1.00  0.00    -0.579 NA 
HETATM    7  H1  UNL     1      -9.384  11.756  63.797  1.00  0.00     0.000 HD 
ENDBRANCH   2   4
BRANCH   2   8
HETATM    8  C   UNL     1     -10.649  14.783  66.952  1.00  0.00    -0.294 A  
HETATM    9  C   UNL     1      -8.702  14.618  68.448  1.00  0.00    -0.175 A  
HETATM   10  C   UNL     1      -9.349  14.350  67.226  1.00  0.00    -0.211 A  
HETATM   11  C   UNL     1      -9.414  15.343  69.420  1.00  0.00    -0.267 A  
HETATM   12  C   UNL     1     -11.323  15.514  67.947  1.00  0.00    -0.309 A  
HETATM   13  C   UNL     1     -10.730  15.778  69.189  1.00  0.00    -0.246 A  
BRANCH   9  14
HETATM   14  C   UNL     1      -7.274  14.077  68.652  1.00  0.00    -0.114 C  
HETATM   15  C   UNL     1      -7.280  12.583  68.597  1.00  0.00    -0.103 C  
HETATM   16  C   UNL     1      -6.367  14.606  67.514  1.00  0.00    -0.042 C  
HETATM   17  C   UNL     1      -6.645  14.489  69.991  1.00  0.00    -0.140 C  
HETATM   18  N   UNL     1      -7.284  11.424  68.536  1.00  0.00    -0.086 NA 
ENDBRANCH   9  14
BRANCH  13  19
HETATM   19  C   UNL     1     -11.532  16.448  70.281  1.00  0.00    -0.114 C  
BRANCH  19  20
HETATM   20  N   UNL     1     -12.338  15.538  71.075  1.00  0.00    -0.383 NA 
HETATM   21  C   UNL     1     -12.016  14.951  72.261  1.00  0.00    -0.309 A  
HETATM   22  N   UNL     1     -13.093  14.421  72.796  1.00  0.00    -0.487 NA 
HETATM   23  C   UNL     1     -14.068  14.723  71.891  1.00  0.00    -0.518 A  
HETATM   24  N   UNL     1     -13.657  15.401  70.817  1.00  0.00    -0.413 NA 
ENDBRANCH  19  20
ENDBRANCH  13  19
ENDBRANCH   2   8
TORSDOF 5
ENDMDL
MODEL      114
REMARK 921   NORMALIZED FREE ENERGY PREDICTED BY IDOCK:   -4.92 KCAL/MOL
REMARK 922        TOTAL FREE ENERGY PREDICTED BY IDOCK:   -7.15 KCAL/MOL
REMARK 923 INTER-LIGAND FREE ENERGY PREDICTED BY IDOCK:   -6.28 KCAL/MOL
REMARK 924 INTRA-LIGAND FREE ENERGY PREDICTED BY IDOCK:   -0.87 KCAL/MOL
REMARK 927      BINDING AFFINITY PREDICTED BY RF-SCORE:    0.00 PKD
ROOT
HETATM    1  C   UNL     1     -13.776  13.476  72.516  1.00  0.00    -0.664 C  
HETATM    2  C   UNL     1     -13.206  14.644  71.678  1.00  0.00    -0.428 C  
HETATM    3  C   UNL     1     -14.403  15.542  71.285  1.00  0.00    -0.257 C  
ENDROOT
BRANCH   2   4
HETATM    4  C   UNL     1     -12.318  15.490  72.576  1.00  0.00    -0.411 C  
HETATM    5  H2  UNL     1     -10.776  16.170  72.694  1.00  0.00     0.000 HD 
HETATM    6  N   UNL     1     -11.581  16.192  73.320  1.00  0.00    -0.111 NA 
HETATM    7  H1  UNL     1     -10.985  16.759  73.922  1.00  0.00     0.000 HD 
ENDBRANCH   2   4
BRANCH   2   8
HETATM    8  C   UNL     1     -12.390  14.088  70.515  1.00  0.00    -0.437 A  
HETATM    9  C   UNL     1     -11.110  14.439  68.443  1.00  0.00    -0.272 A  
HETATM   10  C   UNL     1     -11.841  14.929  69.542  1.00  0.00    -0.360 A  
HETATM   11  C   UNL     1     -10.948  13.047  68.333  1.00  0.00    -0.288 A  
HETATM   12  C   UNL     1     -12.196  12.703  70.374  1.00  0.00    -0.368 A  
HETATM   13  C   UNL     1     -11.502  12.169  69.280  1.00  0.00    -0.363 A  
BRANCH   9  14
HETATM   14  C   UNL     1     -10.564  15.454  67.420  1.00  0.00    -0.289 C  
HETATM   15  C   UNL     1      -9.089  15.274  67.259  1.00  0.00    -0.198 C  
HETATM   16  C   UNL     1     -11.243  15.205  66.051  1.00  0.00    -0.275 C  
HETATM   17  C   UNL     1     -10.811  16.918  67.813  1.00  0.00    -0.281 C  
HETATM   18  N   UNL     1      -7.947  15.120  67.120  1.00  0.00    -0.207 NA 
ENDBRANCH   9  14
BRANCH  13  19
HETATM   19  C   UNL     1     -11.429  10.671  69.091  1.00  0.00    -0.280 C  
BRANCH  19  20
HETATM   20  N   UNL     1     -10.183  10.202  68.513  1.00  0.00    -0.166 NA 
HETATM   21  C   UNL     1      -9.000   9.967  69.147  1.00  0.00    -0.169 A  
HETATM   22  N   UNL     1      -8.198   9.299  68.350  1.00  0.00    -0.114 NA 
HETATM   23  C   UNL     1      -8.949   9.136  67.223  1.00  0.00    -0.123 A  
HETATM   24  N   UNL     1     -10.170   9.674  67.270  1.00  0.00    -0.217 NA 
ENDBRANCH  19  20
ENDBRANCH  13  19
ENDBRANCH   2   8
TORSDOF 5
ENDMDL
MODEL      115
REMARK 921   NORMALIZED FREE ENERGY PREDICTED BY IDOCK:   -4.91 KCAL/MOL
REMARK 922        TOTAL FREE ENERGY PREDICTED BY IDOCK:   -7.13 KCAL/MOL
REMARK 923 INTER-LIGAND FREE ENERGY PREDICTED BY IDOCK:   -6.23 KCAL/MOL
REMARK 924 INTRA-LIGAND FREE ENERGY PREDICTED BY IDOCK:   -0.90 KCAL/MOL
REMARK 927      BINDING AFFINITY PREDICTED BY RF-SCORE:    0.00 PKD
ROOT
HETATM    1  C   UNL     1     -10.703   8.372  71.872  1.00  0.00    -0.373 C  
HETATM    2  C   UNL     1     -11.343   7.213  71.074  1.00  0.00    -0.310 C  
HETATM    3  C   UNL     1     -10.930   5.900  71.780  1.00  0.00    -0.327 C  
ENDROOT
BRANCH   2   4
HETATM    4  C   UNL     1     -12.853   7.312  71.212  1.00  0.00    -0.346 C  
HETATM    5  H2  UNL     1     -14.230   8.005  70.518  1.00  0.00     0.000 HD 
HETATM    6  N   UNL     1     -14.107   7.394  71.325  1.00  0.00    -0.607 NA 
HETATM    7  H1  UNL     1     -15.120   7.461  71.418  1.00  0.00     0.000 HD 
ENDBRANCH   2   4
BRANCH   2   8
HETATM    8  C   UNL     1     -10.947   7.323  69.605  1.00  0.00    -0.204 A  
HETATM    9  C   UNL     1     -10.338   8.691  67.652  1.00  0.00    -0.317 A  
HETATM   10  C   UNL     1     -10.675   8.560  69.013  1.00  0.00    -0.113 A  
HETATM   11  C   UNL     1     -10.290   7.521  66.875  1.00  0.00    -0.379 A  
HETATM   12  C   UNL     1     -10.877   6.176  68.795  1.00  0.00    -0.402 A  
HETATM   13  C   UNL     1     -10.576   6.262  67.429  1.00  0.00    -0.361 A  
BRANCH   9  14
HETATM   14  C   UNL     1     -10.075  10.105  67.099  1.00  0.00    -0.260 C  
HETATM   15  C   UNL     1     -11.180  11.026  67.505  1.00  0.00    -0.302 C  
HETATM   16  C   UNL     1      -8.748  10.639  67.690  1.00  0.00    -0.121 C  
HETATM   17  C   UNL     1      -9.969  10.157  65.568  1.00  0.00    -0.363 C  
HETATM   18  N   UNL     1     -12.030  11.745  67.837  1.00  0.00    -0.597 NA 
ENDBRANCH   9  14
BRANCH  13  19
HETATM   19  C   UNL     1     -10.642   5.025  66.562  1.00  0.00    -0.231 C  
BRANCH  19  20
HETATM   20  N   UNL     1      -9.456   4.190  66.620  1.00  0.00    -0.178 NA 
HETATM   21  C   UNL     1      -8.203   4.481  66.172  1.00  0.00    -0.106 A  
HETATM   22  N   UNL     1      -7.352   3.599  66.644  1.00  0.00    -0.068 NA 
HETATM   23  C   UNL     1      -8.141   2.779  67.396  1.00  0.00    -0.077 A  
HETATM   24  N   UNL     1      -9.438   3.095  67.411  1.00  0.00    -0.187 NA 
ENDBRANCH  19  20
ENDBRANCH  13  19
ENDBRANCH   2   8
TORSDOF 5
ENDMDL
MODEL      116
REMARK 921   NORMALIZED FREE ENERGY PREDICTED BY IDOCK:   -4.91 KCAL/MOL
REMARK 922        TOTAL FREE ENERGY PREDICTED BY IDOCK:   -7.13 KCAL/MOL
REMARK 923 INTER-LIGAND FREE ENERGY PREDICTED BY IDOCK:   -6.46 KCAL/MOL
REMARK 924 INTRA-LIGAND FREE ENERGY PREDICTED BY IDOCK:   -0.67 KCAL/MOL
REMARK 927      BINDING AFFINITY PREDICTED BY RF-SCORE:    0.00 PKD
ROOT
HETATM    1  C   UNL     1      -7.358  17.409  66.272  1.00  0.00    -0.347 C  
HETATM    2  C   UNL     1      -7.976  16.732  67.517  1.00  0.00    -0.189 C  
HETATM    3  C   UNL     1      -6.881  16.713  68.610  1.00  0.00    -0.168 C  
ENDROOT
BRANCH   2   4
HETATM    4  C   UNL     1      -9.087  17.625  68.046  1.00  0.00    -0.267 C  
HETATM    5  H2  UNL     1      -9.536  19.241  68.255  1.00  0.00     0.000 HD 
HETATM    6  N   UNL     1     -10.008  18.367  68.485  1.00  0.00    -0.372 NA 
HETATM    7  H1  UNL     1     -10.753  18.965  68.840  1.00  0.00     0.000 HD 
ENDBRANCH   2   4
BRANCH   2   8
HETATM    8  C   UNL     1      -8.544  15.370  67.131  1.00  0.00    -0.235 A  
HETATM    9  C   UNL     1     -10.205  14.011  65.927  1.00  0.00    -0.332 A  
HETATM   10  C   UNL     1      -9.643  15.254  66.274  1.00  0.00    -0.331 A  
HETATM   11  C   UNL     1      -9.630  12.855  66.482  1.00  0.00    -0.259 A  
HETATM   12  C   UNL     1      -7.992  14.189  67.657  1.00  0.00    -0.187 A  
HETATM   13  C   UNL     1      -8.537  12.933  67.363  1.00  0.00    -0.195 A  
BRANCH   9  14
HETATM   14  C   UNL     1     -11.427  14.000  64.988  1.00  0.00    -0.344 C  
HETATM   15  C   UNL     1     -11.590  15.339  64.345  1.00  0.00    -0.263 C  
HETATM   16  C   UNL     1     -11.201  12.945  63.878  1.00  0.00    -0.471 C  
HETATM   17  C   UNL     1     -12.747  13.665  65.700  1.00  0.00    -0.505 C  
HETATM   18  N   UNL     1     -11.703  16.374  63.831  1.00  0.00    -1.024 NA 
ENDBRANCH   9  14
BRANCH  13  19
HETATM   19  C   UNL     1      -8.003  11.698  68.052  1.00  0.00    -0.132 C  
BRANCH  19  20
HETATM   20  N   UNL     1      -8.915  10.569  68.048  1.00  0.00    -0.133 NA 
HETATM   21  C   UNL     1      -8.920   9.497  67.207  1.00  0.00    -0.131 A  
HETATM   22  N   UNL     1      -9.714   8.566  67.685  1.00  0.00    -0.153 NA 
HETATM   23  C   UNL     1     -10.174   9.118  68.845  1.00  0.00    -0.207 A  
HETATM   24  N   UNL     1      -9.718  10.344  69.111  1.00  0.00    -0.212 NA 
ENDBRANCH  19  20
ENDBRANCH  13  19
ENDBRANCH   2   8
TORSDOF 5
ENDMDL
MODEL      117
REMARK 921   NORMALIZED FREE ENERGY PREDICTED BY IDOCK:   -4.90 KCAL/MOL
REMARK 922        TOTAL FREE ENERGY PREDICTED BY IDOCK:   -7.12 KCAL/MOL
REMARK 923 INTER-LIGAND FREE ENERGY PREDICTED BY IDOCK:   -6.87 KCAL/MOL
REMARK 924 INTRA-LIGAND FREE ENERGY PREDICTED BY IDOCK:   -0.25 KCAL/MOL
REMARK 927      BINDING AFFINITY PREDICTED BY RF-SCORE:    0.00 PKD
ROOT
HETATM    1  C   UNL     1     -12.328  13.799  69.581  1.00  0.00    -0.284 C  
HETATM    2  C   UNL     1     -11.319  13.508  68.446  1.00  0.00    -0.327 C  
HETATM    3  C   UNL     1     -11.876  14.176  67.167  1.00  0.00    -0.454 C  
ENDROOT
BRANCH   2   4
HETATM    4  C   UNL     1     -10.017  14.225  68.767  1.00  0.00    -0.205 C  
HETATM    5  H2  UNL     1      -9.044  14.749  70.046  1.00  0.00     0.000 HD 
HETATM    6  N   UNL     1      -8.938  14.819  69.034  1.00  0.00    -0.307 NA 
HETATM    7  H1  UNL     1      -8.064  15.300  69.249  1.00  0.00     0.000 HD 
ENDBRANCH   2   4
BRANCH   2   8
HETATM    8  C   UNL     1     -11.074  12.006  68.351  1.00  0.00    -0.290 A  
HETATM    9  C   UNL     1     -10.947   9.790  69.413  1.00  0.00    -0.241 A  
HETATM   10  C   UNL     1     -11.197  11.174  69.468  1.00  0.00    -0.341 A  
HETATM   11  C   UNL     1     -10.549   9.245  68.179  1.00  0.00    -0.248 A  
HETATM   12  C   UNL     1     -10.684  11.420  67.134  1.00  0.00    -0.292 A  
HETATM   13  C   UNL     1     -10.395  10.052  67.039  1.00  0.00    -0.305 A  
BRANCH   9  14
HETATM   14  C   UNL     1     -11.095   8.969  70.709  1.00  0.00    -0.328 C  
HETATM   15  C   UNL     1     -12.234   9.498  71.521  1.00  0.00    -0.386 C  
HETATM   16  C   UNL     1     -11.395   7.496  70.342  1.00  0.00    -0.253 C  
HETATM   17  C   UNL     1      -9.843   8.992  71.599  1.00  0.00    -0.366 C  
HETATM   18  N   UNL     1     -13.131   9.898  72.141  1.00  0.00    -0.429 NA 
ENDBRANCH   9  14
BRANCH  13  19
HETATM   19  C   UNL     1      -9.850   9.483  65.750  1.00  0.00    -0.293 C  
BRANCH  19  20
HETATM   20  N   UNL     1      -9.793  10.433  64.654  1.00  0.00    -0.322 NA 
HETATM   21  C   UNL     1      -8.822  10.564  63.706  1.00  0.00    -0.200 A  
HETATM   22  N   UNL     1      -9.253  11.340  62.739  1.00  0.00    -0.349 NA 
HETATM   23  C   UNL     1     -10.518  11.659  63.139  1.00  0.00    -0.311 A  
HETATM   24  N   UNL     1     -10.895  11.133  64.306  1.00  0.00    -0.341 NA 
ENDBRANCH  19  20
ENDBRANCH  13  19
ENDBRANCH   2   8
TORSDOF 5
ENDMDL
MODEL      118
REMARK 921   NORMALIZED FREE ENERGY PREDICTED BY IDOCK:   -4.89 KCAL/MOL
REMARK 922        TOTAL FREE ENERGY PREDICTED BY IDOCK:   -7.11 KCAL/MOL
REMARK 923 INTER-LIGAND FREE ENERGY PREDICTED BY IDOCK:   -6.23 KCAL/MOL
REMARK 924 INTRA-LIGAND FREE ENERGY PREDICTED BY IDOCK:   -0.88 KCAL/MOL
REMARK 927      BINDING AFFINITY PREDICTED BY RF-SCORE:    0.00 PKD
ROOT
HETATM    1  C   UNL     1     -14.186  15.543  71.291  1.00  0.00    -0.301 C  
HETATM    2  C   UNL     1     -12.832  14.851  71.568  1.00  0.00    -0.411 C  
HETATM    3  C   UNL     1     -12.208  15.559  72.794  1.00  0.00    -0.538 C  
ENDROOT
BRANCH   2   4
HETATM    4  C   UNL     1     -13.104  13.419  71.998  1.00  0.00    -0.377 C  
HETATM    5  H2  UNL     1     -14.287  12.211  71.999  1.00  0.00     0.000 HD 
HETATM    6  N   UNL     1     -13.331  12.231  72.355  1.00  0.00    -0.533 NA 
HETATM    7  H1  UNL     1     -13.513  11.270  72.643  1.00  0.00     0.000 HD 
ENDBRANCH   2   4
BRANCH   2   8
HETATM    8  C   UNL     1     -11.983  14.861  70.300  1.00  0.00    -0.365 A  
HETATM    9  C   UNL     1     -10.612  16.072  68.655  1.00  0.00    -0.266 A  
HETATM   10  C   UNL     1     -11.375  16.031  69.838  1.00  0.00    -0.340 A  
HETATM   11  C   UNL     1     -10.480  14.881  67.920  1.00  0.00    -0.250 A  
HETATM   12  C   UNL     1     -11.818  13.688  69.541  1.00  0.00    -0.394 A  
HETATM   13  C   UNL     1     -11.094  13.690  68.342  1.00  0.00    -0.289 A  
BRANCH   9  14
HETATM   14  C   UNL     1     -10.000  17.421  68.229  1.00  0.00    -0.320 C  
HETATM   15  C   UNL     1      -8.510  17.316  68.190  1.00  0.00    -0.238 C  
HETATM   16  C   UNL     1     -10.505  17.778  66.810  1.00  0.00    -0.300 C  
HETATM   17  C   UNL     1     -10.358  18.583  69.167  1.00  0.00     0.057 C  
HETATM   18  N   UNL     1      -7.353  17.227  68.142  1.00  0.00    -0.192 NA 
ENDBRANCH   9  14
BRANCH  13  19
HETATM   19  C   UNL     1     -11.051  12.445  67.485  1.00  0.00    -0.266 C  
BRANCH  19  20
HETATM   20  N   UNL     1     -10.537  11.269  68.164  1.00  0.00    -0.183 NA 
HETATM   21  C   UNL     1     -11.070  10.016  68.190  1.00  0.00    -0.193 A  
HETATM   22  N   UNL     1     -10.186   9.172  68.672  1.00  0.00    -0.199 NA 
HETATM   23  C   UNL     1      -9.106   9.966  68.923  1.00  0.00    -0.156 A  
HETATM   24  N   UNL     1      -9.270  11.259  68.633  1.00  0.00    -0.179 NA 
ENDBRANCH  19  20
ENDBRANCH  13  19
ENDBRANCH   2   8
TORSDOF 5
ENDMDL
MODEL      119
REMARK 921   NORMALIZED FREE ENERGY PREDICTED BY IDOCK:   -4.89 KCAL/MOL
REMARK 922        TOTAL FREE ENERGY PREDICTED BY IDOCK:   -7.10 KCAL/MOL
REMARK 923 INTER-LIGAND FREE ENERGY PREDICTED BY IDOCK:   -6.17 KCAL/MOL
REMARK 924 INTRA-LIGAND FREE ENERGY PREDICTED BY IDOCK:   -0.93 KCAL/MOL
REMARK 927      BINDING AFFINITY PREDICTED BY RF-SCORE:    0.00 PKD
ROOT
HETATM    1  C   UNL     1     -13.756   9.594  70.631  1.00  0.00     0.246 C  
HETATM    2  C   UNL     1     -12.432  10.352  70.881  1.00  0.00    -0.478 C  
HETATM    3  C   UNL     1     -12.763  11.539  71.816  1.00  0.00    -0.340 C  
ENDROOT
BRANCH   2   4
HETATM    4  C   UNL     1     -11.499   9.443  71.665  1.00  0.00    -0.393 C  
HETATM    5  H2  UNL     1     -11.219   8.799  73.203  1.00  0.00     0.000 HD 
HETATM    6  N   UNL     1     -10.726   8.689  72.317  1.00  0.00    -0.346 NA 
HETATM    7  H1  UNL     1     -10.100   8.079  72.842  1.00  0.00     0.000 HD 
ENDBRANCH   2   4
BRANCH   2   8
HETATM    8  C   UNL     1     -11.795  10.723  69.546  1.00  0.00    -0.380 A  
HETATM    9  C   UNL     1     -11.300  12.388  67.804  1.00  0.00    -0.356 A  
HETATM   10  C   UNL     1     -11.854  12.027  69.047  1.00  0.00    -0.372 A  
HETATM   11  C   UNL     1     -10.678  11.380  67.047  1.00  0.00    -0.304 A  
HETATM   12  C   UNL     1     -11.154   9.746  68.763  1.00  0.00    -0.140 A  
HETATM   13  C   UNL     1     -10.617  10.054  67.506  1.00  0.00    -0.336 A  
BRANCH   9  14
HETATM   14  C   UNL     1     -11.438  13.852  67.342  1.00  0.00    -0.374 C  
HETATM   15  C   UNL     1     -12.369  13.934  66.175  1.00  0.00    -0.465 C  
HETATM   16  C   UNL     1     -12.026  14.693  68.500  1.00  0.00    -0.298 C  
HETATM   17  C   UNL     1     -10.107  14.492  66.918  1.00  0.00    -0.257 C  
HETATM   18  N   UNL     1     -13.107  13.999  65.281  1.00  0.00    -0.765 NA 
ENDBRANCH   9  14
BRANCH  13  19
HETATM   19  C   UNL     1     -10.057   8.953  66.635  1.00  0.00    -0.287 C  
BRANCH  19  20
HETATM   20  N   UNL     1      -8.667   9.137  66.258  1.00  0.00    -0.135 NA 
HETATM   21  C   UNL     1      -7.575   9.175  67.072  1.00  0.00    -0.091 A  
HETATM   22  N   UNL     1      -6.483   9.084  66.347  1.00  0.00    -0.065 NA 
HETATM   23  C   UNL     1      -6.965   8.980  65.075  1.00  0.00    -0.080 A  
HETATM   24  N   UNL     1      -8.295   9.013  64.965  1.00  0.00    -0.156 NA 
ENDBRANCH  19  20
ENDBRANCH  13  19
ENDBRANCH   2   8
TORSDOF 5
ENDMDL
MODEL      120
REMARK 921   NORMALIZED FREE ENERGY PREDICTED BY IDOCK:   -4.86 KCAL/MOL
REMARK 922        TOTAL FREE ENERGY PREDICTED BY IDOCK:   -7.07 KCAL/MOL
REMARK 923 INTER-LIGAND FREE ENERGY PREDICTED BY IDOCK:   -6.88 KCAL/MOL
REMARK 924 INTRA-LIGAND FREE ENERGY PREDICTED BY IDOCK:   -0.19 KCAL/MOL
REMARK 927      BINDING AFFINITY PREDICTED BY RF-SCORE:    0.00 PKD
ROOT
HETATM    1  C   UNL     1      -9.829   9.983  66.510  1.00  0.00    -0.267 C  
HETATM    2  C   UNL     1     -10.224  11.195  67.383  1.00  0.00    -0.221 C  
HETATM    3  C   UNL     1      -9.047  12.197  67.322  1.00  0.00    -0.181 C  
ENDROOT
BRANCH   2   4
HETATM    4  C   UNL     1     -11.407  11.892  66.730  1.00  0.00    -0.330 C  
HETATM    5  H2  UNL     1     -12.421  11.848  65.378  1.00  0.00     0.000 HD 
HETATM    6  N   UNL     1     -12.388  12.469  66.186  1.00  0.00    -0.539 NA 
HETATM    7  H1  UNL     1     -13.182  12.936  65.748  1.00  0.00     0.000 HD 
ENDBRANCH   2   4
BRANCH   2   8
HETATM    8  C   UNL     1     -10.610  10.717  68.779  1.00  0.00    -0.229 A  
HETATM    9  C   UNL     1     -10.362   9.122  70.636  1.00  0.00    -0.306 A  
HETATM   10  C   UNL     1     -10.002   9.601  69.362  1.00  0.00    -0.207 A  
HETATM   11  C   UNL     1     -11.381   9.800  71.327  1.00  0.00    -0.445 A  
HETATM   12  C   UNL     1     -11.618  11.373  69.508  1.00  0.00    -0.399 A  
HETATM   13  C   UNL     1     -12.029  10.913  70.765  1.00  0.00    -0.449 A  
BRANCH   9  14
HETATM   14  C   UNL     1      -9.639   7.872  71.175  1.00  0.00    -0.181 C  
HETATM   15  C   UNL     1      -8.875   8.218  72.413  1.00  0.00    -0.219 C  
HETATM   16  C   UNL     1     -10.691   6.795  71.532  1.00  0.00    -0.254 C  
HETATM   17  C   UNL     1      -8.647   7.255  70.177  1.00  0.00    -0.140 C  
HETATM   18  N   UNL     1      -8.298   8.484  73.385  1.00  0.00    -0.389 NA 
ENDBRANCH   9  14
BRANCH  13  19
HETATM   19  C   UNL     1     -13.206  11.561  71.458  1.00  0.00    -0.220 C  
BRANCH  19  20
HETATM   20  N   UNL     1     -13.146  13.010  71.510  1.00  0.00    -0.355 NA 
HETATM   21  C   UNL     1     -13.911  13.856  72.255  1.00  0.00    -0.565 A  
HETATM   22  N   UNL     1     -13.383  15.058  72.239  1.00  0.00    -0.363 NA 
HETATM   23  C   UNL     1     -12.270  14.896  71.466  1.00  0.00    -0.343 A  
HETATM   24  N   UNL     1     -12.082  13.662  70.992  1.00  0.00    -0.274 NA 
ENDBRANCH  19  20
ENDBRANCH  13  19
ENDBRANCH   2   8
TORSDOF 5
ENDMDL
MODEL      121
REMARK 921   NORMALIZED FREE ENERGY PREDICTED BY IDOCK:   -4.85 KCAL/MOL
REMARK 922        TOTAL FREE ENERGY PREDICTED BY IDOCK:   -7.06 KCAL/MOL
REMARK 923 INTER-LIGAND FREE ENERGY PREDICTED BY IDOCK:   -6.38 KCAL/MOL
REMARK 924 INTRA-LIGAND FREE ENERGY PREDICTED BY IDOCK:   -0.67 KCAL/MOL
REMARK 927      BINDING AFFINITY PREDICTED BY RF-SCORE:    0.00 PKD
ROOT
HETATM    1  C   UNL     1      -7.098  18.972  68.068  1.00  0.00    -0.263 C  
HETATM    2  C   UNL     1      -7.727  18.522  66.729  1.00  0.00    -0.252 C  
HETATM    3  C   UNL     1      -8.956  19.428  66.482  1.00  0.00    -0.391 C  
ENDROOT
BRANCH   2   4
HETATM    4  C   UNL     1      -6.743  18.827  65.611  1.00  0.00    -0.276 C  
HETATM    5  H2  UNL     1      -6.623  19.032  63.938  1.00  0.00     0.000 HD 
HETATM    6  N   UNL     1      -5.928  19.081  64.682  1.00  0.00    -0.355 NA 
HETATM    7  H1  UNL     1      -5.268  19.285  63.932  1.00  0.00     0.000 HD 
ENDBRANCH   2   4
BRANCH   2   8
HETATM    8  C   UNL     1      -8.011  17.024  66.776  1.00  0.00    -0.274 A  
HETATM    9  C   UNL     1      -9.469  15.109  66.264  1.00  0.00    -0.341 A  
HETATM   10  C   UNL     1      -9.169  16.484  66.208  1.00  0.00    -0.345 A  
HETATM   11  C   UNL     1      -8.562  14.267  66.931  1.00  0.00    -0.172 A  
HETATM   12  C   UNL     1      -7.125  16.146  67.425  1.00  0.00    -0.209 A  
HETATM   13  C   UNL     1      -7.398  14.777  67.532  1.00  0.00    -0.225 A  
BRANCH   9  14
HETATM   14  C   UNL     1     -10.782  14.623  65.620  1.00  0.00    -0.340 C  
HETATM   15  C   UNL     1     -11.288  15.647  64.656  1.00  0.00    -0.349 C  
HETATM   16  C   UNL     1     -10.509  13.311  64.846  1.00  0.00    -0.387 C  
HETATM   17  C   UNL     1     -11.902  14.351  66.636  1.00  0.00    -0.417 C  
HETATM   18  N   UNL     1     -11.670  16.435  63.893  1.00  0.00    -1.024 NA 
ENDBRANCH   9  14
BRANCH  13  19
HETATM   19  C   UNL     1      -6.492  13.888  68.352  1.00  0.00    -0.103 C  
BRANCH  19  20
HETATM   20  N   UNL     1      -6.398  12.522  67.869  1.00  0.00    -0.088 NA 
HETATM   21  C   UNL     1      -7.109  11.435  68.281  1.00  0.00    -0.078 A  
HETATM   22  N   UNL     1      -6.939  10.449  67.431  1.00  0.00    -0.084 NA 
HETATM   23  C   UNL     1      -6.109  10.990  66.492  1.00  0.00    -0.134 A  
HETATM   24  N   UNL     1      -5.745  12.255  66.717  1.00  0.00    -0.276 NA 
ENDBRANCH  19  20
ENDBRANCH  13  19
ENDBRANCH   2   8
TORSDOF 5
ENDMDL
MODEL      122
REMARK 921   NORMALIZED FREE ENERGY PREDICTED BY IDOCK:   -4.85 KCAL/MOL
REMARK 922        TOTAL FREE ENERGY PREDICTED BY IDOCK:   -7.06 KCAL/MOL
REMARK 923 INTER-LIGAND FREE ENERGY PREDICTED BY IDOCK:   -6.47 KCAL/MOL
REMARK 924 INTRA-LIGAND FREE ENERGY PREDICTED BY IDOCK:   -0.59 KCAL/MOL
REMARK 927      BINDING AFFINITY PREDICTED BY RF-SCORE:    0.00 PKD
ROOT
HETATM    1  C   UNL     1      -9.573  14.067  67.633  1.00  0.00    -0.221 C  
HETATM    2  C   UNL     1     -10.624  13.103  67.037  1.00  0.00    -0.259 C  
HETATM    3  C   UNL     1     -11.973  13.860  67.024  1.00  0.00    -0.459 C  
ENDROOT
BRANCH   2   4
HETATM    4  C   UNL     1     -10.267  12.847  65.581  1.00  0.00    -0.285 C  
HETATM    5  H2  UNL     1     -10.795  13.108  63.996  1.00  0.00     0.000 HD 
HETATM    6  N   UNL     1      -9.973  12.636  64.373  1.00  0.00    -0.574 NA 
HETATM    7  H1  UNL     1      -9.734  12.464  63.397  1.00  0.00     0.000 HD 
ENDBRANCH   2   4
BRANCH   2   8
HETATM    8  C   UNL     1     -10.613  11.790  67.812  1.00  0.00    -0.232 A  
HETATM    9  C   UNL     1     -10.040   9.402  67.963  1.00  0.00    -0.230 A  
HETATM   10  C   UNL     1     -10.036  10.633  67.280  1.00  0.00    -0.224 A  
HETATM   11  C   UNL     1     -10.663   9.353  69.222  1.00  0.00    -0.228 A  
HETATM   12  C   UNL     1     -11.216  11.702  69.079  1.00  0.00    -0.323 A  
HETATM   13  C   UNL     1     -11.271  10.491  69.781  1.00  0.00    -0.361 A  
BRANCH   9  14
HETATM   14  C   UNL     1      -9.391   8.185  67.275  1.00  0.00    -0.174 C  
HETATM   15  C   UNL     1     -10.388   7.079  67.144  1.00  0.00    -0.281 C  
HETATM   16  C   UNL     1      -8.923   8.596  65.858  1.00  0.00    -0.245 C  
HETATM   17  C   UNL     1      -8.177   7.625  68.033  1.00  0.00    -0.124 C  
HETATM   18  N   UNL     1     -11.170   6.229  67.025  1.00  0.00    -0.285 NA 
ENDBRANCH   9  14
BRANCH  13  19
HETATM   19  C   UNL     1     -12.045  10.403  71.076  1.00  0.00    -0.385 C  
BRANCH  19  20
HETATM   20  N   UNL     1     -12.004   9.098  71.710  1.00  0.00    -0.358 NA 
HETATM   21  C   UNL     1     -12.859   8.052  71.533  1.00  0.00    -0.311 A  
HETATM   22  N   UNL     1     -12.343   6.967  72.063  1.00  0.00    -0.301 NA 
HETATM   23  C   UNL     1     -11.146   7.402  72.553  1.00  0.00    -0.304 A  
HETATM   24  N   UNL     1     -10.893   8.699  72.367  1.00  0.00    -0.311 NA 
ENDBRANCH  19  20
ENDBRANCH  13  19
ENDBRANCH   2   8
TORSDOF 5
ENDMDL
MODEL      123
REMARK 921   NORMALIZED FREE ENERGY PREDICTED BY IDOCK:   -4.83 KCAL/MOL
REMARK 922        TOTAL FREE ENERGY PREDICTED BY IDOCK:   -7.03 KCAL/MOL
REMARK 923 INTER-LIGAND FREE ENERGY PREDICTED BY IDOCK:   -6.22 KCAL/MOL
REMARK 924 INTRA-LIGAND FREE ENERGY PREDICTED BY IDOCK:   -0.81 KCAL/MOL
REMARK 927      BINDING AFFINITY PREDICTED BY RF-SCORE:    0.00 PKD
ROOT
HETATM    1  C   UNL     1      -8.742   8.225  65.248  1.00  0.00    -0.121 C  
HETATM    2  C   UNL     1      -8.715   9.763  65.089  1.00  0.00    -0.192 C  
HETATM    3  C   UNL     1      -7.230  10.175  64.959  1.00  0.00    -0.139 C  
ENDROOT
BRANCH   2   4
HETATM    4  C   UNL     1      -9.372  10.120  63.765  1.00  0.00    -0.288 C  
HETATM    5  H2  UNL     1      -9.099  10.900  62.290  1.00  0.00     0.000 HD 
HETATM    6  N   UNL     1      -9.915  10.417  62.666  1.00  0.00    -0.711 NA 
HETATM    7  H1  UNL     1     -10.355  10.657  61.779  1.00  0.00     0.000 HD 
ENDBRANCH   2   4
BRANCH   2   8
HETATM    8  C   UNL     1      -9.480  10.410  66.239  1.00  0.00    -0.215 A  
HETATM    9  C   UNL     1     -10.810  12.274  67.140  1.00  0.00    -0.282 A  
HETATM   10  C   UNL     1     -10.124  11.641  66.086  1.00  0.00    -0.259 A  
HETATM   11  C   UNL     1     -10.827  11.630  68.389  1.00  0.00    -0.257 A  
HETATM   12  C   UNL     1      -9.529   9.794  67.502  1.00  0.00    -0.170 A  
HETATM   13  C   UNL     1     -10.174  10.401  68.588  1.00  0.00    -0.196 A  
BRANCH   9  14
HETATM   14  C   UNL     1     -11.470  13.639  66.865  1.00  0.00    -0.369 C  
HETATM   15  C   UNL     1     -10.467  14.585  66.289  1.00  0.00    -0.301 C  
HETATM   16  C   UNL     1     -12.613  13.449  65.839  1.00  0.00    -0.412 C  
HETATM   17  C   UNL     1     -12.063  14.300  68.119  1.00  0.00    -0.275 C  
HETATM   18  N   UNL     1      -9.691  15.313  65.823  1.00  0.00    -0.347 NA 
ENDBRANCH   9  14
BRANCH  13  19
HETATM   19  C   UNL     1     -10.091   9.776  69.961  1.00  0.00    -0.257 C  
BRANCH  19  20
HETATM   20  N   UNL     1     -11.015   8.677  70.175  1.00  0.00    -0.244 NA 
HETATM   21  C   UNL     1     -10.878   7.378  69.786  1.00  0.00    -0.234 A  
HETATM   22  N   UNL     1     -11.779   6.640  70.392  1.00  0.00    -0.398 NA 
HETATM   23  C   UNL     1     -12.451   7.544  71.162  1.00  0.00    -0.275 A  
HETATM   24  N   UNL     1     -12.026   8.805  71.062  1.00  0.00    -0.280 NA 
ENDBRANCH  19  20
ENDBRANCH  13  19
ENDBRANCH   2   8
TORSDOF 5
ENDMDL
MODEL      124
REMARK 921   NORMALIZED FREE ENERGY PREDICTED BY IDOCK:   -4.82 KCAL/MOL
REMARK 922        TOTAL FREE ENERGY PREDICTED BY IDOCK:   -7.02 KCAL/MOL
REMARK 923 INTER-LIGAND FREE ENERGY PREDICTED BY IDOCK:   -6.09 KCAL/MOL
REMARK 924 INTRA-LIGAND FREE ENERGY PREDICTED BY IDOCK:   -0.93 KCAL/MOL
REMARK 927      BINDING AFFINITY PREDICTED BY RF-SCORE:    0.00 PKD
ROOT
HETATM    1  C   UNL     1      -9.961  14.000  68.476  1.00  0.00    -0.230 C  
HETATM    2  C   UNL     1     -11.335  13.292  68.467  1.00  0.00    -0.319 C  
HETATM    3  C   UNL     1     -12.136  13.849  69.668  1.00  0.00    -0.404 C  
ENDROOT
BRANCH   2   4
HETATM    4  C   UNL     1     -12.089  13.722  67.219  1.00  0.00    -0.357 C  
HETATM    5  H2  UNL     1     -12.407  15.052  66.225  1.00  0.00     0.000 HD 
HETATM    6  N   UNL     1     -12.713  14.081  66.183  1.00  0.00    -0.483 NA 
HETATM    7  H1  UNL     1     -13.219  14.369  65.346  1.00  0.00     0.000 HD 
ENDBRANCH   2   4
BRANCH   2   8
HETATM    8  C   UNL     1     -11.132  11.780  68.455  1.00  0.00    -0.288 A  
HETATM    9  C   UNL     1     -11.117   9.617  69.628  1.00  0.00    -0.223 A  
HETATM   10  C   UNL     1     -11.327  11.009  69.605  1.00  0.00    -0.363 A  
HETATM   11  C   UNL     1     -10.684   9.000  68.441  1.00  0.00    -0.145 A  
HETATM   12  C   UNL     1     -10.710  11.123  67.286  1.00  0.00    -0.304 A  
HETATM   13  C   UNL     1     -10.458   9.745  67.271  1.00  0.00    -0.324 A  
BRANCH   9  14
HETATM   14  C   UNL     1     -11.344   8.867  70.955  1.00  0.00    -0.350 C  
HETATM   15  C   UNL     1     -10.070   8.808  71.734  1.00  0.00    -0.333 C  
HETATM   16  C   UNL     1     -12.397   9.632  71.793  1.00  0.00    -0.474 C  
HETATM   17  C   UNL     1     -11.841   7.425  70.770  1.00  0.00    -0.288 C  
HETATM   18  N   UNL     1      -9.083   8.779  72.346  1.00  0.00    -0.375 NA 
ENDBRANCH   9  14
BRANCH  13  19
HETATM   19  C   UNL     1      -9.877   9.097  66.035  1.00  0.00    -0.272 C  
BRANCH  19  20
HETATM   20  N   UNL     1      -8.487   9.433  65.782  1.00  0.00    -0.128 NA 
HETATM   21  C   UNL     1      -7.383   8.992  66.446  1.00  0.00    -0.088 A  
HETATM   22  N   UNL     1      -6.305   9.297  65.760  1.00  0.00    -0.066 NA 
HETATM   23  C   UNL     1      -6.808   9.927  64.659  1.00  0.00    -0.126 A  
HETATM   24  N   UNL     1      -8.138  10.040  64.627  1.00  0.00    -0.150 NA 
ENDBRANCH  19  20
ENDBRANCH  13  19
ENDBRANCH   2   8
TORSDOF 5
ENDMDL
MODEL      125
REMARK 921   NORMALIZED FREE ENERGY PREDICTED BY IDOCK:   -4.80 KCAL/MOL
REMARK 922        TOTAL FREE ENERGY PREDICTED BY IDOCK:   -6.99 KCAL/MOL
REMARK 923 INTER-LIGAND FREE ENERGY PREDICTED BY IDOCK:   -6.21 KCAL/MOL
REMARK 924 INTRA-LIGAND FREE ENERGY PREDICTED BY IDOCK:   -0.78 KCAL/MOL
REMARK 927      BINDING AFFINITY PREDICTED BY RF-SCORE:    0.00 PKD
ROOT
HETATM    1  C   UNL     1      -6.894  10.562  69.791  1.00  0.00    -0.138 C  
HETATM    2  C   UNL     1      -7.902   9.744  68.952  1.00  0.00    -0.087 C  
HETATM    3  C   UNL     1      -7.670  10.128  67.471  1.00  0.00    -0.091 C  
ENDROOT
BRANCH   2   4
HETATM    4  C   UNL     1      -7.541   8.272  69.070  1.00  0.00    -0.089 C  
HETATM    5  H2  UNL     1      -6.960   7.107  70.149  1.00  0.00     0.000 HD 
HETATM    6  N   UNL     1      -7.242   7.051  69.170  1.00  0.00    -0.087 NA 
HETATM    7  H1  UNL     1      -7.000   6.064  69.249  1.00  0.00     0.000 HD 
ENDBRANCH   2   4
BRANCH   2   8
HETATM    8  C   UNL     1      -9.315   9.977  69.478  1.00  0.00    -0.247 A  
HETATM    9  C   UNL     1     -11.256   9.227  70.791  1.00  0.00    -0.351 A  
HETATM   10  C   UNL     1      -9.942   9.051  70.317  1.00  0.00    -0.229 A  
HETATM   11  C   UNL     1     -11.949  10.381  70.385  1.00  0.00    -0.409 A  
HETATM   12  C   UNL     1     -10.039  11.123  69.104  1.00  0.00    -0.134 A  
HETATM   13  C   UNL     1     -11.359  11.324  69.527  1.00  0.00    -0.362 A  
BRANCH   9  14
HETATM   14  C   UNL     1     -11.858   8.135  71.697  1.00  0.00    -0.334 C  
HETATM   15  C   UNL     1     -13.206   8.558  72.182  1.00  0.00    -0.352 C  
HETATM   16  C   UNL     1     -12.017   6.832  70.877  1.00  0.00    -0.437 C  
HETATM   17  C   UNL     1     -11.000   7.818  72.931  1.00  0.00    -0.467 C  
HETATM   18  N   UNL     1     -14.262   8.880  72.543  1.00  0.00    -0.564 NA 
ENDBRANCH   9  14
BRANCH  13  19
HETATM   19  C   UNL     1     -12.151  12.498  68.996  1.00  0.00    -0.135 C  
BRANCH  19  20
HETATM   20  N   UNL     1     -12.027  13.709  69.786  1.00  0.00    -0.325 NA 
HETATM   21  C   UNL     1     -11.640  14.947  69.368  1.00  0.00    -0.309 A  
HETATM   22  N   UNL     1     -11.913  15.831  70.300  1.00  0.00    -0.368 NA 
HETATM   23  C   UNL     1     -12.484  15.077  71.283  1.00  0.00    -0.334 A  
HETATM   24  N   UNL     1     -12.573  13.771  71.019  1.00  0.00    -0.359 NA 
ENDBRANCH  19  20
ENDBRANCH  13  19
ENDBRANCH   2   8
TORSDOF 5
ENDMDL
MODEL      126
REMARK 921   NORMALIZED FREE ENERGY PREDICTED BY IDOCK:   -4.79 KCAL/MOL
REMARK 922        TOTAL FREE ENERGY PREDICTED BY IDOCK:   -6.98 KCAL/MOL
REMARK 923 INTER-LIGAND FREE ENERGY PREDICTED BY IDOCK:   -6.75 KCAL/MOL
REMARK 924 INTRA-LIGAND FREE ENERGY PREDICTED BY IDOCK:   -0.22 KCAL/MOL
REMARK 927      BINDING AFFINITY PREDICTED BY RF-SCORE:    0.00 PKD
ROOT
HETATM    1  C   UNL     1      -9.916  13.326  66.335  1.00  0.00    -0.288 C  
HETATM    2  C   UNL     1     -11.188  13.976  66.927  1.00  0.00    -0.323 C  
HETATM    3  C   UNL     1     -10.905  15.492  67.047  1.00  0.00    -0.314 C  
ENDROOT
BRANCH   2   4
HETATM    4  C   UNL     1     -12.314  13.835  65.914  1.00  0.00    -0.476 C  
HETATM    5  H2  UNL     1     -13.883  14.352  65.560  1.00  0.00     0.000 HD 
HETATM    6  N   UNL     1     -13.248  13.718  65.075  1.00  0.00    -0.589 NA 
HETATM    7  H1  UNL     1     -14.003  13.623  64.396  1.00  0.00     0.000 HD 
ENDBRANCH   2   4
BRANCH   2   8
HETATM    8  C   UNL     1     -11.567  13.272  68.225  1.00  0.00    -0.369 A  
HETATM    9  C   UNL     1     -12.557  13.329  70.477  1.00  0.00    -0.259 A  
HETATM   10  C   UNL     1     -12.224  13.948  69.257  1.00  0.00    -0.319 A  
HETATM   11  C   UNL     1     -12.195  11.981  70.648  1.00  0.00    -0.409 A  
HETATM   12  C   UNL     1     -11.232  11.922  68.432  1.00  0.00    -0.312 A  
HETATM   13  C   UNL     1     -11.515  11.274  69.641  1.00  0.00    -0.380 A  
BRANCH   9  14
HETATM   14  C   UNL     1     -13.266  14.174  71.554  1.00  0.00    -0.423 C  
HETATM   15  C   UNL     1     -12.255  14.885  72.394  1.00  0.00    -0.325 C  
HETATM   16  C   UNL     1     -14.159  15.230  70.859  1.00  0.00    -0.184 C  
HETATM   17  C   UNL     1     -14.153  13.348  72.498  1.00  0.00    -0.418 C  
HETATM   18  N   UNL     1     -11.468  15.452  73.033  1.00  0.00    -0.275 NA 
ENDBRANCH   9  14
BRANCH  13  19
HETATM   19  C   UNL     1     -11.021   9.865  69.877  1.00  0.00    -0.281 C  
BRANCH  19  20
HETATM   20  N   UNL     1     -10.194   9.335  68.809  1.00  0.00    -0.199 NA 
HETATM   21  C   UNL     1     -10.441   8.257  68.013  1.00  0.00    -0.181 A  
HETATM   22  N   UNL     1      -9.606   8.258  66.999  1.00  0.00    -0.175 NA 
HETATM   23  C   UNL     1      -8.859   9.379  67.215  1.00  0.00    -0.128 A  
HETATM   24  N   UNL     1      -9.176  10.071  68.312  1.00  0.00    -0.128 NA 
ENDBRANCH  19  20
ENDBRANCH  13  19
ENDBRANCH   2   8
TORSDOF 5
ENDMDL
MODEL      127
REMARK 921   NORMALIZED FREE ENERGY PREDICTED BY IDOCK:   -4.78 KCAL/MOL
REMARK 922        TOTAL FREE ENERGY PREDICTED BY IDOCK:   -6.97 KCAL/MOL
REMARK 923 INTER-LIGAND FREE ENERGY PREDICTED BY IDOCK:   -6.34 KCAL/MOL
REMARK 924 INTRA-LIGAND FREE ENERGY PREDICTED BY IDOCK:   -0.63 KCAL/MOL
REMARK 927      BINDING AFFINITY PREDICTED BY RF-SCORE:    0.00 PKD
ROOT
HETATM    1  C   UNL     1     -12.312  15.431  69.753  1.00  0.00    -0.288 C  
HETATM    2  C   UNL     1     -11.167  14.532  69.233  1.00  0.00    -0.309 C  
HETATM    3  C   UNL     1      -9.875  14.991  69.949  1.00  0.00     0.019 C  
ENDROOT
BRANCH   2   4
HETATM    4  C   UNL     1     -11.426  13.108  69.699  1.00  0.00    -0.191 C  
HETATM    5  H2  UNL     1     -12.332  12.188  70.790  1.00  0.00     0.000 HD 
HETATM    6  N   UNL     1     -11.642  11.927  70.086  1.00  0.00    -0.520 NA 
HETATM    7  H1  UNL     1     -11.816  10.972  70.398  1.00  0.00     0.000 HD 
ENDBRANCH   2   4
BRANCH   2   8
HETATM    8  C   UNL     1     -11.129  14.581  67.709  1.00  0.00    -0.295 A  
HETATM    9  C   UNL     1     -11.015  13.433  65.536  1.00  0.00    -0.294 A  
HETATM   10  C   UNL     1     -11.081  13.413  66.943  1.00  0.00    -0.309 A  
HETATM   11  C   UNL     1     -10.985  14.685  64.900  1.00  0.00    -0.419 A  
HETATM   12  C   UNL     1     -11.109  15.814  67.033  1.00  0.00    -0.152 A  
HETATM   13  C   UNL     1     -11.011  15.881  65.637  1.00  0.00    -0.207 A  
BRANCH   9  14
HETATM   14  C   UNL     1     -10.948  12.085  64.791  1.00  0.00    -0.361 C  
HETATM   15  C   UNL     1     -10.575  10.993  65.741  1.00  0.00    -0.195 C  
HETATM   16  C   UNL     1     -12.342  11.767  64.198  1.00  0.00    -0.268 C  
HETATM   17  C   UNL     1      -9.928  12.067  63.642  1.00  0.00    -0.387 C  
HETATM   18  N   UNL     1     -10.305  10.143  66.484  1.00  0.00    -0.223 NA 
ENDBRANCH   9  14
BRANCH  13  19
HETATM   19  C   UNL     1     -10.856  17.221  64.955  1.00  0.00     0.167 C  
BRANCH  19  20
HETATM   20  N   UNL     1     -10.046  18.176  65.690  1.00  0.00    -0.513 NA 
HETATM   21  C   UNL     1     -10.467  19.239  66.430  1.00  0.00    -0.474 A  
HETATM   22  N   UNL     1      -9.470  19.694  67.154  1.00  0.00    -0.324 NA 
HETATM   23  C   UNL     1      -8.443  18.857  66.825  1.00  0.00    -0.298 A  
HETATM   24  N   UNL     1      -8.743  17.914  65.930  1.00  0.00    -0.501 NA 
ENDBRANCH  19  20
ENDBRANCH  13  19
ENDBRANCH   2   8
TORSDOF 5
ENDMDL
MODEL      128
REMARK 921   NORMALIZED FREE ENERGY PREDICTED BY IDOCK:   -4.73 KCAL/MOL
REMARK 922        TOTAL FREE ENERGY PREDICTED BY IDOCK:   -6.90 KCAL/MOL
REMARK 923 INTER-LIGAND FREE ENERGY PREDICTED BY IDOCK:   -6.07 KCAL/MOL
REMARK 924 INTRA-LIGAND FREE ENERGY PREDICTED BY IDOCK:   -0.83 KCAL/MOL
REMARK 927      BINDING AFFINITY PREDICTED BY RF-SCORE:    0.00 PKD
ROOT
HETATM    1  C   UNL     1     -13.868  13.034  72.382  1.00  0.00    -0.526 C  
HETATM    2  C   UNL     1     -13.239  14.186  71.566  1.00  0.00    -0.423 C  
HETATM    3  C   UNL     1     -14.402  15.084  71.084  1.00  0.00    -0.379 C  
ENDROOT
BRANCH   2   4
HETATM    4  C   UNL     1     -12.405  15.041  72.507  1.00  0.00    -0.357 C  
HETATM    5  H2  UNL     1     -11.995  16.640  72.872  1.00  0.00     0.000 HD 
HETATM    6  N   UNL     1     -11.715  15.752  73.287  1.00  0.00    -0.344 NA 
HETATM    7  H1  UNL     1     -11.156  16.325  73.919  1.00  0.00     0.000 HD 
ENDBRANCH   2   4
BRANCH   2   8
HETATM    8  C   UNL     1     -12.352  13.610  70.466  1.00  0.00    -0.425 A  
HETATM    9  C   UNL     1     -11.206  11.696  69.429  1.00  0.00    -0.311 A  
HETATM   10  C   UNL     1     -12.047  12.247  70.415  1.00  0.00    -0.385 A  
HETATM   11  C   UNL     1     -10.656  12.569  68.475  1.00  0.00    -0.262 A  
HETATM   12  C   UNL     1     -11.790  14.448  69.487  1.00  0.00    -0.376 A  
HETATM   13  C   UNL     1     -10.924  13.948  68.506  1.00  0.00    -0.277 A  
BRANCH   9  14
HETATM   14  C   UNL     1     -10.922  10.182  69.476  1.00  0.00    -0.295 C  
HETATM   15  C   UNL     1      -9.507   9.940  69.893  1.00  0.00    -0.220 C  
HETATM   16  C   UNL     1     -11.860   9.525  70.517  1.00  0.00    -0.246 C  
HETATM   17  C   UNL     1     -11.135   9.473  68.130  1.00  0.00    -0.052 C  
HETATM   18  N   UNL     1      -8.413   9.754  70.236  1.00  0.00    -0.178 NA 
ENDBRANCH   9  14
BRANCH  13  19
HETATM   19  C   UNL     1     -10.233  14.898  67.554  1.00  0.00    -0.233 C  
BRANCH  19  20
HETATM   20  N   UNL     1      -8.850  15.180  67.891  1.00  0.00    -0.164 NA 
HETATM   21  C   UNL     1      -7.769  14.364  67.748  1.00  0.00    -0.161 A  
HETATM   22  N   UNL     1      -6.667  15.061  67.903  1.00  0.00    -0.140 NA 
HETATM   23  C   UNL     1      -7.130  16.324  68.133  1.00  0.00    -0.135 A  
HETATM   24  N   UNL     1      -8.459  16.449  68.140  1.00  0.00    -0.183 NA 
ENDBRANCH  19  20
ENDBRANCH  13  19
ENDBRANCH   2   8
TORSDOF 5
ENDMDL
MODEL      129
REMARK 921   NORMALIZED FREE ENERGY PREDICTED BY IDOCK:   -4.72 KCAL/MOL
REMARK 922        TOTAL FREE ENERGY PREDICTED BY IDOCK:   -6.89 KCAL/MOL
REMARK 923 INTER-LIGAND FREE ENERGY PREDICTED BY IDOCK:   -5.98 KCAL/MOL
REMARK 924 INTRA-LIGAND FREE ENERGY PREDICTED BY IDOCK:   -0.91 KCAL/MOL
REMARK 927      BINDING AFFINITY PREDICTED BY RF-SCORE:    0.00 PKD
ROOT
HETATM    1  C   UNL     1     -10.102   9.975  65.535  1.00  0.00    -0.325 C  
HETATM    2  C   UNL     1     -10.095  10.138  67.072  1.00  0.00    -0.277 C  
HETATM    3  C   UNL     1      -8.723  10.744  67.454  1.00  0.00    -0.126 C  
ENDROOT
BRANCH   2   4
HETATM    4  C   UNL     1     -11.137  11.179  67.449  1.00  0.00    -0.307 C  
HETATM    5  H2  UNL     1     -11.333  12.692  68.176  1.00  0.00     0.000 HD 
HETATM    6  N   UNL     1     -12.001  12.043  67.762  1.00  0.00    -0.553 NA 
HETATM    7  H1  UNL     1     -12.700  12.740  68.014  1.00  0.00     0.000 HD 
ENDBRANCH   2   4
BRANCH   2   8
HETATM    8  C   UNL     1     -10.432   8.804  67.730  1.00  0.00    -0.292 A  
HETATM    9  C   UNL     1     -11.012   7.494  69.731  1.00  0.00    -0.195 A  
HETATM   10  C   UNL     1     -10.729   8.717  69.093  1.00  0.00    -0.150 A  
HETATM   11  C   UNL     1     -10.980   6.326  68.949  1.00  0.00    -0.435 A  
HETATM   12  C   UNL     1     -10.420   7.613  66.982  1.00  0.00    -0.419 A  
HETATM   13  C   UNL     1     -10.666   6.371  67.580  1.00  0.00    -0.387 A  
BRANCH   9  14
HETATM   14  C   UNL     1     -11.309   7.512  71.243  1.00  0.00    -0.284 C  
HETATM   15  C   UNL     1     -12.784   7.443  71.475  1.00  0.00    -0.372 C  
HETATM   16  C   UNL     1     -10.649   6.276  71.901  1.00  0.00    -0.258 C  
HETATM   17  C   UNL     1     -10.786   8.766  71.958  1.00  0.00    -0.428 C  
HETATM   18  N   UNL     1     -13.929   7.370  71.654  1.00  0.00    -0.417 NA 
ENDBRANCH   9  14
BRANCH  13  19
HETATM   19  C   UNL     1     -10.512   5.101  66.774  1.00  0.00    -0.251 C  
BRANCH  19  20
HETATM   20  N   UNL     1      -9.148   4.810  66.372  1.00  0.00    -0.116 NA 
HETATM   21  C   UNL     1      -8.570   5.018  65.156  1.00  0.00    -0.148 A  
HETATM   22  N   UNL     1      -7.267   4.885  65.259  1.00  0.00    -0.066 NA 
HETATM   23  C   UNL     1      -7.090   4.599  66.582  1.00  0.00    -0.071 A  
HETATM   24  N   UNL     1      -8.211   4.537  67.305  1.00  0.00    -0.101 NA 
ENDBRANCH  19  20
ENDBRANCH  13  19
ENDBRANCH   2   8
TORSDOF 5
ENDMDL
MODEL      130
REMARK 921   NORMALIZED FREE ENERGY PREDICTED BY IDOCK:   -4.72 KCAL/MOL
REMARK 922        TOTAL FREE ENERGY PREDICTED BY IDOCK:   -6.88 KCAL/MOL
REMARK 923 INTER-LIGAND FREE ENERGY PREDICTED BY IDOCK:   -6.03 KCAL/MOL
REMARK 924 INTRA-LIGAND FREE ENERGY PREDICTED BY IDOCK:   -0.85 KCAL/MOL
REMARK 927      BINDING AFFINITY PREDICTED BY RF-SCORE:    0.00 PKD
ROOT
HETATM    1  C   UNL     1      -6.340  14.585  70.061  1.00  0.00    -0.165 C  
HETATM    2  C   UNL     1      -6.619  14.991  68.596  1.00  0.00    -0.086 C  
HETATM    3  C   UNL     1      -5.466  15.925  68.160  1.00  0.00    -0.119 C  
ENDROOT
BRANCH   2   4
HETATM    4  C   UNL     1      -6.511  13.749  67.725  1.00  0.00    -0.170 C  
HETATM    5  H2  UNL     1      -7.429  12.589  66.907  1.00  0.00     0.000 HD 
HETATM    6  N   UNL     1      -6.422  12.719  67.002  1.00  0.00    -0.478 NA 
HETATM    7  H1  UNL     1      -6.350  11.886  66.419  1.00  0.00     0.000 HD 
ENDBRANCH   2   4
BRANCH   2   8
HETATM    8  C   UNL     1      -8.022  15.581  68.486  1.00  0.00    -0.137 A  
HETATM    9  C   UNL     1      -9.523  17.414  67.825  1.00  0.00    -0.261 A  
HETATM   10  C   UNL     1      -8.243  16.835  67.910  1.00  0.00    -0.189 A  
HETATM   11  C   UNL     1     -10.605  16.692  68.356  1.00  0.00    -0.343 A  
HETATM   12  C   UNL     1      -9.133  14.886  68.997  1.00  0.00    -0.175 A  
HETATM   13  C   UNL     1     -10.420  15.437  68.962  1.00  0.00    -0.249 A  
BRANCH   9  14
HETATM   14  C   UNL     1      -9.650  18.810  67.184  1.00  0.00    -0.328 C  
HETATM   15  C   UNL     1     -10.125  19.798  68.201  1.00  0.00    -0.452 C  
HETATM   16  C   UNL     1      -8.260  19.259  66.673  1.00  0.00    -0.305 C  
HETATM   17  C   UNL     1     -10.629  18.858  66.001  1.00  0.00    -0.470 C  
HETATM   18  N   UNL     1     -10.474  20.568  68.997  1.00  0.00     0.124 NA 
ENDBRANCH   9  14
BRANCH  13  19
HETATM   19  C   UNL     1     -11.566  14.722  69.640  1.00  0.00    -0.304 C  
BRANCH  19  20
HETATM   20  N   UNL     1     -11.868  13.415  69.084  1.00  0.00    -0.322 NA 
HETATM   21  C   UNL     1     -11.805  13.023  67.781  1.00  0.00    -0.347 A  
HETATM   22  N   UNL     1     -11.885  11.714  67.711  1.00  0.00    -0.611 NA 
HETATM   23  C   UNL     1     -11.987  11.340  69.020  1.00  0.00    -0.325 A  
HETATM   24  N   UNL     1     -11.986  12.345  69.899  1.00  0.00    -0.324 NA 
ENDBRANCH  19  20
ENDBRANCH  13  19
ENDBRANCH   2   8
TORSDOF 5
ENDMDL
MODEL      131
REMARK 921   NORMALIZED FREE ENERGY PREDICTED BY IDOCK:   -4.71 KCAL/MOL
REMARK 922        TOTAL FREE ENERGY PREDICTED BY IDOCK:   -6.87 KCAL/MOL
REMARK 923 INTER-LIGAND FREE ENERGY PREDICTED BY IDOCK:   -6.20 KCAL/MOL
REMARK 924 INTRA-LIGAND FREE ENERGY PREDICTED BY IDOCK:   -0.67 KCAL/MOL
REMARK 927      BINDING AFFINITY PREDICTED BY RF-SCORE:    0.00 PKD
ROOT
HETATM    1  C   UNL     1     -11.831  10.198  71.173  1.00  0.00    -0.472 C  
HETATM    2  C   UNL     1     -10.829   9.369  70.337  1.00  0.00    -0.321 C  
HETATM    3  C   UNL     1      -9.549   9.215  71.192  1.00  0.00    -0.347 C  
ENDROOT
BRANCH   2   4
HETATM    4  C   UNL     1     -11.393   7.968  70.163  1.00  0.00    -0.078 C  
HETATM    5  H2  UNL     1     -11.306   6.589  69.189  1.00  0.00     0.000 HD 
HETATM    6  N   UNL     1     -11.861   6.806  70.017  1.00  0.00    -0.641 NA 
HETATM    7  H1  UNL     1     -12.239   5.866  69.900  1.00  0.00     0.000 HD 
ENDBRANCH   2   4
BRANCH   2   8
HETATM    8  C   UNL     1     -10.635  10.024  68.974  1.00  0.00    -0.235 A  
HETATM    9  C   UNL     1     -10.832  11.981  67.496  1.00  0.00    -0.284 A  
HETATM   10  C   UNL     1     -10.973  11.362  68.752  1.00  0.00    -0.272 A  
HETATM   11  C   UNL     1     -10.341  11.202  66.434  1.00  0.00    -0.300 A  
HETATM   12  C   UNL     1     -10.137   9.282  67.887  1.00  0.00    -0.246 A  
HETATM   13  C   UNL     1     -10.009   9.848  66.613  1.00  0.00    -0.277 A  
BRANCH   9  14
HETATM   14  C   UNL     1     -11.252  13.458  67.359  1.00  0.00    -0.311 C  
HETATM   15  C   UNL     1     -11.903  13.923  68.621  1.00  0.00    -0.372 C  
HETATM   16  C   UNL     1      -9.990  14.320  67.110  1.00  0.00    -0.255 C  
HETATM   17  C   UNL     1     -12.237  13.714  66.208  1.00  0.00    -0.484 C  
HETATM   18  N   UNL     1     -12.392  14.289  69.609  1.00  0.00    -0.313 NA 
ENDBRANCH   9  14
BRANCH  13  19
HETATM   19  C   UNL     1      -9.599   8.985  65.441  1.00  0.00    -0.014 C  
BRANCH  19  20
HETATM   20  N   UNL     1      -8.887   9.696  64.395  1.00  0.00    -0.217 NA 
HETATM   21  C   UNL     1      -7.542   9.765  64.193  1.00  0.00    -0.134 A  
HETATM   22  N   UNL     1      -7.300  10.267  63.004  1.00  0.00    -0.139 NA 
HETATM   23  C   UNL     1      -8.549  10.486  62.501  1.00  0.00    -0.221 A  
HETATM   24  N   UNL     1      -9.555  10.158  63.315  1.00  0.00    -0.265 NA 
ENDBRANCH  19  20
ENDBRANCH  13  19
ENDBRANCH   2   8
TORSDOF 5
ENDMDL
MODEL      132
REMARK 921   NORMALIZED FREE ENERGY PREDICTED BY IDOCK:   -4.69 KCAL/MOL
REMARK 922        TOTAL FREE ENERGY PREDICTED BY IDOCK:   -6.86 KCAL/MOL
REMARK 923 INTER-LIGAND FREE ENERGY PREDICTED BY IDOCK:   -6.09 KCAL/MOL
REMARK 924 INTRA-LIGAND FREE ENERGY PREDICTED BY IDOCK:   -0.76 KCAL/MOL
REMARK 927      BINDING AFFINITY PREDICTED BY RF-SCORE:    0.00 PKD
ROOT
HETATM    1  C   UNL     1     -11.194  14.884  64.418  1.00  0.00    -0.171 C  
HETATM    2  C   UNL     1     -11.642  13.564  65.086  1.00  0.00    -0.333 C  
HETATM    3  C   UNL     1     -13.143  13.719  65.426  1.00  0.00    -0.217 C  
ENDROOT
BRANCH   2   4
HETATM    4  C   UNL     1     -11.554  12.451  64.055  1.00  0.00    -0.413 C  
HETATM    5  H2  UNL     1     -10.914  12.062  62.539  1.00  0.00     0.000 HD 
HETATM    6  N   UNL     1     -11.480  11.528  63.198  1.00  0.00    -0.867 NA 
HETATM    7  H1  UNL     1     -11.421  10.781  62.506  1.00  0.00     0.000 HD 
ENDBRANCH   2   4
BRANCH   2   8
HETATM    8  C   UNL     1     -10.729  13.252  66.267  1.00  0.00    -0.293 A  
HETATM    9  C   UNL     1     -10.050  11.769  68.109  1.00  0.00    -0.196 A  
HETATM   10  C   UNL     1     -10.860  12.066  66.997  1.00  0.00    -0.297 A  
HETATM   11  C   UNL     1      -9.086  12.718  68.490  1.00  0.00    -0.049 A  
HETATM   12  C   UNL     1      -9.746  14.171  66.674  1.00  0.00    -0.297 A  
HETATM   13  C   UNL     1      -8.938  13.930  67.793  1.00  0.00    -0.188 A  
BRANCH   9  14
HETATM   14  C   UNL     1     -10.291  10.440  68.852  1.00  0.00    -0.227 C  
HETATM   15  C   UNL     1      -9.068  10.053  69.619  1.00  0.00    -0.210 C  
HETATM   16  C   UNL     1     -11.459  10.626  69.851  1.00  0.00    -0.393 C  
HETATM   17  C   UNL     1     -10.644   9.270  67.922  1.00  0.00    -0.288 C  
HETATM   18  N   UNL     1      -8.123   9.764  70.229  1.00  0.00    -0.181 NA 
ENDBRANCH   9  14
BRANCH  13  19
HETATM   19  C   UNL     1      -7.987  14.998  68.281  1.00  0.00    -0.128 C  
BRANCH  19  20
HETATM   20  N   UNL     1      -8.611  16.283  68.540  1.00  0.00    -0.200 NA 
HETATM   21  C   UNL     1      -8.267  17.500  68.033  1.00  0.00    -0.239 A  
HETATM   22  N   UNL     1      -9.223  18.366  68.281  1.00  0.00    -0.307 NA 
HETATM   23  C   UNL     1     -10.151  17.619  68.946  1.00  0.00    -0.351 A  
HETATM   24  N   UNL     1      -9.823  16.339  69.134  1.00  0.00    -0.249 NA 
ENDBRANCH  19  20
ENDBRANCH  13  19
ENDBRANCH   2   8
TORSDOF 5
ENDMDL
MODEL      133
REMARK 921   NORMALIZED FREE ENERGY PREDICTED BY IDOCK:   -4.68 KCAL/MOL
REMARK 922        TOTAL FREE ENERGY PREDICTED BY IDOCK:   -6.83 KCAL/MOL
REMARK 923 INTER-LIGAND FREE ENERGY PREDICTED BY IDOCK:   -6.31 KCAL/MOL
REMARK 924 INTRA-LIGAND FREE ENERGY PREDICTED BY IDOCK:   -0.52 KCAL/MOL
REMARK 927      BINDING AFFINITY PREDICTED BY RF-SCORE:    0.00 PKD
ROOT
HETATM    1  C   UNL     1     -13.945  15.306  71.083  1.00  0.00    -0.462 C  
HETATM    2  C   UNL     1     -12.760  14.387  71.458  1.00  0.00    -0.417 C  
HETATM    3  C   UNL     1     -11.916  15.147  72.507  1.00  0.00    -0.492 C  
ENDROOT
BRANCH   2   4
HETATM    4  C   UNL     1     -13.311  13.159  72.165  1.00  0.00    -0.524 C  
HETATM    5  H2  UNL     1     -14.397  11.875  71.993  1.00  0.00     0.000 HD 
HETATM    6  N   UNL     1     -13.768  12.140  72.751  1.00  0.00    -0.361 NA 
HETATM    7  H1  UNL     1     -14.137  11.317  73.226  1.00  0.00     0.000 HD 
ENDBRANCH   2   4
BRANCH   2   8
HETATM    8  C   UNL     1     -12.017  13.968  70.193  1.00  0.00    -0.399 A  
HETATM    9  C   UNL     1     -10.625  14.535  68.245  1.00  0.00    -0.241 A  
HETATM   10  C   UNL     1     -11.294  14.890  69.432  1.00  0.00    -0.312 A  
HETATM   11  C   UNL     1     -10.711  13.197  67.821  1.00  0.00    -0.252 A  
HETATM   12  C   UNL     1     -12.070  12.637  69.740  1.00  0.00    -0.301 A  
HETATM   13  C   UNL     1     -11.446  12.246  68.548  1.00  0.00    -0.349 A  
BRANCH   9  14
HETATM   14  C   UNL     1      -9.871  15.637  67.475  1.00  0.00    -0.228 C  
HETATM   15  C   UNL     1      -9.829  15.305  66.018  1.00  0.00    -0.328 C  
HETATM   16  C   UNL     1     -10.620  16.979  67.653  1.00  0.00    -0.333 C  
HETATM   17  C   UNL     1      -8.422  15.835  67.946  1.00  0.00    -0.161 C  
HETATM   18  N   UNL     1      -9.815  15.056  64.884  1.00  0.00    -0.063 NA 
ENDBRANCH   9  14
BRANCH  13  19
HETATM   19  C   UNL     1     -11.636  10.841  68.023  1.00  0.00    -0.163 C  
BRANCH  19  20
HETATM   20  N   UNL     1     -10.678  10.448  67.006  1.00  0.00    -0.256 NA 
HETATM   21  C   UNL     1     -10.623  10.850  65.705  1.00  0.00    -0.163 A  
HETATM   22  N   UNL     1      -9.470  10.497  65.184  1.00  0.00    -0.212 NA 
HETATM   23  C   UNL     1      -8.837   9.880  66.223  1.00  0.00    -0.143 A  
HETATM   24  N   UNL     1      -9.535   9.820  67.359  1.00  0.00    -0.150 NA 
ENDBRANCH  19  20
ENDBRANCH  13  19
ENDBRANCH   2   8
TORSDOF 5
ENDMDL
MODEL      134
REMARK 921   NORMALIZED FREE ENERGY PREDICTED BY IDOCK:   -4.68 KCAL/MOL
REMARK 922        TOTAL FREE ENERGY PREDICTED BY IDOCK:   -6.83 KCAL/MOL
REMARK 923 INTER-LIGAND FREE ENERGY PREDICTED BY IDOCK:   -5.96 KCAL/MOL
REMARK 924 INTRA-LIGAND FREE ENERGY PREDICTED BY IDOCK:   -0.87 KCAL/MOL
REMARK 927      BINDING AFFINITY PREDICTED BY RF-SCORE:    0.00 PKD
ROOT
HETATM    1  C   UNL     1     -11.897  13.404  68.481  1.00  0.00    -0.401 C  
HETATM    2  C   UNL     1     -11.242  12.648  67.302  1.00  0.00    -0.346 C  
HETATM    3  C   UNL     1     -12.159  12.849  66.073  1.00  0.00    -0.484 C  
ENDROOT
BRANCH   2   4
HETATM    4  C   UNL     1      -9.926  13.331  66.966  1.00  0.00    -0.238 C  
HETATM    5  H2  UNL     1      -8.497  13.918  67.650  1.00  0.00     0.000 HD 
HETATM    6  N   UNL     1      -8.834  13.898  66.688  1.00  0.00    -0.441 NA 
HETATM    7  H1  UNL     1      -7.952  14.356  66.462  1.00  0.00     0.000 HD 
ENDBRANCH   2   4
BRANCH   2   8
HETATM    8  C   UNL     1     -10.987  11.198  67.703  1.00  0.00    -0.323 A  
HETATM    9  C   UNL     1     -11.013   9.412  69.395  1.00  0.00    -0.165 A  
HETATM   10  C   UNL     1     -11.269  10.737  68.992  1.00  0.00    -0.322 A  
HETATM   11  C   UNL     1     -10.443   8.539  68.452  1.00  0.00    -0.215 A  
HETATM   12  C   UNL     1     -10.426  10.290  66.787  1.00  0.00    -0.279 A  
HETATM   13  C   UNL     1     -10.127   8.972  67.153  1.00  0.00    -0.309 A  
BRANCH   9  14
HETATM   14  C   UNL     1     -11.347   9.015  70.846  1.00  0.00    -0.351 C  
HETATM   15  C   UNL     1     -12.351   9.963  71.418  1.00  0.00    -0.404 C  
HETATM   16  C   UNL     1     -11.955   7.591  70.852  1.00  0.00    -0.278 C  
HETATM   17  C   UNL     1     -10.127   9.014  71.780  1.00  0.00    -0.373 C  
HETATM   18  N   UNL     1     -13.146  10.689  71.854  1.00  0.00    -0.487 NA 
ENDBRANCH   9  14
BRANCH  13  19
HETATM   19  C   UNL     1      -9.402   8.065  66.185  1.00  0.00    -0.147 C  
BRANCH  19  20
HETATM   20  N   UNL     1      -8.064   7.689  66.605  1.00  0.00    -0.116 NA 
HETATM   21  C   UNL     1      -7.023   8.509  66.921  1.00  0.00    -0.074 A  
HETATM   22  N   UNL     1      -6.078   7.813  67.509  1.00  0.00    -0.048 NA 
HETATM   23  C   UNL     1      -6.597   6.551  67.540  1.00  0.00    -0.061 A  
HETATM   24  N   UNL     1      -7.809   6.422  66.995  1.00  0.00    -0.103 NA 
ENDBRANCH  19  20
ENDBRANCH  13  19
ENDBRANCH   2   8
TORSDOF 5
ENDMDL
MODEL      135
REMARK 921   NORMALIZED FREE ENERGY PREDICTED BY IDOCK:   -4.66 KCAL/MOL
REMARK 922        TOTAL FREE ENERGY PREDICTED BY IDOCK:   -6.81 KCAL/MOL
REMARK 923 INTER-LIGAND FREE ENERGY PREDICTED BY IDOCK:   -5.90 KCAL/MOL
REMARK 924 INTRA-LIGAND FREE ENERGY PREDICTED BY IDOCK:   -0.91 KCAL/MOL
REMARK 927      BINDING AFFINITY PREDICTED BY RF-SCORE:    0.00 PKD
ROOT
HETATM    1  C   UNL     1      -9.591  12.570  68.415  1.00  0.00    -0.176 C  
HETATM    2  C   UNL     1     -11.000  11.934  68.419  1.00  0.00    -0.273 C  
HETATM    3  C   UNL     1     -11.892  12.821  69.320  1.00  0.00    -0.358 C  
ENDROOT
BRANCH   2   4
HETATM    4  C   UNL     1     -11.577  12.039  67.017  1.00  0.00    -0.317 C  
HETATM    5  H2  UNL     1     -12.594  12.973  66.042  1.00  0.00     0.000 HD 
HETATM    6  N   UNL     1     -12.057  12.127  65.854  1.00  0.00    -0.571 NA 
HETATM    7  H1  UNL     1     -12.444  12.198  64.913  1.00  0.00     0.000 HD 
ENDBRANCH   2   4
BRANCH   2   8
HETATM    8  C   UNL     1     -10.899  10.469  68.831  1.00  0.00    -0.275 A  
HETATM    9  C   UNL     1     -11.456   8.641  70.381  1.00  0.00    -0.151 A  
HETATM   10  C   UNL     1     -11.558   9.982  69.963  1.00  0.00    -0.279 A  
HETATM   11  C   UNL     1     -10.646   7.779  69.622  1.00  0.00    -0.242 A  
HETATM   12  C   UNL     1     -10.107   9.571  68.093  1.00  0.00    -0.214 A  
HETATM   13  C   UNL     1      -9.952   8.236  68.489  1.00  0.00    -0.206 A  
BRANCH   9  14
HETATM   14  C   UNL     1     -12.211   8.215  71.655  1.00  0.00    -0.343 C  
HETATM   15  C   UNL     1     -11.238   7.811  72.715  1.00  0.00    -0.398 C  
HETATM   16  C   UNL     1     -13.036   9.416  72.178  1.00  0.00    -0.503 C  
HETATM   17  C   UNL     1     -13.173   7.038  71.436  1.00  0.00    -0.352 C  
HETATM   18  N   UNL     1     -10.480   7.515  73.544  1.00  0.00    -0.348 NA 
ENDBRANCH   9  14
BRANCH  13  19
HETATM   19  C   UNL     1      -8.988   7.337  67.750  1.00  0.00    -0.126 C  
BRANCH  19  20
HETATM   20  N   UNL     1      -9.576   6.102  67.264  1.00  0.00    -0.113 NA 
HETATM   21  C   UNL     1     -10.649   5.952  66.438  1.00  0.00    -0.115 A  
HETATM   22  N   UNL     1     -10.707   4.711  66.012  1.00  0.00    -0.225 NA 
HETATM   23  C   UNL     1      -9.624   4.130  66.605  1.00  0.00    -0.206 A  
HETATM   24  N   UNL     1      -8.901   4.938  67.384  1.00  0.00    -0.103 NA 
ENDBRANCH  19  20
ENDBRANCH  13  19
ENDBRANCH   2   8
TORSDOF 5
ENDMDL
MODEL      136
REMARK 921   NORMALIZED FREE ENERGY PREDICTED BY IDOCK:   -4.65 KCAL/MOL
REMARK 922        TOTAL FREE ENERGY PREDICTED BY IDOCK:   -6.80 KCAL/MOL
REMARK 923 INTER-LIGAND FREE ENERGY PREDICTED BY IDOCK:   -5.93 KCAL/MOL
REMARK 924 INTRA-LIGAND FREE ENERGY PREDICTED BY IDOCK:   -0.87 KCAL/MOL
REMARK 927      BINDING AFFINITY PREDICTED BY RF-SCORE:    0.00 PKD
ROOT
HETATM    1  C   UNL     1     -12.273  13.903  66.749  1.00  0.00    -0.438 C  
HETATM    2  C   UNL     1     -11.418  13.578  67.995  1.00  0.00    -0.342 C  
HETATM    3  C   UNL     1     -10.169  14.488  67.934  1.00  0.00    -0.231 C  
ENDROOT
BRANCH   2   4
HETATM    4  C   UNL     1     -12.193  14.004  69.232  1.00  0.00    -0.278 C  
HETATM    5  H2  UNL     1     -13.678  14.625  69.747  1.00  0.00     0.000 HD 
HETATM    6  N   UNL     1     -12.837  14.357  70.258  1.00  0.00    -0.490 NA 
HETATM    7  H1  UNL     1     -13.356  14.643  71.087  1.00  0.00     0.000 HD 
ENDBRANCH   2   4
BRANCH   2   8
HETATM    8  C   UNL     1     -11.139  12.079  68.048  1.00  0.00    -0.292 A  
HETATM    9  C   UNL     1     -11.011   9.973  69.313  1.00  0.00    -0.264 A  
HETATM   10  C   UNL     1     -11.292  11.350  69.231  1.00  0.00    -0.355 A  
HETATM   11  C   UNL     1     -10.549   9.328  68.152  1.00  0.00    -0.248 A  
HETATM   12  C   UNL     1     -10.685  11.395  66.907  1.00  0.00    -0.308 A  
HETATM   13  C   UNL     1     -10.363  10.032  66.950  1.00  0.00    -0.297 A  
BRANCH   9  14
HETATM   14  C   UNL     1     -11.197   9.270  70.672  1.00  0.00    -0.333 C  
HETATM   15  C   UNL     1     -11.589   7.843  70.461  1.00  0.00    -0.144 C  
HETATM   16  C   UNL     1      -9.857   9.303  71.445  1.00  0.00    -0.296 C  
HETATM   17  C   UNL     1     -12.273   9.919  71.557  1.00  0.00    -0.505 C  
HETATM   18  N   UNL     1     -11.874   6.730  70.294  1.00  0.00    -0.349 NA 
ENDBRANCH   9  14
BRANCH  13  19
HETATM   19  C   UNL     1      -9.751   9.362  65.741  1.00  0.00    -0.284 C  
BRANCH  19  20
HETATM   20  N   UNL     1      -8.310   9.201  65.812  1.00  0.00    -0.120 NA 
HETATM   21  C   UNL     1      -7.597   8.041  65.851  1.00  0.00    -0.086 A  
HETATM   22  N   UNL     1      -6.327   8.298  65.637  1.00  0.00    -0.048 NA 
HETATM   23  C   UNL     1      -6.311   9.651  65.461  1.00  0.00    -0.071 A  
HETATM   24  N   UNL     1      -7.499  10.252  65.563  1.00  0.00    -0.146 NA 
ENDBRANCH  19  20
ENDBRANCH  13  19
ENDBRANCH   2   8
TORSDOF 5
ENDMDL
MODEL      137
REMARK 921   NORMALIZED FREE ENERGY PREDICTED BY IDOCK:   -4.62 KCAL/MOL
REMARK 922        TOTAL FREE ENERGY PREDICTED BY IDOCK:   -6.76 KCAL/MOL
REMARK 923 INTER-LIGAND FREE ENERGY PREDICTED BY IDOCK:   -6.05 KCAL/MOL
REMARK 924 INTRA-LIGAND FREE ENERGY PREDICTED BY IDOCK:   -0.71 KCAL/MOL
REMARK 927      BINDING AFFINITY PREDICTED BY RF-SCORE:    0.00 PKD
ROOT
HETATM    1  C   UNL     1      -8.898   7.283  69.598  1.00  0.00    -0.141 C  
HETATM    2  C   UNL     1     -10.265   7.468  68.901  1.00  0.00    -0.214 C  
HETATM    3  C   UNL     1     -10.690   6.080  68.368  1.00  0.00    -0.351 C  
ENDROOT
BRANCH   2   4
HETATM    4  C   UNL     1     -11.292   7.850  69.956  1.00  0.00    -0.027 C  
HETATM    5  H2  UNL     1     -12.047   9.173  70.688  1.00  0.00     0.000 HD 
HETATM    6  N   UNL     1     -12.144   8.168  70.830  1.00  0.00    -0.491 NA 
HETATM    7  H1  UNL     1     -12.833   8.423  71.537  1.00  0.00     0.000 HD 
ENDBRANCH   2   4
BRANCH   2   8
HETATM    8  C   UNL     1     -10.161   8.573  67.854  1.00  0.00    -0.273 A  
HETATM    9  C   UNL     1      -9.241   9.434  65.742  1.00  0.00    -0.276 A  
HETATM   10  C   UNL     1      -9.377   8.419  66.707  1.00  0.00    -0.235 A  
HETATM   11  C   UNL     1      -9.919  10.645  65.964  1.00  0.00    -0.295 A  
HETATM   12  C   UNL     1     -10.832   9.796  68.035  1.00  0.00    -0.276 A  
HETATM   13  C   UNL     1     -10.700  10.844  67.116  1.00  0.00    -0.320 A  
BRANCH   9  14
HETATM   14  C   UNL     1      -8.336   9.165  64.523  1.00  0.00    -0.175 C  
HETATM   15  C   UNL     1      -7.004   9.813  64.721  1.00  0.00    -0.122 C  
HETATM   16  C   UNL     1      -8.124   7.638  64.381  1.00  0.00    -0.084 C  
HETATM   17  C   UNL     1      -8.914   9.689  63.200  1.00  0.00    -0.253 C  
HETATM   18  N   UNL     1      -5.964  10.302  64.885  1.00  0.00    -0.125 NA 
ENDBRANCH   9  14
BRANCH  13  19
HETATM   19  C   UNL     1     -11.326  12.189  67.410  1.00  0.00    -0.326 C  
BRANCH  19  20
HETATM   20  N   UNL     1     -11.490  13.039  66.245  1.00  0.00    -0.321 NA 
HETATM   21  C   UNL     1     -12.635  13.305  65.555  1.00  0.00    -0.446 A  
HETATM   22  N   UNL     1     -12.435  14.319  64.745  1.00  0.00    -0.608 NA 
HETATM   23  C   UNL     1     -11.134  14.653  64.983  1.00  0.00    -0.394 A  
HETATM   24  N   UNL     1     -10.510  13.897  65.889  1.00  0.00    -0.297 NA 
ENDBRANCH  19  20
ENDBRANCH  13  19
ENDBRANCH   2   8
TORSDOF 5
ENDMDL
MODEL      138
REMARK 921   NORMALIZED FREE ENERGY PREDICTED BY IDOCK:   -4.62 KCAL/MOL
REMARK 922        TOTAL FREE ENERGY PREDICTED BY IDOCK:   -6.76 KCAL/MOL
REMARK 923 INTER-LIGAND FREE ENERGY PREDICTED BY IDOCK:   -5.95 KCAL/MOL
REMARK 924 INTRA-LIGAND FREE ENERGY PREDICTED BY IDOCK:   -0.81 KCAL/MOL
REMARK 927      BINDING AFFINITY PREDICTED BY RF-SCORE:    0.00 PKD
ROOT
HETATM    1  C   UNL     1      -8.849   8.496  66.199  1.00  0.00    -0.200 C  
HETATM    2  C   UNL     1      -8.679   9.996  66.529  1.00  0.00    -0.142 C  
HETATM    3  C   UNL     1      -7.202  10.201  66.940  1.00  0.00    -0.092 C  
ENDROOT
BRANCH   2   4
HETATM    4  C   UNL     1      -8.877  10.794  65.249  1.00  0.00    -0.187 C  
HETATM    5  H2  UNL     1      -9.665  12.145  64.609  1.00  0.00     0.000 HD 
HETATM    6  N   UNL     1      -9.042  11.456  64.189  1.00  0.00    -0.404 NA 
HETATM    7  H1  UNL     1      -9.175  11.990  63.330  1.00  0.00     0.000 HD 
ENDBRANCH   2   4
BRANCH   2   8
HETATM    8  C   UNL     1      -9.715  10.414  67.566  1.00  0.00    -0.195 A  
HETATM    9  C   UNL     1     -10.979   9.959  69.628  1.00  0.00    -0.285 A  
HETATM   10  C   UNL     1     -10.005   9.611  68.673  1.00  0.00    -0.179 A  
HETATM   11  C   UNL     1     -11.683  11.161  69.436  1.00  0.00    -0.402 A  
HETATM   12  C   UNL     1     -10.435  11.614  67.417  1.00  0.00    -0.239 A  
HETATM   13  C   UNL     1     -11.434  11.985  68.326  1.00  0.00    -0.361 A  
BRANCH   9  14
HETATM   14  C   UNL     1     -11.231   8.990  70.800  1.00  0.00    -0.329 C  
HETATM   15  C   UNL     1      -9.997   8.867  71.635  1.00  0.00    -0.327 C  
HETATM   16  C   UNL     1     -12.369   9.554  71.684  1.00  0.00    -0.480 C  
HETATM   17  C   UNL     1     -11.631   7.576  70.354  1.00  0.00    -0.172 C  
HETATM   18  N   UNL     1      -9.044   8.787  72.293  1.00  0.00    -0.390 NA 
ENDBRANCH   9  14
BRANCH  13  19
HETATM   19  C   UNL     1     -12.278  13.211  68.060  1.00  0.00    -0.048 C  
BRANCH  19  20
HETATM   20  N   UNL     1     -11.788  14.422  68.693  1.00  0.00    -0.333 NA 
HETATM   21  C   UNL     1     -11.391  14.592  69.985  1.00  0.00    -0.224 A  
HETATM   22  N   UNL     1     -10.764  15.740  70.106  1.00  0.00    -0.331 NA 
HETATM   23  C   UNL     1     -10.794  16.243  68.838  1.00  0.00    -0.317 A  
HETATM   24  N   UNL     1     -11.413  15.477  67.937  1.00  0.00    -0.311 NA 
ENDBRANCH  19  20
ENDBRANCH  13  19
ENDBRANCH   2   8
TORSDOF 5
ENDMDL
MODEL      139
REMARK 921   NORMALIZED FREE ENERGY PREDICTED BY IDOCK:   -4.60 KCAL/MOL
REMARK 922        TOTAL FREE ENERGY PREDICTED BY IDOCK:   -6.74 KCAL/MOL
REMARK 923 INTER-LIGAND FREE ENERGY PREDICTED BY IDOCK:   -5.92 KCAL/MOL
REMARK 924 INTRA-LIGAND FREE ENERGY PREDICTED BY IDOCK:   -0.82 KCAL/MOL
REMARK 927      BINDING AFFINITY PREDICTED BY RF-SCORE:    0.00 PKD
ROOT
HETATM    1  C   UNL     1      -7.215  16.764  66.679  1.00  0.00    -0.289 C  
HETATM    2  C   UNL     1      -7.999  15.951  67.734  1.00  0.00    -0.154 C  
HETATM    3  C   UNL     1      -7.009  15.626  68.878  1.00  0.00    -0.130 C  
ENDROOT
BRANCH   2   4
HETATM    4  C   UNL     1      -9.064  16.851  68.339  1.00  0.00    -0.243 C  
HETATM    5  H2  UNL     1      -9.526  17.623  69.770  1.00  0.00     0.000 HD 
HETATM    6  N   UNL     1      -9.948  17.598  68.842  1.00  0.00    -0.340 NA 
HETATM    7  H1  UNL     1     -10.662  18.201  69.248  1.00  0.00     0.000 HD 
ENDBRANCH   2   4
BRANCH   2   8
HETATM    8  C   UNL     1      -8.654  14.745  67.069  1.00  0.00    -0.260 A  
HETATM    9  C   UNL     1     -10.455  13.777  65.700  1.00  0.00    -0.312 A  
HETATM   10  C   UNL     1      -9.814  14.878  66.299  1.00  0.00    -0.315 A  
HETATM   11  C   UNL     1      -9.897  12.503  65.905  1.00  0.00    -0.257 A  
HETATM   12  C   UNL     1      -8.122  13.455  67.241  1.00  0.00    -0.147 A  
HETATM   13  C   UNL     1      -8.744  12.328  66.690  1.00  0.00    -0.132 A  
BRANCH   9  14
HETATM   14  C   UNL     1     -11.738  14.034  64.886  1.00  0.00    -0.385 C  
HETATM   15  C   UNL     1     -11.754  15.444  64.390  1.00  0.00    -0.258 C  
HETATM   16  C   UNL     1     -11.761  13.083  63.666  1.00  0.00    -0.550 C  
HETATM   17  C   UNL     1     -13.030  13.811  65.687  1.00  0.00    -0.346 C  
HETATM   18  N   UNL     1     -11.756  16.534  63.989  1.00  0.00    -1.064 NA 
ENDBRANCH   9  14
BRANCH  13  19
HETATM   19  C   UNL     1      -8.221  10.945  67.008  1.00  0.00    -0.134 C  
BRANCH  19  20
HETATM   20  N   UNL     1      -7.503  10.312  65.917  1.00  0.00    -0.129 NA 
HETATM   21  C   UNL     1      -8.012   9.546  64.911  1.00  0.00    -0.121 A  
HETATM   22  N   UNL     1      -7.103   9.385  63.977  1.00  0.00    -0.099 NA 
HETATM   23  C   UNL     1      -6.038  10.090  64.458  1.00  0.00    -0.125 A  
HETATM   24  N   UNL     1      -6.231  10.673  65.644  1.00  0.00    -0.131 NA 
ENDBRANCH  19  20
ENDBRANCH  13  19
ENDBRANCH   2   8
TORSDOF 5
ENDMDL
MODEL      140
REMARK 921   NORMALIZED FREE ENERGY PREDICTED BY IDOCK:   -4.59 KCAL/MOL
REMARK 922        TOTAL FREE ENERGY PREDICTED BY IDOCK:   -6.73 KCAL/MOL
REMARK 923 INTER-LIGAND FREE ENERGY PREDICTED BY IDOCK:   -6.07 KCAL/MOL
REMARK 924 INTRA-LIGAND FREE ENERGY PREDICTED BY IDOCK:   -0.66 KCAL/MOL
REMARK 927      BINDING AFFINITY PREDICTED BY RF-SCORE:    0.00 PKD
ROOT
HETATM    1  C   UNL     1      -7.114  13.617  68.830  1.00  0.00    -0.102 C  
HETATM    2  C   UNL     1      -7.300  12.131  68.447  1.00  0.00    -0.108 C  
HETATM    3  C   UNL     1      -6.190  11.787  67.427  1.00  0.00    -0.108 C  
ENDROOT
BRANCH   2   4
HETATM    4  C   UNL     1      -7.024  11.281  69.677  1.00  0.00    -0.056 C  
HETATM    5  H2  UNL     1      -6.733   9.695  70.183  1.00  0.00     0.000 HD 
HETATM    6  N   UNL     1      -6.794  10.574  70.696  1.00  0.00    -0.447 NA 
HETATM    7  H1  UNL     1      -6.609  10.004  71.521  1.00  0.00     0.000 HD 
ENDBRANCH   2   4
BRANCH   2   8
HETATM    8  C   UNL     1      -8.729  11.901  67.968  1.00  0.00    -0.173 A  
HETATM    9  C   UNL     1     -10.464  12.119  66.236  1.00  0.00    -0.270 A  
HETATM   10  C   UNL     1      -9.143  12.293  66.691  1.00  0.00    -0.203 A  
HETATM   11  C   UNL     1     -11.389  11.538  67.119  1.00  0.00    -0.354 A  
HETATM   12  C   UNL     1      -9.684  11.313  68.817  1.00  0.00    -0.184 A  
HETATM   13  C   UNL     1     -11.016  11.149  68.418  1.00  0.00    -0.277 A  
BRANCH   9  14
HETATM   14  C   UNL     1     -10.815  12.604  64.816  1.00  0.00    -0.332 C  
HETATM   15  C   UNL     1     -12.249  12.309  64.515  1.00  0.00    -0.388 C  
HETATM   16  C   UNL     1     -10.601  14.135  64.738  1.00  0.00    -0.439 C  
HETATM   17  C   UNL     1      -9.967  11.949  63.714  1.00  0.00    -0.379 C  
HETATM   18  N   UNL     1     -13.369  12.097  64.291  1.00  0.00    -0.647 NA 
ENDBRANCH   9  14
BRANCH  13  19
HETATM   19  C   UNL     1     -12.043  10.639  69.403  1.00  0.00    -0.178 C  
BRANCH  19  20
HETATM   20  N   UNL     1     -11.530   9.664  70.349  1.00  0.00    -0.265 NA 
HETATM   21  C   UNL     1     -11.739   9.611  71.694  1.00  0.00    -0.369 A  
HETATM   22  N   UNL     1     -11.344   8.446  72.155  1.00  0.00    -0.341 NA 
HETATM   23  C   UNL     1     -10.901   7.805  71.035  1.00  0.00    -0.239 A  
HETATM   24  N   UNL     1     -10.990   8.509  69.904  1.00  0.00    -0.210 NA 
ENDBRANCH  19  20
ENDBRANCH  13  19
ENDBRANCH   2   8
TORSDOF 5
ENDMDL
MODEL      141
REMARK 921   NORMALIZED FREE ENERGY PREDICTED BY IDOCK:   -4.59 KCAL/MOL
REMARK 922        TOTAL FREE ENERGY PREDICTED BY IDOCK:   -6.72 KCAL/MOL
REMARK 923 INTER-LIGAND FREE ENERGY PREDICTED BY IDOCK:   -5.90 KCAL/MOL
REMARK 924 INTRA-LIGAND FREE ENERGY PREDICTED BY IDOCK:   -0.81 KCAL/MOL
REMARK 927      BINDING AFFINITY PREDICTED BY RF-SCORE:    0.00 PKD
ROOT
HETATM    1  C   UNL     1      -8.949  16.155  66.952  1.00  0.00    -0.248 C  
HETATM    2  C   UNL     1      -9.442  15.273  68.122  1.00  0.00    -0.203 C  
HETATM    3  C   UNL     1      -8.251  15.109  69.095  1.00  0.00    -0.214 C  
ENDROOT
BRANCH   2   4
HETATM    4  C   UNL     1     -10.509  16.042  68.885  1.00  0.00    -0.245 C  
HETATM    5  H2  UNL     1     -11.542  17.376  68.785  1.00  0.00     0.000 HD 
HETATM    6  N   UNL     1     -11.395  16.681  69.516  1.00  0.00    -0.287 NA 
HETATM    7  H1  UNL     1     -12.110  17.196  70.028  1.00  0.00     0.000 HD 
ENDBRANCH   2   4
BRANCH   2   8
HETATM    8  C   UNL     1     -10.029  13.976  67.574  1.00  0.00    -0.236 A  
HETATM    9  C   UNL     1     -11.097  12.716  65.751  1.00  0.00    -0.332 A  
HETATM   10  C   UNL     1     -10.523  13.892  66.270  1.00  0.00    -0.287 A  
HETATM   11  C   UNL     1     -11.176  11.597  66.598  1.00  0.00    -0.362 A  
HETATM   12  C   UNL     1     -10.117  12.831  68.387  1.00  0.00    -0.226 A  
HETATM   13  C   UNL     1     -10.708  11.649  67.923  1.00  0.00    -0.241 A  
BRANCH   9  14
HETATM   14  C   UNL     1     -11.627  12.740  64.304  1.00  0.00    -0.433 C  
HETATM   15  C   UNL     1     -12.146  14.102  63.972  1.00  0.00    -0.348 C  
HETATM   16  C   UNL     1     -10.466  12.406  63.336  1.00  0.00    -0.353 C  
HETATM   17  C   UNL     1     -12.763  11.737  64.048  1.00  0.00    -0.247 C  
HETATM   18  N   UNL     1     -12.530  15.165  63.709  1.00  0.00    -0.622 NA 
ENDBRANCH   9  14
BRANCH  13  19
HETATM   19  C   UNL     1     -10.906  10.484  68.865  1.00  0.00    -0.235 C  
BRANCH  19  20
HETATM   20  N   UNL     1     -10.053   9.342  68.592  1.00  0.00    -0.182 NA 
HETATM   21  C   UNL     1      -8.828   9.065  69.121  1.00  0.00    -0.142 A  
HETATM   22  N   UNL     1      -8.499   7.824  68.843  1.00  0.00    -0.128 NA 
HETATM   23  C   UNL     1      -9.575   7.370  68.139  1.00  0.00    -0.142 A  
HETATM   24  N   UNL     1     -10.552   8.261  67.954  1.00  0.00    -0.189 NA 
ENDBRANCH  19  20
ENDBRANCH  13  19
ENDBRANCH   2   8
TORSDOF 5
ENDMDL
MODEL      142
REMARK 921   NORMALIZED FREE ENERGY PREDICTED BY IDOCK:   -4.57 KCAL/MOL
REMARK 922        TOTAL FREE ENERGY PREDICTED BY IDOCK:   -6.70 KCAL/MOL
REMARK 923 INTER-LIGAND FREE ENERGY PREDICTED BY IDOCK:   -5.89 KCAL/MOL
REMARK 924 INTRA-LIGAND FREE ENERGY PREDICTED BY IDOCK:   -0.81 KCAL/MOL
REMARK 927      BINDING AFFINITY PREDICTED BY RF-SCORE:    0.00 PKD
ROOT
HETATM    1  C   UNL     1     -11.943  10.184  71.193  1.00  0.00    -0.480 C  
HETATM    2  C   UNL     1     -11.363   8.754  71.098  1.00  0.00    -0.345 C  
HETATM    3  C   UNL     1     -10.342   8.607  72.251  1.00  0.00    -0.376 C  
ENDROOT
BRANCH   2   4
HETATM    4  C   UNL     1     -12.478   7.763  71.390  1.00  0.00    -0.320 C  
HETATM    5  H2  UNL     1     -13.282   6.967  72.646  1.00  0.00     0.000 HD 
HETATM    6  N   UNL     1     -13.403   6.941  71.633  1.00  0.00    -0.379 NA 
HETATM    7  H1  UNL     1     -14.151   6.276  71.829  1.00  0.00     0.000 HD 
ENDBRANCH   2   4
BRANCH   2   8
HETATM    8  C   UNL     1     -10.811   8.518  69.696  1.00  0.00    -0.157 A  
HETATM    9  C   UNL     1      -9.926   6.996  67.977  1.00  0.00    -0.178 A  
HETATM   10  C   UNL     1     -10.465   7.237  69.255  1.00  0.00    -0.221 A  
HETATM   11  C   UNL     1      -9.725   8.101  67.132  1.00  0.00    -0.259 A  
HETATM   12  C   UNL     1     -10.604   9.595  68.817  1.00  0.00    -0.242 A  
HETATM   13  C   UNL     1     -10.041   9.406  67.548  1.00  0.00    -0.268 A  
BRANCH   9  14
HETATM   14  C   UNL     1      -9.563   5.546  67.600  1.00  0.00    -0.133 C  
HETATM   15  C   UNL     1     -10.387   5.100  66.435  1.00  0.00    -0.288 C  
HETATM   16  C   UNL     1      -8.070   5.488  67.198  1.00  0.00    -0.101 C  
HETATM   17  C   UNL     1      -9.789   4.540  68.738  1.00  0.00    -0.180 C  
HETATM   18  N   UNL     1     -11.013   4.762  65.517  1.00  0.00    -0.114 NA 
ENDBRANCH   9  14
BRANCH  13  19
HETATM   19  C   UNL     1      -9.709  10.601  66.684  1.00  0.00    -0.184 C  
BRANCH  19  20
HETATM   20  N   UNL     1     -10.448  11.805  67.019  1.00  0.00    -0.214 NA 
HETATM   21  C   UNL     1      -9.976  12.944  67.600  1.00  0.00    -0.218 A  
HETATM   22  N   UNL     1     -10.873  13.897  67.491  1.00  0.00    -0.264 NA 
HETATM   23  C   UNL     1     -11.891  13.288  66.817  1.00  0.00    -0.394 A  
HETATM   24  N   UNL     1     -11.682  12.006  66.509  1.00  0.00    -0.575 NA 
ENDBRANCH  19  20
ENDBRANCH  13  19
ENDBRANCH   2   8
TORSDOF 5
ENDMDL
MODEL      143
REMARK 921   NORMALIZED FREE ENERGY PREDICTED BY IDOCK:   -4.57 KCAL/MOL
REMARK 922        TOTAL FREE ENERGY PREDICTED BY IDOCK:   -6.70 KCAL/MOL
REMARK 923 INTER-LIGAND FREE ENERGY PREDICTED BY IDOCK:   -6.04 KCAL/MOL
REMARK 924 INTRA-LIGAND FREE ENERGY PREDICTED BY IDOCK:   -0.66 KCAL/MOL
REMARK 927      BINDING AFFINITY PREDICTED BY RF-SCORE:    0.00 PKD
ROOT
HETATM    1  C   UNL     1     -12.783  13.130  65.310  1.00  0.00    -0.457 C  
HETATM    2  C   UNL     1     -11.439  13.591  64.701  1.00  0.00    -0.381 C  
HETATM    3  C   UNL     1     -11.255  12.811  63.377  1.00  0.00    -0.325 C  
ENDROOT
BRANCH   2   4
HETATM    4  C   UNL     1     -11.564  15.056  64.316  1.00  0.00    -0.181 C  
HETATM    5  H2  UNL     1     -10.662  16.445  63.980  1.00  0.00     0.000 HD 
HETATM    6  N   UNL     1     -11.667  16.272  63.997  1.00  0.00    -1.427 NA 
HETATM    7  H1  UNL     1     -11.751  17.255  63.739  1.00  0.00     0.000 HD 
ENDBRANCH   2   4
BRANCH   2   8
HETATM    8  C   UNL     1     -10.325  13.417  65.728  1.00  0.00    -0.296 A  
HETATM    9  C   UNL     1      -8.757  14.377  67.363  1.00  0.00    -0.214 A  
HETATM   10  C   UNL     1      -9.806  14.506  66.433  1.00  0.00    -0.306 A  
HETATM   11  C   UNL     1      -8.218  13.095  67.567  1.00  0.00    -0.183 A  
HETATM   12  C   UNL     1      -9.764  12.149  65.968  1.00  0.00    -0.258 A  
HETATM   13  C   UNL     1      -8.699  11.979  66.861  1.00  0.00    -0.193 A  
BRANCH   9  14
HETATM   14  C   UNL     1      -8.250  15.648  68.072  1.00  0.00    -0.146 C  
HETATM   15  C   UNL     1      -8.016  16.733  67.071  1.00  0.00    -0.197 C  
HETATM   16  C   UNL     1      -9.326  16.128  69.076  1.00  0.00    -0.248 C  
HETATM   17  C   UNL     1      -6.939  15.440  68.845  1.00  0.00    -0.127 C  
HETATM   18  N   UNL     1      -7.853  17.581  66.295  1.00  0.00    -0.372 NA 
ENDBRANCH   9  14
BRANCH  13  19
HETATM   19  C   UNL     1      -8.034  10.627  66.994  1.00  0.00    -0.121 C  
BRANCH  19  20
HETATM   20  N   UNL     1      -7.448  10.126  65.764  1.00  0.00    -0.125 NA 
HETATM   21  C   UNL     1      -8.091   9.619  64.674  1.00  0.00    -0.141 A  
HETATM   22  N   UNL     1      -7.250   9.529  63.670  1.00  0.00    -0.102 NA 
HETATM   23  C   UNL     1      -6.087  10.009  64.197  1.00  0.00    -0.132 A  
HETATM   24  N   UNL     1      -6.154  10.384  65.476  1.00  0.00    -0.113 NA 
ENDBRANCH  19  20
ENDBRANCH  13  19
ENDBRANCH   2   8
TORSDOF 5
ENDMDL
MODEL      144
REMARK 921   NORMALIZED FREE ENERGY PREDICTED BY IDOCK:   -4.57 KCAL/MOL
REMARK 922        TOTAL FREE ENERGY PREDICTED BY IDOCK:   -6.70 KCAL/MOL
REMARK 923 INTER-LIGAND FREE ENERGY PREDICTED BY IDOCK:   -5.83 KCAL/MOL
REMARK 924 INTRA-LIGAND FREE ENERGY PREDICTED BY IDOCK:   -0.86 KCAL/MOL
REMARK 927      BINDING AFFINITY PREDICTED BY RF-SCORE:    0.00 PKD
ROOT
HETATM    1  C   UNL     1      -6.924  15.752  67.273  1.00  0.00    -0.232 C  
HETATM    2  C   UNL     1      -8.423  15.540  67.590  1.00  0.00    -0.177 C  
HETATM    3  C   UNL     1      -8.738  16.377  68.853  1.00  0.00    -0.253 C  
ENDROOT
BRANCH   2   4
HETATM    4  C   UNL     1      -9.242  16.148  66.463  1.00  0.00    -0.272 C  
HETATM    5  H2  UNL     1     -10.302  17.412  66.095  1.00  0.00     0.000 HD 
HETATM    6  N   UNL     1      -9.922  16.653  65.529  1.00  0.00    -0.573 NA 
HETATM    7  H1  UNL     1     -10.472  17.061  64.773  1.00  0.00     0.000 HD 
ENDBRANCH   2   4
BRANCH   2   8
HETATM    8  C   UNL     1      -8.717  14.047  67.699  1.00  0.00    -0.189 A  
HETATM    9  C   UNL     1      -7.979  11.755  68.205  1.00  0.00    -0.147 A  
HETATM   10  C   UNL     1      -7.742  13.141  68.126  1.00  0.00    -0.143 A  
HETATM   11  C   UNL     1      -9.249  11.286  67.827  1.00  0.00    -0.156 A  
HETATM   12  C   UNL     1      -9.977  13.538  67.340  1.00  0.00    -0.234 A  
HETATM   13  C   UNL     1     -10.248  12.164  67.374  1.00  0.00    -0.211 A  
BRANCH   9  14
HETATM   14  C   UNL     1      -6.827  10.844  68.672  1.00  0.00    -0.062 C  
HETATM   15  C   UNL     1      -6.204  11.401  69.911  1.00  0.00    -0.143 C  
HETATM   16  C   UNL     1      -7.393   9.440  68.995  1.00  0.00    -0.072 C  
HETATM   17  C   UNL     1      -5.712  10.678  67.628  1.00  0.00    -0.043 C  
HETATM   18  N   UNL     1      -5.733  11.826  70.884  1.00  0.00    -0.348 NA 
ENDBRANCH   9  14
BRANCH  13  19
HETATM   19  C   UNL     1     -11.567  11.641  66.853  1.00  0.00    -0.167 C  
BRANCH  19  20
HETATM   20  N   UNL     1     -11.912  12.109  65.523  1.00  0.00    -0.487 NA 
HETATM   21  C   UNL     1     -12.783  13.100  65.182  1.00  0.00    -0.405 A  
HETATM   22  N   UNL     1     -12.622  13.412  63.916  1.00  0.00    -0.693 NA 
HETATM   23  C   UNL     1     -11.619  12.578  63.518  1.00  0.00    -0.508 A  
HETATM   24  N   UNL     1     -11.153  11.757  64.463  1.00  0.00    -0.319 NA 
ENDBRANCH  19  20
ENDBRANCH  13  19
ENDBRANCH   2   8
TORSDOF 5
ENDMDL
MODEL      145
REMARK 921   NORMALIZED FREE ENERGY PREDICTED BY IDOCK:   -4.56 KCAL/MOL
REMARK 922        TOTAL FREE ENERGY PREDICTED BY IDOCK:   -6.68 KCAL/MOL
REMARK 923 INTER-LIGAND FREE ENERGY PREDICTED BY IDOCK:   -5.86 KCAL/MOL
REMARK 924 INTRA-LIGAND FREE ENERGY PREDICTED BY IDOCK:   -0.82 KCAL/MOL
REMARK 927      BINDING AFFINITY PREDICTED BY RF-SCORE:    0.00 PKD
ROOT
HETATM    1  C   UNL     1     -12.160  13.076  67.595  1.00  0.00    -0.262 C  
HETATM    2  C   UNL     1     -11.343  12.431  66.452  1.00  0.00    -0.392 C  
HETATM    3  C   UNL     1     -12.255  12.409  65.203  1.00  0.00    -0.449 C  
ENDROOT
BRANCH   2   4
HETATM    4  C   UNL     1     -10.183  13.354  66.113  1.00  0.00    -0.301 C  
HETATM    5  H2  UNL     1      -8.772  13.465  65.189  1.00  0.00     0.000 HD 
HETATM    6  N   UNL     1      -9.220  14.119  65.831  1.00  0.00    -0.506 NA 
HETATM    7  H1  UNL     1      -8.442  14.738  65.604  1.00  0.00     0.000 HD 
ENDBRANCH   2   4
BRANCH   2   8
HETATM    8  C   UNL     1     -10.812  11.075  66.903  1.00  0.00    -0.324 A  
HETATM    9  C   UNL     1     -10.469   9.393  68.667  1.00  0.00    -0.236 A  
HETATM   10  C   UNL     1     -10.977  10.627  68.217  1.00  0.00    -0.314 A  
HETATM   11  C   UNL     1      -9.764   8.601  67.744  1.00  0.00    -0.202 A  
HETATM   12  C   UNL     1     -10.109  10.247  66.009  1.00  0.00    -0.311 A  
HETATM   13  C   UNL     1      -9.561   9.026  66.420  1.00  0.00    -0.309 A  
BRANCH   9  14
HETATM   14  C   UNL     1     -10.693   9.006  70.142  1.00  0.00    -0.258 C  
HETATM   15  C   UNL     1     -11.719   9.903  70.755  1.00  0.00    -0.341 C  
HETATM   16  C   UNL     1     -11.211   7.549  70.208  1.00  0.00    -0.253 C  
HETATM   17  C   UNL     1      -9.424   9.099  71.002  1.00  0.00    -0.344 C  
HETATM   18  N   UNL     1     -12.530  10.589  71.225  1.00  0.00    -0.389 NA 
ENDBRANCH   9  14
BRANCH  13  19
HETATM   19  C   UNL     1      -8.698   8.228  65.470  1.00  0.00    -0.140 C  
BRANCH  19  20
HETATM   20  N   UNL     1      -7.541   8.946  64.966  1.00  0.00    -0.097 NA 
HETATM   21  C   UNL     1      -7.378   9.517  63.740  1.00  0.00    -0.113 A  
HETATM   22  N   UNL     1      -6.323  10.299  63.755  1.00  0.00    -0.128 NA 
HETATM   23  C   UNL     1      -5.870  10.180  65.037  1.00  0.00    -0.120 A  
HETATM   24  N   UNL     1      -6.578   9.360  65.817  1.00  0.00    -0.072 NA 
ENDBRANCH  19  20
ENDBRANCH  13  19
ENDBRANCH   2   8
TORSDOF 5
ENDMDL
MODEL      146
REMARK 921   NORMALIZED FREE ENERGY PREDICTED BY IDOCK:   -4.56 KCAL/MOL
REMARK 922        TOTAL FREE ENERGY PREDICTED BY IDOCK:   -6.68 KCAL/MOL
REMARK 923 INTER-LIGAND FREE ENERGY PREDICTED BY IDOCK:   -5.99 KCAL/MOL
REMARK 924 INTRA-LIGAND FREE ENERGY PREDICTED BY IDOCK:   -0.69 KCAL/MOL
REMARK 927      BINDING AFFINITY PREDICTED BY RF-SCORE:    0.00 PKD
ROOT
HETATM    1  C   UNL     1      -9.130   9.910  62.670  1.00  0.00    -0.304 C  
HETATM    2  C   UNL     1      -8.427   9.359  63.931  1.00  0.00    -0.204 C  
HETATM    3  C   UNL     1      -8.138   7.862  63.667  1.00  0.00    -0.074 C  
ENDROOT
BRANCH   2   4
HETATM    4  C   UNL     1      -7.072  10.036  64.060  1.00  0.00    -0.126 C  
HETATM    5  H2  UNL     1      -5.915  10.535  65.186  1.00  0.00     0.000 HD 
HETATM    6  N   UNL     1      -5.948  10.597  64.169  1.00  0.00    -0.369 NA 
HETATM    7  H1  UNL     1      -5.039  11.051  64.255  1.00  0.00     0.000 HD 
ENDBRANCH   2   4
BRANCH   2   8
HETATM    8  C   UNL     1      -9.276   9.658  65.162  1.00  0.00    -0.305 A  
HETATM    9  C   UNL     1     -10.513  11.253  66.569  1.00  0.00    -0.299 A  
HETATM   10  C   UNL     1      -9.754  10.945  65.424  1.00  0.00    -0.287 A  
HETATM   11  C   UNL     1     -10.781  10.213  67.476  1.00  0.00    -0.347 A  
HETATM   12  C   UNL     1      -9.575   8.643  66.090  1.00  0.00    -0.305 A  
HETATM   13  C   UNL     1     -10.300   8.911  67.258  1.00  0.00    -0.350 A  
BRANCH   9  14
HETATM   14  C   UNL     1     -10.974  12.710  66.768  1.00  0.00    -0.296 C  
HETATM   15  C   UNL     1     -12.062  13.039  65.798  1.00  0.00    -0.454 C  
HETATM   16  C   UNL     1     -11.530  12.872  68.204  1.00  0.00    -0.354 C  
HETATM   17  C   UNL     1      -9.853  13.743  66.574  1.00  0.00    -0.294 C  
HETATM   18  N   UNL     1     -12.921  13.287  65.056  1.00  0.00    -0.732 NA 
ENDBRANCH   9  14
BRANCH  13  19
HETATM   19  C   UNL     1     -10.487   7.827  68.295  1.00  0.00    -0.168 C  
BRANCH  19  20
HETATM   20  N   UNL     1     -10.099   6.501  67.851  1.00  0.00    -0.137 NA 
HETATM   21  C   UNL     1      -9.134   5.691  68.370  1.00  0.00    -0.117 A  
HETATM   22  N   UNL     1      -9.266   4.480  67.880  1.00  0.00    -0.124 NA 
HETATM   23  C   UNL     1     -10.349   4.595  67.059  1.00  0.00    -0.059 A  
HETATM   24  N   UNL     1     -10.893   5.813  67.003  1.00  0.00    -0.285 NA 
ENDBRANCH  19  20
ENDBRANCH  13  19
ENDBRANCH   2   8
TORSDOF 5
ENDMDL
MODEL      147
REMARK 921   NORMALIZED FREE ENERGY PREDICTED BY IDOCK:   -4.54 KCAL/MOL
REMARK 922        TOTAL FREE ENERGY PREDICTED BY IDOCK:   -6.66 KCAL/MOL
REMARK 923 INTER-LIGAND FREE ENERGY PREDICTED BY IDOCK:   -5.76 KCAL/MOL
REMARK 924 INTRA-LIGAND FREE ENERGY PREDICTED BY IDOCK:   -0.90 KCAL/MOL
REMARK 927      BINDING AFFINITY PREDICTED BY RF-SCORE:    0.00 PKD
ROOT
HETATM    1  C   UNL     1     -12.247  10.119  71.488  1.00  0.00    -0.473 C  
HETATM    2  C   UNL     1     -11.210   9.310  70.676  1.00  0.00    -0.333 C  
HETATM    3  C   UNL     1      -9.996   9.073  71.606  1.00  0.00    -0.383 C  
ENDROOT
BRANCH   2   4
HETATM    4  C   UNL     1     -11.795   7.938  70.384  1.00  0.00     0.073 C  
HETATM    5  H2  UNL     1     -11.423   6.424  69.731  1.00  0.00     0.000 HD 
HETATM    6  N   UNL     1     -12.278   6.799  70.141  1.00  0.00    -0.605 NA 
HETATM    7  H1  UNL     1     -12.671   5.878  69.945  1.00  0.00     0.000 HD 
ENDBRANCH   2   4
BRANCH   2   8
HETATM    8  C   UNL     1     -10.906  10.034  69.368  1.00  0.00    -0.270 A  
HETATM    9  C   UNL     1     -10.957  12.073  67.992  1.00  0.00    -0.267 A  
HETATM   10  C   UNL     1     -11.200  11.390  69.199  1.00  0.00    -0.335 A  
HETATM   11  C   UNL     1     -10.407  11.342  66.925  1.00  0.00    -0.272 A  
HETATM   12  C   UNL     1     -10.347   9.341  68.280  1.00  0.00    -0.257 A  
HETATM   13  C   UNL     1     -10.117   9.972  67.051  1.00  0.00    -0.274 A  
BRANCH   9  14
HETATM   14  C   UNL     1     -11.336  13.565  67.909  1.00  0.00    -0.320 C  
HETATM   15  C   UNL     1     -10.101  14.402  67.821  1.00  0.00    -0.226 C  
HETATM   16  C   UNL     1     -12.183  13.800  66.635  1.00  0.00    -0.454 C  
HETATM   17  C   UNL     1     -12.147  14.062  69.117  1.00  0.00    -0.375 C  
HETATM   18  N   UNL     1      -9.141  15.049  67.733  1.00  0.00    -0.178 NA 
ENDBRANCH   9  14
BRANCH  13  19
HETATM   19  C   UNL     1      -9.642   9.165  65.864  1.00  0.00    -0.273 C  
BRANCH  19  20
HETATM   20  N   UNL     1      -8.706   8.107  66.197  1.00  0.00    -0.147 NA 
HETATM   21  C   UNL     1      -8.901   6.760  66.124  1.00  0.00    -0.148 A  
HETATM   22  N   UNL     1      -7.749   6.141  66.244  1.00  0.00    -0.097 NA 
HETATM   23  C   UNL     1      -6.860   7.168  66.381  1.00  0.00    -0.061 A  
HETATM   24  N   UNL     1      -7.396   8.390  66.363  1.00  0.00    -0.082 NA 
ENDBRANCH  19  20
ENDBRANCH  13  19
ENDBRANCH   2   8
TORSDOF 5
ENDMDL
MODEL      148
REMARK 921   NORMALIZED FREE ENERGY PREDICTED BY IDOCK:   -4.52 KCAL/MOL
REMARK 922        TOTAL FREE ENERGY PREDICTED BY IDOCK:   -6.63 KCAL/MOL
REMARK 923 INTER-LIGAND FREE ENERGY PREDICTED BY IDOCK:   -5.74 KCAL/MOL
REMARK 924 INTRA-LIGAND FREE ENERGY PREDICTED BY IDOCK:   -0.89 KCAL/MOL
REMARK 927      BINDING AFFINITY PREDICTED BY RF-SCORE:    0.00 PKD
ROOT
HETATM    1  C   UNL     1     -12.931   7.208  71.339  1.00  0.00    -0.419 C  
HETATM    2  C   UNL     1     -11.391   7.271  71.222  1.00  0.00    -0.290 C  
HETATM    3  C   UNL     1     -10.908   8.357  72.211  1.00  0.00    -0.422 C  
ENDROOT
BRANCH   2   4
HETATM    4  C   UNL     1     -10.818   5.955  71.724  1.00  0.00    -0.260 C  
HETATM    5  H2  UNL     1      -9.370   5.116  71.958  1.00  0.00     0.000 HD 
HETATM    6  N   UNL     1     -10.341   4.864  72.140  1.00  0.00    -0.199 NA 
HETATM    7  H1  UNL     1      -9.957   3.982  72.477  1.00  0.00     0.000 HD 
ENDBRANCH   2   4
BRANCH   2   8
HETATM    8  C   UNL     1     -10.997   7.486  69.764  1.00  0.00    -0.195 A  
HETATM    9  C   UNL     1     -10.295   8.978  67.938  1.00  0.00    -0.290 A  
HETATM   10  C   UNL     1     -10.633   8.748  69.285  1.00  0.00    -0.210 A  
HETATM   11  C   UNL     1     -10.342   7.886  67.055  1.00  0.00    -0.411 A  
HETATM   12  C   UNL     1     -11.022   6.417  68.850  1.00  0.00    -0.412 A  
HETATM   13  C   UNL     1     -10.723   6.606  67.495  1.00  0.00    -0.387 A  
BRANCH   9  14
HETATM   14  C   UNL     1      -9.925  10.413  67.514  1.00  0.00    -0.215 C  
HETATM   15  C   UNL     1     -11.141  11.282  67.535  1.00  0.00    -0.286 C  
HETATM   16  C   UNL     1      -8.895  10.986  68.518  1.00  0.00    -0.159 C  
HETATM   17  C   UNL     1      -9.317  10.502  66.106  1.00  0.00    -0.210 C  
HETATM   18  N   UNL     1     -12.084  11.959  67.570  1.00  0.00    -0.528 NA 
ENDBRANCH   9  14
BRANCH  13  19
HETATM   19  C   UNL     1     -10.891   5.465  66.518  1.00  0.00    -0.148 C  
BRANCH  19  20
HETATM   20  N   UNL     1      -9.696   4.665  66.322  1.00  0.00    -0.181 NA 
HETATM   21  C   UNL     1      -9.358   3.497  66.938  1.00  0.00    -0.188 A  
HETATM   22  N   UNL     1      -8.349   2.943  66.306  1.00  0.00    -0.089 NA 
HETATM   23  C   UNL     1      -8.105   3.817  65.287  1.00  0.00    -0.097 A  
HETATM   24  N   UNL     1      -8.899   4.890  65.255  1.00  0.00    -0.148 NA 
ENDBRANCH  19  20
ENDBRANCH  13  19
ENDBRANCH   2   8
TORSDOF 5
ENDMDL
MODEL      149
REMARK 921   NORMALIZED FREE ENERGY PREDICTED BY IDOCK:   -4.52 KCAL/MOL
REMARK 922        TOTAL FREE ENERGY PREDICTED BY IDOCK:   -6.63 KCAL/MOL
REMARK 923 INTER-LIGAND FREE ENERGY PREDICTED BY IDOCK:   -5.71 KCAL/MOL
REMARK 924 INTRA-LIGAND FREE ENERGY PREDICTED BY IDOCK:   -0.92 KCAL/MOL
REMARK 927      BINDING AFFINITY PREDICTED BY RF-SCORE:    0.00 PKD
ROOT
HETATM    1  C   UNL     1     -10.474  12.684  66.276  1.00  0.00    -0.270 C  
HETATM    2  C   UNL     1     -10.670  14.204  66.478  1.00  0.00    -0.289 C  
HETATM    3  C   UNL     1     -11.328  14.748  65.188  1.00  0.00    -0.379 C  
ENDROOT
BRANCH   2   4
HETATM    4  C   UNL     1     -11.683  14.413  67.592  1.00  0.00    -0.391 C  
HETATM    5  H2  UNL     1     -12.937  13.657  68.436  1.00  0.00     0.000 HD 
HETATM    6  N   UNL     1     -12.523  14.586  68.516  1.00  0.00    -0.548 NA 
HETATM    7  H1  UNL     1     -13.203  14.726  69.263  1.00  0.00     0.000 HD 
ENDBRANCH   2   4
BRANCH   2   8
HETATM    8  C   UNL     1      -9.339  14.845  66.859  1.00  0.00    -0.258 A  
HETATM    9  C   UNL     1      -7.909  16.837  67.069  1.00  0.00    -0.229 A  
HETATM   10  C   UNL     1      -9.137  16.224  66.753  1.00  0.00    -0.257 A  
HETATM   11  C   UNL     1      -6.856  16.009  67.494  1.00  0.00    -0.205 A  
HETATM   12  C   UNL     1      -8.263  14.054  67.298  1.00  0.00    -0.187 A  
HETATM   13  C   UNL     1      -7.014  14.616  67.594  1.00  0.00    -0.205 A  
BRANCH   9  14
HETATM   14  C   UNL     1      -7.791  18.364  66.900  1.00  0.00    -0.248 C  
HETATM   15  C   UNL     1      -7.388  18.992  68.195  1.00  0.00    -0.268 C  
HETATM   16  C   UNL     1      -6.702  18.671  65.844  1.00  0.00    -0.302 C  
HETATM   17  C   UNL     1      -9.096  19.036  66.446  1.00  0.00    -0.339 C  
HETATM   18  N   UNL     1      -7.056  19.477  69.196  1.00  0.00    -0.356 NA 
ENDBRANCH   9  14
BRANCH  13  19
HETATM   19  C   UNL     1      -5.844  13.721  67.933  1.00  0.00    -0.131 C  
BRANCH  19  20
HETATM   20  N   UNL     1      -5.862  13.202  69.288  1.00  0.00    -0.083 NA 
HETATM   21  C   UNL     1      -6.136  11.932  69.697  1.00  0.00    -0.124 A  
HETATM   22  N   UNL     1      -5.787  11.789  70.955  1.00  0.00    -0.367 NA 
HETATM   23  C   UNL     1      -5.286  13.017  71.278  1.00  0.00    -0.173 A  
HETATM   24  N   UNL     1      -5.314  13.919  70.294  1.00  0.00    -0.101 NA 
ENDBRANCH  19  20
ENDBRANCH  13  19
ENDBRANCH   2   8
TORSDOF 5
ENDMDL
MODEL      150
REMARK 921   NORMALIZED FREE ENERGY PREDICTED BY IDOCK:   -4.52 KCAL/MOL
REMARK 922        TOTAL FREE ENERGY PREDICTED BY IDOCK:   -6.62 KCAL/MOL
REMARK 923 INTER-LIGAND FREE ENERGY PREDICTED BY IDOCK:   -5.67 KCAL/MOL
REMARK 924 INTRA-LIGAND FREE ENERGY PREDICTED BY IDOCK:   -0.96 KCAL/MOL
REMARK 927      BINDING AFFINITY PREDICTED BY RF-SCORE:    0.00 PKD
ROOT
HETATM    1  C   UNL     1     -11.002  11.856  65.221  1.00  0.00    -0.354 C  
HETATM    2  C   UNL     1     -11.231  12.698  66.497  1.00  0.00    -0.342 C  
HETATM    3  C   UNL     1     -12.410  13.654  66.198  1.00  0.00    -0.476 C  
ENDROOT
BRANCH   2   4
HETATM    4  C   UNL     1     -11.707  11.772  67.604  1.00  0.00    -0.250 C  
HETATM    5  H2  UNL     1     -11.471  11.381  69.232  1.00  0.00     0.000 HD 
HETATM    6  N   UNL     1     -12.101  11.004  68.524  1.00  0.00    -0.770 NA 
HETATM    7  H1  UNL     1     -12.420  10.382  69.267  1.00  0.00     0.000 HD 
ENDBRANCH   2   4
BRANCH   2   8
HETATM    8  C   UNL     1      -9.926  13.371  66.908  1.00  0.00    -0.252 A  
HETATM    9  C   UNL     1      -8.646  15.403  67.446  1.00  0.00    -0.197 A  
HETATM   10  C   UNL     1      -9.846  14.754  67.097  1.00  0.00    -0.232 A  
HETATM   11  C   UNL     1      -7.494  14.612  67.595  1.00  0.00    -0.205 A  
HETATM   12  C   UNL     1      -8.753  12.615  67.077  1.00  0.00    -0.198 A  
HETATM   13  C   UNL     1      -7.531  13.221  67.394  1.00  0.00    -0.134 A  
BRANCH   9  14
HETATM   14  C   UNL     1      -8.667  16.935  67.612  1.00  0.00    -0.212 C  
HETATM   15  C   UNL     1      -7.979  17.584  66.454  1.00  0.00    -0.285 C  
HETATM   16  C   UNL     1     -10.137  17.418  67.645  1.00  0.00    -0.327 C  
HETATM   17  C   UNL     1      -7.977  17.424  68.894  1.00  0.00    -0.187 C  
HETATM   18  N   UNL     1      -7.462  18.088  65.545  1.00  0.00    -0.488 NA 
ENDBRANCH   9  14
BRANCH  13  19
HETATM   19  C   UNL     1      -6.266  12.394  67.435  1.00  0.00    -0.158 C  
BRANCH  19  20
HETATM   20  N   UNL     1      -6.206  11.447  68.533  1.00  0.00    -0.046 NA 
HETATM   21  C   UNL     1      -6.225  11.710  69.869  1.00  0.00    -0.144 A  
HETATM   22  N   UNL     1      -6.429  10.596  70.534  1.00  0.00    -0.311 NA 
HETATM   23  C   UNL     1      -6.539   9.662  69.546  1.00  0.00    -0.049 A  
HETATM   24  N   UNL     1      -6.405  10.131  68.303  1.00  0.00    -0.049 NA 
ENDBRANCH  19  20
ENDBRANCH  13  19
ENDBRANCH   2   8
TORSDOF 5
ENDMDL
MODEL      151
REMARK 921   NORMALIZED FREE ENERGY PREDICTED BY IDOCK:   -4.51 KCAL/MOL
REMARK 922        TOTAL FREE ENERGY PREDICTED BY IDOCK:   -6.61 KCAL/MOL
REMARK 923 INTER-LIGAND FREE ENERGY PREDICTED BY IDOCK:   -5.82 KCAL/MOL
REMARK 924 INTRA-LIGAND FREE ENERGY PREDICTED BY IDOCK:   -0.80 KCAL/MOL
REMARK 927      BINDING AFFINITY PREDICTED BY RF-SCORE:    0.00 PKD
ROOT
HETATM    1  C   UNL     1      -7.672  13.289  67.830  1.00  0.00    -0.152 C  
HETATM    2  C   UNL     1      -7.173  11.825  67.818  1.00  0.00    -0.097 C  
HETATM    3  C   UNL     1      -5.781  11.830  67.143  1.00  0.00    -0.131 C  
ENDROOT
BRANCH   2   4
HETATM    4  C   UNL     1      -6.945  11.384  69.255  1.00  0.00    -0.115 C  
HETATM    5  H2  UNL     1      -6.363  11.910  70.752  1.00  0.00     0.000 HD 
HETATM    6  N   UNL     1      -6.756  11.019  70.447  1.00  0.00    -0.493 NA 
HETATM    7  H1  UNL     1      -6.604  10.723  71.411  1.00  0.00     0.000 HD 
ENDBRANCH   2   4
BRANCH   2   8
HETATM    8  C   UNL     1      -8.220  10.933  67.160  1.00  0.00    -0.126 A  
HETATM    9  C   UNL     1      -9.300   8.737  66.905  1.00  0.00    -0.213 A  
HETATM   10  C   UNL     1      -8.362   9.589  67.518  1.00  0.00    -0.125 A  
HETATM   11  C   UNL     1     -10.107   9.275  65.888  1.00  0.00    -0.188 A  
HETATM   12  C   UNL     1      -9.054  11.436  66.146  1.00  0.00    -0.217 A  
HETATM   13  C   UNL     1      -9.979  10.616  65.487  1.00  0.00    -0.333 A  
BRANCH   9  14
HETATM   14  C   UNL     1      -9.359   7.267  67.365  1.00  0.00    -0.148 C  
HETATM   15  C   UNL     1      -8.390   6.445  66.578  1.00  0.00    -0.115 C  
HETATM   16  C   UNL     1      -8.969   7.190  68.860  1.00  0.00    -0.129 C  
HETATM   17  C   UNL     1     -10.747   6.627  67.203  1.00  0.00    -0.440 C  
HETATM   18  N   UNL     1      -7.623   5.812  65.979  1.00  0.00    -0.085 NA 
ENDBRANCH   9  14
BRANCH  13  19
HETATM   19  C   UNL     1     -10.762  11.156  64.311  1.00  0.00    -0.333 C  
BRANCH  19  20
HETATM   20  N   UNL     1     -11.464  12.397  64.580  1.00  0.00    -0.323 NA 
HETATM   21  C   UNL     1     -11.685  13.437  63.728  1.00  0.00    -0.376 A  
HETATM   22  N   UNL     1     -12.580  14.248  64.245  1.00  0.00    -0.677 NA 
HETATM   23  C   UNL     1     -12.890  13.649  65.431  1.00  0.00    -0.389 A  
HETATM   24  N   UNL     1     -12.232  12.516  65.685  1.00  0.00    -0.612 NA 
ENDBRANCH  19  20
ENDBRANCH  13  19
ENDBRANCH   2   8
TORSDOF 5
ENDMDL
MODEL      152
REMARK 921   NORMALIZED FREE ENERGY PREDICTED BY IDOCK:   -4.47 KCAL/MOL
REMARK 922        TOTAL FREE ENERGY PREDICTED BY IDOCK:   -6.57 KCAL/MOL
REMARK 923 INTER-LIGAND FREE ENERGY PREDICTED BY IDOCK:   -5.75 KCAL/MOL
REMARK 924 INTRA-LIGAND FREE ENERGY PREDICTED BY IDOCK:   -0.82 KCAL/MOL
REMARK 927      BINDING AFFINITY PREDICTED BY RF-SCORE:    0.00 PKD
ROOT
HETATM    1  C   UNL     1      -8.208   7.892  63.775  1.00  0.00    -0.011 C  
HETATM    2  C   UNL     1      -8.452   9.337  64.267  1.00  0.00    -0.202 C  
HETATM    3  C   UNL     1      -7.073  10.036  64.314  1.00  0.00    -0.130 C  
ENDROOT
BRANCH   2   4
HETATM    4  C   UNL     1      -9.264  10.072  63.213  1.00  0.00    -0.284 C  
HETATM    5  H2  UNL     1     -10.631   9.939  62.227  1.00  0.00     0.000 HD 
HETATM    6  N   UNL     1      -9.939  10.680  62.339  1.00  0.00    -0.738 NA 
HETATM    7  H1  UNL     1     -10.484  11.173  61.632  1.00  0.00     0.000 HD 
ENDBRANCH   2   4
BRANCH   2   8
HETATM    8  C   UNL     1      -9.219   9.305  65.585  1.00  0.00    -0.291 A  
HETATM    9  C   UNL     1     -10.059   8.070  67.540  1.00  0.00    -0.281 A  
HETATM   10  C   UNL     1      -9.332   8.132  66.336  1.00  0.00    -0.269 A  
HETATM   11  C   UNL     1     -10.699   9.242  67.980  1.00  0.00    -0.231 A  
HETATM   12  C   UNL     1      -9.865  10.459  66.066  1.00  0.00    -0.289 A  
HETATM   13  C   UNL     1     -10.625  10.435  67.242  1.00  0.00    -0.322 A  
BRANCH   9  14
HETATM   14  C   UNL     1     -10.133   6.719  68.279  1.00  0.00    -0.173 C  
HETATM   15  C   UNL     1     -11.022   6.838  69.475  1.00  0.00    -0.279 C  
HETATM   16  C   UNL     1     -10.730   5.655  67.326  1.00  0.00    -0.299 C  
HETATM   17  C   UNL     1      -8.768   6.208  68.765  1.00  0.00    -0.119 C  
HETATM   18  N   UNL     1     -11.728   6.927  70.392  1.00  0.00    -0.342 NA 
ENDBRANCH   9  14
BRANCH  13  19
HETATM   19  C   UNL     1     -11.414  11.657  67.655  1.00  0.00    -0.303 C  
BRANCH  19  20
HETATM   20  N   UNL     1     -10.674  12.903  67.573  1.00  0.00    -0.225 NA 
HETATM   21  C   UNL     1      -9.531  13.244  68.231  1.00  0.00    -0.209 A  
HETATM   22  N   UNL     1      -9.023  14.331  67.695  1.00  0.00    -0.185 NA 
HETATM   23  C   UNL     1      -9.899  14.618  66.689  1.00  0.00    -0.269 A  
HETATM   24  N   UNL     1     -10.929  13.777  66.575  1.00  0.00    -0.297 NA 
ENDBRANCH  19  20
ENDBRANCH  13  19
ENDBRANCH   2   8
TORSDOF 5
ENDMDL
MODEL      153
REMARK 921   NORMALIZED FREE ENERGY PREDICTED BY IDOCK:   -4.45 KCAL/MOL
REMARK 922        TOTAL FREE ENERGY PREDICTED BY IDOCK:   -6.54 KCAL/MOL
REMARK 923 INTER-LIGAND FREE ENERGY PREDICTED BY IDOCK:   -5.88 KCAL/MOL
REMARK 924 INTRA-LIGAND FREE ENERGY PREDICTED BY IDOCK:   -0.66 KCAL/MOL
REMARK 927      BINDING AFFINITY PREDICTED BY RF-SCORE:    0.00 PKD
ROOT
HETATM    1  C   UNL     1      -7.369  10.567  69.522  1.00  0.00    -0.148 C  
HETATM    2  C   UNL     1      -7.704  10.744  68.024  1.00  0.00    -0.101 C  
HETATM    3  C   UNL     1      -6.583  11.617  67.412  1.00  0.00    -0.106 C  
ENDROOT
BRANCH   2   4
HETATM    4  C   UNL     1      -7.603   9.387  67.345  1.00  0.00    -0.095 C  
HETATM    5  H2  UNL     1      -7.834   8.595  65.871  1.00  0.00     0.000 HD 
HETATM    6  N   UNL     1      -7.519   8.262  66.782  1.00  0.00    -0.086 NA 
HETATM    7  H1  UNL     1      -7.451   7.352  66.327  1.00  0.00     0.000 HD 
ENDBRANCH   2   4
BRANCH   2   8
HETATM    8  C   UNL     1      -9.120  11.293  67.877  1.00  0.00    -0.150 A  
HETATM    9  C   UNL     1     -10.846  12.422  66.535  1.00  0.00    -0.284 A  
HETATM   10  C   UNL     1      -9.555  11.881  66.686  1.00  0.00    -0.220 A  
HETATM   11  C   UNL     1     -11.711  12.369  67.642  1.00  0.00    -0.412 A  
HETATM   12  C   UNL     1     -10.020  11.251  68.957  1.00  0.00    -0.124 A  
HETATM   13  C   UNL     1     -11.303  11.805  68.863  1.00  0.00    -0.326 A  
BRANCH   9  14
HETATM   14  C   UNL     1     -11.216  13.062  65.183  1.00  0.00    -0.321 C  
HETATM   15  C   UNL     1     -10.608  12.279  64.064  1.00  0.00    -0.400 C  
HETATM   16  C   UNL     1     -12.754  13.041  65.019  1.00  0.00    -0.475 C  
HETATM   17  C   UNL     1     -10.742  14.517  65.040  1.00  0.00    -0.444 C  
HETATM   18  N   UNL     1     -10.151  11.659  63.195  1.00  0.00    -0.402 NA 
ENDBRANCH   9  14
BRANCH  13  19
HETATM   19  C   UNL     1     -12.192  11.861  70.083  1.00  0.00    -0.241 C  
BRANCH  19  20
HETATM   20  N   UNL     1     -12.370  13.193  70.633  1.00  0.00    -0.356 NA 
HETATM   21  C   UNL     1     -13.199  13.580  71.642  1.00  0.00    -0.366 A  
HETATM   22  N   UNL     1     -12.881  14.794  72.032  1.00  0.00    -0.312 NA 
HETATM   23  C   UNL     1     -11.828  15.111  71.225  1.00  0.00    -0.350 A  
HETATM   24  N   UNL     1     -11.479  14.167  70.348  1.00  0.00    -0.157 NA 
ENDBRANCH  19  20
ENDBRANCH  13  19
ENDBRANCH   2   8
TORSDOF 5
ENDMDL
MODEL      154
REMARK 921   NORMALIZED FREE ENERGY PREDICTED BY IDOCK:   -4.45 KCAL/MOL
REMARK 922        TOTAL FREE ENERGY PREDICTED BY IDOCK:   -6.53 KCAL/MOL
REMARK 923 INTER-LIGAND FREE ENERGY PREDICTED BY IDOCK:   -5.65 KCAL/MOL
REMARK 924 INTRA-LIGAND FREE ENERGY PREDICTED BY IDOCK:   -0.89 KCAL/MOL
REMARK 927      BINDING AFFINITY PREDICTED BY RF-SCORE:    0.00 PKD
ROOT
HETATM    1  C   UNL     1     -11.081  14.929  71.669  1.00  0.00     0.082 C  
HETATM    2  C   UNL     1     -11.754  15.233  70.310  1.00  0.00    -0.341 C  
HETATM    3  C   UNL     1     -13.264  15.418  70.588  1.00  0.00    -0.356 C  
ENDROOT
BRANCH   2   4
HETATM    4  C   UNL     1     -11.246  16.578  69.815  1.00  0.00    -0.161 C  
HETATM    5  H2  UNL     1     -10.535  18.024  70.325  1.00  0.00     0.000 HD 
HETATM    6  N   UNL     1     -10.825  17.694  69.404  1.00  0.00    -0.179 NA 
HETATM    7  H1  UNL     1     -10.485  18.595  69.072  1.00  0.00     0.000 HD 
ENDBRANCH   2   4
BRANCH   2   8
HETATM    8  C   UNL     1     -11.397  14.142  69.307  1.00  0.00    -0.324 A  
HETATM    9  C   UNL     1     -10.925  11.782  68.794  1.00  0.00    -0.281 A  
HETATM   10  C   UNL     1     -11.283  12.803  69.694  1.00  0.00    -0.072 A  
HETATM   11  C   UNL     1     -10.667  12.145  67.460  1.00  0.00    -0.265 A  
HETATM   12  C   UNL     1     -11.141  14.462  67.962  1.00  0.00    -0.287 A  
HETATM   13  C   UNL     1     -10.752  13.483  67.038  1.00  0.00    -0.278 A  
BRANCH   9  14
HETATM   14  C   UNL     1     -10.811  10.342  69.332  1.00  0.00    -0.287 C  
HETATM   15  C   UNL     1      -9.389  10.036  69.677  1.00  0.00    -0.220 C  
HETATM   16  C   UNL     1     -11.667  10.214  70.615  1.00  0.00    -0.425 C  
HETATM   17  C   UNL     1     -11.286   9.273  68.335  1.00  0.00     0.202 C  
HETATM   18  N   UNL     1      -8.287   9.807  69.963  1.00  0.00    -0.188 NA 
ENDBRANCH   9  14
BRANCH  13  19
HETATM   19  C   UNL     1     -10.354  13.884  65.636  1.00  0.00    -0.325 C  
BRANCH  19  20
HETATM   20  N   UNL     1     -11.025  13.137  64.587  1.00  0.00    -0.336 NA 
HETATM   21  C   UNL     1     -10.475  12.268  63.693  1.00  0.00    -0.450 A  
HETATM   22  N   UNL     1     -11.427  11.593  63.092  1.00  0.00    -0.167 NA 
HETATM   23  C   UNL     1     -12.563  12.084  63.667  1.00  0.00    -0.490 A  
HETATM   24  N   UNL     1     -12.372  13.033  64.585  1.00  0.00    -0.496 NA 
ENDBRANCH  19  20
ENDBRANCH  13  19
ENDBRANCH   2   8
TORSDOF 5
ENDMDL
MODEL      155
REMARK 921   NORMALIZED FREE ENERGY PREDICTED BY IDOCK:   -4.44 KCAL/MOL
REMARK 922        TOTAL FREE ENERGY PREDICTED BY IDOCK:   -6.52 KCAL/MOL
REMARK 923 INTER-LIGAND FREE ENERGY PREDICTED BY IDOCK:   -5.62 KCAL/MOL
REMARK 924 INTRA-LIGAND FREE ENERGY PREDICTED BY IDOCK:   -0.90 KCAL/MOL
REMARK 927      BINDING AFFINITY PREDICTED BY RF-SCORE:    0.00 PKD
ROOT
HETATM    1  C   UNL     1      -9.500   9.163  70.961  1.00  0.00    -0.344 C  
HETATM    2  C   UNL     1     -10.806   9.140  70.135  1.00  0.00    -0.269 C  
HETATM    3  C   UNL     1     -11.327   7.684  70.157  1.00  0.00    -0.147 C  
ENDROOT
BRANCH   2   4
HETATM    4  C   UNL     1     -11.848   9.974  70.864  1.00  0.00    -0.368 C  
HETATM    5  H2  UNL     1     -12.504  10.281  72.391  1.00  0.00     0.000 HD 
HETATM    6  N   UNL     1     -12.712  10.665  71.470  1.00  0.00    -0.425 NA 
HETATM    7  H1  UNL     1     -13.411  11.224  71.958  1.00  0.00     0.000 HD 
ENDBRANCH   2   4
BRANCH   2   8
HETATM    8  C   UNL     1     -10.548   9.727  68.751  1.00  0.00    -0.244 A  
HETATM    9  C   UNL     1     -10.762  11.572  67.138  1.00  0.00    -0.294 A  
HETATM   10  C   UNL     1     -10.961  11.020  68.418  1.00  0.00    -0.281 A  
HETATM   11  C   UNL     1     -10.131  10.771  66.170  1.00  0.00    -0.297 A  
HETATM   12  C   UNL     1      -9.911   8.962  67.757  1.00  0.00    -0.241 A  
HETATM   13  C   UNL     1      -9.720   9.459  66.462  1.00  0.00    -0.299 A  
BRANCH   9  14
HETATM   14  C   UNL     1     -11.273  13.002  66.874  1.00  0.00    -0.331 C  
HETATM   15  C   UNL     1     -10.126  13.903  66.549  1.00  0.00    -0.286 C  
HETATM   16  C   UNL     1     -12.237  12.977  65.663  1.00  0.00    -0.521 C  
HETATM   17  C   UNL     1     -12.022  13.618  68.065  1.00  0.00    -0.385 C  
HETATM   18  N   UNL     1      -9.235  14.597  66.277  1.00  0.00    -0.260 NA 
ENDBRANCH   9  14
BRANCH  13  19
HETATM   19  C   UNL     1      -9.155   8.562  65.385  1.00  0.00    -0.043 C  
BRANCH  19  20
HETATM   20  N   UNL     1      -7.983   9.097  64.716  1.00  0.00    -0.119 NA 
HETATM   21  C   UNL     1      -7.894   9.601  63.453  1.00  0.00    -0.138 A  
HETATM   22  N   UNL     1      -6.750  10.228  63.309  1.00  0.00    -0.129 NA 
HETATM   23  C   UNL     1      -6.164  10.088  64.533  1.00  0.00    -0.126 A  
HETATM   24  N   UNL     1      -6.876   9.399  65.428  1.00  0.00    -0.077 NA 
ENDBRANCH  19  20
ENDBRANCH  13  19
ENDBRANCH   2   8
TORSDOF 5
ENDMDL
MODEL      156
REMARK 921   NORMALIZED FREE ENERGY PREDICTED BY IDOCK:   -4.42 KCAL/MOL
REMARK 922        TOTAL FREE ENERGY PREDICTED BY IDOCK:   -6.51 KCAL/MOL
REMARK 923 INTER-LIGAND FREE ENERGY PREDICTED BY IDOCK:   -6.17 KCAL/MOL
REMARK 924 INTRA-LIGAND FREE ENERGY PREDICTED BY IDOCK:   -0.34 KCAL/MOL
REMARK 927      BINDING AFFINITY PREDICTED BY RF-SCORE:    0.00 PKD
ROOT
HETATM    1  C   UNL     1      -6.941  14.280  69.484  1.00  0.00    -0.083 C  
HETATM    2  C   UNL     1      -6.855  14.600  67.974  1.00  0.00    -0.152 C  
HETATM    3  C   UNL     1      -5.512  15.333  67.746  1.00  0.00    -0.101 C  
ENDROOT
BRANCH   2   4
HETATM    4  C   UNL     1      -6.757  13.289  67.211  1.00  0.00     0.078 C  
HETATM    5  H2  UNL     1      -6.731  11.610  67.409  1.00  0.00     0.000 HD 
HETATM    6  N   UNL     1      -6.676  12.200  66.579  1.00  0.00    -0.387 NA 
HETATM    7  H1  UNL     1      -6.610  11.321  66.067  1.00  0.00     0.000 HD 
ENDBRANCH   2   4
BRANCH   2   8
HETATM    8  C   UNL     1      -8.102  15.362  67.539  1.00  0.00    -0.187 A  
HETATM    9  C   UNL     1      -9.316  17.481  67.238  1.00  0.00    -0.244 A  
HETATM   10  C   UNL     1      -8.165  16.757  67.604  1.00  0.00    -0.191 A  
HETATM   11  C   UNL     1     -10.437  16.753  66.804  1.00  0.00    -0.258 A  
HETATM   12  C   UNL     1      -9.242  14.671  67.090  1.00  0.00    -0.231 A  
HETATM   13  C   UNL     1     -10.419  15.349  66.745  1.00  0.00    -0.299 A  
BRANCH   9  14
HETATM   14  C   UNL     1      -9.282  19.017  67.365  1.00  0.00    -0.326 C  
HETATM   15  C   UNL     1      -8.372  19.595  66.329  1.00  0.00    -0.352 C  
HETATM   16  C   UNL     1     -10.707  19.573  67.134  1.00  0.00    -0.599 C  
HETATM   17  C   UNL     1      -8.796  19.510  68.736  1.00  0.00    -0.354 C  
HETATM   18  N   UNL     1      -7.680  20.044  65.512  1.00  0.00    -0.298 NA 
ENDBRANCH   9  14
BRANCH  13  19
HETATM   19  C   UNL     1     -11.665  14.567  66.396  1.00  0.00    -0.363 C  
BRANCH  19  20
HETATM   20  N   UNL     1     -11.469  13.553  65.376  1.00  0.00    -0.299 NA 
HETATM   21  C   UNL     1     -11.967  13.531  64.108  1.00  0.00    -0.448 A  
HETATM   22  N   UNL     1     -11.353  12.602  63.411  1.00  0.00    -0.466 NA 
HETATM   23  C   UNL     1     -10.467  12.079  64.306  1.00  0.00    -0.328 A  
HETATM   24  N   UNL     1     -10.500  12.623  65.524  1.00  0.00    -0.276 NA 
ENDBRANCH  19  20
ENDBRANCH  13  19
ENDBRANCH   2   8
TORSDOF 5
ENDMDL
MODEL      157
REMARK 921   NORMALIZED FREE ENERGY PREDICTED BY IDOCK:   -4.42 KCAL/MOL
REMARK 922        TOTAL FREE ENERGY PREDICTED BY IDOCK:   -6.50 KCAL/MOL
REMARK 923 INTER-LIGAND FREE ENERGY PREDICTED BY IDOCK:   -5.56 KCAL/MOL
REMARK 924 INTRA-LIGAND FREE ENERGY PREDICTED BY IDOCK:   -0.95 KCAL/MOL
REMARK 927      BINDING AFFINITY PREDICTED BY RF-SCORE:    0.00 PKD
ROOT
HETATM    1  C   UNL     1     -11.075   6.894  67.044  1.00  0.00    -0.315 C  
HETATM    2  C   UNL     1     -10.138   7.974  67.634  1.00  0.00    -0.269 C  
HETATM    3  C   UNL     1     -10.633   8.262  69.071  1.00  0.00    -0.167 C  
ENDROOT
BRANCH   2   4
HETATM    4  C   UNL     1      -8.748   7.376  67.776  1.00  0.00    -0.126 C  
HETATM    5  H2  UNL     1      -7.632   6.358  67.017  1.00  0.00     0.000 HD 
HETATM    6  N   UNL     1      -7.594   6.879  67.893  1.00  0.00    -0.105 NA 
HETATM    7  H1  UNL     1      -6.662   6.478  67.989  1.00  0.00     0.000 HD 
ENDBRANCH   2   4
BRANCH   2   8
HETATM    8  C   UNL     1     -10.093   9.178  66.700  1.00  0.00    -0.343 A  
HETATM    9  C   UNL     1     -10.512  11.564  66.266  1.00  0.00    -0.294 A  
HETATM   10  C   UNL     1     -10.515  10.443  67.119  1.00  0.00    -0.311 A  
HETATM   11  C   UNL     1     -10.073  11.379  64.944  1.00  0.00    -0.323 A  
HETATM   12  C   UNL     1      -9.651   9.038  65.372  1.00  0.00    -0.084 A  
HETATM   13  C   UNL     1      -9.659  10.118  64.481  1.00  0.00    -0.376 A  
BRANCH   9  14
HETATM   14  C   UNL     1     -11.016  12.908  66.827  1.00  0.00    -0.300 C  
HETATM   15  C   UNL     1     -12.009  13.513  65.889  1.00  0.00    -0.406 C  
HETATM   16  C   UNL     1     -11.712  12.658  68.187  1.00  0.00    -0.396 C  
HETATM   17  C   UNL     1      -9.900  13.940  67.048  1.00  0.00    -0.257 C  
HETATM   18  N   UNL     1     -12.795  13.972  65.168  1.00  0.00    -0.745 NA 
ENDBRANCH   9  14
BRANCH  13  19
HETATM   19  C   UNL     1      -9.306   9.900  63.027  1.00  0.00    -0.189 C  
BRANCH  19  20
HETATM   20  N   UNL     1      -7.974   9.365  62.809  1.00  0.00    -0.124 NA 
HETATM   21  C   UNL     1      -6.786   9.871  63.244  1.00  0.00    -0.124 A  
HETATM   22  N   UNL     1      -5.841   8.973  63.084  1.00  0.00    -0.087 NA 
HETATM   23  C   UNL     1      -6.510   7.912  62.548  1.00  0.00    -0.085 A  
HETATM   24  N   UNL     1      -7.817   8.103  62.356  1.00  0.00    -0.130 NA 
ENDBRANCH  19  20
ENDBRANCH  13  19
ENDBRANCH   2   8
TORSDOF 5
ENDMDL
MODEL      158
REMARK 921   NORMALIZED FREE ENERGY PREDICTED BY IDOCK:   -4.42 KCAL/MOL
REMARK 922        TOTAL FREE ENERGY PREDICTED BY IDOCK:   -6.50 KCAL/MOL
REMARK 923 INTER-LIGAND FREE ENERGY PREDICTED BY IDOCK:   -5.57 KCAL/MOL
REMARK 924 INTRA-LIGAND FREE ENERGY PREDICTED BY IDOCK:   -0.93 KCAL/MOL
REMARK 927      BINDING AFFINITY PREDICTED BY RF-SCORE:    0.00 PKD
ROOT
HETATM    1  C   UNL     1      -8.965  12.141  66.938  1.00  0.00    -0.201 C  
HETATM    2  C   UNL     1     -10.246  11.299  66.740  1.00  0.00    -0.263 C  
HETATM    3  C   UNL     1     -11.446  12.228  67.039  1.00  0.00    -0.419 C  
ENDROOT
BRANCH   2   4
HETATM    4  C   UNL     1     -10.353  10.929  65.269  1.00  0.00    -0.268 C  
HETATM    5  H2  UNL     1      -9.796   9.833  64.109  1.00  0.00     0.000 HD 
HETATM    6  N   UNL     1     -10.441  10.620  64.049  1.00  0.00    -0.449 NA 
HETATM    7  H1  UNL     1     -10.513  10.372  63.063  1.00  0.00     0.000 HD 
ENDBRANCH   2   4
BRANCH   2   8
HETATM    8  C   UNL     1     -10.165  10.035  67.589  1.00  0.00    -0.249 A  
HETATM    9  C   UNL     1     -10.647   8.830  69.680  1.00  0.00    -0.220 A  
HETATM   10  C   UNL     1     -10.734   9.974  68.864  1.00  0.00    -0.243 A  
HETATM   11  C   UNL     1      -9.946   7.720  69.177  1.00  0.00    -0.182 A  
HETATM   12  C   UNL     1      -9.481   8.899  67.119  1.00  0.00    -0.202 A  
HETATM   13  C   UNL     1      -9.342   7.750  67.908  1.00  0.00    -0.148 A  
BRANCH   9  14
HETATM   14  C   UNL     1     -11.296   8.879  71.077  1.00  0.00    -0.350 C  
HETATM   15  C   UNL     1     -12.382   7.856  71.171  1.00  0.00    -0.230 C  
HETATM   16  C   UNL     1     -10.222   8.556  72.143  1.00  0.00    -0.403 C  
HETATM   17  C   UNL     1     -11.914  10.243  71.421  1.00  0.00    -0.419 C  
HETATM   18  N   UNL     1     -13.212   7.048  71.250  1.00  0.00    -0.312 NA 
ENDBRANCH   9  14
BRANCH  13  19
HETATM   19  C   UNL     1      -8.487   6.601  67.425  1.00  0.00    -0.120 C  
BRANCH  19  20
HETATM   20  N   UNL     1      -9.076   5.830  66.345  1.00  0.00    -0.142 NA 
HETATM   21  C   UNL     1      -8.473   5.380  65.209  1.00  0.00    -0.149 A  
HETATM   22  N   UNL     1      -9.248   4.501  64.617  1.00  0.00    -0.155 NA 
HETATM   23  C   UNL     1     -10.330   4.437  65.446  1.00  0.00    -0.216 A  
HETATM   24  N   UNL     1     -10.276   5.234  66.515  1.00  0.00    -0.227 NA 
ENDBRANCH  19  20
ENDBRANCH  13  19
ENDBRANCH   2   8
TORSDOF 5
ENDMDL
MODEL      159
REMARK 921   NORMALIZED FREE ENERGY PREDICTED BY IDOCK:   -4.41 KCAL/MOL
REMARK 922        TOTAL FREE ENERGY PREDICTED BY IDOCK:   -6.48 KCAL/MOL
REMARK 923 INTER-LIGAND FREE ENERGY PREDICTED BY IDOCK:   -5.57 KCAL/MOL
REMARK 924 INTRA-LIGAND FREE ENERGY PREDICTED BY IDOCK:   -0.91 KCAL/MOL
REMARK 927      BINDING AFFINITY PREDICTED BY RF-SCORE:    0.00 PKD
ROOT
HETATM    1  C   UNL     1     -11.883  11.342  68.951  1.00  0.00    -0.413 C  
HETATM    2  C   UNL     1     -10.956  11.673  67.758  1.00  0.00    -0.287 C  
HETATM    3  C   UNL     1     -11.769  12.567  66.792  1.00  0.00    -0.453 C  
ENDROOT
BRANCH   2   4
HETATM    4  C   UNL     1      -9.810  12.533  68.267  1.00  0.00    -0.227 C  
HETATM    5  H2  UNL     1      -8.502  12.543  69.337  1.00  0.00     0.000 HD 
HETATM    6  N   UNL     1      -8.858  13.245  68.689  1.00  0.00    -0.370 NA 
HETATM    7  H1  UNL     1      -8.089  13.822  69.030  1.00  0.00     0.000 HD 
ENDBRANCH   2   4
BRANCH   2   8
HETATM    8  C   UNL     1     -10.410  10.381  67.159  1.00  0.00    -0.290 A  
HETATM    9  C   UNL     1      -9.097   9.212  65.439  1.00  0.00    -0.271 A  
HETATM   10  C   UNL     1      -9.588  10.392  66.029  1.00  0.00    -0.251 A  
HETATM   11  C   UNL     1      -9.469   7.986  66.018  1.00  0.00    -0.123 A  
HETATM   12  C   UNL     1     -10.751   9.135  67.714  1.00  0.00    -0.243 A  
HETATM   13  C   UNL     1     -10.310   7.935  67.142  1.00  0.00    -0.398 A  
BRANCH   9  14
HETATM   14  C   UNL     1      -8.212   9.338  64.183  1.00  0.00    -0.159 C  
HETATM   15  C   UNL     1      -6.881   9.911  64.552  1.00  0.00    -0.124 C  
HETATM   16  C   UNL     1      -7.991   7.931  63.578  1.00  0.00    -0.126 C  
HETATM   17  C   UNL     1      -8.815  10.236  63.092  1.00  0.00    -0.226 C  
HETATM   18  N   UNL     1      -5.841  10.337  64.843  1.00  0.00    -0.124 NA 
ENDBRANCH   9  14
BRANCH  13  19
HETATM   19  C   UNL     1     -10.805   6.613  67.685  1.00  0.00    -0.315 C  
BRANCH  19  20
HETATM   20  N   UNL     1     -10.475   6.378  69.079  1.00  0.00    -0.201 NA 
HETATM   21  C   UNL     1      -9.255   6.467  69.678  1.00  0.00    -0.142 A  
HETATM   22  N   UNL     1      -9.403   6.451  70.983  1.00  0.00    -0.164 NA 
HETATM   23  C   UNL     1     -10.755   6.359  71.139  1.00  0.00    -0.244 A  
HETATM   24  N   UNL     1     -11.456   6.307  70.004  1.00  0.00    -0.426 NA 
ENDBRANCH  19  20
ENDBRANCH  13  19
ENDBRANCH   2   8
TORSDOF 5
ENDMDL
MODEL      160
REMARK 921   NORMALIZED FREE ENERGY PREDICTED BY IDOCK:   -4.39 KCAL/MOL
REMARK 922        TOTAL FREE ENERGY PREDICTED BY IDOCK:   -6.46 KCAL/MOL
REMARK 923 INTER-LIGAND FREE ENERGY PREDICTED BY IDOCK:   -5.64 KCAL/MOL
REMARK 924 INTRA-LIGAND FREE ENERGY PREDICTED BY IDOCK:   -0.82 KCAL/MOL
REMARK 927      BINDING AFFINITY PREDICTED BY RF-SCORE:    0.00 PKD
ROOT
HETATM    1  C   UNL     1     -12.410  12.429  65.270  1.00  0.00    -0.357 C  
HETATM    2  C   UNL     1     -10.977  12.324  65.839  1.00  0.00    -0.338 C  
HETATM    3  C   UNL     1     -10.869  10.945  66.533  1.00  0.00    -0.234 C  
ENDROOT
BRANCH   2   4
HETATM    4  C   UNL     1     -10.000  12.291  64.676  1.00  0.00    -0.186 C  
HETATM    5  H2  UNL     1      -8.535  11.622  64.162  1.00  0.00     0.000 HD 
HETATM    6  N   UNL     1      -9.188  12.262  63.711  1.00  0.00    -0.312 NA 
HETATM    7  H1  UNL     1      -8.532  12.240  62.930  1.00  0.00     0.000 HD 
ENDBRANCH   2   4
BRANCH   2   8
HETATM    8  C   UNL     1     -10.689  13.531  66.726  1.00  0.00    -0.278 A  
HETATM    9  C   UNL     1     -11.100  14.822  68.780  1.00  0.00    -0.277 A  
HETATM   10  C   UNL     1     -11.327  13.701  67.958  1.00  0.00    -0.316 A  
HETATM   11  C   UNL     1     -10.203  15.800  68.320  1.00  0.00    -0.225 A  
HETATM   12  C   UNL     1      -9.790  14.528  66.307  1.00  0.00    -0.322 A  
HETATM   13  C   UNL     1      -9.558  15.675  67.077  1.00  0.00    -0.233 A  
BRANCH   9  14
HETATM   14  C   UNL     1     -11.871  14.917  70.111  1.00  0.00    -0.357 C  
HETATM   15  C   UNL     1     -12.197  13.546  70.612  1.00  0.00    -0.358 C  
HETATM   16  C   UNL     1     -10.980  15.625  71.160  1.00  0.00    -0.245 C  
HETATM   17  C   UNL     1     -13.191  15.696  70.004  1.00  0.00     0.513 C  
HETATM   18  N   UNL     1     -12.432  12.481  71.010  1.00  0.00    -0.334 NA 
ENDBRANCH   9  14
BRANCH  13  19
HETATM   19  C   UNL     1      -8.690  16.787  66.534  1.00  0.00    -0.275 C  
BRANCH  19  20
HETATM   20  N   UNL     1      -9.381  18.050  66.353  1.00  0.00    -0.382 NA 
HETATM   21  C   UNL     1     -10.529  18.287  65.658  1.00  0.00    -0.095 A  
HETATM   22  N   UNL     1     -10.982  19.484  65.950  1.00  0.00    -0.294 NA 
HETATM   23  C   UNL     1     -10.068  19.949  66.851  1.00  0.00    -0.450 A  
HETATM   24  N   UNL     1      -9.066  19.111  67.128  1.00  0.00    -0.282 NA 
ENDBRANCH  19  20
ENDBRANCH  13  19
ENDBRANCH   2   8
TORSDOF 5
ENDMDL
MODEL      161
REMARK 921   NORMALIZED FREE ENERGY PREDICTED BY IDOCK:   -4.38 KCAL/MOL
REMARK 922        TOTAL FREE ENERGY PREDICTED BY IDOCK:   -6.45 KCAL/MOL
REMARK 923 INTER-LIGAND FREE ENERGY PREDICTED BY IDOCK:   -5.88 KCAL/MOL
REMARK 924 INTRA-LIGAND FREE ENERGY PREDICTED BY IDOCK:   -0.57 KCAL/MOL
REMARK 927      BINDING AFFINITY PREDICTED BY RF-SCORE:    0.00 PKD
ROOT
HETATM    1  C   UNL     1      -9.078   8.897  65.346  1.00  0.00    -0.222 C  
HETATM    2  C   UNL     1      -8.893   8.736  66.872  1.00  0.00    -0.142 C  
HETATM    3  C   UNL     1      -9.006   7.224  67.182  1.00  0.00    -0.132 C  
ENDROOT
BRANCH   2   4
HETATM    4  C   UNL     1      -7.471   9.136  67.228  1.00  0.00    -0.088 C  
HETATM    5  H2  UNL     1      -6.035   9.741  66.573  1.00  0.00     0.000 HD 
HETATM    6  N   UNL     1      -6.290   9.469  67.522  1.00  0.00    -0.061 NA 
HETATM    7  H1  UNL     1      -5.336   9.737  67.761  1.00  0.00     0.000 HD 
ENDBRANCH   2   4
BRANCH   2   8
HETATM    8  C   UNL     1      -9.885   9.634  67.605  1.00  0.00    -0.202 A  
HETATM    9  C   UNL     1     -11.080  11.774  67.812  1.00  0.00    -0.302 A  
HETATM   10  C   UNL     1     -10.193  10.915  67.138  1.00  0.00    -0.249 A  
HETATM   11  C   UNL     1     -11.660  11.311  69.006  1.00  0.00    -0.386 A  
HETATM   12  C   UNL     1     -10.494   9.204  68.798  1.00  0.00    -0.236 A  
HETATM   13  C   UNL     1     -11.359  10.037  69.519  1.00  0.00    -0.220 A  
BRANCH   9  14
HETATM   14  C   UNL     1     -11.335  13.173  67.217  1.00  0.00    -0.344 C  
HETATM   15  C   UNL     1     -12.225  13.065  66.021  1.00  0.00    -0.399 C  
HETATM   16  C   UNL     1     -12.040  14.052  68.278  1.00  0.00    -0.312 C  
HETATM   17  C   UNL     1     -10.053  13.897  66.777  1.00  0.00    -0.265 C  
HETATM   18  N   UNL     1     -12.932  12.982  65.104  1.00  0.00    -0.764 NA 
ENDBRANCH   9  14
BRANCH  13  19
HETATM   19  C   UNL     1     -11.888   9.594  70.863  1.00  0.00    -0.323 C  
BRANCH  19  20
HETATM   20  N   UNL     1     -11.298   8.365  71.363  1.00  0.00    -0.252 NA 
HETATM   21  C   UNL     1     -11.646   7.083  71.060  1.00  0.00    -0.320 A  
HETATM   22  N   UNL     1     -10.717   6.261  71.489  1.00  0.00    -0.237 NA 
HETATM   23  C   UNL     1      -9.798   7.100  72.050  1.00  0.00    -0.158 A  
HETATM   24  N   UNL     1     -10.109   8.397  72.003  1.00  0.00    -0.265 NA 
ENDBRANCH  19  20
ENDBRANCH  13  19
ENDBRANCH   2   8
TORSDOF 5
ENDMDL
MODEL      162
REMARK 921   NORMALIZED FREE ENERGY PREDICTED BY IDOCK:   -4.37 KCAL/MOL
REMARK 922        TOTAL FREE ENERGY PREDICTED BY IDOCK:   -6.44 KCAL/MOL
REMARK 923 INTER-LIGAND FREE ENERGY PREDICTED BY IDOCK:   -6.05 KCAL/MOL
REMARK 924 INTRA-LIGAND FREE ENERGY PREDICTED BY IDOCK:   -0.39 KCAL/MOL
REMARK 927      BINDING AFFINITY PREDICTED BY RF-SCORE:    0.00 PKD
ROOT
HETATM    1  C   UNL     1     -12.256  13.364  66.475  1.00  0.00    -0.414 C  
HETATM    2  C   UNL     1     -11.316  13.620  67.676  1.00  0.00    -0.328 C  
HETATM    3  C   UNL     1     -10.036  14.281  67.112  1.00  0.00    -0.254 C  
ENDROOT
BRANCH   2   4
HETATM    4  C   UNL     1     -11.965  14.656  68.580  1.00  0.00    -0.270 C  
HETATM    5  H2  UNL     1     -12.857  14.835  70.005  1.00  0.00     0.000 HD 
HETATM    6  N   UNL     1     -12.503  15.514  69.332  1.00  0.00    -0.597 NA 
HETATM    7  H1  UNL     1     -12.938  16.209  69.938  1.00  0.00     0.000 HD 
ENDBRANCH   2   4
BRANCH   2   8
HETATM    8  C   UNL     1     -11.102  12.321  68.445  1.00  0.00    -0.283 A  
HETATM    9  C   UNL     1      -9.814  10.263  68.847  1.00  0.00    -0.200 A  
HETATM   10  C   UNL     1     -10.017  11.482  68.173  1.00  0.00    -0.197 A  
HETATM   11  C   UNL     1     -10.757   9.888  69.820  1.00  0.00    -0.298 A  
HETATM   12  C   UNL     1     -12.017  11.914  69.433  1.00  0.00    -0.350 A  
HETATM   13  C   UNL     1     -11.872  10.695  70.106  1.00  0.00    -0.421 A  
BRANCH   9  14
HETATM   14  C   UNL     1      -8.593   9.408  68.455  1.00  0.00    -0.123 C  
HETATM   15  C   UNL     1      -8.914   7.956  68.614  1.00  0.00    -0.134 C  
HETATM   16  C   UNL     1      -8.246   9.675  66.971  1.00  0.00    -0.117 C  
HETATM   17  C   UNL     1      -7.342   9.700  69.297  1.00  0.00    -0.079 C  
HETATM   18  N   UNL     1      -9.171   6.829  68.720  1.00  0.00    -0.131 NA 
ENDBRANCH   9  14
BRANCH  13  19
HETATM   19  C   UNL     1     -12.945  10.229  71.064  1.00  0.00    -0.397 C  
BRANCH  19  20
HETATM   20  N   UNL     1     -12.747   8.885  71.575  1.00  0.00    -0.328 NA 
HETATM   21  C   UNL     1     -13.421   7.750  71.235  1.00  0.00    -0.183 A  
HETATM   22  N   UNL     1     -12.781   6.703  71.701  1.00  0.00    -0.306 NA 
HETATM   23  C   UNL     1     -11.699   7.253  72.323  1.00  0.00    -0.265 A  
HETATM   24  N   UNL     1     -11.634   8.586  72.279  1.00  0.00    -0.373 NA 
ENDBRANCH  19  20
ENDBRANCH  13  19
ENDBRANCH   2   8
TORSDOF 5
ENDMDL
MODEL      163
REMARK 921   NORMALIZED FREE ENERGY PREDICTED BY IDOCK:   -4.35 KCAL/MOL
REMARK 922        TOTAL FREE ENERGY PREDICTED BY IDOCK:   -6.41 KCAL/MOL
REMARK 923 INTER-LIGAND FREE ENERGY PREDICTED BY IDOCK:   -5.60 KCAL/MOL
REMARK 924 INTRA-LIGAND FREE ENERGY PREDICTED BY IDOCK:   -0.81 KCAL/MOL
REMARK 927      BINDING AFFINITY PREDICTED BY RF-SCORE:    0.00 PKD
ROOT
HETATM    1  C   UNL     1     -12.030  13.580  68.841  1.00  0.00    -0.378 C  
HETATM    2  C   UNL     1     -11.063  13.022  67.773  1.00  0.00    -0.291 C  
HETATM    3  C   UNL     1     -11.642  13.414  66.393  1.00  0.00    -0.381 C  
ENDROOT
BRANCH   2   4
HETATM    4  C   UNL     1      -9.736  13.753  67.898  1.00  0.00    -0.229 C  
HETATM    5  H2  UNL     1      -8.100  13.661  67.484  1.00  0.00     0.000 HD 
HETATM    6  N   UNL     1      -8.634  14.358  68.002  1.00  0.00    -0.157 NA 
HETATM    7  H1  UNL     1      -7.744  14.848  68.086  1.00  0.00     0.000 HD 
ENDBRANCH   2   4
BRANCH   2   8
HETATM    8  C   UNL     1     -10.856  11.528  67.999  1.00  0.00    -0.259 A  
HETATM    9  C   UNL     1     -10.890   9.567  69.486  1.00  0.00    -0.243 A  
HETATM   10  C   UNL     1     -11.103  10.938  69.242  1.00  0.00    -0.305 A  
HETATM   11  C   UNL     1     -10.402   8.782  68.427  1.00  0.00    -0.242 A  
HETATM   12  C   UNL     1     -10.378  10.706  66.964  1.00  0.00    -0.280 A  
HETATM   13  C   UNL     1     -10.123   9.344  67.169  1.00  0.00    -0.292 A  
BRANCH   9  14
HETATM   14  C   UNL     1     -11.178   9.024  70.899  1.00  0.00    -0.348 C  
HETATM   15  C   UNL     1     -11.624   7.600  70.819  1.00  0.00    -0.265 C  
HETATM   16  C   UNL     1      -9.879   9.087  71.738  1.00  0.00    -0.330 C  
HETATM   17  C   UNL     1     -12.266   9.808  71.649  1.00  0.00    -0.488 C  
HETATM   18  N   UNL     1     -11.951   6.487  70.756  1.00  0.00    -0.351 NA 
ENDBRANCH   9  14
BRANCH  13  19
HETATM   19  C   UNL     1      -9.482   8.522  66.074  1.00  0.00    -0.186 C  
BRANCH  19  20
HETATM   20  N   UNL     1      -8.868   7.290  66.532  1.00  0.00    -0.135 NA 
HETATM   21  C   UNL     1      -9.375   6.026  66.472  1.00  0.00    -0.152 A  
HETATM   22  N   UNL     1      -8.425   5.158  66.732  1.00  0.00    -0.107 NA 
HETATM   23  C   UNL     1      -7.332   5.948  66.938  1.00  0.00    -0.079 A  
HETATM   24  N   UNL     1      -7.551   7.261  66.832  1.00  0.00    -0.103 NA 
ENDBRANCH  19  20
ENDBRANCH  13  19
ENDBRANCH   2   8
TORSDOF 5
ENDMDL
MODEL      164
REMARK 921   NORMALIZED FREE ENERGY PREDICTED BY IDOCK:   -4.32 KCAL/MOL
REMARK 922        TOTAL FREE ENERGY PREDICTED BY IDOCK:   -6.37 KCAL/MOL
REMARK 923 INTER-LIGAND FREE ENERGY PREDICTED BY IDOCK:   -5.58 KCAL/MOL
REMARK 924 INTRA-LIGAND FREE ENERGY PREDICTED BY IDOCK:   -0.79 KCAL/MOL
REMARK 927      BINDING AFFINITY PREDICTED BY RF-SCORE:    0.00 PKD
ROOT
HETATM    1  C   UNL     1     -13.030   7.114  71.242  1.00  0.00    -0.378 C  
HETATM    2  C   UNL     1     -11.874   8.082  71.586  1.00  0.00    -0.329 C  
HETATM    3  C   UNL     1     -12.514   9.458  71.886  1.00  0.00    -0.468 C  
ENDROOT
BRANCH   2   4
HETATM    4  C   UNL     1     -11.234   7.621  72.886  1.00  0.00    -0.372 C  
HETATM    5  H2  UNL     1      -9.989   6.664  73.512  1.00  0.00     0.000 HD 
HETATM    6  N   UNL     1     -10.701   7.237  73.963  1.00  0.00    -0.572 NA 
HETATM    7  H1  UNL     1     -10.272   6.928  74.834  1.00  0.00     0.000 HD 
ENDBRANCH   2   4
BRANCH   2   8
HETATM    8  C   UNL     1     -10.841   8.066  70.464  1.00  0.00    -0.241 A  
HETATM    9  C   UNL     1      -9.870   9.072  68.440  1.00  0.00    -0.183 A  
HETATM   10  C   UNL     1     -10.794   9.080  69.503  1.00  0.00    -0.177 A  
HETATM   11  C   UNL     1      -8.978   7.989  68.355  1.00  0.00    -0.133 A  
HETATM   12  C   UNL     1      -9.925   7.006  70.349  1.00  0.00    -0.187 A  
HETATM   13  C   UNL     1      -9.010   6.942  69.291  1.00  0.00    -0.137 A  
BRANCH   9  14
HETATM   14  C   UNL     1      -9.917  10.232  67.425  1.00  0.00    -0.230 C  
HETATM   15  C   UNL     1     -11.144  11.056  67.647  1.00  0.00    -0.300 C  
HETATM   16  C   UNL     1      -8.675  11.132  67.632  1.00  0.00    -0.129 C  
HETATM   17  C   UNL     1      -9.929   9.768  65.961  1.00  0.00    -0.342 C  
HETATM   18  N   UNL     1     -12.088  11.707  67.833  1.00  0.00    -0.585 NA 
ENDBRANCH   9  14
BRANCH  13  19
HETATM   19  C   UNL     1      -8.132   5.722  69.125  1.00  0.00    -0.101 C  
BRANCH  19  20
HETATM   20  N   UNL     1      -8.781   4.604  68.463  1.00  0.00    -0.097 NA 
HETATM   21  C   UNL     1      -8.933   4.395  67.126  1.00  0.00    -0.119 A  
HETATM   22  N   UNL     1      -9.323   3.158  66.915  1.00  0.00    -0.167 NA 
HETATM   23  C   UNL     1      -9.389   2.637  68.174  1.00  0.00    -0.203 A  
HETATM   24  N   UNL     1      -9.071   3.483  69.157  1.00  0.00    -0.125 NA 
ENDBRANCH  19  20
ENDBRANCH  13  19
ENDBRANCH   2   8
TORSDOF 5
ENDMDL
MODEL      165
REMARK 921   NORMALIZED FREE ENERGY PREDICTED BY IDOCK:   -4.30 KCAL/MOL
REMARK 922        TOTAL FREE ENERGY PREDICTED BY IDOCK:   -6.34 KCAL/MOL
REMARK 923 INTER-LIGAND FREE ENERGY PREDICTED BY IDOCK:   -5.49 KCAL/MOL
REMARK 924 INTRA-LIGAND FREE ENERGY PREDICTED BY IDOCK:   -0.85 KCAL/MOL
REMARK 927      BINDING AFFINITY PREDICTED BY RF-SCORE:    0.00 PKD
ROOT
HETATM    1  C   UNL     1      -5.854  15.678  67.858  1.00  0.00    -0.155 C  
HETATM    2  C   UNL     1      -7.235  16.370  67.922  1.00  0.00    -0.150 C  
HETATM    3  C   UNL     1      -7.188  17.357  69.113  1.00  0.00    -0.175 C  
ENDROOT
BRANCH   2   4
HETATM    4  C   UNL     1      -7.404  17.221  66.673  1.00  0.00    -0.247 C  
HETATM    5  H2  UNL     1      -7.492  18.819  66.131  1.00  0.00     0.000 HD 
HETATM    6  N   UNL     1      -7.544  17.927  65.638  1.00  0.00    -0.527 NA 
HETATM    7  H1  UNL     1      -7.658  18.497  64.801  1.00  0.00     0.000 HD 
ENDBRANCH   2   4
BRANCH   2   8
HETATM    8  C   UNL     1      -8.334  15.315  67.985  1.00  0.00    -0.146 A  
HETATM    9  C   UNL     1     -10.434  14.471  68.951  1.00  0.00    -0.246 A  
HETATM   10  C   UNL     1      -9.422  15.445  68.853  1.00  0.00    -0.219 A  
HETATM   11  C   UNL     1     -10.320  13.325  68.144  1.00  0.00    -0.246 A  
HETATM   12  C   UNL     1      -8.263  14.159  67.187  1.00  0.00    -0.166 A  
HETATM   13  C   UNL     1      -9.230  13.150  67.274  1.00  0.00    -0.221 A  
BRANCH   9  14
HETATM   14  C   UNL     1     -11.579  14.708  69.955  1.00  0.00    -0.333 C  
HETATM   15  C   UNL     1     -12.084  13.399  70.472  1.00  0.00    -0.323 C  
HETATM   16  C   UNL     1     -11.042  15.535  71.147  1.00  0.00    -0.367 C  
HETATM   17  C   UNL     1     -12.776  15.461  69.355  1.00  0.00     0.216 C  
HETATM   18  N   UNL     1     -12.462  12.383  70.888  1.00  0.00    -0.342 NA 
ENDBRANCH   9  14
BRANCH  13  19
HETATM   19  C   UNL     1      -9.050  11.863  66.502  1.00  0.00    -0.211 C  
BRANCH  19  20
HETATM   20  N   UNL     1      -9.834  11.782  65.283  1.00  0.00    -0.242 NA 
HETATM   21  C   UNL     1     -10.430  12.799  64.600  1.00  0.00    -0.350 A  
HETATM   22  N   UNL     1     -10.810  12.373  63.417  1.00  0.00    -0.433 NA 
HETATM   23  C   UNL     1     -10.410  11.068  63.417  1.00  0.00    -0.312 A  
HETATM   24  N   UNL     1      -9.812  10.656  64.537  1.00  0.00    -0.299 NA 
ENDBRANCH  19  20
ENDBRANCH  13  19
ENDBRANCH   2   8
TORSDOF 5
ENDMDL
MODEL      166
REMARK 921   NORMALIZED FREE ENERGY PREDICTED BY IDOCK:   -4.27 KCAL/MOL
REMARK 922        TOTAL FREE ENERGY PREDICTED BY IDOCK:   -6.31 KCAL/MOL
REMARK 923 INTER-LIGAND FREE ENERGY PREDICTED BY IDOCK:   -5.43 KCAL/MOL
REMARK 924 INTRA-LIGAND FREE ENERGY PREDICTED BY IDOCK:   -0.88 KCAL/MOL
REMARK 927      BINDING AFFINITY PREDICTED BY RF-SCORE:    0.00 PKD
ROOT
HETATM    1  C   UNL     1      -7.469  17.752  66.208  1.00  0.00    -0.328 C  
HETATM    2  C   UNL     1      -8.375  17.360  67.398  1.00  0.00    -0.215 C  
HETATM    3  C   UNL     1      -7.749  17.987  68.666  1.00  0.00    -0.304 C  
ENDROOT
BRANCH   2   4
HETATM    4  C   UNL     1      -9.726  18.033  67.214  1.00  0.00    -0.297 C  
HETATM    5  H2  UNL     1     -10.704  19.279  67.804  1.00  0.00     0.000 HD 
HETATM    6  N   UNL     1     -10.846  18.593  67.063  1.00  0.00    -0.327 NA 
HETATM    7  H1  UNL     1     -11.752  19.044  66.940  1.00  0.00     0.000 HD 
ENDBRANCH   2   4
BRANCH   2   8
HETATM    8  C   UNL     1      -8.551  15.845  67.430  1.00  0.00    -0.189 A  
HETATM    9  C   UNL     1      -9.996  13.865  67.641  1.00  0.00    -0.237 A  
HETATM   10  C   UNL     1      -9.811  15.260  67.577  1.00  0.00    -0.213 A  
HETATM   11  C   UNL     1      -8.854  13.049  67.562  1.00  0.00    -0.195 A  
HETATM   12  C   UNL     1      -7.435  14.993  67.345  1.00  0.00    -0.234 A  
HETATM   13  C   UNL     1      -7.569  13.602  67.434  1.00  0.00    -0.144 A  
BRANCH   9  14
HETATM   14  C   UNL     1     -11.429  13.327  67.822  1.00  0.00    -0.354 C  
HETATM   15  C   UNL     1     -11.980  13.772  69.139  1.00  0.00    -0.361 C  
HETATM   16  C   UNL     1     -12.327  13.895  66.696  1.00  0.00    -0.411 C  
HETATM   17  C   UNL     1     -11.521  11.794  67.776  1.00  0.00    -0.381 C  
HETATM   18  N   UNL     1     -12.413  14.135  70.153  1.00  0.00    -0.350 NA 
ENDBRANCH   9  14
BRANCH  13  19
HETATM   19  C   UNL     1      -6.337  12.726  67.474  1.00  0.00    -0.162 C  
BRANCH  19  20
HETATM   20  N   UNL     1      -6.192  11.954  68.695  1.00  0.00    -0.052 NA 
HETATM   21  C   UNL     1      -5.946  12.413  69.954  1.00  0.00    -0.146 A  
HETATM   22  N   UNL     1      -6.153  11.449  70.822  1.00  0.00    -0.343 NA 
HETATM   23  C   UNL     1      -6.540  10.403  70.035  1.00  0.00    -0.137 A  
HETATM   24  N   UNL     1      -6.575  10.659  68.726  1.00  0.00    -0.052 NA 
ENDBRANCH  19  20
ENDBRANCH  13  19
ENDBRANCH   2   8
TORSDOF 5
ENDMDL
MODEL      167
REMARK 921   NORMALIZED FREE ENERGY PREDICTED BY IDOCK:   -4.27 KCAL/MOL
REMARK 922        TOTAL FREE ENERGY PREDICTED BY IDOCK:   -6.31 KCAL/MOL
REMARK 923 INTER-LIGAND FREE ENERGY PREDICTED BY IDOCK:   -5.73 KCAL/MOL
REMARK 924 INTRA-LIGAND FREE ENERGY PREDICTED BY IDOCK:   -0.58 KCAL/MOL
REMARK 927      BINDING AFFINITY PREDICTED BY RF-SCORE:    0.00 PKD
ROOT
HETATM    1  C   UNL     1     -12.102  13.308  66.862  1.00  0.00    -0.389 C  
HETATM    2  C   UNL     1     -10.942  13.039  67.848  1.00  0.00    -0.264 C  
HETATM    3  C   UNL     1      -9.685  13.724  67.262  1.00  0.00    -0.242 C  
ENDROOT
BRANCH   2   4
HETATM    4  C   UNL     1     -11.247  13.756  69.153  1.00  0.00    -0.262 C  
HETATM    5  H2  UNL     1     -11.315  15.286  69.868  1.00  0.00     0.000 HD 
HETATM    6  N   UNL     1     -11.499  14.353  70.235  1.00  0.00    -0.426 NA 
HETATM    7  H1  UNL     1     -11.703  14.834  71.111  1.00  0.00     0.000 HD 
ENDBRANCH   2   4
BRANCH   2   8
HETATM    8  C   UNL     1     -10.819  11.539  68.096  1.00  0.00    -0.259 A  
HETATM    9  C   UNL     1     -11.030   9.596  69.591  1.00  0.00    -0.253 A  
HETATM   10  C   UNL     1     -11.164  10.972  69.327  1.00  0.00    -0.321 A  
HETATM   11  C   UNL     1     -10.518   8.780  68.568  1.00  0.00    -0.212 A  
HETATM   12  C   UNL     1     -10.321  10.686  67.095  1.00  0.00    -0.275 A  
HETATM   13  C   UNL     1     -10.142   9.316  67.324  1.00  0.00    -0.291 A  
BRANCH   9  14
HETATM   14  C   UNL     1     -11.423   9.080  70.989  1.00  0.00    -0.358 C  
HETATM   15  C   UNL     1     -10.199   8.870  71.820  1.00  0.00    -0.344 C  
HETATM   16  C   UNL     1     -12.314  10.138  71.685  1.00  0.00    -0.471 C  
HETATM   17  C   UNL     1     -12.197   7.753  70.961  1.00  0.00    -0.236 C  
HETATM   18  N   UNL     1      -9.247   8.726  72.470  1.00  0.00    -0.337 NA 
ENDBRANCH   9  14
BRANCH  13  19
HETATM   19  C   UNL     1      -9.479   8.455  66.273  1.00  0.00    -0.224 C  
BRANCH  19  20
HETATM   20  N   UNL     1      -9.430   7.042  66.602  1.00  0.00    -0.163 NA 
HETATM   21  C   UNL     1      -8.556   6.402  67.428  1.00  0.00    -0.107 A  
HETATM   22  N   UNL     1      -8.995   5.191  67.681  1.00  0.00    -0.109 NA 
HETATM   23  C   UNL     1     -10.167   5.135  66.984  1.00  0.00    -0.223 A  
HETATM   24  N   UNL     1     -10.476   6.241  66.303  1.00  0.00     0.037 NA 
ENDBRANCH  19  20
ENDBRANCH  13  19
ENDBRANCH   2   8
TORSDOF 5
ENDMDL
MODEL      168
REMARK 921   NORMALIZED FREE ENERGY PREDICTED BY IDOCK:   -4.25 KCAL/MOL
REMARK 922        TOTAL FREE ENERGY PREDICTED BY IDOCK:   -6.28 KCAL/MOL
REMARK 923 INTER-LIGAND FREE ENERGY PREDICTED BY IDOCK:   -5.51 KCAL/MOL
REMARK 924 INTRA-LIGAND FREE ENERGY PREDICTED BY IDOCK:   -0.77 KCAL/MOL
REMARK 927      BINDING AFFINITY PREDICTED BY RF-SCORE:    0.00 PKD
ROOT
HETATM    1  C   UNL     1      -8.126  16.233  69.578  1.00  0.00     0.098 C  
HETATM    2  C   UNL     1      -9.285  16.231  68.556  1.00  0.00    -0.211 C  
HETATM    3  C   UNL     1     -10.177  17.451  68.884  1.00  0.00    -0.352 C  
ENDROOT
BRANCH   2   4
HETATM    4  C   UNL     1      -8.706  16.488  67.174  1.00  0.00    -0.195 C  
HETATM    5  H2  UNL     1      -8.557  17.666  65.971  1.00  0.00     0.000 HD 
HETATM    6  N   UNL     1      -8.227  16.703  66.027  1.00  0.00    -0.408 NA 
HETATM    7  H1  UNL     1      -7.839  16.875  65.100  1.00  0.00     0.000 HD 
ENDBRANCH   2   4
BRANCH   2   8
HETATM    8  C   UNL     1      -9.987  14.877  68.581  1.00  0.00    -0.224 A  
HETATM    9  C   UNL     1     -10.586  12.759  67.480  1.00  0.00    -0.240 A  
HETATM   10  C   UNL     1      -9.922  14.001  67.493  1.00  0.00    -0.236 A  
HETATM   11  C   UNL     1     -11.347  12.412  68.609  1.00  0.00    -0.332 A  
HETATM   12  C   UNL     1     -10.751  14.487  69.695  1.00  0.00    -0.128 A  
HETATM   13  C   UNL     1     -11.453  13.275  69.713  1.00  0.00    -0.228 A  
BRANCH   9  14
HETATM   14  C   UNL     1     -10.460  11.879  66.221  1.00  0.00    -0.274 C  
HETATM   15  C   UNL     1     -10.296  10.446  66.613  1.00  0.00    -0.231 C  
HETATM   16  C   UNL     1     -11.753  12.014  65.380  1.00  0.00    -0.317 C  
HETATM   17  C   UNL     1      -9.270  12.253  65.325  1.00  0.00     0.293 C  
HETATM   18  N   UNL     1     -10.188   9.331  66.920  1.00  0.00    -0.249 NA 
ENDBRANCH   9  14
BRANCH  13  19
HETATM   19  C   UNL     1     -12.370  12.951  70.870  1.00  0.00    -0.275 C  
BRANCH  19  20
HETATM   20  N   UNL     1     -12.818  14.109  71.622  1.00  0.00    -0.333 NA 
HETATM   21  C   UNL     1     -13.911  14.889  71.389  1.00  0.00    -0.459 A  
HETATM   22  N   UNL     1     -14.130  15.661  72.429  1.00  0.00    -0.543 NA 
HETATM   23  C   UNL     1     -13.135  15.306  73.292  1.00  0.00    -0.513 A  
HETATM   24  N   UNL     1     -12.302  14.364  72.844  1.00  0.00    -0.153 NA 
ENDBRANCH  19  20
ENDBRANCH  13  19
ENDBRANCH   2   8
TORSDOF 5
ENDMDL
MODEL      169
REMARK 921   NORMALIZED FREE ENERGY PREDICTED BY IDOCK:   -4.24 KCAL/MOL
REMARK 922        TOTAL FREE ENERGY PREDICTED BY IDOCK:   -6.27 KCAL/MOL
REMARK 923 INTER-LIGAND FREE ENERGY PREDICTED BY IDOCK:   -5.41 KCAL/MOL
REMARK 924 INTRA-LIGAND FREE ENERGY PREDICTED BY IDOCK:   -0.86 KCAL/MOL
REMARK 927      BINDING AFFINITY PREDICTED BY RF-SCORE:    0.00 PKD
ROOT
HETATM    1  C   UNL     1     -10.781   9.824  70.371  1.00  0.00    -0.368 C  
HETATM    2  C   UNL     1      -9.923   8.641  69.869  1.00  0.00    -0.189 C  
HETATM    3  C   UNL     1      -8.652   8.601  70.749  1.00  0.00    -0.197 C  
ENDROOT
BRANCH   2   4
HETATM    4  C   UNL     1     -10.674   7.350  70.151  1.00  0.00    -0.242 C  
HETATM    5  H2  UNL     1     -11.676   6.590  71.281  1.00  0.00     0.000 HD 
HETATM    6  N   UNL     1     -11.298   6.279  70.386  1.00  0.00    -0.369 NA 
HETATM    7  H1  UNL     1     -11.802   5.413  70.575  1.00  0.00     0.000 HD 
ENDBRANCH   2   4
BRANCH   2   8
HETATM    8  C   UNL     1      -9.681   8.784  68.370  1.00  0.00    -0.175 A  
HETATM    9  C   UNL     1      -8.998   7.816  66.213  1.00  0.00    -0.209 A  
HETATM   10  C   UNL     1      -9.258   7.702  67.592  1.00  0.00    -0.144 A  
HETATM   11  C   UNL     1      -9.167   9.078  65.617  1.00  0.00    -0.288 A  
HETATM   12  C   UNL     1      -9.848  10.027  67.733  1.00  0.00    -0.185 A  
HETATM   13  C   UNL     1      -9.572  10.194  66.370  1.00  0.00    -0.242 A  
BRANCH   9  14
HETATM   14  C   UNL     1      -8.519   6.562  65.456  1.00  0.00    -0.139 C  
HETATM   15  C   UNL     1      -7.413   5.900  66.212  1.00  0.00    -0.086 C  
HETATM   16  C   UNL     1      -9.697   5.566  65.332  1.00  0.00     0.246 C  
HETATM   17  C   UNL     1      -7.998   6.860  64.041  1.00  0.00    -0.070 C  
HETATM   18  N   UNL     1      -6.568   5.375  66.811  1.00  0.00    -0.054 NA 
ENDBRANCH   9  14
BRANCH  13  19
HETATM   19  C   UNL     1      -9.633  11.571  65.750  1.00  0.00    -0.235 C  
BRANCH  19  20
HETATM   20  N   UNL     1     -10.901  11.886  65.117  1.00  0.00    -0.292 NA 
HETATM   21  C   UNL     1     -11.995  12.472  65.678  1.00  0.00    -0.433 A  
HETATM   22  N   UNL     1     -12.833  12.836  64.734  1.00  0.00    -0.796 NA 
HETATM   23  C   UNL     1     -12.193  12.455  63.591  1.00  0.00    -0.557 A  
HETATM   24  N   UNL     1     -11.009  11.865  63.771  1.00  0.00    -0.385 NA 
ENDBRANCH  19  20
ENDBRANCH  13  19
ENDBRANCH   2   8
TORSDOF 5
ENDMDL
MODEL      170
REMARK 921   NORMALIZED FREE ENERGY PREDICTED BY IDOCK:   -4.23 KCAL/MOL
REMARK 922        TOTAL FREE ENERGY PREDICTED BY IDOCK:   -6.26 KCAL/MOL
REMARK 923 INTER-LIGAND FREE ENERGY PREDICTED BY IDOCK:   -5.40 KCAL/MOL
REMARK 924 INTRA-LIGAND FREE ENERGY PREDICTED BY IDOCK:   -0.86 KCAL/MOL
REMARK 927      BINDING AFFINITY PREDICTED BY RF-SCORE:    0.00 PKD
ROOT
HETATM    1  C   UNL     1     -11.918  12.721  67.603  1.00  0.00    -0.331 C  
HETATM    2  C   UNL     1     -11.178  12.408  66.282  1.00  0.00    -0.361 C  
HETATM    3  C   UNL     1     -12.234  12.458  65.153  1.00  0.00    -0.449 C  
ENDROOT
BRANCH   2   4
HETATM    4  C   UNL     1     -10.201  13.538  66.000  1.00  0.00    -0.305 C  
HETATM    5  H2  UNL     1     -10.083  15.083  65.326  1.00  0.00     0.000 HD 
HETATM    6  N   UNL     1      -9.392  14.476  65.765  1.00  0.00    -0.531 NA 
HETATM    7  H1  UNL     1      -8.736  15.234  65.576  1.00  0.00     0.000 HD 
ENDBRANCH   2   4
BRANCH   2   8
HETATM    8  C   UNL     1     -10.423  11.090  66.418  1.00  0.00    -0.312 A  
HETATM    9  C   UNL     1      -8.685   9.533  65.638  1.00  0.00    -0.173 A  
HETATM   10  C   UNL     1      -9.377  10.755  65.553  1.00  0.00    -0.242 A  
HETATM   11  C   UNL     1      -9.083   8.623  66.633  1.00  0.00    -0.203 A  
HETATM   12  C   UNL     1     -10.784  10.156  67.406  1.00  0.00    -0.336 A  
HETATM   13  C   UNL     1     -10.143   8.915  67.508  1.00  0.00    -0.285 A  
BRANCH   9  14
HETATM   14  C   UNL     1      -7.559   9.259  64.621  1.00  0.00    -0.106 C  
HETATM   15  C   UNL     1      -7.818   7.973  63.905  1.00  0.00    -0.142 C  
HETATM   16  C   UNL     1      -7.531  10.404  63.581  1.00  0.00    -0.024 C  
HETATM   17  C   UNL     1      -6.165   9.162  65.258  1.00  0.00    -0.064 C  
HETATM   18  N   UNL     1      -8.031   6.983  63.337  1.00  0.00    -0.099 NA 
ENDBRANCH   9  14
BRANCH  13  19
HETATM   19  C   UNL     1     -10.646   7.884  68.493  1.00  0.00    -0.106 C  
BRANCH  19  20
HETATM   20  N   UNL     1     -10.369   8.199  69.883  1.00  0.00    -0.210 NA 
HETATM   21  C   UNL     1      -9.318   8.903  70.389  1.00  0.00    -0.193 A  
HETATM   22  N   UNL     1      -9.557   9.208  71.644  1.00  0.00    -0.299 NA 
HETATM   23  C   UNL     1     -10.791   8.670  71.863  1.00  0.00    -0.348 A  
HETATM   24  N   UNL     1     -11.330   8.037  70.818  1.00  0.00    -0.274 NA 
ENDBRANCH  19  20
ENDBRANCH  13  19
ENDBRANCH   2   8
TORSDOF 5
ENDMDL
MODEL      171
REMARK 921   NORMALIZED FREE ENERGY PREDICTED BY IDOCK:   -4.23 KCAL/MOL
REMARK 922        TOTAL FREE ENERGY PREDICTED BY IDOCK:   -6.25 KCAL/MOL
REMARK 923 INTER-LIGAND FREE ENERGY PREDICTED BY IDOCK:   -5.69 KCAL/MOL
REMARK 924 INTRA-LIGAND FREE ENERGY PREDICTED BY IDOCK:   -0.56 KCAL/MOL
REMARK 927      BINDING AFFINITY PREDICTED BY RF-SCORE:    0.00 PKD
ROOT
HETATM    1  C   UNL     1     -11.816  14.550  63.993  1.00  0.00    -0.178 C  
HETATM    2  C   UNL     1     -11.159  13.416  64.813  1.00  0.00    -0.363 C  
HETATM    3  C   UNL     1     -12.301  12.490  65.293  1.00  0.00    -0.469 C  
ENDROOT
BRANCH   2   4
HETATM    4  C   UNL     1     -10.301  12.581  63.876  1.00  0.00    -0.409 C  
HETATM    5  H2  UNL     1      -9.414  12.648  62.440  1.00  0.00     0.000 HD 
HETATM    6  N   UNL     1      -9.589  11.890  63.098  1.00  0.00    -0.604 NA 
HETATM    7  H1  UNL     1      -9.014  11.329  62.470  1.00  0.00     0.000 HD 
ENDBRANCH   2   4
BRANCH   2   8
HETATM    8  C   UNL     1     -10.292  14.017  65.915  1.00  0.00    -0.327 A  
HETATM    9  C   UNL     1      -9.546  15.960  67.227  1.00  0.00    -0.220 A  
HETATM   10  C   UNL     1     -10.358  15.376  66.236  1.00  0.00    -0.304 A  
HETATM   11  C   UNL     1      -8.634  15.129  67.899  1.00  0.00    -0.154 A  
HETATM   12  C   UNL     1      -9.373  13.218  66.618  1.00  0.00    -0.247 A  
HETATM   13  C   UNL     1      -8.524  13.763  67.590  1.00  0.00    -0.183 A  
BRANCH   9  14
HETATM   14  C   UNL     1      -9.689  17.473  67.488  1.00  0.00    -0.278 C  
HETATM   15  C   UNL     1     -10.265  18.147  66.285  1.00  0.00    -0.395 C  
HETATM   16  C   UNL     1     -10.651  17.689  68.681  1.00  0.00    -0.245 C  
HETATM   17  C   UNL     1      -8.360  18.169  67.817  1.00  0.00    -0.253 C  
HETATM   18  N   UNL     1     -10.730  18.666  65.356  1.00  0.00    -0.518 NA 
ENDBRANCH   9  14
BRANCH  13  19
HETATM   19  C   UNL     1      -7.457  12.903  68.229  1.00  0.00    -0.125 C  
BRANCH  19  20
HETATM   20  N   UNL     1      -6.901  11.890  67.350  1.00  0.00    -0.117 NA 
HETATM   21  C   UNL     1      -7.434  10.679  67.022  1.00  0.00    -0.106 A  
HETATM   22  N   UNL     1      -6.779  10.172  66.003  1.00  0.00    -0.099 NA 
HETATM   23  C   UNL     1      -5.844  11.127  65.731  1.00  0.00     0.013 A  
HETATM   24  N   UNL     1      -5.873  12.197  66.529  1.00  0.00    -0.113 NA 
ENDBRANCH  19  20
ENDBRANCH  13  19
ENDBRANCH   2   8
TORSDOF 5
ENDMDL
MODEL      172
REMARK 921   NORMALIZED FREE ENERGY PREDICTED BY IDOCK:   -4.20 KCAL/MOL
REMARK 922        TOTAL FREE ENERGY PREDICTED BY IDOCK:   -6.21 KCAL/MOL
REMARK 923 INTER-LIGAND FREE ENERGY PREDICTED BY IDOCK:   -6.81 KCAL/MOL
REMARK 924 INTRA-LIGAND FREE ENERGY PREDICTED BY IDOCK:    0.60 KCAL/MOL
REMARK 927      BINDING AFFINITY PREDICTED BY RF-SCORE:    0.00 PKD
ROOT
HETATM    1  C   UNL     1     -10.271  10.765  64.890  1.00  0.00    -0.388 C  
HETATM    2  C   UNL     1      -9.463  10.170  66.066  1.00  0.00    -0.248 C  
HETATM    3  C   UNL     1      -9.348   8.649  65.810  1.00  0.00    -0.227 C  
ENDROOT
BRANCH   2   4
HETATM    4  C   UNL     1      -8.047  10.720  66.002  1.00  0.00    -0.158 C  
HETATM    5  H2  UNL     1      -6.918  11.421  64.958  1.00  0.00     0.000 HD 
HETATM    6  N   UNL     1      -6.873  11.176  65.947  1.00  0.00    -0.365 NA 
HETATM    7  H1  UNL     1      -5.923  11.544  65.904  1.00  0.00     0.000 HD 
ENDBRANCH   2   4
BRANCH   2   8
HETATM    8  C   UNL     1     -10.115  10.567  67.387  1.00  0.00    -0.236 A  
HETATM    9  C   UNL     1     -10.923   9.975  69.634  1.00  0.00    -0.301 A  
HETATM   10  C   UNL     1     -10.297   9.641  68.418  1.00  0.00    -0.233 A  
HETATM   11  C   UNL     1     -11.384  11.294  69.793  1.00  0.00    -0.348 A  
HETATM   12  C   UNL     1     -10.580  11.879  67.590  1.00  0.00    -0.241 A  
HETATM   13  C   UNL     1     -11.236  12.248  68.771  1.00  0.00    -0.312 A  
BRANCH   9  14
HETATM   14  C   UNL     1     -11.089   8.871  70.696  1.00  0.00    -0.306 C  
HETATM   15  C   UNL     1     -11.114   7.529  70.039  1.00  0.00    -0.204 C  
HETATM   16  C   UNL     1      -9.885   8.921  71.668  1.00  0.00    -0.387 C  
HETATM   17  C   UNL     1     -12.375   9.004  71.527  1.00  0.00    -0.397 C  
HETATM   18  N   UNL     1     -11.113   6.486  69.528  1.00  0.00    -0.341 NA 
ENDBRANCH   9  14
BRANCH  13  19
HETATM   19  C   UNL     1     -11.842  13.627  68.899  1.00  0.00    -0.364 C  
BRANCH  19  20
HETATM   20  N   UNL     1     -12.480  13.883  70.178  1.00  0.00    -0.321 NA 
HETATM   21  C   UNL     1     -13.252  14.949  70.531  1.00  0.00    -0.190 A  
HETATM   22  N   UNL     1     -13.863  14.692  71.665  1.00  0.00    -0.405 NA 
HETATM   23  C   UNL     1     -13.435  13.433  71.968  1.00  0.00    -0.494 A  
HETATM   24  N   UNL     1     -12.584  12.895  71.093  1.00  0.00    -0.344 NA 
ENDBRANCH  19  20
ENDBRANCH  13  19
ENDBRANCH   2   8
TORSDOF 5
ENDMDL
MODEL      173
REMARK 921   NORMALIZED FREE ENERGY PREDICTED BY IDOCK:   -4.19 KCAL/MOL
REMARK 922        TOTAL FREE ENERGY PREDICTED BY IDOCK:   -6.21 KCAL/MOL
REMARK 923 INTER-LIGAND FREE ENERGY PREDICTED BY IDOCK:   -5.58 KCAL/MOL
REMARK 924 INTRA-LIGAND FREE ENERGY PREDICTED BY IDOCK:   -0.63 KCAL/MOL
REMARK 927      BINDING AFFINITY PREDICTED BY RF-SCORE:    0.00 PKD
ROOT
HETATM    1  C   UNL     1     -10.026  10.473  64.171  1.00  0.00    -0.385 C  
HETATM    2  C   UNL     1     -10.788  11.741  64.620  1.00  0.00    -0.363 C  
HETATM    3  C   UNL     1     -10.043  12.953  64.013  1.00  0.00    -0.142 C  
ENDROOT
BRANCH   2   4
HETATM    4  C   UNL     1     -12.166  11.725  63.978  1.00  0.00    -0.247 C  
HETATM    5  H2  UNL     1     -13.647  12.539  63.940  1.00  0.00     0.000 HD 
HETATM    6  N   UNL     1     -13.310  11.713  63.446  1.00  0.00    -0.454 NA 
HETATM    7  H1  UNL     1     -14.234  11.702  63.015  1.00  0.00     0.000 HD 
ENDBRANCH   2   4
BRANCH   2   8
HETATM    8  C   UNL     1     -10.924  11.746  66.139  1.00  0.00    -0.355 A  
HETATM    9  C   UNL     1     -11.161  12.971  68.260  1.00  0.00    -0.293 A  
HETATM   10  C   UNL     1     -11.065  12.938  66.856  1.00  0.00    -0.312 A  
HETATM   11  C   UNL     1     -11.099  11.747  68.949  1.00  0.00    -0.297 A  
HETATM   12  C   UNL     1     -10.877  10.542  66.866  1.00  0.00    -0.252 A  
HETATM   13  C   UNL     1     -10.937  10.530  68.265  1.00  0.00    -0.314 A  
BRANCH   9  14
HETATM   14  C   UNL     1     -11.296  14.343  68.949  1.00  0.00    -0.300 C  
HETATM   15  C   UNL     1     -11.985  14.187  70.267  1.00  0.00    -0.334 C  
HETATM   16  C   UNL     1      -9.883  14.924  69.198  1.00  0.00    -0.200 C  
HETATM   17  C   UNL     1     -12.093  15.368  68.129  1.00  0.00     0.103 C  
HETATM   18  N   UNL     1     -12.502  14.062  71.299  1.00  0.00    -0.358 NA 
ENDBRANCH   9  14
BRANCH  13  19
HETATM   19  C   UNL     1     -10.749   9.233  69.018  1.00  0.00    -0.167 C  
BRANCH  19  20
HETATM   20  N   UNL     1     -10.047   8.205  68.271  1.00  0.00    -0.191 NA 
HETATM   21  C   UNL     1     -10.569   7.300  67.397  1.00  0.00    -0.300 A  
HETATM   22  N   UNL     1      -9.597   6.726  66.725  1.00  0.00    -0.161 NA 
HETATM   23  C   UNL     1      -8.479   7.328  67.224  1.00  0.00    -0.118 A  
HETATM   24  N   UNL     1      -8.700   8.238  68.176  1.00  0.00    -0.136 NA 
ENDBRANCH  19  20
ENDBRANCH  13  19
ENDBRANCH   2   8
TORSDOF 5
ENDMDL
MODEL      174
REMARK 921   NORMALIZED FREE ENERGY PREDICTED BY IDOCK:   -4.18 KCAL/MOL
REMARK 922        TOTAL FREE ENERGY PREDICTED BY IDOCK:   -6.20 KCAL/MOL
REMARK 923 INTER-LIGAND FREE ENERGY PREDICTED BY IDOCK:   -5.31 KCAL/MOL
REMARK 924 INTRA-LIGAND FREE ENERGY PREDICTED BY IDOCK:   -0.89 KCAL/MOL
REMARK 927      BINDING AFFINITY PREDICTED BY RF-SCORE:    0.00 PKD
ROOT
HETATM    1  C   UNL     1     -11.450   9.070  70.725  1.00  0.00    -0.331 C  
HETATM    2  C   UNL     1     -11.657   7.703  71.415  1.00  0.00    -0.300 C  
HETATM    3  C   UNL     1     -11.078   7.828  72.844  1.00  0.00    -0.457 C  
ENDROOT
BRANCH   2   4
HETATM    4  C   UNL     1     -13.151   7.472  71.582  1.00  0.00    -0.358 C  
HETATM    5  H2  UNL     1     -14.551   7.035  70.742  1.00  0.00     0.000 HD 
HETATM    6  N   UNL     1     -14.390   7.280  71.719  1.00  0.00    -0.549 NA 
HETATM    7  H1  UNL     1     -15.391   7.125  71.830  1.00  0.00     0.000 HD 
ENDBRANCH   2   4
BRANCH   2   8
HETATM    8  C   UNL     1     -11.054   6.598  70.555  1.00  0.00    -0.359 A  
HETATM    9  C   UNL     1      -9.727   4.536  70.346  1.00  0.00    -0.287 A  
HETATM   10  C   UNL     1     -10.320   5.551  71.121  1.00  0.00    -0.300 A  
HETATM   11  C   UNL     1      -9.882   4.603  68.951  1.00  0.00    -0.211 A  
HETATM   12  C   UNL     1     -11.194   6.623  69.156  1.00  0.00    -0.305 A  
HETATM   13  C   UNL     1     -10.595   5.651  68.344  1.00  0.00    -0.249 A  
BRANCH   9  14
HETATM   14  C   UNL     1      -8.925   3.439  71.073  1.00  0.00    -0.161 C  
HETATM   15  C   UNL     1      -7.948   4.060  72.017  1.00  0.00    -0.084 C  
HETATM   16  C   UNL     1      -9.902   2.555  71.886  1.00  0.00    -0.228 C  
HETATM   17  C   UNL     1      -8.135   2.524  70.124  1.00  0.00    -0.056 C  
HETATM   18  N   UNL     1      -7.203   4.544  72.765  1.00  0.00    -0.078 NA 
ENDBRANCH   9  14
BRANCH  13  19
HETATM   19  C   UNL     1     -10.653   5.785  66.839  1.00  0.00    -0.308 C  
BRANCH  19  20
HETATM   20  N   UNL     1      -9.375   6.074  66.214  1.00  0.00    -0.159 NA 
HETATM   21  C   UNL     1      -8.637   5.267  65.401  1.00  0.00    -0.149 A  
HETATM   22  N   UNL     1      -7.691   5.972  64.823  1.00  0.00    -0.094 NA 
HETATM   23  C   UNL     1      -7.898   7.228  65.314  1.00  0.00    -0.121 A  
HETATM   24  N   UNL     1      -8.914   7.343  66.173  1.00  0.00    -0.164 NA 
ENDBRANCH  19  20
ENDBRANCH  13  19
ENDBRANCH   2   8
TORSDOF 5
ENDMDL
MODEL      175
REMARK 921   NORMALIZED FREE ENERGY PREDICTED BY IDOCK:   -4.18 KCAL/MOL
REMARK 922        TOTAL FREE ENERGY PREDICTED BY IDOCK:   -6.19 KCAL/MOL
REMARK 923 INTER-LIGAND FREE ENERGY PREDICTED BY IDOCK:   -5.31 KCAL/MOL
REMARK 924 INTRA-LIGAND FREE ENERGY PREDICTED BY IDOCK:   -0.88 KCAL/MOL
REMARK 927      BINDING AFFINITY PREDICTED BY RF-SCORE:    0.00 PKD
ROOT
HETATM    1  C   UNL     1     -11.245  10.923  67.625  1.00  0.00    -0.379 C  
HETATM    2  C   UNL     1     -10.117   9.967  67.175  1.00  0.00    -0.270 C  
HETATM    3  C   UNL     1      -9.969  10.134  65.644  1.00  0.00    -0.348 C  
ENDROOT
BRANCH   2   4
HETATM    4  C   UNL     1      -8.809  10.449  67.782  1.00  0.00    -0.128 C  
HETATM    5  H2  UNL     1      -7.492   9.954  68.718  1.00  0.00     0.000 HD 
HETATM    6  N   UNL     1      -7.724  10.848  68.287  1.00  0.00    -0.105 NA 
HETATM    7  H1  UNL     1      -6.848  11.172  68.694  1.00  0.00     0.000 HD 
ENDBRANCH   2   4
BRANCH   2   8
HETATM    8  C   UNL     1     -10.422   8.552  67.657  1.00  0.00    -0.308 A  
HETATM    9  C   UNL     1     -10.864   6.966  69.485  1.00  0.00    -0.287 A  
HETATM   10  C   UNL     1     -10.612   8.268  69.012  1.00  0.00    -0.167 A  
HETATM   11  C   UNL     1     -10.913   5.925  68.542  1.00  0.00    -0.277 A  
HETATM   12  C   UNL     1     -10.489   7.484  66.744  1.00  0.00    -0.319 A  
HETATM   13  C   UNL     1     -10.707   6.169  67.173  1.00  0.00    -0.422 A  
BRANCH   9  14
HETATM   14  C   UNL     1     -11.041   6.763  71.003  1.00  0.00    -0.317 C  
HETATM   15  C   UNL     1     -10.213   7.757  71.751  1.00  0.00    -0.191 C  
HETATM   16  C   UNL     1     -12.528   6.983  71.371  1.00  0.00    -0.426 C  
HETATM   17  C   UNL     1     -10.634   5.363  71.488  1.00  0.00    -0.285 C  
HETATM   18  N   UNL     1      -9.584   8.543  72.331  1.00  0.00    -0.295 NA 
ENDBRANCH   9  14
BRANCH  13  19
HETATM   19  C   UNL     1     -10.638   5.030  66.181  1.00  0.00    -0.265 C  
BRANCH  19  20
HETATM   20  N   UNL     1      -9.312   4.786  65.641  1.00  0.00    -0.157 NA 
HETATM   21  C   UNL     1      -8.891   4.930  64.354  1.00  0.00    -0.119 A  
HETATM   22  N   UNL     1      -7.580   4.881  64.311  1.00  0.00    -0.071 NA 
HETATM   23  C   UNL     1      -7.234   4.713  65.620  1.00  0.00    -0.072 A  
HETATM   24  N   UNL     1      -8.258   4.644  66.474  1.00  0.00    -0.107 NA 
ENDBRANCH  19  20
ENDBRANCH  13  19
ENDBRANCH   2   8
TORSDOF 5
ENDMDL
MODEL      176
REMARK 921   NORMALIZED FREE ENERGY PREDICTED BY IDOCK:   -4.18 KCAL/MOL
REMARK 922        TOTAL FREE ENERGY PREDICTED BY IDOCK:   -6.19 KCAL/MOL
REMARK 923 INTER-LIGAND FREE ENERGY PREDICTED BY IDOCK:   -5.33 KCAL/MOL
REMARK 924 INTRA-LIGAND FREE ENERGY PREDICTED BY IDOCK:   -0.86 KCAL/MOL
REMARK 927      BINDING AFFINITY PREDICTED BY RF-SCORE:    0.00 PKD
ROOT
HETATM    1  C   UNL     1      -6.821   7.100  69.391  1.00  0.00    -0.050 C  
HETATM    2  C   UNL     1      -7.811   7.138  68.204  1.00  0.00    -0.118 C  
HETATM    3  C   UNL     1      -6.990   7.504  66.945  1.00  0.00    -0.079 C  
ENDROOT
BRANCH   2   4
HETATM    4  C   UNL     1      -8.337   5.730  67.973  1.00  0.00    -0.103 C  
HETATM    5  H2  UNL     1      -8.856   4.335  68.774  1.00  0.00     0.000 HD 
HETATM    6  N   UNL     1      -8.773   4.562  67.783  1.00  0.00    -0.103 NA 
HETATM    7  H1  UNL     1      -9.126   3.618  67.628  1.00  0.00     0.000 HD 
ENDBRANCH   2   4
BRANCH   2   8
HETATM    8  C   UNL     1      -8.967   8.077  68.532  1.00  0.00    -0.133 A  
HETATM    9  C   UNL     1     -10.802   8.770  70.018  1.00  0.00    -0.231 A  
HETATM   10  C   UNL     1      -9.711   7.936  69.707  1.00  0.00    -0.176 A  
HETATM   11  C   UNL     1     -11.146   9.770  69.092  1.00  0.00    -0.158 A  
HETATM   12  C   UNL     1      -9.338   9.096  67.637  1.00  0.00    -0.154 A  
HETATM   13  C   UNL     1     -10.435   9.929  67.890  1.00  0.00    -0.282 A  
BRANCH   9  14
HETATM   14  C   UNL     1     -11.564   8.514  71.333  1.00  0.00    -0.344 C  
HETATM   15  C   UNL     1     -12.394   9.707  71.683  1.00  0.00    -0.404 C  
HETATM   16  C   UNL     1     -12.503   7.299  71.144  1.00  0.00    -0.373 C  
HETATM   17  C   UNL     1     -10.645   8.224  72.530  1.00  0.00    -0.407 C  
HETATM   18  N   UNL     1     -13.054  10.626  71.943  1.00  0.00    -0.487 NA 
ENDBRANCH   9  14
BRANCH  13  19
HETATM   19  C   UNL     1     -10.885  10.924  66.845  1.00  0.00    -0.249 C  
BRANCH  19  20
HETATM   20  N   UNL     1     -11.072  12.274  67.345  1.00  0.00    -0.266 NA 
HETATM   21  C   UNL     1     -10.117  13.160  67.744  1.00  0.00    -0.226 A  
HETATM   22  N   UNL     1     -10.649  14.354  67.868  1.00  0.00    -0.238 NA 
HETATM   23  C   UNL     1     -11.952  14.149  67.519  1.00  0.00    -0.384 A  
HETATM   24  N   UNL     1     -12.263  12.892  67.195  1.00  0.00    -0.364 NA 
ENDBRANCH  19  20
ENDBRANCH  13  19
ENDBRANCH   2   8
TORSDOF 5
ENDMDL
MODEL      177
REMARK 921   NORMALIZED FREE ENERGY PREDICTED BY IDOCK:   -4.15 KCAL/MOL
REMARK 922        TOTAL FREE ENERGY PREDICTED BY IDOCK:   -6.15 KCAL/MOL
REMARK 923 INTER-LIGAND FREE ENERGY PREDICTED BY IDOCK:   -5.43 KCAL/MOL
REMARK 924 INTRA-LIGAND FREE ENERGY PREDICTED BY IDOCK:   -0.73 KCAL/MOL
REMARK 927      BINDING AFFINITY PREDICTED BY RF-SCORE:    0.00 PKD
ROOT
HETATM    1  C   UNL     1      -8.351   9.819  67.273  1.00  0.00    -0.121 C  
HETATM    2  C   UNL     1      -8.869  10.637  68.479  1.00  0.00    -0.148 C  
HETATM    3  C   UNL     1      -9.871   9.734  69.237  1.00  0.00    -0.208 C  
ENDROOT
BRANCH   2   4
HETATM    4  C   UNL     1      -7.708  10.875  69.431  1.00  0.00    -0.066 C  
HETATM    5  H2  UNL     1      -6.427  10.103  70.218  1.00  0.00     0.000 HD 
HETATM    6  N   UNL     1      -6.745  11.072  70.221  1.00  0.00    -0.461 NA 
HETATM    7  H1  UNL     1      -5.967  11.232  70.860  1.00  0.00     0.000 HD 
ENDBRANCH   2   4
BRANCH   2   8
HETATM    8  C   UNL     1      -9.424  11.971  67.992  1.00  0.00    -0.199 A  
HETATM    9  C   UNL     1     -10.438  13.346  66.220  1.00  0.00    -0.289 A  
HETATM   10  C   UNL     1      -9.948  12.117  66.704  1.00  0.00    -0.222 A  
HETATM   11  C   UNL     1     -10.378  14.458  67.078  1.00  0.00    -0.263 A  
HETATM   12  C   UNL     1      -9.391  13.106  68.822  1.00  0.00     0.122 A  
HETATM   13  C   UNL     1      -9.839  14.355  68.372  1.00  0.00    -0.234 A  
BRANCH   9  14
HETATM   14  C   UNL     1     -10.978  13.398  64.778  1.00  0.00    -0.371 C  
HETATM   15  C   UNL     1     -12.330  12.764  64.715  1.00  0.00    -0.478 C  
HETATM   16  C   UNL     1     -11.108  14.877  64.341  1.00  0.00    -0.123 C  
HETATM   17  C   UNL     1     -10.082  12.679  63.758  1.00  0.00    -0.173 C  
HETATM   18  N   UNL     1     -13.389  12.288  64.672  1.00  0.00    -0.530 NA 
ENDBRANCH   9  14
BRANCH  13  19
HETATM   19  C   UNL     1      -9.664  15.578  69.243  1.00  0.00    -0.272 C  
BRANCH  19  20
HETATM   20  N   UNL     1      -9.455  16.811  68.506  1.00  0.00    -0.237 NA 
HETATM   21  C   UNL     1      -8.429  17.122  67.665  1.00  0.00    -0.200 A  
HETATM   22  N   UNL     1      -8.729  18.206  66.987  1.00  0.00    -0.252 NA 
HETATM   23  C   UNL     1      -9.973  18.524  67.448  1.00  0.00    -0.330 A  
HETATM   24  N   UNL     1     -10.460  17.704  68.382  1.00  0.00    -0.372 NA 
ENDBRANCH  19  20
ENDBRANCH  13  19
ENDBRANCH   2   8
TORSDOF 5
ENDMDL
MODEL      178
REMARK 921   NORMALIZED FREE ENERGY PREDICTED BY IDOCK:   -4.13 KCAL/MOL
REMARK 922        TOTAL FREE ENERGY PREDICTED BY IDOCK:   -6.13 KCAL/MOL
REMARK 923 INTER-LIGAND FREE ENERGY PREDICTED BY IDOCK:   -5.26 KCAL/MOL
REMARK 924 INTRA-LIGAND FREE ENERGY PREDICTED BY IDOCK:   -0.86 KCAL/MOL
REMARK 927      BINDING AFFINITY PREDICTED BY RF-SCORE:    0.00 PKD
ROOT
HETATM    1  C   UNL     1      -7.174  13.807  68.361  1.00  0.00    -0.108 C  
HETATM    2  C   UNL     1      -6.988  12.292  68.111  1.00  0.00    -0.087 C  
HETATM    3  C   UNL     1      -5.685  12.129  67.292  1.00  0.00    -0.141 C  
ENDROOT
BRANCH   2   4
HETATM    4  C   UNL     1      -6.736  11.613  69.447  1.00  0.00    -0.110 C  
HETATM    5  H2  UNL     1      -6.028  10.253  70.158  1.00  0.00     0.000 HD 
HETATM    6  N   UNL     1      -6.527  11.049  70.555  1.00  0.00    -0.463 NA 
HETATM    7  H1  UNL     1      -6.358  10.593  71.452  1.00  0.00     0.000 HD 
ENDBRANCH   2   4
BRANCH   2   8
HETATM    8  C   UNL     1      -8.246  11.721  67.466  1.00  0.00    -0.152 A  
HETATM    9  C   UNL     1     -10.067  11.884  65.820  1.00  0.00    -0.272 A  
HETATM   10  C   UNL     1      -8.887  12.375  66.410  1.00  0.00    -0.048 A  
HETATM   11  C   UNL     1     -10.611  10.694  66.334  1.00  0.00    -0.240 A  
HETATM   12  C   UNL     1      -8.817  10.528  67.945  1.00  0.00    -0.133 A  
HETATM   13  C   UNL     1     -10.006  10.019  67.408  1.00  0.00    -0.242 A  
BRANCH   9  14
HETATM   14  C   UNL     1     -10.700  12.696  64.672  1.00  0.00    -0.353 C  
HETATM   15  C   UNL     1     -12.190  12.592  64.734  1.00  0.00    -0.465 C  
HETATM   16  C   UNL     1     -10.304  14.184  64.828  1.00  0.00    -0.387 C  
HETATM   17  C   UNL     1     -10.261  12.231  63.275  1.00  0.00    -0.245 C  
HETATM   18  N   UNL     1     -13.348  12.526  64.795  1.00  0.00    -0.589 NA 
ENDBRANCH   9  14
BRANCH  13  19
HETATM   19  C   UNL     1     -10.661   8.809  68.035  1.00  0.00    -0.159 C  
BRANCH  19  20
HETATM   20  N   UNL     1     -10.232   7.540  67.476  1.00  0.00    -0.201 NA 
HETATM   21  C   UNL     1      -9.076   6.863  67.722  1.00  0.00    -0.118 A  
HETATM   22  N   UNL     1      -9.172   5.641  67.249  1.00  0.00    -0.110 NA 
HETATM   23  C   UNL     1     -10.430   5.613  66.721  1.00  0.00    -0.291 A  
HETATM   24  N   UNL     1     -11.119   6.751  66.830  1.00  0.00    -0.348 NA 
ENDBRANCH  19  20
ENDBRANCH  13  19
ENDBRANCH   2   8
TORSDOF 5
ENDMDL
MODEL      179
REMARK 921   NORMALIZED FREE ENERGY PREDICTED BY IDOCK:   -4.11 KCAL/MOL
REMARK 922        TOTAL FREE ENERGY PREDICTED BY IDOCK:   -6.11 KCAL/MOL
REMARK 923 INTER-LIGAND FREE ENERGY PREDICTED BY IDOCK:   -5.42 KCAL/MOL
REMARK 924 INTRA-LIGAND FREE ENERGY PREDICTED BY IDOCK:   -0.69 KCAL/MOL
REMARK 927      BINDING AFFINITY PREDICTED BY RF-SCORE:    0.00 PKD
ROOT
HETATM    1  C   UNL     1     -12.068  13.005  66.253  1.00  0.00    -0.453 C  
HETATM    2  C   UNL     1     -11.153  13.575  67.361  1.00  0.00    -0.300 C  
HETATM    3  C   UNL     1     -10.429  14.802  66.758  1.00  0.00    -0.282 C  
ENDROOT
BRANCH   2   4
HETATM    4  C   UNL     1     -12.030  14.108  68.482  1.00  0.00    -0.332 C  
HETATM    5  H2  UNL     1     -13.119  13.635  69.685  1.00  0.00     0.000 HD 
HETATM    6  N   UNL     1     -12.759  14.549  69.412  1.00  0.00    -0.507 NA 
HETATM    7  H1  UNL     1     -13.347  14.907  70.164  1.00  0.00     0.000 HD 
ENDBRANCH   2   4
BRANCH   2   8
HETATM    8  C   UNL     1     -10.245  12.471  67.893  1.00  0.00    -0.219 A  
HETATM    9  C   UNL     1      -8.002  11.645  68.477  1.00  0.00    -0.144 A  
HETATM   10  C   UNL     1      -8.865  12.658  68.018  1.00  0.00    -0.195 A  
HETATM   11  C   UNL     1      -8.569  10.401  68.806  1.00  0.00    -0.141 A  
HETATM   12  C   UNL     1     -10.773  11.215  68.242  1.00  0.00    -0.234 A  
HETATM   13  C   UNL     1      -9.948  10.169  68.674  1.00  0.00    -0.181 A  
BRANCH   9  14
HETATM   14  C   UNL     1      -6.494  11.954  68.560  1.00  0.00    -0.057 C  
HETATM   15  C   UNL     1      -6.223  13.323  68.027  1.00  0.00    -0.129 C  
HETATM   16  C   UNL     1      -6.051  11.906  70.042  1.00  0.00    -0.153 C  
HETATM   17  C   UNL     1      -5.619  10.968  67.771  1.00  0.00    -0.039 C  
HETATM   18  N   UNL     1      -6.016  14.395  67.630  1.00  0.00    -0.334 NA 
ENDBRANCH   9  14
BRANCH  13  19
HETATM   19  C   UNL     1     -10.533   8.795  68.912  1.00  0.00    -0.197 C  
BRANCH  19  20
HETATM   20  N   UNL     1     -10.935   8.546  70.284  1.00  0.00    -0.243 NA 
HETATM   21  C   UNL     1     -11.155   9.457  71.273  1.00  0.00    -0.376 A  
HETATM   22  N   UNL     1     -11.761   8.874  72.281  1.00  0.00    -0.333 NA 
HETATM   23  C   UNL     1     -11.902   7.586  71.855  1.00  0.00    -0.296 A  
HETATM   24  N   UNL     1     -11.408   7.332  70.640  1.00  0.00    -0.277 NA 
ENDBRANCH  19  20
ENDBRANCH  13  19
ENDBRANCH   2   8
TORSDOF 5
ENDMDL
MODEL      180
REMARK 921   NORMALIZED FREE ENERGY PREDICTED BY IDOCK:   -4.09 KCAL/MOL
REMARK 922        TOTAL FREE ENERGY PREDICTED BY IDOCK:   -6.08 KCAL/MOL
REMARK 923 INTER-LIGAND FREE ENERGY PREDICTED BY IDOCK:   -5.68 KCAL/MOL
REMARK 924 INTRA-LIGAND FREE ENERGY PREDICTED BY IDOCK:   -0.40 KCAL/MOL
REMARK 927      BINDING AFFINITY PREDICTED BY RF-SCORE:    0.00 PKD
ROOT
HETATM    1  C   UNL     1      -9.220  10.038  62.801  1.00  0.00    -0.313 C  
HETATM    2  C   UNL     1      -8.439   9.774  64.109  1.00  0.00    -0.182 C  
HETATM    3  C   UNL     1      -8.274   8.241  64.233  1.00  0.00    -0.116 C  
ENDROOT
BRANCH   2   4
HETATM    4  C   UNL     1      -7.037  10.340  63.952  1.00  0.00    -0.055 C  
HETATM    5  H2  UNL     1      -5.510  10.005  63.309  1.00  0.00     0.000 HD 
HETATM    6  N   UNL     1      -5.873  10.809  63.822  1.00  0.00    -0.375 NA 
HETATM    7  H1  UNL     1      -4.933  11.188  63.717  1.00  0.00     0.000 HD 
ENDBRANCH   2   4
BRANCH   2   8
HETATM    8  C   UNL     1      -9.147  10.456  65.275  1.00  0.00    -0.227 A  
HETATM    9  C   UNL     1     -10.537  12.285  66.157  1.00  0.00    -0.281 A  
HETATM   10  C   UNL     1      -9.900  11.620  65.092  1.00  0.00    -0.281 A  
HETATM   11  C   UNL     1     -10.389  11.747  67.447  1.00  0.00    -0.228 A  
HETATM   12  C   UNL     1      -9.033   9.945  66.580  1.00  0.00    -0.157 A  
HETATM   13  C   UNL     1      -9.624  10.591  67.673  1.00  0.00    -0.175 A  
BRANCH   9  14
HETATM   14  C   UNL     1     -11.327  13.571  65.844  1.00  0.00    -0.321 C  
HETATM   15  C   UNL     1     -11.430  14.418  67.071  1.00  0.00    -0.361 C  
HETATM   16  C   UNL     1     -10.575  14.373  64.755  1.00  0.00    -0.417 C  
HETATM   17  C   UNL     1     -12.755  13.309  65.341  1.00  0.00    -0.460 C  
HETATM   18  N   UNL     1     -11.493  15.085  68.020  1.00  0.00    -0.333 NA 
ENDBRANCH   9  14
BRANCH  13  19
HETATM   19  C   UNL     1      -9.367  10.088  69.076  1.00  0.00    -0.181 C  
BRANCH  19  20
HETATM   20  N   UNL     1     -10.556   9.997  69.905  1.00  0.00    -0.263 NA 
HETATM   21  C   UNL     1     -11.440  10.985  70.215  1.00  0.00    -0.273 A  
HETATM   22  N   UNL     1     -12.517  10.460  70.753  1.00  0.00    -0.341 NA 
HETATM   23  C   UNL     1     -12.245   9.123  70.744  1.00  0.00    -0.100 A  
HETATM   24  N   UNL     1     -11.056   8.787  70.239  1.00  0.00    -0.242 NA 
ENDBRANCH  19  20
ENDBRANCH  13  19
ENDBRANCH   2   8
TORSDOF 5
ENDMDL
MODEL      181
REMARK 921   NORMALIZED FREE ENERGY PREDICTED BY IDOCK:   -4.04 KCAL/MOL
REMARK 922        TOTAL FREE ENERGY PREDICTED BY IDOCK:   -6.01 KCAL/MOL
REMARK 923 INTER-LIGAND FREE ENERGY PREDICTED BY IDOCK:   -5.15 KCAL/MOL
REMARK 924 INTRA-LIGAND FREE ENERGY PREDICTED BY IDOCK:   -0.86 KCAL/MOL
REMARK 927      BINDING AFFINITY PREDICTED BY RF-SCORE:    0.00 PKD
ROOT
HETATM    1  C   UNL     1     -11.415  14.316  64.082  1.00  0.00    -0.149 C  
HETATM    2  C   UNL     1     -10.883  12.977  64.642  1.00  0.00    -0.373 C  
HETATM    3  C   UNL     1     -12.091  12.014  64.729  1.00  0.00    -0.282 C  
ENDROOT
BRANCH   2   4
HETATM    4  C   UNL     1      -9.933  12.374  63.620  1.00  0.00    -0.172 C  
HETATM    5  H2  UNL     1      -9.361  12.550  62.040  1.00  0.00     0.000 HD 
HETATM    6  N   UNL     1      -9.145  11.874  62.772  1.00  0.00    -0.492 NA 
HETATM    7  H1  UNL     1      -8.507  11.469  62.087  1.00  0.00     0.000 HD 
ENDBRANCH   2   4
BRANCH   2   8
HETATM    8  C   UNL     1     -10.145  13.228  65.953  1.00  0.00    -0.296 A  
HETATM    9  C   UNL     1      -8.515  12.523  67.656  1.00  0.00    -0.171 A  
HETATM   10  C   UNL     1      -9.187  12.330  66.434  1.00  0.00    -0.203 A  
HETATM   11  C   UNL     1      -8.842  13.663  68.411  1.00  0.00    -0.152 A  
HETATM   12  C   UNL     1     -10.436  14.361  66.733  1.00  0.00    -0.273 A  
HETATM   13  C   UNL     1      -9.814  14.577  67.969  1.00  0.00    -0.222 A  
BRANCH   9  14
HETATM   14  C   UNL     1      -7.490  11.461  68.100  1.00  0.00    -0.100 C  
HETATM   15  C   UNL     1      -6.579  12.032  69.138  1.00  0.00    -0.107 C  
HETATM   16  C   UNL     1      -8.245  10.258  68.716  1.00  0.00    -0.119 C  
HETATM   17  C   UNL     1      -6.613  10.935  66.953  1.00  0.00    -0.101 C  
HETATM   18  N   UNL     1      -5.884  12.471  69.958  1.00  0.00    -0.137 NA 
ENDBRANCH   9  14
BRANCH  13  19
HETATM   19  C   UNL     1     -10.249  15.733  68.841  1.00  0.00    -0.219 C  
BRANCH  19  20
HETATM   20  N   UNL     1      -9.719  17.022  68.434  1.00  0.00    -0.267 NA 
HETATM   21  C   UNL     1     -10.411  18.127  68.041  1.00  0.00    -0.391 A  
HETATM   22  N   UNL     1      -9.606  19.165  68.017  1.00  0.00    -0.316 NA 
HETATM   23  C   UNL     1      -8.413  18.640  68.420  1.00  0.00    -0.338 A  
HETATM   24  N   UNL     1      -8.427  17.331  68.683  1.00  0.00    -0.268 NA 
ENDBRANCH  19  20
ENDBRANCH  13  19
ENDBRANCH   2   8
TORSDOF 5
ENDMDL
MODEL      182
REMARK 921   NORMALIZED FREE ENERGY PREDICTED BY IDOCK:   -4.04 KCAL/MOL
REMARK 922        TOTAL FREE ENERGY PREDICTED BY IDOCK:   -6.01 KCAL/MOL
REMARK 923 INTER-LIGAND FREE ENERGY PREDICTED BY IDOCK:   -5.62 KCAL/MOL
REMARK 924 INTRA-LIGAND FREE ENERGY PREDICTED BY IDOCK:   -0.39 KCAL/MOL
REMARK 927      BINDING AFFINITY PREDICTED BY RF-SCORE:    0.00 PKD
ROOT
HETATM    1  C   UNL     1      -8.975   7.131  65.873  1.00  0.00    -0.098 C  
HETATM    2  C   UNL     1      -9.720   6.620  67.127  1.00  0.00    -0.178 C  
HETATM    3  C   UNL     1     -10.834   5.667  66.632  1.00  0.00    -0.280 C  
ENDROOT
BRANCH   2   4
HETATM    4  C   UNL     1      -8.761   5.764  67.940  1.00  0.00    -0.103 C  
HETATM    5  H2  UNL     1      -7.959   5.675  69.425  1.00  0.00     0.000 HD 
HETATM    6  N   UNL     1      -7.966   5.056  68.615  1.00  0.00    -0.085 NA 
HETATM    7  H1  UNL     1      -7.323   4.482  69.159  1.00  0.00     0.000 HD 
ENDBRANCH   2   4
BRANCH   2   8
HETATM    8  C   UNL     1     -10.192   7.806  67.962  1.00  0.00    -0.249 A  
HETATM    9  C   UNL     1     -11.068   8.722  70.070  1.00  0.00    -0.169 A  
HETATM   10  C   UNL     1     -10.600   7.649  69.289  1.00  0.00    -0.206 A  
HETATM   11  C   UNL     1     -11.129   9.992  69.469  1.00  0.00    -0.279 A  
HETATM   12  C   UNL     1     -10.258   9.094  67.401  1.00  0.00    -0.310 A  
HETATM   13  C   UNL     1     -10.746  10.186  68.131  1.00  0.00    -0.285 A  
BRANCH   9  14
HETATM   14  C   UNL     1     -11.509   8.432  71.519  1.00  0.00    -0.335 C  
HETATM   15  C   UNL     1     -12.492   9.464  71.969  1.00  0.00    -0.365 C  
HETATM   16  C   UNL     1     -12.193   7.045  71.569  1.00  0.00    -0.407 C  
HETATM   17  C   UNL     1     -10.349   8.427  72.526  1.00  0.00    -0.371 C  
HETATM   18  N   UNL     1     -13.271  10.255  72.311  1.00  0.00    -0.342 NA 
ENDBRANCH   9  14
BRANCH  13  19
HETATM   19  C   UNL     1     -10.930  11.525  67.455  1.00  0.00    -0.265 C  
BRANCH  19  20
HETATM   20  N   UNL     1     -10.706  11.507  66.021  1.00  0.00    -0.276 NA 
HETATM   21  C   UNL     1     -11.517  11.992  65.039  1.00  0.00    -0.286 A  
HETATM   22  N   UNL     1     -10.856  12.037  63.905  1.00  0.00    -0.357 NA 
HETATM   23  C   UNL     1      -9.621  11.570  64.248  1.00  0.00    -0.152 A  
HETATM   24  N   UNL     1      -9.479  11.227  65.531  1.00  0.00    -0.225 NA 
ENDBRANCH  19  20
ENDBRANCH  13  19
ENDBRANCH   2   8
TORSDOF 5
ENDMDL
MODEL      183
REMARK 921   NORMALIZED FREE ENERGY PREDICTED BY IDOCK:   -4.01 KCAL/MOL
REMARK 922        TOTAL FREE ENERGY PREDICTED BY IDOCK:   -5.97 KCAL/MOL
REMARK 923 INTER-LIGAND FREE ENERGY PREDICTED BY IDOCK:   -5.06 KCAL/MOL
REMARK 924 INTRA-LIGAND FREE ENERGY PREDICTED BY IDOCK:   -0.91 KCAL/MOL
REMARK 927      BINDING AFFINITY PREDICTED BY RF-SCORE:    0.00 PKD
ROOT
HETATM    1  C   UNL     1      -9.953   9.165  66.160  1.00  0.00    -0.338 C  
HETATM    2  C   UNL     1     -10.015   9.444  67.679  1.00  0.00    -0.238 C  
HETATM    3  C   UNL     1      -8.695  10.156  68.059  1.00  0.00    -0.122 C  
ENDROOT
BRANCH   2   4
HETATM    4  C   UNL     1     -11.128  10.447  67.938  1.00  0.00    -0.299 C  
HETATM    5  H2  UNL     1     -11.423  12.042  68.412  1.00  0.00     0.000 HD 
HETATM    6  N   UNL     1     -12.050  11.280  68.153  1.00  0.00    -0.667 NA 
HETATM    7  H1  UNL     1     -12.796  11.953  68.327  1.00  0.00     0.000 HD 
ENDBRANCH   2   4
BRANCH   2   8
HETATM    8  C   UNL     1     -10.301   8.146  68.427  1.00  0.00    -0.236 A  
HETATM    9  C   UNL     1     -11.013   6.967  70.465  1.00  0.00    -0.313 A  
HETATM   10  C   UNL     1     -10.771   8.151  69.743  1.00  0.00    -0.229 A  
HETATM   11  C   UNL     1     -10.757   5.744  69.822  1.00  0.00    -0.418 A  
HETATM   12  C   UNL     1     -10.068   6.901  67.815  1.00  0.00    -0.199 A  
HETATM   13  C   UNL     1     -10.266   5.699  68.506  1.00  0.00    -0.253 A  
BRANCH   9  14
HETATM   14  C   UNL     1     -11.513   7.088  71.918  1.00  0.00    -0.304 C  
HETATM   15  C   UNL     1     -10.384   7.476  72.817  1.00  0.00    -0.278 C  
HETATM   16  C   UNL     1     -12.598   8.190  71.988  1.00  0.00    -0.366 C  
HETATM   17  C   UNL     1     -12.120   5.789  72.471  1.00  0.00    -0.084 C  
HETATM   18  N   UNL     1      -9.509   7.796  73.511  1.00  0.00    -0.287 NA 
ENDBRANCH   9  14
BRANCH  13  19
HETATM   19  C   UNL     1      -9.877   4.386  67.864  1.00  0.00    -0.080 C  
BRANCH  19  20
HETATM   20  N   UNL     1      -8.801   3.685  68.541  1.00  0.00    -0.104 NA 
HETATM   21  C   UNL     1      -7.489   4.042  68.625  1.00  0.00    -0.055 A  
HETATM   22  N   UNL     1      -6.892   3.311  69.538  1.00  0.00    -0.037 NA 
HETATM   23  C   UNL     1      -7.897   2.513  70.001  1.00  0.00    -0.042 A  
HETATM   24  N   UNL     1      -9.084   2.700  69.420  1.00  0.00    -0.111 NA 
ENDBRANCH  19  20
ENDBRANCH  13  19
ENDBRANCH   2   8
TORSDOF 5
ENDMDL
MODEL      184
REMARK 921   NORMALIZED FREE ENERGY PREDICTED BY IDOCK:   -4.00 KCAL/MOL
REMARK 922        TOTAL FREE ENERGY PREDICTED BY IDOCK:   -5.96 KCAL/MOL
REMARK 923 INTER-LIGAND FREE ENERGY PREDICTED BY IDOCK:   -5.21 KCAL/MOL
REMARK 924 INTRA-LIGAND FREE ENERGY PREDICTED BY IDOCK:   -0.74 KCAL/MOL
REMARK 927      BINDING AFFINITY PREDICTED BY RF-SCORE:    0.00 PKD
ROOT
HETATM    1  C   UNL     1      -6.378  11.727  69.660  1.00  0.00    -0.129 C  
HETATM    2  C   UNL     1      -7.115  10.807  68.661  1.00  0.00    -0.078 C  
HETATM    3  C   UNL     1      -7.153  11.552  67.306  1.00  0.00    -0.128 C  
ENDROOT
BRANCH   2   4
HETATM    4  C   UNL     1      -6.267   9.565  68.438  1.00  0.00    -0.048 C  
HETATM    5  H2  UNL     1      -6.100   7.945  68.890  1.00  0.00     0.000 HD 
HETATM    6  N   UNL     1      -5.564   8.534  68.254  1.00  0.00    -0.034 NA 
HETATM    7  H1  UNL     1      -4.995   7.701  68.104  1.00  0.00     0.000 HD 
ENDBRANCH   2   4
BRANCH   2   8
HETATM    8  C   UNL     1      -8.473  10.412  69.233  1.00  0.00    -0.162 A  
HETATM    9  C   UNL     1      -9.846   8.965  70.673  1.00  0.00    -0.261 A  
HETATM   10  C   UNL     1      -8.601   9.368  70.154  1.00  0.00    -0.233 A  
HETATM   11  C   UNL     1     -10.992   9.644  70.227  1.00  0.00    -0.337 A  
HETATM   12  C   UNL     1      -9.643  11.073  68.821  1.00  0.00    -0.194 A  
HETATM   13  C   UNL     1     -10.906  10.686  69.287  1.00  0.00    -0.282 A  
BRANCH   9  14
HETATM   14  C   UNL     1      -9.874   7.790  71.670  1.00  0.00    -0.201 C  
HETATM   15  C   UNL     1     -11.235   7.173  71.696  1.00  0.00    -0.244 C  
HETATM   16  C   UNL     1      -8.856   6.717  71.214  1.00  0.00    -0.133 C  
HETATM   17  C   UNL     1      -9.522   8.195  73.110  1.00  0.00    -0.316 C  
HETATM   18  N   UNL     1     -12.288   6.683  71.700  1.00  0.00    -0.355 NA 
ENDBRANCH   9  14
BRANCH  13  19
HETATM   19  C   UNL     1     -12.151  11.329  68.720  1.00  0.00    -0.190 C  
BRANCH  19  20
HETATM   20  N   UNL     1     -11.895  12.458  67.845  1.00  0.00    -0.411 NA 
HETATM   21  C   UNL     1     -11.845  12.470  66.483  1.00  0.00    -0.367 A  
HETATM   22  N   UNL     1     -11.862  13.710  66.053  1.00  0.00    -0.365 NA 
HETATM   23  C   UNL     1     -11.933  14.436  67.206  1.00  0.00    -0.377 A  
HETATM   24  N   UNL     1     -11.951  13.717  68.331  1.00  0.00    -0.368 NA 
ENDBRANCH  19  20
ENDBRANCH  13  19
ENDBRANCH   2   8
TORSDOF 5
ENDMDL
MODEL      185
REMARK 921   NORMALIZED FREE ENERGY PREDICTED BY IDOCK:   -4.00 KCAL/MOL
REMARK 922        TOTAL FREE ENERGY PREDICTED BY IDOCK:   -5.96 KCAL/MOL
REMARK 923 INTER-LIGAND FREE ENERGY PREDICTED BY IDOCK:   -5.21 KCAL/MOL
REMARK 924 INTRA-LIGAND FREE ENERGY PREDICTED BY IDOCK:   -0.75 KCAL/MOL
REMARK 927      BINDING AFFINITY PREDICTED BY RF-SCORE:    0.00 PKD
ROOT
HETATM    1  C   UNL     1     -12.448  13.094  69.955  1.00  0.00    -0.143 C  
HETATM    2  C   UNL     1     -11.343  12.722  68.940  1.00  0.00    -0.344 C  
HETATM    3  C   UNL     1     -11.957  12.880  67.529  1.00  0.00    -0.354 C  
ENDROOT
BRANCH   2   4
HETATM    4  C   UNL     1     -10.233  13.756  69.037  1.00  0.00    -0.026 C  
HETATM    5  H2  UNL     1      -9.456  14.804  70.112  1.00  0.00     0.000 HD 
HETATM    6  N   UNL     1      -9.313  14.615  69.120  1.00  0.00    -0.378 NA 
HETATM    7  H1  UNL     1      -8.569  15.309  69.185  1.00  0.00     0.000 HD 
ENDBRANCH   2   4
BRANCH   2   8
HETATM    8  C   UNL     1     -10.792  11.337  69.266  1.00  0.00    -0.259 A  
HETATM    9  C   UNL     1     -10.927   9.225  70.521  1.00  0.00    -0.318 A  
HETATM   10  C   UNL     1     -11.432  10.494  70.180  1.00  0.00    -0.405 A  
HETATM   11  C   UNL     1      -9.727   8.814  69.916  1.00  0.00    -0.183 A  
HETATM   12  C   UNL     1      -9.599  10.884  68.676  1.00  0.00    -0.192 A  
HETATM   13  C   UNL     1      -9.044   9.642  69.009  1.00  0.00    -0.148 A  
BRANCH   9  14
HETATM   14  C   UNL     1     -11.704   8.385  71.554  1.00  0.00    -0.341 C  
HETATM   15  C   UNL     1     -12.931   9.118  71.990  1.00  0.00    -0.424 C  
HETATM   16  C   UNL     1     -12.135   7.052  70.897  1.00  0.00    -0.403 C  
HETATM   17  C   UNL     1     -10.891   8.053  72.814  1.00  0.00    -0.438 C  
HETATM   18  N   UNL     1     -13.894   9.681  72.313  1.00  0.00    -0.318 NA 
ENDBRANCH   9  14
BRANCH  13  19
HETATM   19  C   UNL     1      -7.694   9.246  68.457  1.00  0.00    -0.085 C  
BRANCH  19  20
HETATM   20  N   UNL     1      -7.753   8.382  67.293  1.00  0.00    -0.097 NA 
HETATM   21  C   UNL     1      -7.427   8.685  66.005  1.00  0.00    -0.085 A  
HETATM   22  N   UNL     1      -7.352   7.581  65.298  1.00  0.00    -0.069 NA 
HETATM   23  C   UNL     1      -7.636   6.609  66.213  1.00  0.00    -0.090 A  
HETATM   24  N   UNL     1      -7.893   7.047  67.447  1.00  0.00    -0.110 NA 
ENDBRANCH  19  20
ENDBRANCH  13  19
ENDBRANCH   2   8
TORSDOF 5
ENDMDL
MODEL      186
REMARK 921   NORMALIZED FREE ENERGY PREDICTED BY IDOCK:   -3.98 KCAL/MOL
REMARK 922        TOTAL FREE ENERGY PREDICTED BY IDOCK:   -5.94 KCAL/MOL
REMARK 923 INTER-LIGAND FREE ENERGY PREDICTED BY IDOCK:   -5.83 KCAL/MOL
REMARK 924 INTRA-LIGAND FREE ENERGY PREDICTED BY IDOCK:   -0.11 KCAL/MOL
REMARK 927      BINDING AFFINITY PREDICTED BY RF-SCORE:    0.00 PKD
ROOT
HETATM    1  C   UNL     1     -11.364  14.285  66.214  1.00  0.00    -0.347 C  
HETATM    2  C   UNL     1     -10.734  14.034  67.603  1.00  0.00    -0.261 C  
HETATM    3  C   UNL     1      -9.644  15.113  67.804  1.00  0.00    -0.203 C  
ENDROOT
BRANCH   2   4
HETATM    4  C   UNL     1     -11.791  14.297  68.663  1.00  0.00    -0.344 C  
HETATM    5  H2  UNL     1     -12.614  15.532  69.472  1.00  0.00     0.000 HD 
HETATM    6  N   UNL     1     -12.668  14.516  69.543  1.00  0.00    -0.527 NA 
HETATM    7  H1  UNL     1     -13.376  14.692  70.255  1.00  0.00     0.000 HD 
ENDBRANCH   2   4
BRANCH   2   8
HETATM    8  C   UNL     1     -10.255  12.589  67.694  1.00  0.00    -0.220 A  
HETATM    9  C   UNL     1      -9.323  10.575  66.631  1.00  0.00    -0.186 A  
HETATM   10  C   UNL     1      -9.743  11.918  66.580  1.00  0.00    -0.226 A  
HETATM   11  C   UNL     1      -9.442   9.898  67.857  1.00  0.00    -0.149 A  
HETATM   12  C   UNL     1     -10.347  11.879  68.905  1.00  0.00    -0.131 A  
HETATM   13  C   UNL     1      -9.970  10.533  68.994  1.00  0.00    -0.223 A  
BRANCH   9  14
HETATM   14  C   UNL     1      -8.791   9.928  65.337  1.00  0.00    -0.196 C  
HETATM   15  C   UNL     1      -8.679   8.448  65.515  1.00  0.00    -0.162 C  
HETATM   16  C   UNL     1      -9.785  10.212  64.185  1.00  0.00    -0.301 C  
HETATM   17  C   UNL     1      -7.409  10.448  64.912  1.00  0.00    -0.059 C  
HETATM   18  N   UNL     1      -8.611   7.296  65.648  1.00  0.00    -0.138 NA 
ENDBRANCH   9  14
BRANCH  13  19
HETATM   19  C   UNL     1     -10.209   9.765  70.274  1.00  0.00    -0.289 C  
BRANCH  19  20
HETATM   20  N   UNL     1     -11.537   9.938  70.836  1.00  0.00    -0.343 NA 
HETATM   21  C   UNL     1     -12.211   9.095  71.668  1.00  0.00    -0.361 A  
HETATM   22  N   UNL     1     -13.254   9.715  72.171  1.00  0.00    -0.441 NA 
HETATM   23  C   UNL     1     -13.171  10.959  71.616  1.00  0.00    -0.367 A  
HETATM   24  N   UNL     1     -12.140  11.145  70.788  1.00  0.00    -0.361 NA 
ENDBRANCH  19  20
ENDBRANCH  13  19
ENDBRANCH   2   8
TORSDOF 5
ENDMDL
MODEL      187
REMARK 921   NORMALIZED FREE ENERGY PREDICTED BY IDOCK:   -3.96 KCAL/MOL
REMARK 922        TOTAL FREE ENERGY PREDICTED BY IDOCK:   -5.91 KCAL/MOL
REMARK 923 INTER-LIGAND FREE ENERGY PREDICTED BY IDOCK:   -5.10 KCAL/MOL
REMARK 924 INTRA-LIGAND FREE ENERGY PREDICTED BY IDOCK:   -0.81 KCAL/MOL
REMARK 927      BINDING AFFINITY PREDICTED BY RF-SCORE:    0.00 PKD
ROOT
HETATM    1  C   UNL     1     -12.376  13.609  66.662  1.00  0.00    -0.381 C  
HETATM    2  C   UNL     1     -11.240  13.704  67.706  1.00  0.00    -0.310 C  
HETATM    3  C   UNL     1     -10.010  14.298  66.980  1.00  0.00    -0.258 C  
ENDROOT
BRANCH   2   4
HETATM    4  C   UNL     1     -11.642  14.723  68.761  1.00  0.00    -0.320 C  
HETATM    5  H2  UNL     1     -12.811  15.884  69.139  1.00  0.00     0.000 HD 
HETATM    6  N   UNL     1     -11.977  15.568  69.634  1.00  0.00    -0.374 NA 
HETATM    7  H1  UNL     1     -12.246  16.252  70.342  1.00  0.00     0.000 HD 
ENDBRANCH   2   4
BRANCH   2   8
HETATM    8  C   UNL     1     -11.026  12.341  68.356  1.00  0.00    -0.270 A  
HETATM    9  C   UNL     1     -11.691  10.624  69.988  1.00  0.00    -0.405 A  
HETATM   10  C   UNL     1     -11.885  11.864  69.351  1.00  0.00    -0.389 A  
HETATM   11  C   UNL     1     -10.580   9.855  69.601  1.00  0.00    -0.273 A  
HETATM   12  C   UNL     1      -9.932  11.537  67.991  1.00  0.00    -0.197 A  
HETATM   13  C   UNL     1      -9.683  10.310  68.619  1.00  0.00    -0.171 A  
BRANCH   9  14
HETATM   14  C   UNL     1     -12.690  10.203  71.084  1.00  0.00    -0.494 C  
HETATM   15  C   UNL     1     -12.055   9.205  71.998  1.00  0.00    -0.361 C  
HETATM   16  C   UNL     1     -13.083  11.450  71.913  1.00  0.00    -0.505 C  
HETATM   17  C   UNL     1     -13.979   9.573  70.534  1.00  0.00     0.625 C  
HETATM   18  N   UNL     1     -11.554   8.445  72.719  1.00  0.00    -0.296 NA 
ENDBRANCH   9  14
BRANCH  13  19
HETATM   19  C   UNL     1      -8.424   9.538  68.296  1.00  0.00    -0.119 C  
BRANCH  19  20
HETATM   20  N   UNL     1      -7.646   9.149  69.458  1.00  0.00    -0.076 NA 
HETATM   21  C   UNL     1      -6.871   9.939  70.252  1.00  0.00    -0.138 A  
HETATM   22  N   UNL     1      -6.553   9.287  71.346  1.00  0.00    -0.230 NA 
HETATM   23  C   UNL     1      -7.174   8.084  71.180  1.00  0.00    -0.056 A  
HETATM   24  N   UNL     1      -7.853   7.947  70.039  1.00  0.00    -0.103 NA 
ENDBRANCH  19  20
ENDBRANCH  13  19
ENDBRANCH   2   8
TORSDOF 5
ENDMDL
MODEL      188
REMARK 921   NORMALIZED FREE ENERGY PREDICTED BY IDOCK:   -3.96 KCAL/MOL
REMARK 922        TOTAL FREE ENERGY PREDICTED BY IDOCK:   -5.91 KCAL/MOL
REMARK 923 INTER-LIGAND FREE ENERGY PREDICTED BY IDOCK:   -5.13 KCAL/MOL
REMARK 924 INTRA-LIGAND FREE ENERGY PREDICTED BY IDOCK:   -0.78 KCAL/MOL
REMARK 927      BINDING AFFINITY PREDICTED BY RF-SCORE:    0.00 PKD
ROOT
HETATM    1  C   UNL     1     -12.104  11.547  68.904  1.00  0.00    -0.270 C  
HETATM    2  C   UNL     1     -11.181  11.972  67.740  1.00  0.00    -0.331 C  
HETATM    3  C   UNL     1     -12.008  12.910  66.830  1.00  0.00    -0.418 C  
ENDROOT
BRANCH   2   4
HETATM    4  C   UNL     1     -10.052  12.817  68.307  1.00  0.00    -0.237 C  
HETATM    5  H2  UNL     1      -8.824  13.895  67.873  1.00  0.00     0.000 HD 
HETATM    6  N   UNL     1      -9.115  13.519  68.776  1.00  0.00    -0.389 NA 
HETATM    7  H1  UNL     1      -8.358  14.086  69.156  1.00  0.00     0.000 HD 
ENDBRANCH   2   4
BRANCH   2   8
HETATM    8  C   UNL     1     -10.610  10.731  67.060  1.00  0.00    -0.312 A  
HETATM    9  C   UNL     1      -9.335   9.694  65.229  1.00  0.00    -0.322 A  
HETATM   10  C   UNL     1      -9.848  10.825  65.892  1.00  0.00    -0.290 A  
HETATM   11  C   UNL     1      -9.622   8.430  65.774  1.00  0.00    -0.007 A  
HETATM   12  C   UNL     1     -10.865   9.449  67.579  1.00  0.00    -0.208 A  
HETATM   13  C   UNL     1     -10.402   8.295  66.935  1.00  0.00    -0.391 A  
BRANCH   9  14
HETATM   14  C   UNL     1      -8.522   9.911  63.938  1.00  0.00    -0.183 C  
HETATM   15  C   UNL     1      -7.114  10.280  64.277  1.00  0.00    -0.056 C  
HETATM   16  C   UNL     1      -8.504   8.594  63.126  1.00  0.00    -0.100 C  
HETATM   17  C   UNL     1      -9.086  11.018  63.034  1.00  0.00    -0.300 C  
HETATM   18  N   UNL     1      -6.016  10.548  64.542  1.00  0.00    -0.103 NA 
ENDBRANCH   9  14
BRANCH  13  19
HETATM   19  C   UNL     1     -10.809   6.931  67.446  1.00  0.00    -0.326 C  
BRANCH  19  20
HETATM   20  N   UNL     1     -10.021   5.834  66.914  1.00  0.00    -0.154 NA 
HETATM   21  C   UNL     1      -8.800   5.398  67.332  1.00  0.00    -0.105 A  
HETATM   22  N   UNL     1      -8.541   4.229  66.792  1.00  0.00    -0.107 NA 
HETATM   23  C   UNL     1      -9.656   3.980  66.046  1.00  0.00    -0.194 A  
HETATM   24  N   UNL     1     -10.590   4.934  66.083  1.00  0.00    -0.319 NA 
ENDBRANCH  19  20
ENDBRANCH  13  19
ENDBRANCH   2   8
TORSDOF 5
ENDMDL
MODEL      189
REMARK 921   NORMALIZED FREE ENERGY PREDICTED BY IDOCK:   -3.96 KCAL/MOL
REMARK 922        TOTAL FREE ENERGY PREDICTED BY IDOCK:   -5.90 KCAL/MOL
REMARK 923 INTER-LIGAND FREE ENERGY PREDICTED BY IDOCK:   -4.97 KCAL/MOL
REMARK 924 INTRA-LIGAND FREE ENERGY PREDICTED BY IDOCK:   -0.93 KCAL/MOL
REMARK 927      BINDING AFFINITY PREDICTED BY RF-SCORE:    0.00 PKD
ROOT
HETATM    1  C   UNL     1      -6.094  11.721  69.316  1.00  0.00    -0.084 C  
HETATM    2  C   UNL     1      -6.702  10.308  69.468  1.00  0.00    -0.073 C  
HETATM    3  C   UNL     1      -6.023   9.409  68.408  1.00  0.00    -0.044 C  
ENDROOT
BRANCH   2   4
HETATM    4  C   UNL     1      -6.291   9.752  70.822  1.00  0.00    -0.095 C  
HETATM    5  H2  UNL     1      -6.249   8.336  71.744  1.00  0.00     0.000 HD 
HETATM    6  N   UNL     1      -5.950   9.290  71.945  1.00  0.00    -0.186 NA 
HETATM    7  H1  UNL     1      -5.674   8.918  72.853  1.00  0.00     0.000 HD 
ENDBRANCH   2   4
BRANCH   2   8
HETATM    8  C   UNL     1      -8.223  10.393  69.382  1.00  0.00    -0.158 A  
HETATM    9  C   UNL     1     -10.257  11.491  68.541  1.00  0.00    -0.219 A  
HETATM   10  C   UNL     1      -8.856  11.373  68.612  1.00  0.00    -0.126 A  
HETATM   11  C   UNL     1     -11.030  10.586  69.289  1.00  0.00    -0.291 A  
HETATM   12  C   UNL     1      -9.032   9.500  70.107  1.00  0.00    -0.269 A  
HETATM   13  C   UNL     1     -10.429   9.600  70.091  1.00  0.00    -0.321 A  
BRANCH   9  14
HETATM   14  C   UNL     1     -10.851  12.620  67.675  1.00  0.00    -0.248 C  
HETATM   15  C   UNL     1     -11.674  13.535  68.523  1.00  0.00    -0.357 C  
HETATM   16  C   UNL     1      -9.694  13.435  67.049  1.00  0.00    -0.239 C  
HETATM   17  C   UNL     1     -11.747  12.114  66.535  1.00  0.00    -0.392 C  
HETATM   18  N   UNL     1     -12.297  14.257  69.186  1.00  0.00    -0.222 NA 
ENDBRANCH   9  14
BRANCH  13  19
HETATM   19  C   UNL     1     -11.260   8.711  70.986  1.00  0.00    -0.271 C  
BRANCH  19  20
HETATM   20  N   UNL     1     -11.045   7.289  70.784  1.00  0.00    -0.259 NA 
HETATM   21  C   UNL     1     -11.127   6.586  69.620  1.00  0.00    -0.376 A  
HETATM   22  N   UNL     1     -10.604   5.393  69.789  1.00  0.00    -0.313 NA 
HETATM   23  C   UNL     1     -10.199   5.415  71.092  1.00  0.00    -0.221 A  
HETATM   24  N   UNL     1     -10.450   6.551  71.746  1.00  0.00    -0.209 NA 
ENDBRANCH  19  20
ENDBRANCH  13  19
ENDBRANCH   2   8
TORSDOF 5
ENDMDL
MODEL      190
REMARK 921   NORMALIZED FREE ENERGY PREDICTED BY IDOCK:   -3.92 KCAL/MOL
REMARK 922        TOTAL FREE ENERGY PREDICTED BY IDOCK:   -5.86 KCAL/MOL
REMARK 923 INTER-LIGAND FREE ENERGY PREDICTED BY IDOCK:   -5.53 KCAL/MOL
REMARK 924 INTRA-LIGAND FREE ENERGY PREDICTED BY IDOCK:   -0.33 KCAL/MOL
REMARK 927      BINDING AFFINITY PREDICTED BY RF-SCORE:    0.00 PKD
ROOT
HETATM    1  C   UNL     1      -6.300  14.693  67.561  1.00  0.00    -0.042 C  
HETATM    2  C   UNL     1      -7.697  15.314  67.790  1.00  0.00    -0.164 C  
HETATM    3  C   UNL     1      -7.610  16.152  69.087  1.00  0.00    -0.230 C  
ENDROOT
BRANCH   2   4
HETATM    4  C   UNL     1      -7.973  16.300  66.666  1.00  0.00    -0.289 C  
HETATM    5  H2  UNL     1      -8.151  17.947  66.328  1.00  0.00     0.000 HD 
HETATM    6  N   UNL     1      -8.202  17.119  65.735  1.00  0.00    -0.451 NA 
HETATM    7  H1  UNL     1      -8.387  17.780  64.981  1.00  0.00     0.000 HD 
ENDBRANCH   2   4
BRANCH   2   8
HETATM    8  C   UNL     1      -8.753  14.214  67.786  1.00  0.00    -0.182 A  
HETATM    9  C   UNL     1      -9.573  12.042  66.971  1.00  0.00    -0.200 A  
HETATM   10  C   UNL     1      -8.599  13.057  67.015  1.00  0.00    -0.165 A  
HETATM   11  C   UNL     1     -10.743  12.223  67.730  1.00  0.00    -0.246 A  
HETATM   12  C   UNL     1      -9.933  14.351  68.539  1.00  0.00    -0.237 A  
HETATM   13  C   UNL     1     -10.942  13.381  68.500  1.00  0.00    -0.292 A  
BRANCH   9  14
HETATM   14  C   UNL     1      -9.309  10.817  66.074  1.00  0.00    -0.215 C  
HETATM   15  C   UNL     1      -9.748  11.104  64.674  1.00  0.00    -0.262 C  
HETATM   16  C   UNL     1      -7.790  10.519  66.062  1.00  0.00    -0.147 C  
HETATM   17  C   UNL     1     -10.039   9.546  66.536  1.00  0.00    -0.326 C  
HETATM   18  N   UNL     1     -10.071  11.336  63.583  1.00  0.00    -0.342 NA 
ENDBRANCH   9  14
BRANCH  13  19
HETATM   19  C   UNL     1     -12.252  13.625  69.215  1.00  0.00    -0.238 C  
BRANCH  19  20
HETATM   20  N   UNL     1     -12.180  14.616  70.274  1.00  0.00    -0.311 NA 
HETATM   21  C   UNL     1     -13.169  15.439  70.720  1.00  0.00    -0.387 A  
HETATM   22  N   UNL     1     -12.804  15.990  71.855  1.00  0.00    -0.392 NA 
HETATM   23  C   UNL     1     -11.566  15.458  72.073  1.00  0.00    -0.459 A  
HETATM   24  N   UNL     1     -11.137  14.614  71.132  1.00  0.00     0.049 NA 
ENDBRANCH  19  20
ENDBRANCH  13  19
ENDBRANCH   2   8
TORSDOF 5
ENDMDL
MODEL      191
REMARK 921   NORMALIZED FREE ENERGY PREDICTED BY IDOCK:   -3.91 KCAL/MOL
REMARK 922        TOTAL FREE ENERGY PREDICTED BY IDOCK:   -5.85 KCAL/MOL
REMARK 923 INTER-LIGAND FREE ENERGY PREDICTED BY IDOCK:   -5.12 KCAL/MOL
REMARK 924 INTRA-LIGAND FREE ENERGY PREDICTED BY IDOCK:   -0.73 KCAL/MOL
REMARK 927      BINDING AFFINITY PREDICTED BY RF-SCORE:    0.00 PKD
ROOT
HETATM    1  C   UNL     1     -11.779   9.098  71.908  1.00  0.00    -0.436 C  
HETATM    2  C   UNL     1     -10.651   8.328  71.183  1.00  0.00    -0.258 C  
HETATM    3  C   UNL     1      -9.368   8.508  72.029  1.00  0.00    -0.353 C  
ENDROOT
BRANCH   2   4
HETATM    4  C   UNL     1     -10.980   6.845  71.223  1.00  0.00    -0.243 C  
HETATM    5  H2  UNL     1     -10.364   5.315  70.853  1.00  0.00     0.000 HD 
HETATM    6  N   UNL     1     -11.253   5.614  71.255  1.00  0.00    -0.149 NA 
HETATM    7  H1  UNL     1     -11.474   4.619  71.282  1.00  0.00     0.000 HD 
ENDBRANCH   2   4
BRANCH   2   8
HETATM    8  C   UNL     1     -10.557   8.801  69.736  1.00  0.00    -0.227 A  
HETATM    9  C   UNL     1     -10.750  10.586  68.054  1.00  0.00    -0.287 A  
HETATM   10  C   UNL     1     -10.800  10.132  69.386  1.00  0.00    -0.274 A  
HETATM   11  C   UNL     1     -10.452   9.646  67.053  1.00  0.00    -0.302 A  
HETATM   12  C   UNL     1     -10.251   7.894  68.705  1.00  0.00    -0.218 A  
HETATM   13  C   UNL     1     -10.221   8.295  67.364  1.00  0.00    -0.326 A  
BRANCH   9  14
HETATM   14  C   UNL     1     -11.053  12.072  67.778  1.00  0.00    -0.303 C  
HETATM   15  C   UNL     1      -9.783  12.859  67.763  1.00  0.00    -0.214 C  
HETATM   16  C   UNL     1     -11.728  12.200  66.392  1.00  0.00    -0.394 C  
HETATM   17  C   UNL     1     -11.982  12.714  68.820  1.00  0.00    -0.279 C  
HETATM   18  N   UNL     1      -8.793  13.465  67.732  1.00  0.00    -0.187 NA 
ENDBRANCH   9  14
BRANCH  13  19
HETATM   19  C   UNL     1     -10.022   7.267  66.273  1.00  0.00     0.093 C  
BRANCH  19  20
HETATM   20  N   UNL     1      -9.506   5.993  66.739  1.00  0.00    -0.139 NA 
HETATM   21  C   UNL     1     -10.098   4.768  66.658  1.00  0.00    -0.245 A  
HETATM   22  N   UNL     1      -9.216   3.835  66.935  1.00  0.00    -0.166 NA 
HETATM   23  C   UNL     1      -8.077   4.547  67.173  1.00  0.00    -0.102 A  
HETATM   24  N   UNL     1      -8.202   5.872  67.071  1.00  0.00    -0.105 NA 
ENDBRANCH  19  20
ENDBRANCH  13  19
ENDBRANCH   2   8
TORSDOF 5
ENDMDL
MODEL      192
REMARK 921   NORMALIZED FREE ENERGY PREDICTED BY IDOCK:   -3.90 KCAL/MOL
REMARK 922        TOTAL FREE ENERGY PREDICTED BY IDOCK:   -5.83 KCAL/MOL
REMARK 923 INTER-LIGAND FREE ENERGY PREDICTED BY IDOCK:   -4.96 KCAL/MOL
REMARK 924 INTRA-LIGAND FREE ENERGY PREDICTED BY IDOCK:   -0.87 KCAL/MOL
REMARK 927      BINDING AFFINITY PREDICTED BY RF-SCORE:    0.00 PKD
ROOT
HETATM    1  C   UNL     1      -8.764  10.255  66.786  1.00  0.00    -0.132 C  
HETATM    2  C   UNL     1      -7.538  11.015  67.343  1.00  0.00    -0.110 C  
HETATM    3  C   UNL     1      -6.929  10.132  68.458  1.00  0.00    -0.069 C  
ENDROOT
BRANCH   2   4
HETATM    4  C   UNL     1      -6.487  11.098  66.247  1.00  0.00    -0.082 C  
HETATM    5  H2  UNL     1      -4.964  10.525  65.791  1.00  0.00     0.000 HD 
HETATM    6  N   UNL     1      -5.615  11.166  65.339  1.00  0.00    -0.474 NA 
HETATM    7  H1  UNL     1      -4.910  11.222  64.604  1.00  0.00     0.000 HD 
ENDBRANCH   2   4
BRANCH   2   8
HETATM    8  C   UNL     1      -7.956  12.419  67.769  1.00  0.00    -0.156 A  
HETATM    9  C   UNL     1      -9.714  14.065  68.271  1.00  0.00    -0.225 A  
HETATM   10  C   UNL     1      -9.302  12.768  67.910  1.00  0.00    -0.208 A  
HETATM   11  C   UNL     1      -8.717  15.033  68.484  1.00  0.00    -0.175 A  
HETATM   12  C   UNL     1      -6.989  13.414  68.001  1.00  0.00    -0.127 A  
HETATM   13  C   UNL     1      -7.354  14.725  68.333  1.00  0.00    -0.116 A  
BRANCH   9  14
HETATM   14  C   UNL     1     -11.225  14.346  68.381  1.00  0.00    -0.294 C  
HETATM   15  C   UNL     1     -11.824  13.508  69.464  1.00  0.00    -0.334 C  
HETATM   16  C   UNL     1     -11.436  15.837  68.739  1.00  0.00    -0.391 C  
HETATM   17  C   UNL     1     -12.001  14.053  67.088  1.00  0.00    -0.465 C  
HETATM   18  N   UNL     1     -12.283  12.871  70.319  1.00  0.00    -0.326 NA 
ENDBRANCH   9  14
BRANCH  13  19
HETATM   19  C   UNL     1      -6.296  15.798  68.442  1.00  0.00    -0.110 C  
BRANCH  19  20
HETATM   20  N   UNL     1      -6.588  17.005  67.691  1.00  0.00    -0.138 NA 
HETATM   21  C   UNL     1      -6.637  17.160  66.338  1.00  0.00    -0.216 A  
HETATM   22  N   UNL     1      -7.194  18.313  66.047  1.00  0.00    -0.358 NA 
HETATM   23  C   UNL     1      -7.483  18.835  67.274  1.00  0.00    -0.222 A  
HETATM   24  N   UNL     1      -7.128  18.076  68.313  1.00  0.00    -0.233 NA 
ENDBRANCH  19  20
ENDBRANCH  13  19
ENDBRANCH   2   8
TORSDOF 5
ENDMDL
MODEL      193
REMARK 921   NORMALIZED FREE ENERGY PREDICTED BY IDOCK:   -3.89 KCAL/MOL
REMARK 922        TOTAL FREE ENERGY PREDICTED BY IDOCK:   -5.82 KCAL/MOL
REMARK 923 INTER-LIGAND FREE ENERGY PREDICTED BY IDOCK:   -4.97 KCAL/MOL
REMARK 924 INTRA-LIGAND FREE ENERGY PREDICTED BY IDOCK:   -0.85 KCAL/MOL
REMARK 927      BINDING AFFINITY PREDICTED BY RF-SCORE:    0.00 PKD
ROOT
HETATM    1  C   UNL     1     -11.863   6.256  72.218  1.00  0.00    -0.326 C  
HETATM    2  C   UNL     1     -10.471   6.175  71.551  1.00  0.00    -0.268 C  
HETATM    3  C   UNL     1      -9.461   6.804  72.540  1.00  0.00    -0.151 C  
ENDROOT
BRANCH   2   4
HETATM    4  C   UNL     1     -10.084   4.710  71.424  1.00  0.00    -0.178 C  
HETATM    5  H2  UNL     1      -8.840   3.611  71.739  1.00  0.00     0.000 HD 
HETATM    6  N   UNL     1      -9.762   3.495  71.320  1.00  0.00    -0.174 NA 
HETATM    7  H1  UNL     1      -9.503   2.513  71.235  1.00  0.00     0.000 HD 
ENDBRANCH   2   4
BRANCH   2   8
HETATM    8  C   UNL     1     -10.526   6.819  70.170  1.00  0.00    -0.240 A  
HETATM    9  C   UNL     1     -10.629   8.826  68.750  1.00  0.00    -0.174 A  
HETATM   10  C   UNL     1     -10.547   8.208  70.012  1.00  0.00    -0.239 A  
HETATM   11  C   UNL     1     -10.703   7.995  67.618  1.00  0.00    -0.203 A  
HETATM   12  C   UNL     1     -10.592   6.024  69.012  1.00  0.00    -0.357 A  
HETATM   13  C   UNL     1     -10.706   6.595  67.738  1.00  0.00    -0.352 A  
BRANCH   9  14
HETATM   14  C   UNL     1     -10.662  10.366  68.692  1.00  0.00    -0.250 C  
HETATM   15  C   UNL     1     -11.519  10.900  69.795  1.00  0.00    -0.313 C  
HETATM   16  C   UNL     1      -9.225  10.908  68.879  1.00  0.00    -0.168 C  
HETATM   17  C   UNL     1     -11.211  10.921  67.369  1.00  0.00    -0.345 C  
HETATM   18  N   UNL     1     -12.169  11.314  70.663  1.00  0.00    -0.374 NA 
ENDBRANCH   9  14
BRANCH  13  19
HETATM   19  C   UNL     1     -10.909   5.710  66.529  1.00  0.00    -0.165 C  
BRANCH  19  20
HETATM   20  N   UNL     1      -9.720   4.993  66.106  1.00  0.00    -0.169 NA 
HETATM   21  C   UNL     1      -8.590   5.503  65.541  1.00  0.00    -0.150 A  
HETATM   22  N   UNL     1      -7.644   4.593  65.552  1.00  0.00    -0.081 NA 
HETATM   23  C   UNL     1      -8.248   3.527  66.152  1.00  0.00    -0.101 A  
HETATM   24  N   UNL     1      -9.520   3.719  66.506  1.00  0.00    -0.191 NA 
ENDBRANCH  19  20
ENDBRANCH  13  19
ENDBRANCH   2   8
TORSDOF 5
ENDMDL
MODEL      194
REMARK 921   NORMALIZED FREE ENERGY PREDICTED BY IDOCK:   -3.88 KCAL/MOL
REMARK 922        TOTAL FREE ENERGY PREDICTED BY IDOCK:   -5.81 KCAL/MOL
REMARK 923 INTER-LIGAND FREE ENERGY PREDICTED BY IDOCK:   -4.93 KCAL/MOL
REMARK 924 INTRA-LIGAND FREE ENERGY PREDICTED BY IDOCK:   -0.88 KCAL/MOL
REMARK 927      BINDING AFFINITY PREDICTED BY RF-SCORE:    0.00 PKD
ROOT
HETATM    1  C   UNL     1      -8.400   8.515  63.140  1.00  0.00    -0.116 C  
HETATM    2  C   UNL     1      -7.921   8.181  64.571  1.00  0.00    -0.142 C  
HETATM    3  C   UNL     1      -7.678   6.654  64.619  1.00  0.00    -0.112 C  
ENDROOT
BRANCH   2   4
HETATM    4  C   UNL     1      -6.564   8.832  64.787  1.00  0.00    -0.066 C  
HETATM    5  H2  UNL     1      -5.732   9.921  65.776  1.00  0.00     0.000 HD 
HETATM    6  N   UNL     1      -5.439   9.374  64.966  1.00  0.00    -0.045 NA 
HETATM    7  H1  UNL     1      -4.530   9.811  65.111  1.00  0.00     0.000 HD 
ENDBRANCH   2   4
BRANCH   2   8
HETATM    8  C   UNL     1      -8.923   8.720  65.586  1.00  0.00    -0.248 A  
HETATM    9  C   UNL     1     -10.303  10.562  66.456  1.00  0.00    -0.294 A  
HETATM   10  C   UNL     1      -9.401  10.031  65.513  1.00  0.00    -0.271 A  
HETATM   11  C   UNL     1     -10.717   9.727  67.508  1.00  0.00    -0.327 A  
HETATM   12  C   UNL     1      -9.370   7.914  66.649  1.00  0.00    -0.244 A  
HETATM   13  C   UNL     1     -10.242   8.410  67.626  1.00  0.00    -0.298 A  
BRANCH   9  14
HETATM   14  C   UNL     1     -10.752  12.027  66.290  1.00  0.00    -0.302 C  
HETATM   15  C   UNL     1     -11.468  12.484  67.520  1.00  0.00    -0.336 C  
HETATM   16  C   UNL     1      -9.503  12.918  66.088  1.00  0.00    -0.161 C  
HETATM   17  C   UNL     1     -11.694  12.251  65.096  1.00  0.00    -0.414 C  
HETATM   18  N   UNL     1     -12.007  12.844  68.483  1.00  0.00    -0.289 NA 
ENDBRANCH   9  14
BRANCH  13  19
HETATM   19  C   UNL     1     -10.594   7.559  68.826  1.00  0.00    -0.156 C  
BRANCH  19  20
HETATM   20  N   UNL     1      -9.950   7.971  70.060  1.00  0.00    -0.189 NA 
HETATM   21  C   UNL     1      -8.654   8.348  70.245  1.00  0.00    -0.128 A  
HETATM   22  N   UNL     1      -8.522   8.904  71.428  1.00  0.00    -0.272 NA 
HETATM   23  C   UNL     1      -9.787   8.853  71.936  1.00  0.00    -0.294 A  
HETATM   24  N   UNL     1     -10.697   8.287  71.140  1.00  0.00    -0.221 NA 
ENDBRANCH  19  20
ENDBRANCH  13  19
ENDBRANCH   2   8
TORSDOF 5
ENDMDL
MODEL      195
REMARK 921   NORMALIZED FREE ENERGY PREDICTED BY IDOCK:   -3.84 KCAL/MOL
REMARK 922        TOTAL FREE ENERGY PREDICTED BY IDOCK:   -5.75 KCAL/MOL
REMARK 923 INTER-LIGAND FREE ENERGY PREDICTED BY IDOCK:   -5.17 KCAL/MOL
REMARK 924 INTRA-LIGAND FREE ENERGY PREDICTED BY IDOCK:   -0.58 KCAL/MOL
REMARK 927      BINDING AFFINITY PREDICTED BY RF-SCORE:    0.00 PKD
ROOT
HETATM    1  C   UNL     1      -8.580   6.746  65.731  1.00  0.00    -0.144 C  
HETATM    2  C   UNL     1      -8.324   8.270  65.694  1.00  0.00    -0.154 C  
HETATM    3  C   UNL     1      -6.807   8.477  65.914  1.00  0.00    -0.064 C  
ENDROOT
BRANCH   2   4
HETATM    4  C   UNL     1      -8.622   8.772  64.290  1.00  0.00    -0.068 C  
HETATM    5  H2  UNL     1      -7.921   9.525  62.949  1.00  0.00     0.000 HD 
HETATM    6  N   UNL     1      -8.868   9.189  63.126  1.00  0.00    -0.410 NA 
HETATM    7  H1  UNL     1      -9.068   9.525  62.184  1.00  0.00     0.000 HD 
ENDBRANCH   2   4
BRANCH   2   8
HETATM    8  C   UNL     1      -9.236   8.966  66.699  1.00  0.00    -0.215 A  
HETATM    9  C   UNL     1     -10.300   9.056  68.916  1.00  0.00    -0.232 A  
HETATM   10  C   UNL     1      -9.439   8.449  67.981  1.00  0.00    -0.157 A  
HETATM   11  C   UNL     1     -10.979  10.221  68.520  1.00  0.00    -0.294 A  
HETATM   12  C   UNL     1      -9.927  10.140  66.346  1.00  0.00    -0.295 A  
HETATM   13  C   UNL     1     -10.816  10.760  67.232  1.00  0.00    -0.344 A  
BRANCH   9  14
HETATM   14  C   UNL     1     -10.463   8.390  70.296  1.00  0.00    -0.225 C  
HETATM   15  C   UNL     1      -9.122   8.162  70.916  1.00  0.00    -0.151 C  
HETATM   16  C   UNL     1     -11.277   9.331  71.217  1.00  0.00    -0.425 C  
HETATM   17  C   UNL     1     -11.185   7.035  70.244  1.00  0.00    -0.339 C  
HETATM   18  N   UNL     1      -8.081   8.003  71.404  1.00  0.00    -0.100 NA 
ENDBRANCH   9  14
BRANCH  13  19
HETATM   19  C   UNL     1     -11.641  11.940  66.772  1.00  0.00    -0.268 C  
BRANCH  19  20
HETATM   20  N   UNL     1     -10.902  13.185  66.674  1.00  0.00    -0.278 NA 
HETATM   21  C   UNL     1     -11.091  14.331  67.386  1.00  0.00    -0.304 A  
HETATM   22  N   UNL     1     -10.065  15.132  67.211  1.00  0.00    -0.234 NA 
HETATM   23  C   UNL     1      -9.254  14.419  66.377  1.00  0.00    -0.213 A  
HETATM   24  N   UNL     1      -9.723  13.222  66.015  1.00  0.00    -0.256 NA 
ENDBRANCH  19  20
ENDBRANCH  13  19
ENDBRANCH   2   8
TORSDOF 5
ENDMDL
MODEL      196
REMARK 921   NORMALIZED FREE ENERGY PREDICTED BY IDOCK:   -3.81 KCAL/MOL
REMARK 922        TOTAL FREE ENERGY PREDICTED BY IDOCK:   -5.71 KCAL/MOL
REMARK 923 INTER-LIGAND FREE ENERGY PREDICTED BY IDOCK:   -5.29 KCAL/MOL
REMARK 924 INTRA-LIGAND FREE ENERGY PREDICTED BY IDOCK:   -0.41 KCAL/MOL
REMARK 927      BINDING AFFINITY PREDICTED BY RF-SCORE:    0.00 PKD
ROOT
HETATM    1  C   UNL     1      -7.407  17.868  66.152  1.00  0.00    -0.327 C  
HETATM    2  C   UNL     1      -8.265  17.481  67.378  1.00  0.00    -0.217 C  
HETATM    3  C   UNL     1      -7.606  18.138  68.614  1.00  0.00    -0.306 C  
ENDROOT
BRANCH   2   4
HETATM    4  C   UNL     1      -9.631  18.131  67.231  1.00  0.00    -0.281 C  
HETATM    5  H2  UNL     1     -11.130  17.964  66.468  1.00  0.00     0.000 HD 
HETATM    6  N   UNL     1     -10.766  18.669  67.109  1.00  0.00    -0.413 NA 
HETATM    7  H1  UNL     1     -11.682  19.105  67.010  1.00  0.00     0.000 HD 
ENDBRANCH   2   4
BRANCH   2   8
HETATM    8  C   UNL     1      -8.415  15.965  67.440  1.00  0.00    -0.194 A  
HETATM    9  C   UNL     1      -9.834  13.964  67.635  1.00  0.00    -0.236 A  
HETATM   10  C   UNL     1      -9.671  15.359  67.545  1.00  0.00    -0.208 A  
HETATM   11  C   UNL     1      -8.675  13.167  67.628  1.00  0.00    -0.192 A  
HETATM   12  C   UNL     1      -7.282  15.132  67.426  1.00  0.00    -0.231 A  
HETATM   13  C   UNL     1      -7.395  13.741  67.545  1.00  0.00    -0.176 A  
BRANCH   9  14
HETATM   14  C   UNL     1     -11.264  13.404  67.765  1.00  0.00    -0.306 C  
HETATM   15  C   UNL     1     -11.982  13.530  66.460  1.00  0.00    -0.413 C  
HETATM   16  C   UNL     1     -11.186  11.904  68.141  1.00  0.00    -0.316 C  
HETATM   17  C   UNL     1     -12.110  14.117  68.830  1.00  0.00    -0.339 C  
HETATM   18  N   UNL     1     -12.533  13.610  65.441  1.00  0.00    -0.473 NA 
ENDBRANCH   9  14
BRANCH  13  19
HETATM   19  C   UNL     1      -6.151  12.889  67.661  1.00  0.00    -0.154 C  
BRANCH  19  20
HETATM   20  N   UNL     1      -6.085  11.794  66.711  1.00  0.00    -0.139 NA 
HETATM   21  C   UNL     1      -7.019  10.830  66.476  1.00  0.00    -0.130 A  
HETATM   22  N   UNL     1      -6.720  10.189  65.369  1.00  0.00    -0.115 NA 
HETATM   23  C   UNL     1      -5.582  10.812  64.949  1.00  0.00    -0.045 A  
HETATM   24  N   UNL     1      -5.149  11.798  65.738  1.00  0.00    -0.084 NA 
ENDBRANCH  19  20
ENDBRANCH  13  19
ENDBRANCH   2   8
TORSDOF 5
ENDMDL
MODEL      197
REMARK 921   NORMALIZED FREE ENERGY PREDICTED BY IDOCK:   -3.80 KCAL/MOL
REMARK 922        TOTAL FREE ENERGY PREDICTED BY IDOCK:   -5.70 KCAL/MOL
REMARK 923 INTER-LIGAND FREE ENERGY PREDICTED BY IDOCK:   -4.82 KCAL/MOL
REMARK 924 INTRA-LIGAND FREE ENERGY PREDICTED BY IDOCK:   -0.88 KCAL/MOL
REMARK 927      BINDING AFFINITY PREDICTED BY RF-SCORE:    0.00 PKD
ROOT
HETATM    1  C   UNL     1      -9.599  10.612  65.352  1.00  0.00    -0.282 C  
HETATM    2  C   UNL     1      -8.605  10.908  66.498  1.00  0.00    -0.156 C  
HETATM    3  C   UNL     1      -8.670   9.707  67.471  1.00  0.00    -0.126 C  
ENDROOT
BRANCH   2   4
HETATM    4  C   UNL     1      -7.197  10.912  65.924  1.00  0.00    -0.037 C  
HETATM    5  H2  UNL     1      -5.615  10.402  66.226  1.00  0.00     0.000 HD 
HETATM    6  N   UNL     1      -6.029  10.915  65.448  1.00  0.00    -0.345 NA 
HETATM    7  H1  UNL     1      -5.085  10.918  65.063  1.00  0.00     0.000 HD 
ENDBRANCH   2   4
BRANCH   2   8
HETATM    8  C   UNL     1      -8.920  12.269  67.110  1.00  0.00    -0.192 A  
HETATM    9  C   UNL     1      -8.170  14.431  68.014  1.00  0.00    -0.149 A  
HETATM   10  C   UNL     1      -7.907  13.182  67.420  1.00  0.00    -0.169 A  
HETATM   11  C   UNL     1      -9.507  14.749  68.307  1.00  0.00    -0.207 A  
HETATM   12  C   UNL     1     -10.246  12.630  67.410  1.00  0.00    -0.219 A  
HETATM   13  C   UNL     1     -10.550  13.849  68.029  1.00  0.00    -0.252 A  
BRANCH   9  14
HETATM   14  C   UNL     1      -6.976  15.354  68.330  1.00  0.00    -0.119 C  
HETATM   15  C   UNL     1      -7.015  16.561  67.449  1.00  0.00    -0.155 C  
HETATM   16  C   UNL     1      -7.072  15.816  69.803  1.00  0.00    -0.077 C  
HETATM   17  C   UNL     1      -5.609  14.680  68.131  1.00  0.00    -0.125 C  
HETATM   18  N   UNL     1      -7.058  17.507  66.778  1.00  0.00    -0.191 NA 
ENDBRANCH   9  14
BRANCH  13  19
HETATM   19  C   UNL     1     -11.969  14.144  68.458  1.00  0.00    -0.332 C  
BRANCH  19  20
HETATM   20  N   UNL     1     -12.095  14.608  69.828  1.00  0.00    -0.317 NA 
HETATM   21  C   UNL     1     -12.482  15.839  70.265  1.00  0.00    -0.256 A  
HETATM   22  N   UNL     1     -12.734  15.790  71.552  1.00  0.00    -0.455 NA 
HETATM   23  C   UNL     1     -12.493  14.484  71.865  1.00  0.00    -0.332 A  
HETATM   24  N   UNL     1     -12.095  13.719  70.845  1.00  0.00    -0.331 NA 
ENDBRANCH  19  20
ENDBRANCH  13  19
ENDBRANCH   2   8
TORSDOF 5
ENDMDL
MODEL      198
REMARK 921   NORMALIZED FREE ENERGY PREDICTED BY IDOCK:   -3.74 KCAL/MOL
REMARK 922        TOTAL FREE ENERGY PREDICTED BY IDOCK:   -5.63 KCAL/MOL
REMARK 923 INTER-LIGAND FREE ENERGY PREDICTED BY IDOCK:   -4.88 KCAL/MOL
REMARK 924 INTRA-LIGAND FREE ENERGY PREDICTED BY IDOCK:   -0.75 KCAL/MOL
REMARK 927      BINDING AFFINITY PREDICTED BY RF-SCORE:    0.00 PKD
ROOT
HETATM    1  C   UNL     1      -8.962  11.008  68.444  1.00  0.00    -0.158 C  
HETATM    2  C   UNL     1      -7.894   9.969  68.856  1.00  0.00    -0.095 C  
HETATM    3  C   UNL     1      -7.033   9.688  67.603  1.00  0.00    -0.087 C  
ENDROOT
BRANCH   2   4
HETATM    4  C   UNL     1      -6.965  10.614  69.872  1.00  0.00    -0.146 C  
HETATM    5  H2  UNL     1      -6.945  11.476  71.326  1.00  0.00     0.000 HD 
HETATM    6  N   UNL     1      -6.196  11.150  70.716  1.00  0.00    -0.453 NA 
HETATM    7  H1  UNL     1      -5.572  11.583  71.397  1.00  0.00     0.000 HD 
ENDBRANCH   2   4
BRANCH   2   8
HETATM    8  C   UNL     1      -8.575   8.752  69.475  1.00  0.00    -0.130 A  
HETATM    9  C   UNL     1      -9.218   6.380  69.368  1.00  0.00    -0.143 A  
HETATM   10  C   UNL     1      -8.571   7.510  68.833  1.00  0.00    -0.129 A  
HETATM   11  C   UNL     1      -9.897   6.531  70.590  1.00  0.00    -0.201 A  
HETATM   12  C   UNL     1      -9.256   8.859  70.700  1.00  0.00    -0.256 A  
HETATM   13  C   UNL     1      -9.939   7.769  71.254  1.00  0.00    -0.199 A  
BRANCH   9  14
HETATM   14  C   UNL     1      -9.166   5.064  68.568  1.00  0.00    -0.153 C  
HETATM   15  C   UNL     1     -10.133   5.119  67.429  1.00  0.00    -0.179 C  
HETATM   16  C   UNL     1      -7.741   4.878  67.995  1.00  0.00    -0.083 C  
HETATM   17  C   UNL     1      -9.508   3.821  69.405  1.00  0.00    -0.257 C  
HETATM   18  N   UNL     1     -10.870   5.171  66.534  1.00  0.00    -0.186 NA 
ENDBRANCH   9  14
BRANCH  13  19
HETATM   19  C   UNL     1     -10.772   7.955  72.502  1.00  0.00    -0.328 C  
BRANCH  19  20
HETATM   20  N   UNL     1     -12.189   8.145  72.253  1.00  0.00    -0.349 NA 
HETATM   21  C   UNL     1     -12.916   9.291  72.377  1.00  0.00    -0.377 A  
HETATM   22  N   UNL     1     -14.089   9.132  71.807  1.00  0.00    -0.301 NA 
HETATM   23  C   UNL     1     -14.030   7.855  71.330  1.00  0.00    -0.299 A  
HETATM   24  N   UNL     1     -12.890   7.206  71.581  1.00  0.00    -0.376 NA 
ENDBRANCH  19  20
ENDBRANCH  13  19
ENDBRANCH   2   8
TORSDOF 5
ENDMDL
MODEL      199
REMARK 921   NORMALIZED FREE ENERGY PREDICTED BY IDOCK:   -3.73 KCAL/MOL
REMARK 922        TOTAL FREE ENERGY PREDICTED BY IDOCK:   -5.61 KCAL/MOL
REMARK 923 INTER-LIGAND FREE ENERGY PREDICTED BY IDOCK:   -4.85 KCAL/MOL
REMARK 924 INTRA-LIGAND FREE ENERGY PREDICTED BY IDOCK:   -0.76 KCAL/MOL
REMARK 927      BINDING AFFINITY PREDICTED BY RF-SCORE:    0.00 PKD
ROOT
HETATM    1  C   UNL     1      -9.295  14.981  66.524  1.00  0.00    -0.309 C  
HETATM    2  C   UNL     1      -9.671  14.272  67.845  1.00  0.00    -0.222 C  
HETATM    3  C   UNL     1      -8.972  15.047  68.986  1.00  0.00    -0.205 C  
ENDROOT
BRANCH   2   4
HETATM    4  C   UNL     1     -11.165  14.440  68.071  1.00  0.00    -0.280 C  
HETATM    5  H2  UNL     1     -12.465  15.480  67.780  1.00  0.00     0.000 HD 
HETATM    6  N   UNL     1     -12.404  14.582  68.258  1.00  0.00    -0.595 NA 
HETATM    7  H1  UNL     1     -13.406  14.695  68.410  1.00  0.00     0.000 HD 
ENDBRANCH   2   4
BRANCH   2   8
HETATM    8  C   UNL     1      -9.325  12.789  67.747  1.00  0.00    -0.199 A  
HETATM    9  C   UNL     1      -9.488  10.495  68.621  1.00  0.00    -0.172 A  
HETATM   10  C   UNL     1      -9.817  11.863  68.671  1.00  0.00    -0.139 A  
HETATM   11  C   UNL     1      -8.621  10.067  67.600  1.00  0.00    -0.118 A  
HETATM   12  C   UNL     1      -8.469  12.319  66.736  1.00  0.00    -0.119 A  
HETATM   13  C   UNL     1      -8.090  10.973  66.666  1.00  0.00    -0.155 A  
BRANCH   9  14
HETATM   14  C   UNL     1     -10.073   9.564  69.700  1.00  0.00    -0.228 C  
HETATM   15  C   UNL     1     -11.219  10.234  70.387  1.00  0.00    -0.332 C  
HETATM   16  C   UNL     1     -10.592   8.272  69.025  1.00  0.00    -0.167 C  
HETATM   17  C   UNL     1      -9.058   9.160  70.781  1.00  0.00    -0.313 C  
HETATM   18  N   UNL     1     -12.122  10.749  70.906  1.00  0.00    -0.358 NA 
ENDBRANCH   9  14
BRANCH  13  19
HETATM   19  C   UNL     1      -7.063  10.529  65.648  1.00  0.00    -0.119 C  
BRANCH  19  20
HETATM   20  N   UNL     1      -7.627   9.943  64.446  1.00  0.00    -0.138 NA 
HETATM   21  C   UNL     1      -7.481   8.668  63.987  1.00  0.00    -0.118 A  
HETATM   22  N   UNL     1      -8.352   8.443  63.030  1.00  0.00    -0.146 NA 
HETATM   23  C   UNL     1      -9.027   9.625  62.943  1.00  0.00    -0.245 A  
HETATM   24  N   UNL     1      -8.619  10.577  63.785  1.00  0.00    -0.170 NA 
ENDBRANCH  19  20
ENDBRANCH  13  19
ENDBRANCH   2   8
TORSDOF 5
ENDMDL
MODEL      200
REMARK 921   NORMALIZED FREE ENERGY PREDICTED BY IDOCK:   -3.71 KCAL/MOL
REMARK 922        TOTAL FREE ENERGY PREDICTED BY IDOCK:   -5.58 KCAL/MOL
REMARK 923 INTER-LIGAND FREE ENERGY PREDICTED BY IDOCK:   -4.69 KCAL/MOL
REMARK 924 INTRA-LIGAND FREE ENERGY PREDICTED BY IDOCK:   -0.89 KCAL/MOL
REMARK 927      BINDING AFFINITY PREDICTED BY RF-SCORE:    0.00 PKD
ROOT
HETATM    1  C   UNL     1      -6.835  11.083  66.940  1.00  0.00    -0.121 C  
HETATM    2  C   UNL     1      -8.274  11.339  67.443  1.00  0.00    -0.135 C  
HETATM    3  C   UNL     1      -8.222  12.605  68.331  1.00  0.00    -0.129 C  
ENDROOT
BRANCH   2   4
HETATM    4  C   UNL     1      -9.143  11.696  66.248  1.00  0.00    -0.214 C  
HETATM    5  H2  UNL     1     -10.063  11.024  64.999  1.00  0.00     0.000 HD 
HETATM    6  N   UNL     1      -9.864  11.991  65.256  1.00  0.00    -0.314 NA 
HETATM    7  H1  UNL     1     -10.447  12.230  64.454  1.00  0.00     0.000 HD 
ENDBRANCH   2   4
BRANCH   2   8
HETATM    8  C   UNL     1      -8.812  10.082  68.119  1.00  0.00    -0.122 A  
HETATM    9  C   UNL     1      -9.447   7.707  68.020  1.00  0.00    -0.151 A  
HETATM   10  C   UNL     1      -8.925   8.873  67.427  1.00  0.00    -0.143 A  
HETATM   11  C   UNL     1      -9.875   7.788  69.356  1.00  0.00    -0.176 A  
HETATM   12  C   UNL     1      -9.242  10.118  69.458  1.00  0.00    -0.223 A  
HETATM   13  C   UNL     1      -9.796   8.991  70.078  1.00  0.00    -0.203 A  
BRANCH   9  14
HETATM   14  C   UNL     1      -9.543   6.432  67.160  1.00  0.00    -0.157 C  
HETATM   15  C   UNL     1      -8.957   5.272  67.898  1.00  0.00    -0.109 C  
HETATM   16  C   UNL     1     -11.033   6.130  66.870  1.00  0.00    -0.384 C  
HETATM   17  C   UNL     1      -8.810   6.541  65.814  1.00  0.00    -0.097 C  
HETATM   18  N   UNL     1      -8.520   4.368  68.481  1.00  0.00    -0.091 NA 
ENDBRANCH   9  14
BRANCH  13  19
HETATM   19  C   UNL     1     -10.370   9.102  71.472  1.00  0.00    -0.344 C  
BRANCH  19  20
HETATM   20  N   UNL     1     -11.818   9.206  71.516  1.00  0.00    -0.331 NA 
HETATM   21  C   UNL     1     -12.727   8.202  71.665  1.00  0.00    -0.321 A  
HETATM   22  N   UNL     1     -13.907   8.713  71.929  1.00  0.00    -0.410 NA 
HETATM   23  C   UNL     1     -13.667  10.056  71.941  1.00  0.00    -0.159 A  
HETATM   24  N   UNL     1     -12.405  10.410  71.690  1.00  0.00    -0.353 NA 
ENDBRANCH  19  20
ENDBRANCH  13  19
ENDBRANCH   2   8
TORSDOF 5
ENDMDL
MODEL      201
REMARK 921   NORMALIZED FREE ENERGY PREDICTED BY IDOCK:   -3.70 KCAL/MOL
REMARK 922        TOTAL FREE ENERGY PREDICTED BY IDOCK:   -5.57 KCAL/MOL
REMARK 923 INTER-LIGAND FREE ENERGY PREDICTED BY IDOCK:   -4.67 KCAL/MOL
REMARK 924 INTRA-LIGAND FREE ENERGY PREDICTED BY IDOCK:   -0.90 KCAL/MOL
REMARK 927      BINDING AFFINITY PREDICTED BY RF-SCORE:    0.00 PKD
ROOT
HETATM    1  C   UNL     1     -10.691  15.462  66.583  1.00  0.00    -0.309 C  
HETATM    2  C   UNL     1     -10.357  15.130  68.055  1.00  0.00    -0.240 C  
HETATM    3  C   UNL     1      -9.519  16.310  68.603  1.00  0.00    -0.228 C  
ENDROOT
BRANCH   2   4
HETATM    4  C   UNL     1     -11.652  15.124  68.851  1.00  0.00    -0.341 C  
HETATM    5  H2  UNL     1     -13.025  16.046  69.203  1.00  0.00     0.000 HD 
HETATM    6  N   UNL     1     -12.727  15.121  69.511  1.00  0.00    -0.557 NA 
HETATM    7  H1  UNL     1     -13.595  15.117  70.046  1.00  0.00     0.000 HD 
ENDBRANCH   2   4
BRANCH   2   8
HETATM    8  C   UNL     1      -9.693  13.759  68.133  1.00  0.00    -0.227 A  
HETATM    9  C   UNL     1      -7.695  12.370  68.493  1.00  0.00    -0.120 A  
HETATM   10  C   UNL     1      -8.337  13.622  68.445  1.00  0.00    -0.147 A  
HETATM   11  C   UNL     1      -8.461  11.229  68.203  1.00  0.00    -0.145 A  
HETATM   12  C   UNL     1     -10.427  12.592  67.859  1.00  0.00    -0.226 A  
HETATM   13  C   UNL     1      -9.822  11.329  67.865  1.00  0.00    -0.187 A  
BRANCH   9  14
HETATM   14  C   UNL     1      -6.191  12.335  68.831  1.00  0.00    -0.078 C  
HETATM   15  C   UNL     1      -5.958  12.918  70.187  1.00  0.00    -0.136 C  
HETATM   16  C   UNL     1      -5.710  10.864  68.838  1.00  0.00    -0.040 C  
HETATM   17  C   UNL     1      -5.319  13.115  67.836  1.00  0.00    -0.112 C  
HETATM   18  N   UNL     1      -5.781  13.354  71.249  1.00  0.00    -0.306 NA 
ENDBRANCH   9  14
BRANCH  13  19
HETATM   19  C   UNL     1     -10.609  10.112  67.434  1.00  0.00    -0.272 C  
BRANCH  19  20
HETATM   20  N   UNL     1     -10.662   9.052  68.425  1.00  0.00    -0.149 NA 
HETATM   21  C   UNL     1     -10.227   7.767  68.302  1.00  0.00    -0.201 A  
HETATM   22  N   UNL     1     -10.196   7.198  69.485  1.00  0.00    -0.190 NA 
HETATM   23  C   UNL     1     -10.618   8.193  70.317  1.00  0.00    -0.228 A  
HETATM   24  N   UNL     1     -10.920   9.346  69.717  1.00  0.00    -0.235 NA 
ENDBRANCH  19  20
ENDBRANCH  13  19
ENDBRANCH   2   8
TORSDOF 5
ENDMDL
MODEL      202
REMARK 921   NORMALIZED FREE ENERGY PREDICTED BY IDOCK:   -3.68 KCAL/MOL
REMARK 922        TOTAL FREE ENERGY PREDICTED BY IDOCK:   -5.55 KCAL/MOL
REMARK 923 INTER-LIGAND FREE ENERGY PREDICTED BY IDOCK:   -4.72 KCAL/MOL
REMARK 924 INTRA-LIGAND FREE ENERGY PREDICTED BY IDOCK:   -0.83 KCAL/MOL
REMARK 927      BINDING AFFINITY PREDICTED BY RF-SCORE:    0.00 PKD
ROOT
HETATM    1  C   UNL     1     -11.502  14.645  66.363  1.00  0.00    -0.348 C  
HETATM    2  C   UNL     1     -10.764  14.857  67.705  1.00  0.00    -0.271 C  
HETATM    3  C   UNL     1      -9.868  16.107  67.533  1.00  0.00    -0.237 C  
ENDROOT
BRANCH   2   4
HETATM    4  C   UNL     1     -11.793  15.216  68.766  1.00  0.00    -0.303 C  
HETATM    5  H2  UNL     1     -12.047  16.188  70.125  1.00  0.00     0.000 HD 
HETATM    6  N   UNL     1     -12.645  15.514  69.647  1.00  0.00    -0.596 NA 
HETATM    7  H1  UNL     1     -13.334  15.755  70.359  1.00  0.00     0.000 HD 
ENDBRANCH   2   4
BRANCH   2   8
HETATM    8  C   UNL     1     -10.038  13.575  68.099  1.00  0.00    -0.250 A  
HETATM    9  C   UNL     1      -7.974  12.242  68.227  1.00  0.00    -0.163 A  
HETATM   10  C   UNL     1      -8.662  13.426  67.901  1.00  0.00    -0.187 A  
HETATM   11  C   UNL     1      -8.721  11.177  68.761  1.00  0.00    -0.130 A  
HETATM   12  C   UNL     1     -10.746  12.490  68.644  1.00  0.00    -0.263 A  
HETATM   13  C   UNL     1     -10.109  11.282  68.954  1.00  0.00    -0.185 A  
BRANCH   9  14
HETATM   14  C   UNL     1      -6.459  12.179  67.952  1.00  0.00    -0.078 C  
HETATM   15  C   UNL     1      -6.200  11.416  66.693  1.00  0.00    -0.137 C  
HETATM   16  C   UNL     1      -5.919  13.619  67.775  1.00  0.00    -0.128 C  
HETATM   17  C   UNL     1      -5.656  11.506  69.075  1.00  0.00    -0.050 C  
HETATM   18  N   UNL     1      -6.001  10.840  65.704  1.00  0.00    -0.130 NA 
ENDBRANCH   9  14
BRANCH  13  19
HETATM   19  C   UNL     1     -10.923  10.094  69.412  1.00  0.00    -0.245 C  
BRANCH  19  20
HETATM   20  N   UNL     1     -10.738   8.897  68.611  1.00  0.00    -0.136 NA 
HETATM   21  C   UNL     1     -10.660   8.800  67.254  1.00  0.00    -0.233 A  
HETATM   22  N   UNL     1     -10.221   7.607  66.923  1.00  0.00    -0.282 NA 
HETATM   23  C   UNL     1     -10.031   7.002  68.131  1.00  0.00    -0.151 A  
HETATM   24  N   UNL     1     -10.337   7.747  69.195  1.00  0.00    -0.213 NA 
ENDBRANCH  19  20
ENDBRANCH  13  19
ENDBRANCH   2   8
TORSDOF 5
ENDMDL
MODEL      203
REMARK 921   NORMALIZED FREE ENERGY PREDICTED BY IDOCK:   -3.67 KCAL/MOL
REMARK 922        TOTAL FREE ENERGY PREDICTED BY IDOCK:   -5.53 KCAL/MOL
REMARK 923 INTER-LIGAND FREE ENERGY PREDICTED BY IDOCK:   -4.64 KCAL/MOL
REMARK 924 INTRA-LIGAND FREE ENERGY PREDICTED BY IDOCK:   -0.89 KCAL/MOL
REMARK 927      BINDING AFFINITY PREDICTED BY RF-SCORE:    0.00 PKD
ROOT
HETATM    1  C   UNL     1     -11.045  15.358  70.858  1.00  0.00    -0.374 C  
HETATM    2  C   UNL     1     -10.891  15.668  69.351  1.00  0.00    -0.264 C  
HETATM    3  C   UNL     1     -12.281  15.463  68.705  1.00  0.00    -0.061 C  
ENDROOT
BRANCH   2   4
HETATM    4  C   UNL     1     -10.564  17.144  69.196  1.00  0.00    -0.259 C  
HETATM    5  H2  UNL     1      -9.556  18.372  69.774  1.00  0.00     0.000 HD 
HETATM    6  N   UNL     1     -10.292  18.369  69.069  1.00  0.00    -0.453 NA 
HETATM    7  H1  UNL     1     -10.073  19.360  68.965  1.00  0.00     0.000 HD 
ENDBRANCH   2   4
BRANCH   2   8
HETATM    8  C   UNL     1      -9.763  14.823  68.768  1.00  0.00    -0.222 A  
HETATM    9  C   UNL     1      -9.003  12.939  67.379  1.00  0.00    -0.199 A  
HETATM   10  C   UNL     1     -10.023  13.753  67.906  1.00  0.00    -0.240 A  
HETATM   11  C   UNL     1      -7.678  13.224  67.755  1.00  0.00    -0.159 A  
HETATM   12  C   UNL     1      -8.424  15.081  69.111  1.00  0.00    -0.192 A  
HETATM   13  C   UNL     1      -7.379  14.278  68.635  1.00  0.00    -0.125 A  
BRANCH   9  14
HETATM   14  C   UNL     1      -9.404  11.775  66.452  1.00  0.00    -0.229 C  
HETATM   15  C   UNL     1     -10.079  12.306  65.229  1.00  0.00    -0.271 C  
HETATM   16  C   UNL     1      -8.128  11.013  66.019  1.00  0.00    -0.110 C  
HETATM   17  C   UNL     1     -10.360  10.767  67.108  1.00  0.00    -0.269 C  
HETATM   18  N   UNL     1     -10.586  12.721  64.270  1.00  0.00    -0.377 NA 
ENDBRANCH   9  14
BRANCH  13  19
HETATM   19  C   UNL     1      -5.969  14.502  69.131  1.00  0.00    -0.094 C  
BRANCH  19  20
HETATM   20  N   UNL     1      -5.493  15.866  68.986  1.00  0.00    -0.104 NA 
HETATM   21  C   UNL     1      -5.313  16.573  67.835  1.00  0.00    -0.121 A  
HETATM   22  N   UNL     1      -5.136  17.842  68.122  1.00  0.00    -0.146 NA 
HETATM   23  C   UNL     1      -5.226  17.867  69.484  1.00  0.00    -0.186 A  
HETATM   24  N   UNL     1      -5.440  16.682  70.061  1.00  0.00    -0.189 NA 
ENDBRANCH  19  20
ENDBRANCH  13  19
ENDBRANCH   2   8
TORSDOF 5
ENDMDL
MODEL      204
REMARK 921   NORMALIZED FREE ENERGY PREDICTED BY IDOCK:   -3.66 KCAL/MOL
REMARK 922        TOTAL FREE ENERGY PREDICTED BY IDOCK:   -5.51 KCAL/MOL
REMARK 923 INTER-LIGAND FREE ENERGY PREDICTED BY IDOCK:   -4.93 KCAL/MOL
REMARK 924 INTRA-LIGAND FREE ENERGY PREDICTED BY IDOCK:   -0.58 KCAL/MOL
REMARK 927      BINDING AFFINITY PREDICTED BY RF-SCORE:    0.00 PKD
ROOT
HETATM    1  C   UNL     1      -9.046   7.390  70.305  1.00  0.00    -0.151 C  
HETATM    2  C   UNL     1     -10.398   7.841  69.706  1.00  0.00    -0.221 C  
HETATM    3  C   UNL     1     -11.261   6.568  69.535  1.00  0.00    -0.434 C  
ENDROOT
BRANCH   2   4
HETATM    4  C   UNL     1     -11.115   8.703  70.734  1.00  0.00    -0.255 C  
HETATM    5  H2  UNL     1     -11.362  10.304  71.216  1.00  0.00     0.000 HD 
HETATM    6  N   UNL     1     -11.708   9.419  71.585  1.00  0.00    -0.381 NA 
HETATM    7  H1  UNL     1     -12.189   9.996  72.275  1.00  0.00     0.000 HD 
ENDBRANCH   2   4
BRANCH   2   8
HETATM    8  C   UNL     1     -10.152   8.646  68.435  1.00  0.00    -0.217 A  
HETATM    9  C   UNL     1      -8.792   9.132  66.443  1.00  0.00    -0.165 A  
HETATM   10  C   UNL     1      -9.058   8.383  67.605  1.00  0.00    -0.144 A  
HETATM   11  C   UNL     1      -9.667  10.186  66.128  1.00  0.00    -0.275 A  
HETATM   12  C   UNL     1     -11.010   9.702  68.079  1.00  0.00    -0.197 A  
HETATM   13  C   UNL     1     -10.766  10.493  66.948  1.00  0.00    -0.281 A  
BRANCH   9  14
HETATM   14  C   UNL     1      -7.547   8.768  65.610  1.00  0.00    -0.086 C  
HETATM   15  C   UNL     1      -7.750   7.448  64.937  1.00  0.00    -0.113 C  
HETATM   16  C   UNL     1      -7.335   9.848  64.522  1.00  0.00    -0.140 C  
HETATM   17  C   UNL     1      -6.258   8.670  66.441  1.00  0.00    -0.060 C  
HETATM   18  N   UNL     1      -7.917   6.433  64.399  1.00  0.00    -0.118 NA 
ENDBRANCH   9  14
BRANCH  13  19
HETATM   19  C   UNL     1     -11.631  11.702  66.672  1.00  0.00    -0.115 C  
BRANCH  19  20
HETATM   20  N   UNL     1     -11.488  12.773  67.642  1.00  0.00    -0.313 NA 
HETATM   21  C   UNL     1     -11.260  14.095  67.404  1.00  0.00    -0.318 A  
HETATM   22  N   UNL     1     -11.464  14.782  68.505  1.00  0.00    -0.293 NA 
HETATM   23  C   UNL     1     -11.831  13.823  69.403  1.00  0.00    -0.341 A  
HETATM   24  N   UNL     1     -11.856  12.576  68.926  1.00  0.00    -0.311 NA 
ENDBRANCH  19  20
ENDBRANCH  13  19
ENDBRANCH   2   8
TORSDOF 5
ENDMDL
MODEL      205
REMARK 921   NORMALIZED FREE ENERGY PREDICTED BY IDOCK:   -3.65 KCAL/MOL
REMARK 922        TOTAL FREE ENERGY PREDICTED BY IDOCK:   -5.51 KCAL/MOL
REMARK 923 INTER-LIGAND FREE ENERGY PREDICTED BY IDOCK:   -4.65 KCAL/MOL
REMARK 924 INTRA-LIGAND FREE ENERGY PREDICTED BY IDOCK:   -0.86 KCAL/MOL
REMARK 927      BINDING AFFINITY PREDICTED BY RF-SCORE:    0.00 PKD
ROOT
HETATM    1  C   UNL     1     -11.989  13.618  67.868  1.00  0.00    -0.382 C  
HETATM    2  C   UNL     1     -11.220  13.002  66.678  1.00  0.00    -0.341 C  
HETATM    3  C   UNL     1     -12.276  12.574  65.632  1.00  0.00    -0.403 C  
ENDROOT
BRANCH   2   4
HETATM    4  C   UNL     1     -10.394  14.098  66.022  1.00  0.00    -0.309 C  
HETATM    5  H2  UNL     1     -10.511  15.486  65.065  1.00  0.00     0.000 HD 
HETATM    6  N   UNL     1      -9.711  15.008  65.478  1.00  0.00    -0.422 NA 
HETATM    7  H1  UNL     1      -9.157  15.742  65.039  1.00  0.00     0.000 HD 
ENDBRANCH   2   4
BRANCH   2   8
HETATM    8  C   UNL     1     -10.303  11.892  67.180  1.00  0.00    -0.235 A  
HETATM    9  C   UNL     1      -8.118  11.145  68.031  1.00  0.00    -0.123 A  
HETATM   10  C   UNL     1      -8.994  12.157  67.592  1.00  0.00    -0.178 A  
HETATM   11  C   UNL     1      -8.595   9.823  68.036  1.00  0.00    -0.122 A  
HETATM   12  C   UNL     1     -10.745  10.557  67.210  1.00  0.00    -0.333 A  
HETATM   13  C   UNL     1      -9.898   9.515  67.609  1.00  0.00    -0.206 A  
BRANCH   9  14
HETATM   14  C   UNL     1      -6.689  11.547  68.446  1.00  0.00    -0.066 C  
HETATM   15  C   UNL     1      -6.696  12.920  69.037  1.00  0.00    -0.095 C  
HETATM   16  C   UNL     1      -6.177  10.554  69.516  1.00  0.00    -0.054 C  
HETATM   17  C   UNL     1      -5.687  11.550  67.282  1.00  0.00    -0.090 C  
HETATM   18  N   UNL     1      -6.706  13.979  69.514  1.00  0.00    -0.115 NA 
ENDBRANCH   9  14
BRANCH  13  19
HETATM   19  C   UNL     1     -10.363   8.081  67.500  1.00  0.00    -0.261 C  
BRANCH  19  20
HETATM   20  N   UNL     1     -10.266   7.325  68.736  1.00  0.00    -0.177 NA 
HETATM   21  C   UNL     1      -9.388   6.330  69.044  1.00  0.00    -0.126 A  
HETATM   22  N   UNL     1      -9.434   6.086  70.334  1.00  0.00    -0.162 NA 
HETATM   23  C   UNL     1     -10.364   6.978  70.784  1.00  0.00    -0.206 A  
HETATM   24  N   UNL     1     -10.906   7.756  69.845  1.00  0.00    -0.245 NA 
ENDBRANCH  19  20
ENDBRANCH  13  19
ENDBRANCH   2   8
TORSDOF 5
ENDMDL
MODEL      206
REMARK 921   NORMALIZED FREE ENERGY PREDICTED BY IDOCK:   -3.64 KCAL/MOL
REMARK 922        TOTAL FREE ENERGY PREDICTED BY IDOCK:   -5.50 KCAL/MOL
REMARK 923 INTER-LIGAND FREE ENERGY PREDICTED BY IDOCK:   -4.65 KCAL/MOL
REMARK 924 INTRA-LIGAND FREE ENERGY PREDICTED BY IDOCK:   -0.85 KCAL/MOL
REMARK 927      BINDING AFFINITY PREDICTED BY RF-SCORE:    0.00 PKD
ROOT
HETATM    1  C   UNL     1     -11.970  12.538  69.504  1.00  0.00    -0.329 C  
HETATM    2  C   UNL     1     -10.951  12.363  68.355  1.00  0.00    -0.272 C  
HETATM    3  C   UNL     1     -11.662  12.801  67.052  1.00  0.00    -0.440 C  
ENDROOT
BRANCH   2   4
HETATM    4  C   UNL     1      -9.813  13.349  68.568  1.00  0.00    -0.178 C  
HETATM    5  H2  UNL     1      -8.786  14.420  67.760  1.00  0.00     0.000 HD 
HETATM    6  N   UNL     1      -8.870  14.168  68.744  1.00  0.00    -0.337 NA 
HETATM    7  H1  UNL     1      -8.107  14.829  68.888  1.00  0.00     0.000 HD 
ENDBRANCH   2   4
BRANCH   2   8
HETATM    8  C   UNL     1     -10.409  10.937  68.362  1.00  0.00    -0.196 A  
HETATM    9  C   UNL     1      -8.961   9.196  67.400  1.00  0.00    -0.128 A  
HETATM   10  C   UNL     1      -9.454  10.515  67.433  1.00  0.00    -0.172 A  
HETATM   11  C   UNL     1      -9.471   8.283  68.339  1.00  0.00    -0.144 A  
HETATM   12  C   UNL     1     -10.886   9.995  69.291  1.00  0.00    -0.261 A  
HETATM   13  C   UNL     1     -10.448   8.665  69.274  1.00  0.00    -0.226 A  
BRANCH   9  14
HETATM   14  C   UNL     1      -7.921   8.834  66.322  1.00  0.00    -0.106 C  
HETATM   15  C   UNL     1      -6.643   8.405  66.968  1.00  0.00    -0.058 C  
HETATM   16  C   UNL     1      -8.463   7.657  65.474  1.00  0.00    -0.132 C  
HETATM   17  C   UNL     1      -7.592   9.993  65.369  1.00  0.00    -0.138 C  
HETATM   18  N   UNL     1      -5.658   8.054  67.472  1.00  0.00    -0.037 NA 
ENDBRANCH   9  14
BRANCH  13  19
HETATM   19  C   UNL     1     -11.081   7.650  70.199  1.00  0.00    -0.218 C  
BRANCH  19  20
HETATM   20  N   UNL     1     -10.617   7.721  71.572  1.00  0.00    -0.212 NA 
HETATM   21  C   UNL     1     -11.193   7.177  72.681  1.00  0.00    -0.293 A  
HETATM   22  N   UNL     1     -10.346   7.223  73.684  1.00  0.00    -0.362 NA 
HETATM   23  C   UNL     1      -9.243   7.805  73.131  1.00  0.00    -0.242 A  
HETATM   24  N   UNL     1      -9.360   8.133  71.842  1.00  0.00    -0.170 NA 
ENDBRANCH  19  20
ENDBRANCH  13  19
ENDBRANCH   2   8
TORSDOF 5
ENDMDL
MODEL      207
REMARK 921   NORMALIZED FREE ENERGY PREDICTED BY IDOCK:   -3.61 KCAL/MOL
REMARK 922        TOTAL FREE ENERGY PREDICTED BY IDOCK:   -5.45 KCAL/MOL
REMARK 923 INTER-LIGAND FREE ENERGY PREDICTED BY IDOCK:   -4.60 KCAL/MOL
REMARK 924 INTRA-LIGAND FREE ENERGY PREDICTED BY IDOCK:   -0.85 KCAL/MOL
REMARK 927      BINDING AFFINITY PREDICTED BY RF-SCORE:    0.00 PKD
ROOT
HETATM    1  C   UNL     1     -11.624   5.435  72.790  1.00  0.00    -0.293 C  
HETATM    2  C   UNL     1     -10.223   4.987  72.315  1.00  0.00    -0.257 C  
HETATM    3  C   UNL     1      -9.226   5.365  73.436  1.00  0.00    -0.131 C  
ENDROOT
BRANCH   2   4
HETATM    4  C   UNL     1     -10.209   3.469  72.230  1.00  0.00    -0.109 C  
HETATM    5  H2  UNL     1     -11.212   2.108  72.216  1.00  0.00     0.000 HD 
HETATM    6  N   UNL     1     -10.198   2.210  72.158  1.00  0.00    -0.157 NA 
HETATM    7  H1  UNL     1     -10.189   1.192  72.101  1.00  0.00     0.000 HD 
ENDBRANCH   2   4
BRANCH   2   8
HETATM    8  C   UNL     1      -9.931   5.587  70.944  1.00  0.00    -0.260 A  
HETATM    9  C   UNL     1      -9.424   5.307  68.553  1.00  0.00    -0.166 A  
HETATM   10  C   UNL     1      -9.725   4.779  69.822  1.00  0.00    -0.272 A  
HETATM   11  C   UNL     1      -9.320   6.704  68.433  1.00  0.00    -0.123 A  
HETATM   12  C   UNL     1      -9.828   6.980  70.779  1.00  0.00    -0.190 A  
HETATM   13  C   UNL     1      -9.500   7.548  69.542  1.00  0.00    -0.156 A  
BRANCH   9  14
HETATM   14  C   UNL     1      -9.199   4.323  67.388  1.00  0.00    -0.171 C  
HETATM   15  C   UNL     1     -10.215   4.557  66.317  1.00  0.00    -0.239 C  
HETATM   16  C   UNL     1      -7.791   4.562  66.791  1.00  0.00    -0.098 C  
HETATM   17  C   UNL     1      -9.295   2.847  67.802  1.00  0.00    -0.247 C  
HETATM   18  N   UNL     1     -10.993   4.754  65.478  1.00  0.00    -0.114 NA 
ENDBRANCH   9  14
BRANCH  13  19
HETATM   19  C   UNL     1      -9.266   9.037  69.433  1.00  0.00    -0.150 C  
BRANCH  19  20
HETATM   20  N   UNL     1     -10.357   9.771  68.818  1.00  0.00    -0.200 NA 
HETATM   21  C   UNL     1     -11.386  10.417  69.434  1.00  0.00    -0.250 A  
HETATM   22  N   UNL     1     -12.007  11.182  68.567  1.00  0.00    -0.574 NA 
HETATM   23  C   UNL     1     -11.306  10.976  67.415  1.00  0.00    -0.230 A  
HETATM   24  N   UNL     1     -10.289  10.117  67.514  1.00  0.00    -0.214 NA 
ENDBRANCH  19  20
ENDBRANCH  13  19
ENDBRANCH   2   8
TORSDOF 5
ENDMDL
MODEL      208
REMARK 921   NORMALIZED FREE ENERGY PREDICTED BY IDOCK:   -3.59 KCAL/MOL
REMARK 922        TOTAL FREE ENERGY PREDICTED BY IDOCK:   -5.42 KCAL/MOL
REMARK 923 INTER-LIGAND FREE ENERGY PREDICTED BY IDOCK:   -4.54 KCAL/MOL
REMARK 924 INTRA-LIGAND FREE ENERGY PREDICTED BY IDOCK:   -0.88 KCAL/MOL
REMARK 927      BINDING AFFINITY PREDICTED BY RF-SCORE:    0.00 PKD
ROOT
HETATM    1  C   UNL     1     -10.600   9.699  68.206  1.00  0.00    -0.268 C  
HETATM    2  C   UNL     1     -10.253   9.125  69.598  1.00  0.00    -0.211 C  
HETATM    3  C   UNL     1      -8.913   9.767  70.028  1.00  0.00    -0.255 C  
ENDROOT
BRANCH   2   4
HETATM    4  C   UNL     1     -11.295   9.612  70.592  1.00  0.00    -0.312 C  
HETATM    5  H2  UNL     1     -12.277   9.111  71.873  1.00  0.00     0.000 HD 
HETATM    6  N   UNL     1     -12.159  10.016  71.417  1.00  0.00    -0.394 NA 
HETATM    7  H1  UNL     1     -12.858  10.343  72.083  1.00  0.00     0.000 HD 
ENDBRANCH   2   4
BRANCH   2   8
HETATM    8  C   UNL     1     -10.264   7.600  69.540  1.00  0.00    -0.209 A  
HETATM    9  C   UNL     1     -10.126   5.418  70.669  1.00  0.00    -0.300 A  
HETATM   10  C   UNL     1     -10.149   6.826  70.698  1.00  0.00    -0.204 A  
HETATM   11  C   UNL     1     -10.211   4.788  69.415  1.00  0.00    -0.166 A  
HETATM   12  C   UNL     1     -10.358   6.931  68.307  1.00  0.00    -0.220 A  
HETATM   13  C   UNL     1     -10.307   5.534  68.227  1.00  0.00    -0.237 A  
BRANCH   9  14
HETATM   14  C   UNL     1      -9.978   4.663  72.004  1.00  0.00    -0.251 C  
HETATM   15  C   UNL     1      -8.736   5.106  72.707  1.00  0.00    -0.119 C  
HETATM   16  C   UNL     1     -11.195   4.987  72.904  1.00  0.00    -0.344 C  
HETATM   17  C   UNL     1      -9.899   3.137  71.843  1.00  0.00    -0.238 C  
HETATM   18  N   UNL     1      -7.780   5.466  73.261  1.00  0.00    -0.099 NA 
ENDBRANCH   9  14
BRANCH  13  19
HETATM   19  C   UNL     1     -10.275   4.855  66.877  1.00  0.00    -0.211 C  
BRANCH  19  20
HETATM   20  N   UNL     1      -8.977   4.878  66.227  1.00  0.00    -0.118 NA 
HETATM   21  C   UNL     1      -8.438   5.870  65.465  1.00  0.00    -0.154 A  
HETATM   22  N   UNL     1      -7.158   5.640  65.285  1.00  0.00    -0.064 NA 
HETATM   23  C   UNL     1      -6.952   4.482  65.975  1.00  0.00    -0.066 A  
HETATM   24  N   UNL     1      -8.035   3.972  66.566  1.00  0.00    -0.097 NA 
ENDBRANCH  19  20
ENDBRANCH  13  19
ENDBRANCH   2   8
TORSDOF 5
ENDMDL
MODEL      209
REMARK 921   NORMALIZED FREE ENERGY PREDICTED BY IDOCK:   -3.57 KCAL/MOL
REMARK 922        TOTAL FREE ENERGY PREDICTED BY IDOCK:   -5.41 KCAL/MOL
REMARK 923 INTER-LIGAND FREE ENERGY PREDICTED BY IDOCK:   -4.64 KCAL/MOL
REMARK 924 INTRA-LIGAND FREE ENERGY PREDICTED BY IDOCK:   -0.76 KCAL/MOL
REMARK 927      BINDING AFFINITY PREDICTED BY RF-SCORE:    0.00 PKD
ROOT
HETATM    1  C   UNL     1     -11.474  12.376  66.194  1.00  0.00    -0.430 C  
HETATM    2  C   UNL     1     -10.990  13.786  66.604  1.00  0.00    -0.298 C  
HETATM    3  C   UNL     1     -11.342  14.739  65.437  1.00  0.00    -0.356 C  
ENDROOT
BRANCH   2   4
HETATM    4  C   UNL     1     -11.816  14.250  67.793  1.00  0.00    -0.379 C  
HETATM    5  H2  UNL     1     -13.236  15.063  68.216  1.00  0.00     0.000 HD 
HETATM    6  N   UNL     1     -12.501  14.635  68.779  1.00  0.00    -0.567 NA 
HETATM    7  H1  UNL     1     -13.055  14.945  69.577  1.00  0.00     0.000 HD 
ENDBRANCH   2   4
BRANCH   2   8
HETATM    8  C   UNL     1      -9.515  13.730  66.986  1.00  0.00    -0.255 A  
HETATM    9  C   UNL     1      -7.481  14.833  67.824  1.00  0.00    -0.178 A  
HETATM   10  C   UNL     1      -8.849  14.850  67.493  1.00  0.00    -0.195 A  
HETATM   11  C   UNL     1      -6.773  13.636  67.619  1.00  0.00    -0.185 A  
HETATM   12  C   UNL     1      -8.773  12.549  66.805  1.00  0.00    -0.147 A  
HETATM   13  C   UNL     1      -7.403  12.495  67.092  1.00  0.00    -0.066 A  
BRANCH   9  14
HETATM   14  C   UNL     1      -6.844  16.130  68.360  1.00  0.00    -0.128 C  
HETATM   15  C   UNL     1      -6.066  15.842  69.603  1.00  0.00    -0.159 C  
HETATM   16  C   UNL     1      -5.875  16.693  67.293  1.00  0.00    -0.198 C  
HETATM   17  C   UNL     1      -7.868  17.224  68.697  1.00  0.00    -0.272 C  
HETATM   18  N   UNL     1      -5.447  15.613  70.558  1.00  0.00    -0.155 NA 
ENDBRANCH   9  14
BRANCH  13  19
HETATM   19  C   UNL     1      -6.610  11.252  66.759  1.00  0.00    -0.140 C  
BRANCH  19  20
HETATM   20  N   UNL     1      -7.346  10.011  66.925  1.00  0.00    -0.091 NA 
HETATM   21  C   UNL     1      -7.838   9.476  68.077  1.00  0.00    -0.087 A  
HETATM   22  N   UNL     1      -8.668   8.500  67.790  1.00  0.00    -0.136 NA 
HETATM   23  C   UNL     1      -8.660   8.480  66.425  1.00  0.00    -0.125 A  
HETATM   24  N   UNL     1      -7.863   9.382  65.848  1.00  0.00    -0.099 NA 
ENDBRANCH  19  20
ENDBRANCH  13  19
ENDBRANCH   2   8
TORSDOF 5
ENDMDL
MODEL      210
REMARK 921   NORMALIZED FREE ENERGY PREDICTED BY IDOCK:   -3.55 KCAL/MOL
REMARK 922        TOTAL FREE ENERGY PREDICTED BY IDOCK:   -5.38 KCAL/MOL
REMARK 923 INTER-LIGAND FREE ENERGY PREDICTED BY IDOCK:   -4.55 KCAL/MOL
REMARK 924 INTRA-LIGAND FREE ENERGY PREDICTED BY IDOCK:   -0.83 KCAL/MOL
REMARK 927      BINDING AFFINITY PREDICTED BY RF-SCORE:    0.00 PKD
ROOT
HETATM    1  C   UNL     1     -13.963  14.833  71.225  1.00  0.00    -0.444 C  
HETATM    2  C   UNL     1     -12.551  14.203  71.230  1.00  0.00    -0.438 C  
HETATM    3  C   UNL     1     -11.857  14.667  72.532  1.00  0.00    -0.114 C  
ENDROOT
BRANCH   2   4
HETATM    4  C   UNL     1     -12.699  12.694  71.343  1.00  0.00    -0.247 C  
HETATM    5  H2  UNL     1     -11.823  11.249  71.346  1.00  0.00     0.000 HD 
HETATM    6  N   UNL     1     -12.821  11.442  71.436  1.00  0.00    -0.422 NA 
HETATM    7  H1  UNL     1     -12.920  10.431  71.512  1.00  0.00     0.000 HD 
ENDBRANCH   2   4
BRANCH   2   8
HETATM    8  C   UNL     1     -11.827  14.558  69.936  1.00  0.00    -0.373 A  
HETATM    9  C   UNL     1     -11.478  14.229  67.522  1.00  0.00    -0.368 A  
HETATM   10  C   UNL     1     -12.152  13.941  68.724  1.00  0.00    -0.344 A  
HETATM   11  C   UNL     1     -10.434  15.169  67.566  1.00  0.00    -0.258 A  
HETATM   12  C   UNL     1     -10.782  15.500  69.935  1.00  0.00    -0.321 A  
HETATM   13  C   UNL     1     -10.064  15.795  68.769  1.00  0.00    -0.215 A  
BRANCH   9  14
HETATM   14  C   UNL     1     -11.908  13.477  66.247  1.00  0.00    -0.431 C  
HETATM   15  C   UNL     1     -10.969  13.792  65.127  1.00  0.00    -0.337 C  
HETATM   16  C   UNL     1     -11.856  11.954  66.519  1.00  0.00    -0.132 C  
HETATM   17  C   UNL     1     -13.327  13.827  65.774  1.00  0.00     0.518 C  
HETATM   18  N   UNL     1     -10.228  14.022  64.264  1.00  0.00    -0.037 NA 
ENDBRANCH   9  14
BRANCH  13  19
HETATM   19  C   UNL     1      -8.862  16.710  68.833  1.00  0.00    -0.238 C  
BRANCH  19  20
HETATM   20  N   UNL     1      -7.594  16.021  68.988  1.00  0.00    -0.197 NA 
HETATM   21  C   UNL     1      -6.823  15.457  68.017  1.00  0.00    -0.140 A  
HETATM   22  N   UNL     1      -5.636  15.176  68.505  1.00  0.00    -0.092 NA 
HETATM   23  C   UNL     1      -5.726  15.603  69.798  1.00  0.00    -0.132 A  
HETATM   24  N   UNL     1      -6.905  16.124  70.145  1.00  0.00     0.217 NA 
ENDBRANCH  19  20
ENDBRANCH  13  19
ENDBRANCH   2   8
TORSDOF 5
ENDMDL
MODEL      211
REMARK 921   NORMALIZED FREE ENERGY PREDICTED BY IDOCK:   -3.54 KCAL/MOL
REMARK 922        TOTAL FREE ENERGY PREDICTED BY IDOCK:   -5.36 KCAL/MOL
REMARK 923 INTER-LIGAND FREE ENERGY PREDICTED BY IDOCK:   -4.58 KCAL/MOL
REMARK 924 INTRA-LIGAND FREE ENERGY PREDICTED BY IDOCK:   -0.78 KCAL/MOL
REMARK 927      BINDING AFFINITY PREDICTED BY RF-SCORE:    0.00 PKD
ROOT
HETATM    1  C   UNL     1      -6.224  14.071  70.020  1.00  0.00    -0.142 C  
HETATM    2  C   UNL     1      -6.647  14.270  68.546  1.00  0.00    -0.095 C  
HETATM    3  C   UNL     1      -6.178  15.684  68.131  1.00  0.00    -0.135 C  
ENDROOT
BRANCH   2   4
HETATM    4  C   UNL     1      -5.862  13.293  67.685  1.00  0.00    -0.103 C  
HETATM    5  H2  UNL     1      -4.958  11.866  67.745  1.00  0.00     0.000 HD 
HETATM    6  N   UNL     1      -5.210  12.482  66.973  1.00  0.00    -0.339 NA 
HETATM    7  H1  UNL     1      -4.683  11.827  66.395  1.00  0.00     0.000 HD 
ENDBRANCH   2   4
BRANCH   2   8
HETATM    8  C   UNL     1      -8.142  14.003  68.402  1.00  0.00    -0.148 A  
HETATM    9  C   UNL     1     -10.476  14.576  68.930  1.00  0.00    -0.246 A  
HETATM   10  C   UNL     1      -9.092  14.820  69.022  1.00  0.00    -0.136 A  
HETATM   11  C   UNL     1     -10.896  13.457  68.190  1.00  0.00    -0.273 A  
HETATM   12  C   UNL     1      -8.604  12.899  67.663  1.00  0.00    -0.182 A  
HETATM   13  C   UNL     1      -9.969  12.601  67.570  1.00  0.00    -0.205 A  
BRANCH   9  14
HETATM   14  C   UNL     1     -11.435  15.532  69.667  1.00  0.00    -0.337 C  
HETATM   15  C   UNL     1     -11.372  15.282  71.140  1.00  0.00    -0.356 C  
HETATM   16  C   UNL     1     -10.999  16.992  69.396  1.00  0.00     0.031 C  
HETATM   17  C   UNL     1     -12.902  15.385  69.235  1.00  0.00     0.494 C  
HETATM   18  N   UNL     1     -11.307  15.101  72.285  1.00  0.00    -0.346 NA 
ENDBRANCH   9  14
BRANCH  13  19
HETATM   19  C   UNL     1     -10.420  11.333  66.881  1.00  0.00    -0.245 C  
BRANCH  19  20
HETATM   20  N   UNL     1     -10.790  11.508  65.489  1.00  0.00    -0.276 NA 
HETATM   21  C   UNL     1     -11.669  12.406  64.961  1.00  0.00    -0.371 A  
HETATM   22  N   UNL     1     -11.531  12.441  63.655  1.00  0.00    -0.452 NA 
HETATM   23  C   UNL     1     -10.533  11.539  63.426  1.00  0.00    -0.406 A  
HETATM   24  N   UNL     1     -10.048  10.938  64.515  1.00  0.00    -0.315 NA 
ENDBRANCH  19  20
ENDBRANCH  13  19
ENDBRANCH   2   8
TORSDOF 5
ENDMDL
MODEL      212
REMARK 921   NORMALIZED FREE ENERGY PREDICTED BY IDOCK:   -3.53 KCAL/MOL
REMARK 922        TOTAL FREE ENERGY PREDICTED BY IDOCK:   -5.36 KCAL/MOL
REMARK 923 INTER-LIGAND FREE ENERGY PREDICTED BY IDOCK:   -4.42 KCAL/MOL
REMARK 924 INTRA-LIGAND FREE ENERGY PREDICTED BY IDOCK:   -0.94 KCAL/MOL
REMARK 927      BINDING AFFINITY PREDICTED BY RF-SCORE:    0.00 PKD
ROOT
HETATM    1  C   UNL     1      -6.728  14.809  67.271  1.00  0.00     0.101 C  
HETATM    2  C   UNL     1      -8.195  14.797  67.758  1.00  0.00    -0.167 C  
HETATM    3  C   UNL     1      -8.328  15.921  68.813  1.00  0.00    -0.206 C  
ENDROOT
BRANCH   2   4
HETATM    4  C   UNL     1      -9.089  15.199  66.596  1.00  0.00    -0.280 C  
HETATM    5  H2  UNL     1      -9.156  16.179  65.221  1.00  0.00     0.000 HD 
HETATM    6  N   UNL     1      -9.830  15.533  65.632  1.00  0.00    -0.346 NA 
HETATM    7  H1  UNL     1     -10.430  15.802  64.853  1.00  0.00     0.000 HD 
ENDBRANCH   2   4
BRANCH   2   8
HETATM    8  C   UNL     1      -8.564  13.397  68.237  1.00  0.00    -0.169 A  
HETATM    9  C   UNL     1      -7.903  11.120  68.895  1.00  0.00    -0.131 A  
HETATM   10  C   UNL     1      -7.586  12.428  68.482  1.00  0.00    -0.122 A  
HETATM   11  C   UNL     1      -9.261  10.793  69.051  1.00  0.00    -0.157 A  
HETATM   12  C   UNL     1      -9.911  13.033  68.415  1.00  0.00    -0.203 A  
HETATM   13  C   UNL     1     -10.273  11.734  68.795  1.00  0.00    -0.175 A  
BRANCH   9  14
HETATM   14  C   UNL     1      -6.746  10.126  69.120  1.00  0.00    -0.056 C  
HETATM   15  C   UNL     1      -6.649   9.774  70.569  1.00  0.00    -0.117 C  
HETATM   16  C   UNL     1      -7.029   8.834  68.317  1.00  0.00    -0.073 C  
HETATM   17  C   UNL     1      -5.377  10.667  68.683  1.00  0.00    -0.041 C  
HETATM   18  N   UNL     1      -6.588   9.486  71.692  1.00  0.00    -0.307 NA 
ENDBRANCH   9  14
BRANCH  13  19
HETATM   19  C   UNL     1     -11.732  11.342  68.846  1.00  0.00    -0.343 C  
BRANCH  19  20
HETATM   20  N   UNL     1     -12.273  11.220  70.187  1.00  0.00    -0.328 NA 
HETATM   21  C   UNL     1     -12.616  12.219  71.048  1.00  0.00    -0.257 A  
HETATM   22  N   UNL     1     -13.314  11.722  72.043  1.00  0.00    -0.438 NA 
HETATM   23  C   UNL     1     -13.382  10.393  71.740  1.00  0.00    -0.354 A  
HETATM   24  N   UNL     1     -12.756  10.034  70.616  1.00  0.00    -0.251 NA 
ENDBRANCH  19  20
ENDBRANCH  13  19
ENDBRANCH   2   8
TORSDOF 5
ENDMDL
MODEL      213
REMARK 921   NORMALIZED FREE ENERGY PREDICTED BY IDOCK:   -3.49 KCAL/MOL
REMARK 922        TOTAL FREE ENERGY PREDICTED BY IDOCK:   -5.30 KCAL/MOL
REMARK 923 INTER-LIGAND FREE ENERGY PREDICTED BY IDOCK:   -4.40 KCAL/MOL
REMARK 924 INTRA-LIGAND FREE ENERGY PREDICTED BY IDOCK:   -0.90 KCAL/MOL
REMARK 927      BINDING AFFINITY PREDICTED BY RF-SCORE:    0.00 PKD
ROOT
HETATM    1  C   UNL     1      -9.841  13.981  67.605  1.00  0.00    -0.233 C  
HETATM    2  C   UNL     1     -10.349  12.613  67.095  1.00  0.00    -0.239 C  
HETATM    3  C   UNL     1     -11.884  12.603  67.288  1.00  0.00    -0.395 C  
ENDROOT
BRANCH   2   4
HETATM    4  C   UNL     1     -10.110  12.541  65.595  1.00  0.00    -0.269 C  
HETATM    5  H2  UNL     1     -10.598  11.744  64.187  1.00  0.00     0.000 HD 
HETATM    6  N   UNL     1      -9.912  12.481  64.351  1.00  0.00    -0.545 NA 
HETATM    7  H1  UNL     1      -9.751  12.433  63.345  1.00  0.00     0.000 HD 
ENDBRANCH   2   4
BRANCH   2   8
HETATM    8  C   UNL     1      -9.590  11.491  67.796  1.00  0.00    -0.177 A  
HETATM    9  C   UNL     1      -7.744   9.865  67.844  1.00  0.00    -0.090 A  
HETATM   10  C   UNL     1      -8.445  10.922  67.232  1.00  0.00    -0.125 A  
HETATM   11  C   UNL     1      -8.239   9.371  69.064  1.00  0.00    -0.108 A  
HETATM   12  C   UNL     1     -10.047  10.975  69.022  1.00  0.00    -0.197 A  
HETATM   13  C   UNL     1      -9.400   9.904  69.651  1.00  0.00    -0.247 A  
BRANCH   9  14
HETATM   14  C   UNL     1      -6.503   9.300  67.126  1.00  0.00    -0.063 C  
HETATM   15  C   UNL     1      -6.817   9.043  65.688  1.00  0.00    -0.076 C  
HETATM   16  C   UNL     1      -5.360  10.340  67.202  1.00  0.00    -0.041 C  
HETATM   17  C   UNL     1      -5.989   7.984  67.729  1.00  0.00    -0.046 C  
HETATM   18  N   UNL     1      -7.058   8.863  64.566  1.00  0.00    -0.088 NA 
ENDBRANCH   9  14
BRANCH  13  19
HETATM   19  C   UNL     1      -9.995   9.289  70.897  1.00  0.00    -0.297 C  
BRANCH  19  20
HETATM   20  N   UNL     1     -10.377   7.896  70.752  1.00  0.00    -0.202 NA 
HETATM   21  C   UNL     1     -11.160   7.337  69.786  1.00  0.00    -0.182 A  
HETATM   22  N   UNL     1     -11.052   6.029  69.835  1.00  0.00    -0.391 NA 
HETATM   23  C   UNL     1     -10.170   5.830  70.857  1.00  0.00    -0.216 A  
HETATM   24  N   UNL     1      -9.731   6.940  71.454  1.00  0.00    -0.174 NA 
ENDBRANCH  19  20
ENDBRANCH  13  19
ENDBRANCH   2   8
TORSDOF 5
ENDMDL
MODEL      214
REMARK 921   NORMALIZED FREE ENERGY PREDICTED BY IDOCK:   -3.47 KCAL/MOL
REMARK 922        TOTAL FREE ENERGY PREDICTED BY IDOCK:   -5.27 KCAL/MOL
REMARK 923 INTER-LIGAND FREE ENERGY PREDICTED BY IDOCK:   -4.40 KCAL/MOL
REMARK 924 INTRA-LIGAND FREE ENERGY PREDICTED BY IDOCK:   -0.87 KCAL/MOL
REMARK 927      BINDING AFFINITY PREDICTED BY RF-SCORE:    0.00 PKD
ROOT
HETATM    1  C   UNL     1     -10.834   9.886  70.007  1.00  0.00    -0.339 C  
HETATM    2  C   UNL     1     -10.518  10.500  68.624  1.00  0.00    -0.211 C  
HETATM    3  C   UNL     1     -11.776  11.285  68.182  1.00  0.00    -0.323 C  
ENDROOT
BRANCH   2   4
HETATM    4  C   UNL     1      -9.414  11.532  68.798  1.00  0.00    -0.089 C  
HETATM    5  H2  UNL     1      -7.735  11.724  68.806  1.00  0.00     0.000 HD 
HETATM    6  N   UNL     1      -8.498  12.386  68.943  1.00  0.00    -0.348 NA 
HETATM    7  H1  UNL     1      -7.758  13.078  69.060  1.00  0.00     0.000 HD 
ENDBRANCH   2   4
BRANCH   2   8
HETATM    8  C   UNL     1     -10.057   9.403  67.670  1.00  0.00    -0.262 A  
HETATM    9  C   UNL     1      -8.819   8.697  65.665  1.00  0.00    -0.227 A  
HETATM   10  C   UNL     1      -9.232   9.686  66.577  1.00  0.00    -0.197 A  
HETATM   11  C   UNL     1      -9.273   7.383  65.873  1.00  0.00    -0.022 A  
HETATM   12  C   UNL     1     -10.481   8.074  67.849  1.00  0.00    -0.259 A  
HETATM   13  C   UNL     1     -10.119   7.064  66.949  1.00  0.00    -0.296 A  
BRANCH   9  14
HETATM   14  C   UNL     1      -7.923   9.122  64.484  1.00  0.00    -0.127 C  
HETATM   15  C   UNL     1      -8.744   9.814  63.444  1.00  0.00    -0.226 C  
HETATM   16  C   UNL     1      -6.847  10.108  64.998  1.00  0.00    -0.132 C  
HETATM   17  C   UNL     1      -7.205   7.948  63.802  1.00  0.00    -0.092 C  
HETATM   18  N   UNL     1      -9.379  10.369  62.645  1.00  0.00    -0.295 NA 
ENDBRANCH   9  14
BRANCH  13  19
HETATM   19  C   UNL     1     -10.702   5.677  67.097  1.00  0.00    -0.232 C  
BRANCH  19  20
HETATM   20  N   UNL     1      -9.797   4.708  67.688  1.00  0.00    -0.161 NA 
HETATM   21  C   UNL     1      -9.648   4.394  69.006  1.00  0.00    -0.174 A  
HETATM   22  N   UNL     1      -8.941   3.294  69.119  1.00  0.00    -0.107 NA 
HETATM   23  C   UNL     1      -8.682   2.958  67.822  1.00  0.00    -0.114 A  
HETATM   24  N   UNL     1      -9.180   3.794  66.908  1.00  0.00    -0.166 NA 
ENDBRANCH  19  20
ENDBRANCH  13  19
ENDBRANCH   2   8
TORSDOF 5
ENDMDL
MODEL      215
REMARK 921   NORMALIZED FREE ENERGY PREDICTED BY IDOCK:   -3.43 KCAL/MOL
REMARK 922        TOTAL FREE ENERGY PREDICTED BY IDOCK:   -5.22 KCAL/MOL
REMARK 923 INTER-LIGAND FREE ENERGY PREDICTED BY IDOCK:   -4.87 KCAL/MOL
REMARK 924 INTRA-LIGAND FREE ENERGY PREDICTED BY IDOCK:   -0.35 KCAL/MOL
REMARK 927      BINDING AFFINITY PREDICTED BY RF-SCORE:    0.00 PKD
ROOT
HETATM    1  C   UNL     1      -8.419  14.420  67.157  1.00  0.00    -0.229 C  
HETATM    2  C   UNL     1      -9.767  13.737  66.831  1.00  0.00    -0.265 C  
HETATM    3  C   UNL     1     -10.762  14.156  67.939  1.00  0.00    -0.245 C  
ENDROOT
BRANCH   2   4
HETATM    4  C   UNL     1     -10.303  14.326  65.536  1.00  0.00    -0.355 C  
HETATM    5  H2  UNL     1      -9.917  14.589  63.912  1.00  0.00     0.000 HD 
HETATM    6  N   UNL     1     -10.746  14.815  64.461  1.00  0.00    -0.605 NA 
HETATM    7  H1  UNL     1     -11.105  15.210  63.592  1.00  0.00     0.000 HD 
ENDBRANCH   2   4
BRANCH   2   8
HETATM    8  C   UNL     1      -9.556  12.236  66.670  1.00  0.00    -0.227 A  
HETATM    9  C   UNL     1      -8.779  10.318  65.339  1.00  0.00    -0.183 A  
HETATM   10  C   UNL     1      -8.958  11.702  65.525  1.00  0.00     0.033 A  
HETATM   11  C   UNL     1      -9.236   9.456  66.351  1.00  0.00    -0.215 A  
HETATM   12  C   UNL     1      -9.990  11.340  67.664  1.00  0.00    -0.197 A  
HETATM   13  C   UNL     1      -9.860   9.955  67.508  1.00  0.00    -0.209 A  
BRANCH   9  14
HETATM   14  C   UNL     1      -8.124   9.837  64.029  1.00  0.00    -0.150 C  
HETATM   15  C   UNL     1      -6.660  10.138  64.050  1.00  0.00    -0.113 C  
HETATM   16  C   UNL     1      -8.309   8.305  63.905  1.00  0.00    -0.032 C  
HETATM   17  C   UNL     1      -8.713  10.490  62.770  1.00  0.00    -0.231 C  
HETATM   18  N   UNL     1      -5.519  10.355  64.075  1.00  0.00    -0.141 NA 
ENDBRANCH   9  14
BRANCH  13  19
HETATM   19  C   UNL     1     -10.459   9.020  68.534  1.00  0.00    -0.196 C  
BRANCH  19  20
HETATM   20  N   UNL     1     -11.197   9.686  69.592  1.00  0.00    -0.189 NA 
HETATM   21  C   UNL     1     -12.265  10.523  69.470  1.00  0.00    -0.083 A  
HETATM   22  N   UNL     1     -12.819  10.703  70.647  1.00  0.00    -0.348 NA 
HETATM   23  C   UNL     1     -12.049   9.935  71.472  1.00  0.00    -0.410 A  
HETATM   24  N   UNL     1     -11.040   9.296  70.875  1.00  0.00    -0.279 NA 
ENDBRANCH  19  20
ENDBRANCH  13  19
ENDBRANCH   2   8
TORSDOF 5
ENDMDL
MODEL      216
REMARK 921   NORMALIZED FREE ENERGY PREDICTED BY IDOCK:   -3.40 KCAL/MOL
REMARK 922        TOTAL FREE ENERGY PREDICTED BY IDOCK:   -5.19 KCAL/MOL
REMARK 923 INTER-LIGAND FREE ENERGY PREDICTED BY IDOCK:   -4.47 KCAL/MOL
REMARK 924 INTRA-LIGAND FREE ENERGY PREDICTED BY IDOCK:   -0.72 KCAL/MOL
REMARK 927      BINDING AFFINITY PREDICTED BY RF-SCORE:    0.00 PKD
ROOT
HETATM    1  C   UNL     1      -6.153  20.064  67.474  1.00  0.00    -0.215 C  
HETATM    2  C   UNL     1      -7.115  19.308  66.530  1.00  0.00    -0.227 C  
HETATM    3  C   UNL     1      -8.371  20.195  66.362  1.00  0.00    -0.287 C  
ENDROOT
BRANCH   2   4
HETATM    4  C   UNL     1      -6.469  19.223  65.155  1.00  0.00    -0.263 C  
HETATM    5  H2  UNL     1      -6.799  19.325  63.501  1.00  0.00     0.000 HD 
HETATM    6  N   UNL     1      -5.935  19.153  64.015  1.00  0.00    -0.453 NA 
HETATM    7  H1  UNL     1      -5.503  19.096  63.094  1.00  0.00     0.000 HD 
ENDBRANCH   2   4
BRANCH   2   8
HETATM    8  C   UNL     1      -7.367  17.905  67.072  1.00  0.00    -0.218 A  
HETATM    9  C   UNL     1      -8.863  15.980  67.408  1.00  0.00    -0.197 A  
HETATM   10  C   UNL     1      -8.595  17.262  66.890  1.00  0.00    -0.263 A  
HETATM   11  C   UNL     1      -7.846  15.345  68.141  1.00  0.00    -0.125 A  
HETATM   12  C   UNL     1      -6.372  17.230  67.803  1.00  0.00    -0.161 A  
HETATM   13  C   UNL     1      -6.605  15.967  68.362  1.00  0.00    -0.120 A  
BRANCH   9  14
HETATM   14  C   UNL     1     -10.258  15.372  67.163  1.00  0.00    -0.251 C  
HETATM   15  C   UNL     1     -10.241  13.911  67.478  1.00  0.00    -0.245 C  
HETATM   16  C   UNL     1     -11.280  16.065  68.096  1.00  0.00    -0.325 C  
HETATM   17  C   UNL     1     -10.752  15.528  65.717  1.00  0.00    -0.362 C  
HETATM   18  N   UNL     1     -10.231  12.780  67.742  1.00  0.00    -0.218 NA 
ENDBRANCH   9  14
BRANCH  13  19
HETATM   19  C   UNL     1      -5.563  15.332  69.253  1.00  0.00    -0.096 C  
BRANCH  19  20
HETATM   20  N   UNL     1      -5.512  13.884  69.177  1.00  0.00    -0.077 NA 
HETATM   21  C   UNL     1      -5.941  12.979  70.101  1.00  0.00    -0.135 A  
HETATM   22  N   UNL     1      -5.978  11.782  69.562  1.00  0.00    -0.081 NA 
HETATM   23  C   UNL     1      -5.565  12.008  68.281  1.00  0.00    -0.051 A  
HETATM   24  N   UNL     1      -5.264  13.277  67.996  1.00  0.00    -0.099 NA 
ENDBRANCH  19  20
ENDBRANCH  13  19
ENDBRANCH   2   8
TORSDOF 5
ENDMDL
MODEL      217
REMARK 921   NORMALIZED FREE ENERGY PREDICTED BY IDOCK:   -3.39 KCAL/MOL
REMARK 922        TOTAL FREE ENERGY PREDICTED BY IDOCK:   -5.17 KCAL/MOL
REMARK 923 INTER-LIGAND FREE ENERGY PREDICTED BY IDOCK:   -4.38 KCAL/MOL
REMARK 924 INTRA-LIGAND FREE ENERGY PREDICTED BY IDOCK:   -0.79 KCAL/MOL
REMARK 927      BINDING AFFINITY PREDICTED BY RF-SCORE:    0.00 PKD
ROOT
HETATM    1  C   UNL     1      -7.206  11.636  68.887  1.00  0.00    -0.113 C  
HETATM    2  C   UNL     1      -6.924  10.166  69.274  1.00  0.00    -0.068 C  
HETATM    3  C   UNL     1      -5.860   9.637  68.283  1.00  0.00    -0.043 C  
ENDROOT
BRANCH   2   4
HETATM    4  C   UNL     1      -6.270  10.149  70.647  1.00  0.00    -0.103 C  
HETATM    5  H2  UNL     1      -5.149   9.314  71.598  1.00  0.00     0.000 HD 
HETATM    6  N   UNL     1      -5.726  10.134  71.785  1.00  0.00    -0.295 NA 
HETATM    7  H1  UNL     1      -5.288  10.122  72.705  1.00  0.00     0.000 HD 
ENDBRANCH   2   4
BRANCH   2   8
HETATM    8  C   UNL     1      -8.233   9.386  69.314  1.00  0.00    -0.111 A  
HETATM    9  C   UNL     1     -10.043   8.311  70.588  1.00  0.00    -0.212 A  
HETATM   10  C   UNL     1      -8.851   9.057  70.524  1.00  0.00    -0.242 A  
HETATM   11  C   UNL     1     -10.612   7.882  69.377  1.00  0.00    -0.209 A  
HETATM   12  C   UNL     1      -8.841   8.946  68.124  1.00  0.00    -0.134 A  
HETATM   13  C   UNL     1     -10.010   8.175  68.141  1.00  0.00    -0.219 A  
BRANCH   9  14
HETATM   14  C   UNL     1     -10.629   7.990  71.977  1.00  0.00    -0.310 C  
HETATM   15  C   UNL     1     -10.972   6.538  72.064  1.00  0.00    -0.247 C  
HETATM   16  C   UNL     1      -9.568   8.311  73.058  1.00  0.00    -0.295 C  
HETATM   17  C   UNL     1     -11.900   8.786  72.308  1.00  0.00    -0.403 C  
HETATM   18  N   UNL     1     -11.219   5.406  72.137  1.00  0.00    -0.181 NA 
ENDBRANCH   9  14
BRANCH  13  19
HETATM   19  C   UNL     1     -10.559   7.607  66.852  1.00  0.00    -0.289 C  
BRANCH  19  20
HETATM   20  N   UNL     1      -9.970   6.340  66.459  1.00  0.00    -0.148 NA 
HETATM   21  C   UNL     1      -8.648   6.028  66.349  1.00  0.00    -0.129 A  
HETATM   22  N   UNL     1      -8.512   4.726  66.237  1.00  0.00    -0.111 NA 
HETATM   23  C   UNL     1      -9.798   4.275  66.293  1.00  0.00    -0.220 A  
HETATM   24  N   UNL     1     -10.728   5.223  66.424  1.00  0.00    -0.293 NA 
ENDBRANCH  19  20
ENDBRANCH  13  19
ENDBRANCH   2   8
TORSDOF 5
ENDMDL
MODEL      218
REMARK 921   NORMALIZED FREE ENERGY PREDICTED BY IDOCK:   -3.35 KCAL/MOL
REMARK 922        TOTAL FREE ENERGY PREDICTED BY IDOCK:   -5.12 KCAL/MOL
REMARK 923 INTER-LIGAND FREE ENERGY PREDICTED BY IDOCK:   -4.26 KCAL/MOL
REMARK 924 INTRA-LIGAND FREE ENERGY PREDICTED BY IDOCK:   -0.86 KCAL/MOL
REMARK 927      BINDING AFFINITY PREDICTED BY RF-SCORE:    0.00 PKD
ROOT
HETATM    1  C   UNL     1      -9.402  10.458  68.868  1.00  0.00    -0.190 C  
HETATM    2  C   UNL     1      -9.191   9.302  67.864  1.00  0.00    -0.140 C  
HETATM    3  C   UNL     1     -10.117   9.580  66.656  1.00  0.00    -0.321 C  
ENDROOT
BRANCH   2   4
HETATM    4  C   UNL     1      -7.768   9.380  67.334  1.00  0.00    -0.095 C  
HETATM    5  H2  UNL     1      -6.671   8.621  66.296  1.00  0.00     0.000 HD 
HETATM    6  N   UNL     1      -6.588   9.444  66.894  1.00  0.00    -0.067 NA 
HETATM    7  H1  UNL     1      -5.634   9.496  66.539  1.00  0.00     0.000 HD 
ENDBRANCH   2   4
BRANCH   2   8
HETATM    8  C   UNL     1      -9.410   7.966  68.567  1.00  0.00    -0.141 A  
HETATM    9  C   UNL     1      -9.425   5.506  68.525  1.00  0.00    -0.150 A  
HETATM   10  C   UNL     1      -9.200   6.751  67.908  1.00  0.00    -0.112 A  
HETATM   11  C   UNL     1      -9.889   5.507  69.852  1.00  0.00    -0.259 A  
HETATM   12  C   UNL     1      -9.865   7.924  69.897  1.00  0.00    -0.182 A  
HETATM   13  C   UNL     1     -10.131   6.708  70.540  1.00  0.00    -0.209 A  
BRANCH   9  14
HETATM   14  C   UNL     1      -9.178   4.228  67.700  1.00  0.00    -0.178 C  
HETATM   15  C   UNL     1      -7.720   4.083  67.406  1.00  0.00    -0.080 C  
HETATM   16  C   UNL     1      -9.639   3.000  68.521  1.00  0.00    -0.105 C  
HETATM   17  C   UNL     1      -9.924   4.209  66.357  1.00  0.00    -0.177 C  
HETATM   18  N   UNL     1      -6.584   3.962  67.196  1.00  0.00    -0.045 NA 
ENDBRANCH   9  14
BRANCH  13  19
HETATM   19  C   UNL     1     -10.746   6.704  71.922  1.00  0.00    -0.223 C  
BRANCH  19  20
HETATM   20  N   UNL     1     -11.947   7.511  72.044  1.00  0.00    -0.288 NA 
HETATM   21  C   UNL     1     -12.071   8.751  72.595  1.00  0.00    -0.137 A  
HETATM   22  N   UNL     1     -13.240   9.258  72.277  1.00  0.00    -0.445 NA 
HETATM   23  C   UNL     1     -13.803   8.280  71.510  1.00  0.00    -0.328 A  
HETATM   24  N   UNL     1     -13.054   7.188  71.341  1.00  0.00    -0.387 NA 
ENDBRANCH  19  20
ENDBRANCH  13  19
ENDBRANCH   2   8
TORSDOF 5
ENDMDL
MODEL      219
REMARK 921   NORMALIZED FREE ENERGY PREDICTED BY IDOCK:   -3.33 KCAL/MOL
REMARK 922        TOTAL FREE ENERGY PREDICTED BY IDOCK:   -5.09 KCAL/MOL
REMARK 923 INTER-LIGAND FREE ENERGY PREDICTED BY IDOCK:   -4.20 KCAL/MOL
REMARK 924 INTRA-LIGAND FREE ENERGY PREDICTED BY IDOCK:   -0.89 KCAL/MOL
REMARK 927      BINDING AFFINITY PREDICTED BY RF-SCORE:    0.00 PKD
ROOT
HETATM    1  C   UNL     1      -8.182   4.876  67.002  1.00  0.00    -0.107 C  
HETATM    2  C   UNL     1      -8.394   3.688  67.968  1.00  0.00    -0.101 C  
HETATM    3  C   UNL     1      -9.117   2.580  67.167  1.00  0.00    -0.172 C  
ENDROOT
BRANCH   2   4
HETATM    4  C   UNL     1      -7.032   3.123  68.339  1.00  0.00    -0.049 C  
HETATM    5  H2  UNL     1      -6.272   1.793  69.054  1.00  0.00     0.000 HD 
HETATM    6  N   UNL     1      -5.903   2.653  68.648  1.00  0.00    -0.023 NA 
HETATM    7  H1  UNL     1      -4.990   2.274  68.897  1.00  0.00     0.000 HD 
ENDBRANCH   2   4
BRANCH   2   8
HETATM    8  C   UNL     1      -9.115   4.170  69.223  1.00  0.00    -0.188 A  
HETATM    9  C   UNL     1      -9.587   3.965  71.629  1.00  0.00    -0.232 A  
HETATM   10  C   UNL     1      -8.911   3.559  70.463  1.00  0.00    -0.142 A  
HETATM   11  C   UNL     1     -10.507   5.022  71.517  1.00  0.00    -0.225 A  
HETATM   12  C   UNL     1     -10.036   5.231  69.156  1.00  0.00    -0.289 A  
HETATM   13  C   UNL     1     -10.755   5.648  70.283  1.00  0.00    -0.364 A  
BRANCH   9  14
HETATM   14  C   UNL     1      -9.299   3.209  72.940  1.00  0.00    -0.128 C  
HETATM   15  C   UNL     1      -8.403   4.025  73.815  1.00  0.00    -0.092 C  
HETATM   16  C   UNL     1     -10.632   2.969  73.688  1.00  0.00    -0.264 C  
HETATM   17  C   UNL     1      -8.621   1.846  72.729  1.00  0.00    -0.062 C  
HETATM   18  N   UNL     1      -7.724   4.670  74.502  1.00  0.00    -0.084 NA 
ENDBRANCH   9  14
BRANCH  13  19
HETATM   19  C   UNL     1     -11.833   6.699  70.146  1.00  0.00    -0.284 C  
BRANCH  19  20
HETATM   20  N   UNL     1     -11.432   8.026  70.575  1.00  0.00    -0.235 NA 
HETATM   21  C   UNL     1     -10.544   8.869  69.977  1.00  0.00    -0.220 A  
HETATM   22  N   UNL     1     -10.652  10.068  70.502  1.00  0.00    -0.288 NA 
HETATM   23  C   UNL     1     -11.643   9.911  71.427  1.00  0.00    -0.352 A  
HETATM   24  N   UNL     1     -12.150   8.680  71.514  1.00  0.00    -0.302 NA 
ENDBRANCH  19  20
ENDBRANCH  13  19
ENDBRANCH   2   8
TORSDOF 5
ENDMDL
MODEL      220
REMARK 921   NORMALIZED FREE ENERGY PREDICTED BY IDOCK:   -3.29 KCAL/MOL
REMARK 922        TOTAL FREE ENERGY PREDICTED BY IDOCK:   -5.04 KCAL/MOL
REMARK 923 INTER-LIGAND FREE ENERGY PREDICTED BY IDOCK:   -4.13 KCAL/MOL
REMARK 924 INTRA-LIGAND FREE ENERGY PREDICTED BY IDOCK:   -0.91 KCAL/MOL
REMARK 927      BINDING AFFINITY PREDICTED BY RF-SCORE:    0.00 PKD
ROOT
HETATM    1  C   UNL     1      -9.190  10.458  65.525  1.00  0.00    -0.223 C  
HETATM    2  C   UNL     1      -8.039  10.706  66.526  1.00  0.00    -0.140 C  
HETATM    3  C   UNL     1      -8.058   9.532  67.534  1.00  0.00    -0.110 C  
ENDROOT
BRANCH   2   4
HETATM    4  C   UNL     1      -6.720  10.600  65.778  1.00  0.00    -0.097 C  
HETATM    5  H2  UNL     1      -5.340   9.640  65.605  1.00  0.00     0.000 HD 
HETATM    6  N   UNL     1      -5.626  10.510  65.157  1.00  0.00    -0.135 NA 
HETATM    7  H1  UNL     1      -4.741  10.440  64.655  1.00  0.00     0.000 HD 
ENDBRANCH   2   4
BRANCH   2   8
HETATM    8  C   UNL     1      -8.180  12.097  67.134  1.00  0.00    -0.182 A  
HETATM    9  C   UNL     1      -9.590  13.911  68.015  1.00  0.00    -0.219 A  
HETATM   10  C   UNL     1      -9.430  12.618  67.481  1.00  0.00    -0.186 A  
HETATM   11  C   UNL     1      -8.436  14.696  68.188  1.00  0.00    -0.156 A  
HETATM   12  C   UNL     1      -7.050  12.910  67.333  1.00  0.00    -0.130 A  
HETATM   13  C   UNL     1      -7.165  14.214  67.832  1.00  0.00    -0.165 A  
BRANCH   9  14
HETATM   14  C   UNL     1     -11.016  14.392  68.346  1.00  0.00    -0.261 C  
HETATM   15  C   UNL     1     -11.873  14.333  67.123  1.00  0.00    -0.425 C  
HETATM   16  C   UNL     1     -11.627  13.459  69.420  1.00  0.00    -0.365 C  
HETATM   17  C   UNL     1     -11.072  15.832  68.881  1.00  0.00    -0.298 C  
HETATM   18  N   UNL     1     -12.542  14.268  66.176  1.00  0.00    -0.370 NA 
ENDBRANCH   9  14
BRANCH  13  19
HETATM   19  C   UNL     1      -5.946  15.105  67.905  1.00  0.00    -0.150 C  
BRANCH  19  20
HETATM   20  N   UNL     1      -5.558  15.479  69.253  1.00  0.00    -0.101 NA 
HETATM   21  C   UNL     1      -5.777  16.663  69.890  1.00  0.00    -0.213 A  
HETATM   22  N   UNL     1      -5.527  16.525  71.172  1.00  0.00     0.027 NA 
HETATM   23  C   UNL     1      -5.160  15.215  71.276  1.00  0.00    -0.145 A  
HETATM   24  N   UNL     1      -5.159  14.532  70.129  1.00  0.00    -0.090 NA 
ENDBRANCH  19  20
ENDBRANCH  13  19
ENDBRANCH   2   8
TORSDOF 5
ENDMDL
MODEL      221
REMARK 921   NORMALIZED FREE ENERGY PREDICTED BY IDOCK:   -3.28 KCAL/MOL
REMARK 922        TOTAL FREE ENERGY PREDICTED BY IDOCK:   -5.03 KCAL/MOL
REMARK 923 INTER-LIGAND FREE ENERGY PREDICTED BY IDOCK:   -4.23 KCAL/MOL
REMARK 924 INTRA-LIGAND FREE ENERGY PREDICTED BY IDOCK:   -0.81 KCAL/MOL
REMARK 927      BINDING AFFINITY PREDICTED BY RF-SCORE:    0.00 PKD
ROOT
HETATM    1  C   UNL     1     -10.517   4.416  72.685  1.00  0.00    -0.249 C  
HETATM    2  C   UNL     1     -10.806   5.858  72.208  1.00  0.00    -0.292 C  
HETATM    3  C   UNL     1     -12.320   6.104  72.411  1.00  0.00    -0.059 C  
ENDROOT
BRANCH   2   4
HETATM    4  C   UNL     1     -10.091   6.823  73.140  1.00  0.00    -0.205 C  
HETATM    5  H2  UNL     1      -8.971   8.088  73.171  1.00  0.00     0.000 HD 
HETATM    6  N   UNL     1      -9.497   7.624  73.911  1.00  0.00    -0.377 NA 
HETATM    7  H1  UNL     1      -9.017   8.272  74.536  1.00  0.00     0.000 HD 
ENDBRANCH   2   4
BRANCH   2   8
HETATM    8  C   UNL     1     -10.295   6.037  70.782  1.00  0.00    -0.280 A  
HETATM    9  C   UNL     1      -9.637   7.501  68.917  1.00  0.00    -0.149 A  
HETATM   10  C   UNL     1     -10.078   7.307  70.240  1.00  0.00    -0.196 A  
HETATM   11  C   UNL     1      -9.422   6.359  68.125  1.00  0.00    -0.114 A  
HETATM   12  C   UNL     1     -10.059   4.921  69.960  1.00  0.00    -0.337 A  
HETATM   13  C   UNL     1      -9.649   5.067  68.629  1.00  0.00    -0.204 A  
BRANCH   9  14
HETATM   14  C   UNL     1      -9.446   8.946  68.415  1.00  0.00    -0.147 C  
HETATM   15  C   UNL     1      -8.091   9.100  67.804  1.00  0.00    -0.105 C  
HETATM   16  C   UNL     1     -10.512   9.249  67.334  1.00  0.00    -0.340 C  
HETATM   17  C   UNL     1      -9.578  10.003  69.522  1.00  0.00    -0.249 C  
HETATM   18  N   UNL     1      -7.046   9.214  67.312  1.00  0.00    -0.079 NA 
ENDBRANCH   9  14
BRANCH  13  19
HETATM   19  C   UNL     1      -9.535   3.852  67.736  1.00  0.00    -0.179 C  
BRANCH  19  20
HETATM   20  N   UNL     1      -9.551   4.150  66.316  1.00  0.00    -0.186 NA 
HETATM   21  C   UNL     1      -8.544   3.987  65.413  1.00  0.00    -0.114 A  
HETATM   22  N   UNL     1      -9.020   4.107  64.195  1.00  0.00    -0.138 NA 
HETATM   23  C   UNL     1     -10.348   4.338  64.405  1.00  0.00    -0.047 A  
HETATM   24  N   UNL     1     -10.723   4.378  65.685  1.00  0.00    -0.180 NA 
ENDBRANCH  19  20
ENDBRANCH  13  19
ENDBRANCH   2   8
TORSDOF 5
ENDMDL
MODEL      222
REMARK 921   NORMALIZED FREE ENERGY PREDICTED BY IDOCK:   -3.28 KCAL/MOL
REMARK 922        TOTAL FREE ENERGY PREDICTED BY IDOCK:   -5.03 KCAL/MOL
REMARK 923 INTER-LIGAND FREE ENERGY PREDICTED BY IDOCK:   -4.15 KCAL/MOL
REMARK 924 INTRA-LIGAND FREE ENERGY PREDICTED BY IDOCK:   -0.87 KCAL/MOL
REMARK 927      BINDING AFFINITY PREDICTED BY RF-SCORE:    0.00 PKD
ROOT
HETATM    1  C   UNL     1      -8.402   5.246  63.515  1.00  0.00    -0.118 C  
HETATM    2  C   UNL     1      -8.681   4.930  65.003  1.00  0.00    -0.149 C  
HETATM    3  C   UNL     1      -9.934   4.024  65.043  1.00  0.00    -0.207 C  
ENDROOT
BRANCH   2   4
HETATM    4  C   UNL     1      -7.533   4.089  65.538  1.00  0.00    -0.081 C  
HETATM    5  H2  UNL     1      -5.899   3.728  65.300  1.00  0.00     0.000 HD 
HETATM    6  N   UNL     1      -6.579   3.393  65.981  1.00  0.00    -0.039 NA 
HETATM    7  H1  UNL     1      -5.810   2.829  66.341  1.00  0.00     0.000 HD 
ENDBRANCH   2   4
BRANCH   2   8
HETATM    8  C   UNL     1      -8.784   6.231  65.792  1.00  0.00    -0.145 A  
HETATM    9  C   UNL     1      -9.489   7.460  67.803  1.00  0.00    -0.154 A  
HETATM   10  C   UNL     1      -9.354   6.267  67.068  1.00  0.00    -0.135 A  
HETATM   11  C   UNL     1      -9.035   8.650  67.210  1.00  0.00    -0.145 A  
HETATM   12  C   UNL     1      -8.333   7.442  65.238  1.00  0.00    -0.110 A  
HETATM   13  C   UNL     1      -8.475   8.657  65.921  1.00  0.00    -0.158 A  
BRANCH   9  14
HETATM   14  C   UNL     1     -10.150   7.388  69.194  1.00  0.00    -0.189 C  
HETATM   15  C   UNL     1      -9.112   7.143  70.241  1.00  0.00    -0.156 C  
HETATM   16  C   UNL     1     -10.842   8.739  69.494  1.00  0.00    -0.151 C  
HETATM   17  C   UNL     1     -11.204   6.277  69.318  1.00  0.00    -0.458 C  
HETATM   18  N   UNL     1      -8.302   6.972  71.055  1.00  0.00    -0.124 NA 
ENDBRANCH   9  14
BRANCH  13  19
HETATM   19  C   UNL     1      -8.102   9.954  65.240  1.00  0.00    -0.139 C  
BRANCH  19  20
HETATM   20  N   UNL     1      -9.235  10.721  64.754  1.00  0.00    -0.206 NA 
HETATM   21  C   UNL     1      -9.816  11.812  65.326  1.00  0.00    -0.239 A  
HETATM   22  N   UNL     1     -10.626  12.382  64.463  1.00  0.00    -0.303 NA 
HETATM   23  C   UNL     1     -10.499  11.597  63.355  1.00  0.00    -0.426 A  
HETATM   24  N   UNL     1      -9.663  10.564  63.483  1.00  0.00    -0.320 NA 
ENDBRANCH  19  20
ENDBRANCH  13  19
ENDBRANCH   2   8
TORSDOF 5
ENDMDL
MODEL      223
REMARK 921   NORMALIZED FREE ENERGY PREDICTED BY IDOCK:   -3.27 KCAL/MOL
REMARK 922        TOTAL FREE ENERGY PREDICTED BY IDOCK:   -5.01 KCAL/MOL
REMARK 923 INTER-LIGAND FREE ENERGY PREDICTED BY IDOCK:   -4.33 KCAL/MOL
REMARK 924 INTRA-LIGAND FREE ENERGY PREDICTED BY IDOCK:   -0.68 KCAL/MOL
REMARK 927      BINDING AFFINITY PREDICTED BY RF-SCORE:    0.00 PKD
ROOT
HETATM    1  C   UNL     1     -11.529   6.230  70.025  1.00  0.00    -0.460 C  
HETATM    2  C   UNL     1     -10.281   6.072  69.127  1.00  0.00    -0.258 C  
HETATM    3  C   UNL     1      -9.632   4.716  69.493  1.00  0.00    -0.258 C  
ENDROOT
BRANCH   2   4
HETATM    4  C   UNL     1     -10.742   5.946  67.684  1.00  0.00    -0.270 C  
HETATM    5  H2  UNL     1     -11.976   5.325  66.710  1.00  0.00     0.000 HD 
HETATM    6  N   UNL     1     -11.125   5.841  66.487  1.00  0.00    -0.744 NA 
HETATM    7  H1  UNL     1     -11.434   5.756  65.519  1.00  0.00     0.000 HD 
ENDBRANCH   2   4
BRANCH   2   8
HETATM    8  C   UNL     1      -9.382   7.295  69.280  1.00  0.00    -0.154 A  
HETATM    9  C   UNL     1      -8.862   9.643  68.762  1.00  0.00    -0.130 A  
HETATM   10  C   UNL     1      -9.691   8.509  68.661  1.00  0.00    -0.171 A  
HETATM   11  C   UNL     1      -7.678   9.524  69.510  1.00  0.00    -0.100 A  
HETATM   12  C   UNL     1      -8.194   7.220  70.028  1.00  0.00    -0.132 A  
HETATM   13  C   UNL     1      -7.324   8.313  70.130  1.00  0.00    -0.056 A  
BRANCH   9  14
HETATM   14  C   UNL     1      -9.290  10.927  68.024  1.00  0.00    -0.160 C  
HETATM   15  C   UNL     1      -9.390  10.664  66.556  1.00  0.00    -0.167 C  
HETATM   16  C   UNL     1     -10.680  11.366  68.542  1.00  0.00    -0.235 C  
HETATM   17  C   UNL     1      -8.318  12.101  68.219  1.00  0.00    -0.172 C  
HETATM   18  N   UNL     1      -9.486  10.452  65.419  1.00  0.00    -0.212 NA 
ENDBRANCH   9  14
BRANCH  13  19
HETATM   19  C   UNL     1      -5.992   8.156  70.828  1.00  0.00    -0.033 C  
BRANCH  19  20
HETATM   20  N   UNL     1      -6.044   8.350  72.266  1.00  0.00    -0.060 NA 
HETATM   21  C   UNL     1      -5.271   9.171  73.030  1.00  0.00    -0.081 A  
HETATM   22  N   UNL     1      -5.793   9.276  74.230  1.00  0.00    -0.287 NA 
HETATM   23  C   UNL     1      -6.909   8.495  74.151  1.00  0.00    -0.103 A  
HETATM   24  N   UNL     1      -7.105   7.902  72.971  1.00  0.00    -0.084 NA 
ENDBRANCH  19  20
ENDBRANCH  13  19
ENDBRANCH   2   8
TORSDOF 5
ENDMDL
MODEL      224
REMARK 921   NORMALIZED FREE ENERGY PREDICTED BY IDOCK:   -3.24 KCAL/MOL
REMARK 922        TOTAL FREE ENERGY PREDICTED BY IDOCK:   -4.98 KCAL/MOL
REMARK 923 INTER-LIGAND FREE ENERGY PREDICTED BY IDOCK:   -4.25 KCAL/MOL
REMARK 924 INTRA-LIGAND FREE ENERGY PREDICTED BY IDOCK:   -0.73 KCAL/MOL
REMARK 927      BINDING AFFINITY PREDICTED BY RF-SCORE:    0.00 PKD
ROOT
HETATM    1  C   UNL     1     -10.138   4.018  72.887  1.00  0.00    -0.214 C  
HETATM    2  C   UNL     1     -10.735   5.419  72.624  1.00  0.00    -0.288 C  
HETATM    3  C   UNL     1     -12.254   5.320  72.899  1.00  0.00     0.154 C  
ENDROOT
BRANCH   2   4
HETATM    4  C   UNL     1     -10.178   6.380  73.662  1.00  0.00    -0.269 C  
HETATM    5  H2  UNL     1      -8.754   6.844  74.445  1.00  0.00     0.000 HD 
HETATM    6  N   UNL     1      -9.715   7.176  74.524  1.00  0.00    -0.433 NA 
HETATM    7  H1  UNL     1      -9.341   7.821  75.220  1.00  0.00     0.000 HD 
ENDBRANCH   2   4
BRANCH   2   8
HETATM    8  C   UNL     1     -10.348   5.886  71.225  1.00  0.00    -0.276 A  
HETATM    9  C   UNL     1     -10.008   7.697  69.594  1.00  0.00    -0.185 A  
HETATM   10  C   UNL     1     -10.331   7.242  70.887  1.00  0.00    -0.210 A  
HETATM   11  C   UNL     1      -9.704   6.733  68.618  1.00  0.00    -0.131 A  
HETATM   12  C   UNL     1     -10.028   4.954  70.221  1.00  0.00    -0.321 A  
HETATM   13  C   UNL     1      -9.731   5.359  68.914  1.00  0.00    -0.205 A  
BRANCH   9  14
HETATM   14  C   UNL     1     -10.036   9.215  69.326  1.00  0.00    -0.196 C  
HETATM   15  C   UNL     1     -11.239   9.825  69.972  1.00  0.00    -0.251 C  
HETATM   16  C   UNL     1      -8.769   9.859  69.938  1.00  0.00    -0.225 C  
HETATM   17  C   UNL     1     -10.079   9.576  67.834  1.00  0.00    -0.234 C  
HETATM   18  N   UNL     1     -12.163  10.300  70.490  1.00  0.00    -0.299 NA 
ENDBRANCH   9  14
BRANCH  13  19
HETATM   19  C   UNL     1      -9.524   4.324  67.832  1.00  0.00    -0.165 C  
BRANCH  19  20
HETATM   20  N   UNL     1      -8.617   4.736  66.776  1.00  0.00    -0.109 NA 
HETATM   21  C   UNL     1      -8.930   5.279  65.566  1.00  0.00    -0.155 A  
HETATM   22  N   UNL     1      -7.845   5.765  65.008  1.00  0.00    -0.100 NA 
HETATM   23  C   UNL     1      -6.877   5.500  65.933  1.00  0.00    -0.058 A  
HETATM   24  N   UNL     1      -7.297   4.868  67.031  1.00  0.00    -0.080 NA 
ENDBRANCH  19  20
ENDBRANCH  13  19
ENDBRANCH   2   8
TORSDOF 5
ENDMDL
MODEL      225
REMARK 921   NORMALIZED FREE ENERGY PREDICTED BY IDOCK:   -3.22 KCAL/MOL
REMARK 922        TOTAL FREE ENERGY PREDICTED BY IDOCK:   -4.95 KCAL/MOL
REMARK 923 INTER-LIGAND FREE ENERGY PREDICTED BY IDOCK:   -4.33 KCAL/MOL
REMARK 924 INTRA-LIGAND FREE ENERGY PREDICTED BY IDOCK:   -0.62 KCAL/MOL
REMARK 927      BINDING AFFINITY PREDICTED BY RF-SCORE:    0.00 PKD
ROOT
HETATM    1  C   UNL     1     -10.353   8.963  70.922  1.00  0.00    -0.303 C  
HETATM    2  C   UNL     1      -9.553   7.740  70.415  1.00  0.00    -0.175 C  
HETATM    3  C   UNL     1      -8.205   7.739  71.174  1.00  0.00    -0.099 C  
ENDROOT
BRANCH   2   4
HETATM    4  C   UNL     1     -10.283   6.478  70.846  1.00  0.00    -0.190 C  
HETATM    5  H2  UNL     1     -11.823   5.810  71.044  1.00  0.00     0.000 HD 
HETATM    6  N   UNL     1     -10.889   5.431  71.203  1.00  0.00    -0.172 NA 
HETATM    7  H1  UNL     1     -11.379   4.585  71.492  1.00  0.00     0.000 HD 
ENDBRANCH   2   4
BRANCH   2   8
HETATM    8  C   UNL     1      -9.452   7.789  68.894  1.00  0.00    -0.150 A  
HETATM    9  C   UNL     1      -9.255   6.638  66.728  1.00  0.00    -0.168 A  
HETATM   10  C   UNL     1      -9.379   6.620  68.130  1.00  0.00    -0.114 A  
HETATM   11  C   UNL     1      -9.193   7.891  66.092  1.00  0.00    -0.208 A  
HETATM   12  C   UNL     1      -9.398   9.021  68.219  1.00  0.00    -0.145 A  
HETATM   13  C   UNL     1      -9.244   9.087  66.828  1.00  0.00    -0.198 A  
BRANCH   9  14
HETATM   14  C   UNL     1      -9.164   5.290  65.986  1.00  0.00    -0.163 C  
HETATM   15  C   UNL     1      -8.583   5.494  64.624  1.00  0.00    -0.067 C  
HETATM   16  C   UNL     1      -8.236   4.339  66.780  1.00  0.00    -0.101 C  
HETATM   17  C   UNL     1     -10.521   4.592  65.811  1.00  0.00    -0.290 C  
HETATM   18  N   UNL     1      -8.114   5.651  63.574  1.00  0.00    -0.115 NA 
ENDBRANCH   9  14
BRANCH  13  19
HETATM   19  C   UNL     1      -9.054  10.426  66.152  1.00  0.00    -0.160 C  
BRANCH  19  20
HETATM   20  N   UNL     1     -10.067  11.411  66.482  1.00  0.00    -0.209 NA 
HETATM   21  C   UNL     1     -11.255  11.634  65.854  1.00  0.00    -0.238 A  
HETATM   22  N   UNL     1     -12.008  12.411  66.600  1.00  0.00    -0.596 NA 
HETATM   23  C   UNL     1     -11.230  12.633  67.698  1.00  0.00    -0.283 A  
HETATM   24  N   UNL     1     -10.030  12.048  67.673  1.00  0.00    -0.188 NA 
ENDBRANCH  19  20
ENDBRANCH  13  19
ENDBRANCH   2   8
TORSDOF 5
ENDMDL
MODEL      226
REMARK 921   NORMALIZED FREE ENERGY PREDICTED BY IDOCK:   -3.21 KCAL/MOL
REMARK 922        TOTAL FREE ENERGY PREDICTED BY IDOCK:   -4.94 KCAL/MOL
REMARK 923 INTER-LIGAND FREE ENERGY PREDICTED BY IDOCK:   -4.09 KCAL/MOL
REMARK 924 INTRA-LIGAND FREE ENERGY PREDICTED BY IDOCK:   -0.84 KCAL/MOL
REMARK 927      BINDING AFFINITY PREDICTED BY RF-SCORE:    0.00 PKD
ROOT
HETATM    1  C   UNL     1      -6.142  11.509  66.821  1.00  0.00    -0.147 C  
HETATM    2  C   UNL     1      -7.334  11.857  67.741  1.00  0.00    -0.109 C  
HETATM    3  C   UNL     1      -6.767  12.680  68.921  1.00  0.00    -0.098 C  
ENDROOT
BRANCH   2   4
HETATM    4  C   UNL     1      -8.269  12.788  66.985  1.00  0.00    -0.095 C  
HETATM    5  H2  UNL     1      -9.551  12.811  65.884  1.00  0.00     0.000 HD 
HETATM    6  N   UNL     1      -9.044  13.559  66.357  1.00  0.00    -0.461 NA 
HETATM    7  H1  UNL     1      -9.670  14.184  65.849  1.00  0.00     0.000 HD 
ENDBRANCH   2   4
BRANCH   2   8
HETATM    8  C   UNL     1      -8.074  10.579  68.125  1.00  0.00    -0.113 A  
HETATM    9  C   UNL     1      -8.680   8.240  67.663  1.00  0.00    -0.133 A  
HETATM   10  C   UNL     1      -7.984   9.422  67.347  1.00  0.00    -0.106 A  
HETATM   11  C   UNL     1      -9.501   8.249  68.804  1.00  0.00    -0.148 A  
HETATM   12  C   UNL     1      -8.898  10.544  69.264  1.00  0.00    -0.135 A  
HETATM   13  C   UNL     1      -9.633   9.400  69.600  1.00  0.00    -0.199 A  
BRANCH   9  14
HETATM   14  C   UNL     1      -8.522   7.027  66.725  1.00  0.00    -0.118 C  
HETATM   15  C   UNL     1      -9.818   6.289  66.621  1.00  0.00    -0.154 C  
HETATM   16  C   UNL     1      -8.126   7.528  65.315  1.00  0.00    -0.130 C  
HETATM   17  C   UNL     1      -7.455   6.025  67.190  1.00  0.00    -0.084 C  
HETATM   18  N   UNL     1     -10.830   5.728  66.526  1.00  0.00    -0.233 NA 
ENDBRANCH   9  14
BRANCH  13  19
HETATM   19  C   UNL     1     -10.611   9.442  70.752  1.00  0.00    -0.303 C  
BRANCH  19  20
HETATM   20  N   UNL     1     -10.946   8.140  71.300  1.00  0.00    -0.235 NA 
HETATM   21  C   UNL     1     -10.310   7.458  72.292  1.00  0.00    -0.214 A  
HETATM   22  N   UNL     1     -11.060   6.457  72.690  1.00  0.00    -0.254 NA 
HETATM   23  C   UNL     1     -12.170   6.573  71.905  1.00  0.00    -0.324 A  
HETATM   24  N   UNL     1     -12.148   7.584  71.034  1.00  0.00    -0.300 NA 
ENDBRANCH  19  20
ENDBRANCH  13  19
ENDBRANCH   2   8
TORSDOF 5
ENDMDL
MODEL      227
REMARK 921   NORMALIZED FREE ENERGY PREDICTED BY IDOCK:   -3.16 KCAL/MOL
REMARK 922        TOTAL FREE ENERGY PREDICTED BY IDOCK:   -4.88 KCAL/MOL
REMARK 923 INTER-LIGAND FREE ENERGY PREDICTED BY IDOCK:   -3.98 KCAL/MOL
REMARK 924 INTRA-LIGAND FREE ENERGY PREDICTED BY IDOCK:   -0.90 KCAL/MOL
REMARK 927      BINDING AFFINITY PREDICTED BY RF-SCORE:    0.00 PKD
ROOT
HETATM    1  C   UNL     1      -7.450  15.123  67.061  1.00  0.00    -0.073 C  
HETATM    2  C   UNL     1      -8.948  14.854  67.333  1.00  0.00    -0.198 C  
HETATM    3  C   UNL     1      -9.254  15.405  68.746  1.00  0.00    -0.206 C  
ENDROOT
BRANCH   2   4
HETATM    4  C   UNL     1      -9.770  15.689  66.364  1.00  0.00    -0.279 C  
HETATM    5  H2  UNL     1     -10.882  16.958  66.285  1.00  0.00     0.000 HD 
HETATM    6  N   UNL     1     -10.452  16.382  65.562  1.00  0.00    -0.515 NA 
HETATM    7  H1  UNL     1     -11.003  16.942  64.912  1.00  0.00     0.000 HD 
ENDBRANCH   2   4
BRANCH   2   8
HETATM    8  C   UNL     1      -9.248  13.373  67.126  1.00  0.00    -0.240 A  
HETATM    9  C   UNL     1      -9.192  11.048  67.930  1.00  0.00    -0.155 A  
HETATM   10  C   UNL     1      -8.953  12.424  68.109  1.00  0.00    -0.196 A  
HETATM   11  C   UNL     1      -9.738  10.633  66.703  1.00  0.00    -0.225 A  
HETATM   12  C   UNL     1      -9.802  12.917  65.917  1.00  0.00    -0.239 A  
HETATM   13  C   UNL     1     -10.028  11.555  65.683  1.00  0.00    -0.275 A  
BRANCH   9  14
HETATM   14  C   UNL     1      -8.813  10.087  69.074  1.00  0.00    -0.159 C  
HETATM   15  C   UNL     1      -9.920  10.025  70.077  1.00  0.00    -0.222 C  
HETATM   16  C   UNL     1      -8.596   8.670  68.491  1.00  0.00    -0.135 C  
HETATM   17  C   UNL     1      -7.534  10.494  69.822  1.00  0.00    -0.127 C  
HETATM   18  N   UNL     1     -10.789   9.962  70.845  1.00  0.00    -0.321 NA 
ENDBRANCH   9  14
BRANCH  13  19
HETATM   19  C   UNL     1     -10.499  11.090  64.324  1.00  0.00    -0.359 C  
BRANCH  19  20
HETATM   20  N   UNL     1      -9.456  10.513  63.495  1.00  0.00    -0.286 NA 
HETATM   21  C   UNL     1      -8.326  11.116  63.028  1.00  0.00     0.125 A  
HETATM   22  N   UNL     1      -7.507  10.207  62.551  1.00  0.00    -0.129 NA 
HETATM   23  C   UNL     1      -8.185   9.041  62.759  1.00  0.00    -0.184 A  
HETATM   24  N   UNL     1      -9.385   9.175  63.329  1.00  0.00     0.420 NA 
ENDBRANCH  19  20
ENDBRANCH  13  19
ENDBRANCH   2   8
TORSDOF 5
ENDMDL
MODEL      228
REMARK 921   NORMALIZED FREE ENERGY PREDICTED BY IDOCK:   -3.14 KCAL/MOL
REMARK 922        TOTAL FREE ENERGY PREDICTED BY IDOCK:   -4.85 KCAL/MOL
REMARK 923 INTER-LIGAND FREE ENERGY PREDICTED BY IDOCK:   -3.92 KCAL/MOL
REMARK 924 INTRA-LIGAND FREE ENERGY PREDICTED BY IDOCK:   -0.93 KCAL/MOL
REMARK 927      BINDING AFFINITY PREDICTED BY RF-SCORE:    0.00 PKD
ROOT
HETATM    1  C   UNL     1     -10.253   9.687  66.300  1.00  0.00    -0.286 C  
HETATM    2  C   UNL     1      -8.888   9.010  66.564  1.00  0.00    -0.158 C  
HETATM    3  C   UNL     1      -8.533   8.203  65.293  1.00  0.00    -0.157 C  
ENDROOT
BRANCH   2   4
HETATM    4  C   UNL     1      -7.830  10.095  66.686  1.00  0.00    -0.110 C  
HETATM    5  H2  UNL     1      -7.597  11.709  67.131  1.00  0.00     0.000 HD 
HETATM    6  N   UNL     1      -6.953  10.996  66.788  1.00  0.00    -0.123 NA 
HETATM    7  H1  UNL     1      -6.244  11.723  66.870  1.00  0.00     0.000 HD 
ENDBRANCH   2   4
BRANCH   2   8
HETATM    8  C   UNL     1      -8.958   8.205  67.857  1.00  0.00    -0.133 A  
HETATM    9  C   UNL     1      -9.796   7.916  70.152  1.00  0.00    -0.184 A  
HETATM   10  C   UNL     1      -9.739   8.625  68.937  1.00  0.00    -0.171 A  
HETATM   11  C   UNL     1      -9.021   6.748  70.266  1.00  0.00    -0.152 A  
HETATM   12  C   UNL     1      -8.206   7.026  68.008  1.00  0.00    -0.119 A  
HETATM   13  C   UNL     1      -8.208   6.305  69.209  1.00  0.00    -0.114 A  
BRANCH   9  14
HETATM   14  C   UNL     1     -10.677   8.479  71.285  1.00  0.00    -0.302 C  
HETATM   15  C   UNL     1     -11.873   7.605  71.485  1.00  0.00    -0.295 C  
HETATM   16  C   UNL     1      -9.858   8.500  72.597  1.00  0.00    -0.281 C  
HETATM   17  C   UNL     1     -11.185   9.904  71.018  1.00  0.00    -0.435 C  
HETATM   18  N   UNL     1     -12.791   6.914  71.653  1.00  0.00    -0.370 NA 
ENDBRANCH   9  14
BRANCH  13  19
HETATM   19  C   UNL     1      -7.285   5.120  69.380  1.00  0.00    -0.057 C  
BRANCH  19  20
HETATM   20  N   UNL     1      -7.920   3.832  69.169  1.00  0.00    -0.055 NA 
HETATM   21  C   UNL     1      -8.471   3.006  70.101  1.00  0.00    -0.053 A  
HETATM   22  N   UNL     1      -9.180   2.077  69.502  1.00  0.00    -0.108 NA 
HETATM   23  C   UNL     1      -9.039   2.385  68.181  1.00  0.00    -0.179 A  
HETATM   24  N   UNL     1      -8.274   3.448  67.923  1.00  0.00    -0.079 NA 
ENDBRANCH  19  20
ENDBRANCH  13  19
ENDBRANCH   2   8
TORSDOF 5
ENDMDL
MODEL      229
REMARK 921   NORMALIZED FREE ENERGY PREDICTED BY IDOCK:   -3.14 KCAL/MOL
REMARK 922        TOTAL FREE ENERGY PREDICTED BY IDOCK:   -4.84 KCAL/MOL
REMARK 923 INTER-LIGAND FREE ENERGY PREDICTED BY IDOCK:   -3.98 KCAL/MOL
REMARK 924 INTRA-LIGAND FREE ENERGY PREDICTED BY IDOCK:   -0.87 KCAL/MOL
REMARK 927      BINDING AFFINITY PREDICTED BY RF-SCORE:    0.00 PKD
ROOT
HETATM    1  C   UNL     1      -6.154  14.134  69.639  1.00  0.00    -0.121 C  
HETATM    2  C   UNL     1      -6.190  14.427  68.122  1.00  0.00    -0.142 C  
HETATM    3  C   UNL     1      -5.129  15.519  67.849  1.00  0.00    -0.127 C  
ENDROOT
BRANCH   2   4
HETATM    4  C   UNL     1      -5.720  13.184  67.382  1.00  0.00     0.038 C  
HETATM    5  H2  UNL     1      -4.382  12.500  66.609  1.00  0.00     0.000 HD 
HETATM    6  N   UNL     1      -5.328  12.155  66.769  1.00  0.00    -0.358 NA 
HETATM    7  H1  UNL     1      -5.013  11.321  66.273  1.00  0.00     0.000 HD 
ENDBRANCH   2   4
BRANCH   2   8
HETATM    8  C   UNL     1      -7.615  14.773  67.701  1.00  0.00    -0.193 A  
HETATM    9  C   UNL     1      -9.384  16.439  67.317  1.00  0.00    -0.227 A  
HETATM   10  C   UNL     1      -8.066  16.096  67.672  1.00  0.00    -0.163 A  
HETATM   11  C   UNL     1     -10.268  15.395  66.993  1.00  0.00    -0.262 A  
HETATM   12  C   UNL     1      -8.527  13.759  67.360  1.00  0.00    -0.209 A  
HETATM   13  C   UNL     1      -9.857  14.051  67.031  1.00  0.00    -0.260 A  
BRANCH   9  14
HETATM   14  C   UNL     1      -9.780  17.928  67.335  1.00  0.00    -0.288 C  
HETATM   15  C   UNL     1      -9.305  18.568  68.599  1.00  0.00    -0.326 C  
HETATM   16  C   UNL     1      -9.108  18.643  66.138  1.00  0.00    -0.135 C  
HETATM   17  C   UNL     1     -11.295  18.164  67.238  1.00  0.00     0.669 C  
HETATM   18  N   UNL     1      -8.917  19.069  69.573  1.00  0.00     0.240 NA 
ENDBRANCH   9  14
BRANCH  13  19
HETATM   19  C   UNL     1     -10.843  12.928  66.802  1.00  0.00    -0.267 C  
BRANCH  19  20
HETATM   20  N   UNL     1     -10.984  12.530  65.414  1.00  0.00    -0.286 NA 
HETATM   21  C   UNL     1     -10.400  11.475  64.780  1.00  0.00    -0.289 A  
HETATM   22  N   UNL     1     -10.979  11.286  63.616  1.00  0.00    -0.362 NA 
HETATM   23  C   UNL     1     -11.934  12.260  63.584  1.00  0.00    -0.543 A  
HETATM   24  N   UNL     1     -11.976  13.051  64.658  1.00  0.00    -0.370 NA 
ENDBRANCH  19  20
ENDBRANCH  13  19
ENDBRANCH   2   8
TORSDOF 5
ENDMDL
MODEL      230
REMARK 921   NORMALIZED FREE ENERGY PREDICTED BY IDOCK:   -3.10 KCAL/MOL
REMARK 922        TOTAL FREE ENERGY PREDICTED BY IDOCK:   -4.80 KCAL/MOL
REMARK 923 INTER-LIGAND FREE ENERGY PREDICTED BY IDOCK:   -3.91 KCAL/MOL
REMARK 924 INTRA-LIGAND FREE ENERGY PREDICTED BY IDOCK:   -0.89 KCAL/MOL
REMARK 927      BINDING AFFINITY PREDICTED BY RF-SCORE:    0.00 PKD
ROOT
HETATM    1  C   UNL     1     -11.081   5.886  71.655  1.00  0.00    -0.319 C  
HETATM    2  C   UNL     1      -9.814   5.470  70.873  1.00  0.00    -0.241 C  
HETATM    3  C   UNL     1      -8.601   6.036  71.649  1.00  0.00    -0.131 C  
ENDROOT
BRANCH   2   4
HETATM    4  C   UNL     1      -9.687   3.956  70.935  1.00  0.00    -0.183 C  
HETATM    5  H2  UNL     1      -9.347   2.672  71.980  1.00  0.00     0.000 HD 
HETATM    6  N   UNL     1      -9.582   2.700  70.988  1.00  0.00    -0.153 NA 
HETATM    7  H1  UNL     1      -9.497   1.685  71.029  1.00  0.00     0.000 HD 
ENDBRANCH   2   4
BRANCH   2   8
HETATM    8  C   UNL     1      -9.936   5.922  69.422  1.00  0.00    -0.229 A  
HETATM    9  C   UNL     1      -9.764   5.447  67.014  1.00  0.00    -0.162 A  
HETATM   10  C   UNL     1      -9.688   5.046  68.361  1.00  0.00    -0.209 A  
HETATM   11  C   UNL     1     -10.094   6.787  66.747  1.00  0.00    -0.250 A  
HETATM   12  C   UNL     1     -10.273   7.252  69.112  1.00  0.00    -0.197 A  
HETATM   13  C   UNL     1     -10.331   7.702  67.787  1.00  0.00    -0.282 A  
BRANCH   9  14
HETATM   14  C   UNL     1      -9.453   4.402  65.924  1.00  0.00    -0.174 C  
HETATM   15  C   UNL     1      -8.280   4.846  65.111  1.00  0.00    -0.124 C  
HETATM   16  C   UNL     1      -9.102   3.056  66.601  1.00  0.00    -0.171 C  
HETATM   17  C   UNL     1     -10.621   4.157  64.956  1.00  0.00    -0.158 C  
HETATM   18  N   UNL     1      -7.356   5.182  64.493  1.00  0.00    -0.058 NA 
ENDBRANCH   9  14
BRANCH  13  19
HETATM   19  C   UNL     1     -10.563   9.167  67.497  1.00  0.00    -0.249 C  
BRANCH  19  20
HETATM   20  N   UNL     1      -9.353   9.967  67.450  1.00  0.00    -0.147 NA 
HETATM   21  C   UNL     1      -8.672  10.520  68.493  1.00  0.00    -0.140 A  
HETATM   22  N   UNL     1      -7.495  10.932  68.081  1.00  0.00    -0.088 NA 
HETATM   23  C   UNL     1      -7.496  10.596  66.758  1.00  0.00    -0.120 A  
HETATM   24  N   UNL     1      -8.612  10.008  66.322  1.00  0.00    -0.128 NA 
ENDBRANCH  19  20
ENDBRANCH  13  19
ENDBRANCH   2   8
TORSDOF 5
ENDMDL
MODEL      231
REMARK 921   NORMALIZED FREE ENERGY PREDICTED BY IDOCK:   -3.08 KCAL/MOL
REMARK 922        TOTAL FREE ENERGY PREDICTED BY IDOCK:   -4.77 KCAL/MOL
REMARK 923 INTER-LIGAND FREE ENERGY PREDICTED BY IDOCK:   -3.95 KCAL/MOL
REMARK 924 INTRA-LIGAND FREE ENERGY PREDICTED BY IDOCK:   -0.82 KCAL/MOL
REMARK 927      BINDING AFFINITY PREDICTED BY RF-SCORE:    0.00 PKD
ROOT
HETATM    1  C   UNL     1      -7.991   5.645  66.101  1.00  0.00    -0.106 C  
HETATM    2  C   UNL     1      -8.400   4.261  66.654  1.00  0.00    -0.101 C  
HETATM    3  C   UNL     1      -9.306   3.600  65.588  1.00  0.00    -0.162 C  
ENDROOT
BRANCH   2   4
HETATM    4  C   UNL     1      -7.154   3.394  66.747  1.00  0.00    -0.055 C  
HETATM    5  H2  UNL     1      -6.551   1.856  66.394  1.00  0.00     0.000 HD 
HETATM    6  N   UNL     1      -6.121   2.674  66.824  1.00  0.00    -0.023 NA 
HETATM    7  H1  UNL     1      -5.286   2.093  66.886  1.00  0.00     0.000 HD 
ENDBRANCH   2   4
BRANCH   2   8
HETATM    8  C   UNL     1      -9.023   4.425  68.037  1.00  0.00    -0.142 A  
HETATM    9  C   UNL     1      -9.250   3.702  70.378  1.00  0.00    -0.216 A  
HETATM   10  C   UNL     1      -8.667   3.591  69.101  1.00  0.00    -0.136 A  
HETATM   11  C   UNL     1     -10.232   4.690  70.565  1.00  0.00    -0.211 A  
HETATM   12  C   UNL     1     -10.002   5.407  68.269  1.00  0.00    -0.212 A  
HETATM   13  C   UNL     1     -10.630   5.533  69.514  1.00  0.00    -0.366 A  
BRANCH   9  14
HETATM   14  C   UNL     1      -8.796   2.719  71.474  1.00  0.00    -0.127 C  
HETATM   15  C   UNL     1      -9.986   2.160  72.184  1.00  0.00    -0.160 C  
HETATM   16  C   UNL     1      -8.022   1.551  70.816  1.00  0.00    -0.043 C  
HETATM   17  C   UNL     1      -7.883   3.356  72.533  1.00  0.00    -0.067 C  
HETATM   18  N   UNL     1     -10.913   1.712  72.722  1.00  0.00    -0.144 NA 
ENDBRANCH   9  14
BRANCH  13  19
HETATM   19  C   UNL     1     -11.772   6.509  69.688  1.00  0.00    -0.164 C  
BRANCH  19  20
HETATM   20  N   UNL     1     -11.554   7.508  70.719  1.00  0.00    -0.289 NA 
HETATM   21  C   UNL     1     -11.830   7.414  72.049  1.00  0.00    -0.298 A  
HETATM   22  N   UNL     1     -11.246   8.401  72.690  1.00  0.00    -0.343 NA 
HETATM   23  C   UNL     1     -10.606   9.079  71.695  1.00  0.00    -0.364 A  
HETATM   24  N   UNL     1     -10.766   8.576  70.469  1.00  0.00    -0.216 NA 
ENDBRANCH  19  20
ENDBRANCH  13  19
ENDBRANCH   2   8
TORSDOF 5
ENDMDL
MODEL      232
REMARK 921   NORMALIZED FREE ENERGY PREDICTED BY IDOCK:   -3.06 KCAL/MOL
REMARK 922        TOTAL FREE ENERGY PREDICTED BY IDOCK:   -4.75 KCAL/MOL
REMARK 923 INTER-LIGAND FREE ENERGY PREDICTED BY IDOCK:   -3.87 KCAL/MOL
REMARK 924 INTRA-LIGAND FREE ENERGY PREDICTED BY IDOCK:   -0.88 KCAL/MOL
REMARK 927      BINDING AFFINITY PREDICTED BY RF-SCORE:    0.00 PKD
ROOT
HETATM    1  C   UNL     1      -9.862   9.189  66.101  1.00  0.00    -0.363 C  
HETATM    2  C   UNL     1      -9.827  10.449  66.995  1.00  0.00    -0.234 C  
HETATM    3  C   UNL     1      -8.525  11.209  66.651  1.00  0.00    -0.164 C  
ENDROOT
BRANCH   2   4
HETATM    4  C   UNL     1     -10.972  11.361  66.583  1.00  0.00    -0.285 C  
HETATM    5  H2  UNL     1     -12.243  11.518  65.480  1.00  0.00     0.000 HD 
HETATM    6  N   UNL     1     -11.922  12.117  66.241  1.00  0.00    -0.613 NA 
HETATM    7  H1  UNL     1     -12.689  12.729  65.965  1.00  0.00     0.000 HD 
ENDBRANCH   2   4
BRANCH   2   8
HETATM    8  C   UNL     1      -9.986  10.044  68.457  1.00  0.00    -0.177 A  
HETATM    9  C   UNL     1     -11.341   9.929  70.507  1.00  0.00    -0.399 A  
HETATM   10  C   UNL     1     -11.180  10.265  69.150  1.00  0.00    -0.268 A  
HETATM   11  C   UNL     1     -10.244   9.360  71.176  1.00  0.00    -0.361 A  
HETATM   12  C   UNL     1      -8.915   9.463  69.159  1.00  0.00    -0.147 A  
HETATM   13  C   UNL     1      -9.021   9.141  70.518  1.00  0.00    -0.274 A  
BRANCH   9  14
HETATM   14  C   UNL     1     -12.696  10.233  71.178  1.00  0.00    -0.502 C  
HETATM   15  C   UNL     1     -12.929   9.286  72.310  1.00  0.00    -0.412 C  
HETATM   16  C   UNL     1     -12.668  11.675  71.739  1.00  0.00    -0.322 C  
HETATM   17  C   UNL     1     -13.894  10.118  70.223  1.00  0.00     1.048 C  
HETATM   18  N   UNL     1     -13.100   8.562  73.202  1.00  0.00     0.075 NA 
ENDBRANCH   9  14
BRANCH  13  19
HETATM   19  C   UNL     1      -7.809   8.643  71.273  1.00  0.00    -0.128 C  
BRANCH  19  20
HETATM   20  N   UNL     1      -7.478   7.253  71.022  1.00  0.00    -0.075 NA 
HETATM   21  C   UNL     1      -8.314   6.177  71.027  1.00  0.00    -0.124 A  
HETATM   22  N   UNL     1      -7.705   5.143  70.493  1.00  0.00    -0.070 NA 
HETATM   23  C   UNL     1      -6.480   5.644  70.161  1.00  0.00    -0.035 A  
HETATM   24  N   UNL     1      -6.289   6.930  70.467  1.00  0.00    -0.041 NA 
ENDBRANCH  19  20
ENDBRANCH  13  19
ENDBRANCH   2   8
TORSDOF 5
ENDMDL
MODEL      233
REMARK 921   NORMALIZED FREE ENERGY PREDICTED BY IDOCK:   -3.03 KCAL/MOL
REMARK 922        TOTAL FREE ENERGY PREDICTED BY IDOCK:   -4.71 KCAL/MOL
REMARK 923 INTER-LIGAND FREE ENERGY PREDICTED BY IDOCK:   -4.09 KCAL/MOL
REMARK 924 INTRA-LIGAND FREE ENERGY PREDICTED BY IDOCK:   -0.62 KCAL/MOL
REMARK 927      BINDING AFFINITY PREDICTED BY RF-SCORE:    0.00 PKD
ROOT
HETATM    1  C   UNL     1     -10.748   5.269  71.585  1.00  0.00    -0.227 C  
HETATM    2  C   UNL     1      -9.457   5.247  70.734  1.00  0.00    -0.221 C  
HETATM    3  C   UNL     1      -8.279   5.020  71.711  1.00  0.00    -0.116 C  
ENDROOT
BRANCH   2   4
HETATM    4  C   UNL     1      -9.499   4.025  69.831  1.00  0.00    -0.194 C  
HETATM    5  H2  UNL     1      -9.409   2.337  69.837  1.00  0.00     0.000 HD 
HETATM    6  N   UNL     1      -9.534   3.011  69.082  1.00  0.00    -0.145 NA 
HETATM    7  H1  UNL     1      -9.563   2.191  68.476  1.00  0.00     0.000 HD 
ENDBRANCH   2   4
BRANCH   2   8
HETATM    8  C   UNL     1      -9.378   6.514  69.890  1.00  0.00    -0.155 A  
HETATM    9  C   UNL     1      -8.473   7.744  67.960  1.00  0.00    -0.123 A  
HETATM   10  C   UNL     1      -8.587   6.576  68.739  1.00  0.00    -0.121 A  
HETATM   11  C   UNL     1      -9.181   8.883  68.380  1.00  0.00    -0.140 A  
HETATM   12  C   UNL     1     -10.079   7.673  70.270  1.00  0.00    -0.198 A  
HETATM   13  C   UNL     1      -9.970   8.865  69.543  1.00  0.00    -0.191 A  
BRANCH   9  14
HETATM   14  C   UNL     1      -7.559   7.706  66.720  1.00  0.00    -0.098 C  
HETATM   15  C   UNL     1      -6.793   8.985  66.610  1.00  0.00    -0.080 C  
HETATM   16  C   UNL     1      -6.551   6.541  66.871  1.00  0.00    -0.051 C  
HETATM   17  C   UNL     1      -8.320   7.507  65.400  1.00  0.00    -0.129 C  
HETATM   18  N   UNL     1      -6.185   9.972  66.537  1.00  0.00    -0.067 NA 
ENDBRANCH   9  14
BRANCH  13  19
HETATM   19  C   UNL     1     -10.630  10.125  70.056  1.00  0.00    -0.287 C  
BRANCH  19  20
HETATM   20  N   UNL     1     -10.824  11.151  69.048  1.00  0.00    -0.218 NA 
HETATM   21  C   UNL     1      -9.905  12.031  68.559  1.00  0.00    -0.172 A  
HETATM   22  N   UNL     1     -10.381  12.609  67.480  1.00  0.00    -0.216 NA 
HETATM   23  C   UNL     1     -11.612  12.036  67.340  1.00  0.00    -0.318 A  
HETATM   24  N   UNL     1     -11.932  11.141  68.277  1.00  0.00    -0.619 NA 
ENDBRANCH  19  20
ENDBRANCH  13  19
ENDBRANCH   2   8
TORSDOF 5
ENDMDL
MODEL      234
REMARK 921   NORMALIZED FREE ENERGY PREDICTED BY IDOCK:   -2.93 KCAL/MOL
REMARK 922        TOTAL FREE ENERGY PREDICTED BY IDOCK:   -4.58 KCAL/MOL
REMARK 923 INTER-LIGAND FREE ENERGY PREDICTED BY IDOCK:   -3.73 KCAL/MOL
REMARK 924 INTRA-LIGAND FREE ENERGY PREDICTED BY IDOCK:   -0.85 KCAL/MOL
REMARK 927      BINDING AFFINITY PREDICTED BY RF-SCORE:    0.00 PKD
ROOT
HETATM    1  C   UNL     1     -11.443   5.637  72.653  1.00  0.00    -0.339 C  
HETATM    2  C   UNL     1     -10.050   5.213  72.133  1.00  0.00    -0.247 C  
HETATM    3  C   UNL     1      -9.029   5.571  73.238  1.00  0.00    -0.123 C  
ENDROOT
BRANCH   2   4
HETATM    4  C   UNL     1     -10.025   3.698  72.008  1.00  0.00    -0.162 C  
HETATM    5  H2  UNL     1     -11.017   2.329  71.984  1.00  0.00     0.000 HD 
HETATM    6  N   UNL     1     -10.006   2.441  71.904  1.00  0.00    -0.162 NA 
HETATM    7  H1  UNL     1      -9.989   1.425  71.821  1.00  0.00     0.000 HD 
ENDBRANCH   2   4
BRANCH   2   8
HETATM    8  C   UNL     1      -9.797   5.850  70.770  1.00  0.00    -0.229 A  
HETATM    9  C   UNL     1      -8.958   7.720  69.409  1.00  0.00    -0.142 A  
HETATM   10  C   UNL     1      -9.176   7.097  70.652  1.00  0.00    -0.158 A  
HETATM   11  C   UNL     1      -9.400   7.051  68.255  1.00  0.00    -0.126 A  
HETATM   12  C   UNL     1     -10.214   5.209  69.591  1.00  0.00    -0.337 A  
HETATM   13  C   UNL     1     -10.047   5.805  68.335  1.00  0.00    -0.216 A  
BRANCH   9  14
HETATM   14  C   UNL     1      -8.280   9.104  69.395  1.00  0.00    -0.118 C  
HETATM   15  C   UNL     1      -7.491   9.275  68.137  1.00  0.00    -0.083 C  
HETATM   16  C   UNL     1      -9.371  10.201  69.445  1.00  0.00    -0.235 C  
HETATM   17  C   UNL     1      -7.324   9.332  70.576  1.00  0.00    -0.120 C  
HETATM   18  N   UNL     1      -6.894   9.413  67.151  1.00  0.00    -0.083 NA 
ENDBRANCH   9  14
BRANCH  13  19
HETATM   19  C   UNL     1     -10.628   5.149  67.103  1.00  0.00    -0.098 C  
BRANCH  19  20
HETATM   20  N   UNL     1      -9.716   4.251  66.417  1.00  0.00    -0.201 NA 
HETATM   21  C   UNL     1      -9.231   3.055  66.852  1.00  0.00    -0.152 A  
HETATM   22  N   UNL     1      -8.661   2.421  65.853  1.00  0.00    -0.118 NA 
HETATM   23  C   UNL     1      -8.834   3.278  64.805  1.00  0.00    -0.119 A  
HETATM   24  N   UNL     1      -9.470   4.415  65.099  1.00  0.00    -0.163 NA 
ENDBRANCH  19  20
ENDBRANCH  13  19
ENDBRANCH   2   8
TORSDOF 5
ENDMDL
MODEL      235
REMARK 921   NORMALIZED FREE ENERGY PREDICTED BY IDOCK:   -2.91 KCAL/MOL
REMARK 922        TOTAL FREE ENERGY PREDICTED BY IDOCK:   -4.56 KCAL/MOL
REMARK 923 INTER-LIGAND FREE ENERGY PREDICTED BY IDOCK:   -3.71 KCAL/MOL
REMARK 924 INTRA-LIGAND FREE ENERGY PREDICTED BY IDOCK:   -0.85 KCAL/MOL
REMARK 927      BINDING AFFINITY PREDICTED BY RF-SCORE:    0.00 PKD
ROOT
HETATM    1  C   UNL     1     -10.656   8.353  68.640  1.00  0.00    -0.149 C  
HETATM    2  C   UNL     1     -10.213   8.301  70.120  1.00  0.00    -0.199 C  
HETATM    3  C   UNL     1      -9.106   9.367  70.295  1.00  0.00    -0.283 C  
ENDROOT
BRANCH   2   4
HETATM    4  C   UNL     1     -11.378   8.754  70.985  1.00  0.00    -0.278 C  
HETATM    5  H2  UNL     1     -12.288   8.340  72.348  1.00  0.00     0.000 HD 
HETATM    6  N   UNL     1     -12.345   9.128  71.704  1.00  0.00    -0.337 NA 
HETATM    7  H1  UNL     1     -13.126   9.432  72.284  1.00  0.00     0.000 HD 
ENDBRANCH   2   4
BRANCH   2   8
HETATM    8  C   UNL     1      -9.818   6.875  70.486  1.00  0.00    -0.187 A  
HETATM    9  C   UNL     1      -9.764   5.020  72.103  1.00  0.00    -0.208 A  
HETATM   10  C   UNL     1     -10.144   6.323  71.729  1.00  0.00    -0.211 A  
HETATM   11  C   UNL     1      -9.019   4.265  71.180  1.00  0.00    -0.166 A  
HETATM   12  C   UNL     1      -9.080   6.083  69.588  1.00  0.00    -0.139 A  
HETATM   13  C   UNL     1      -8.654   4.793  69.930  1.00  0.00    -0.094 A  
BRANCH   9  14
HETATM   14  C   UNL     1     -10.162   4.519  73.505  1.00  0.00    -0.220 C  
HETATM   15  C   UNL     1      -9.240   3.425  73.937  1.00  0.00    -0.089 C  
HETATM   16  C   UNL     1     -10.043   5.689  74.511  1.00  0.00    -0.296 C  
HETATM   17  C   UNL     1     -11.596   3.972  73.579  1.00  0.00    -0.126 C  
HETATM   18  N   UNL     1      -8.511   2.588  74.280  1.00  0.00    -0.067 NA 
ENDBRANCH   9  14
BRANCH  13  19
HETATM   19  C   UNL     1      -7.750   4.024  68.993  1.00  0.00    -0.053 C  
BRANCH  19  20
HETATM   20  N   UNL     1      -8.259   3.899  67.639  1.00  0.00    -0.093 NA 
HETATM   21  C   UNL     1      -9.451   3.377  67.236  1.00  0.00    -0.170 A  
HETATM   22  N   UNL     1      -9.662   3.686  65.977  1.00  0.00    -0.132 NA 
HETATM   23  C   UNL     1      -8.559   4.418  65.649  1.00  0.00    -0.119 A  
HETATM   24  N   UNL     1      -7.667   4.574  66.630  1.00  0.00    -0.093 NA 
ENDBRANCH  19  20
ENDBRANCH  13  19
ENDBRANCH   2   8
TORSDOF 5
ENDMDL
MODEL      236
REMARK 921   NORMALIZED FREE ENERGY PREDICTED BY IDOCK:   -2.82 KCAL/MOL
REMARK 922        TOTAL FREE ENERGY PREDICTED BY IDOCK:   -4.43 KCAL/MOL
REMARK 923 INTER-LIGAND FREE ENERGY PREDICTED BY IDOCK:   -3.59 KCAL/MOL
REMARK 924 INTRA-LIGAND FREE ENERGY PREDICTED BY IDOCK:   -0.84 KCAL/MOL
REMARK 927      BINDING AFFINITY PREDICTED BY RF-SCORE:    0.00 PKD
ROOT
HETATM    1  C   UNL     1     -10.699   5.564  71.051  1.00  0.00    -0.275 C  
HETATM    2  C   UNL     1      -9.382   5.397  70.260  1.00  0.00    -0.198 C  
HETATM    3  C   UNL     1      -8.269   6.080  71.090  1.00  0.00    -0.123 C  
ENDROOT
BRANCH   2   4
HETATM    4  C   UNL     1      -9.032   3.918  70.218  1.00  0.00    -0.098 C  
HETATM    5  H2  UNL     1      -9.550   2.393  70.731  1.00  0.00     0.000 HD 
HETATM    6  N   UNL     1      -8.742   2.691  70.184  1.00  0.00    -0.062 NA 
HETATM    7  H1  UNL     1      -8.507   1.699  70.156  1.00  0.00     0.000 HD 
ENDBRANCH   2   4
BRANCH   2   8
HETATM    8  C   UNL     1      -9.565   5.928  68.842  1.00  0.00    -0.158 A  
HETATM    9  C   UNL     1      -9.726   7.814  67.271  1.00  0.00    -0.224 A  
HETATM   10  C   UNL     1      -9.529   7.297  68.565  1.00  0.00    -0.140 A  
HETATM   11  C   UNL     1      -9.977   6.900  66.232  1.00  0.00     0.036 A  
HETATM   12  C   UNL     1      -9.809   5.046  67.774  1.00  0.00    -0.199 A  
HETATM   13  C   UNL     1     -10.041   5.517  66.475  1.00  0.00    -0.241 A  
BRANCH   9  14
HETATM   14  C   UNL     1      -9.683   9.343  67.081  1.00  0.00    -0.225 C  
HETATM   15  C   UNL     1      -9.705   9.678  65.625  1.00  0.00    -0.293 C  
HETATM   16  C   UNL     1     -10.931   9.969  67.749  1.00  0.00    -0.310 C  
HETATM   17  C   UNL     1      -8.437  10.004  67.690  1.00  0.00    -0.114 C  
HETATM   18  N   UNL     1      -9.741   9.938  64.494  1.00  0.00    -0.242 NA 
ENDBRANCH   9  14
BRANCH  13  19
HETATM   19  C   UNL     1     -10.433   4.551  65.381  1.00  0.00    -0.184 C  
BRANCH  19  20
HETATM   20  N   UNL     1      -9.310   3.944  64.689  1.00  0.00    -0.146 NA 
HETATM   21  C   UNL     1      -8.870   2.657  64.772  1.00  0.00    -0.118 A  
HETATM   22  N   UNL     1      -8.014   2.421  63.805  1.00  0.00    -0.079 NA 
HETATM   23  C   UNL     1      -7.967   3.610  63.138  1.00  0.00    -0.072 A  
HETATM   24  N   UNL     1      -8.738   4.576  63.641  1.00  0.00    -0.129 NA 
ENDBRANCH  19  20
ENDBRANCH  13  19
ENDBRANCH   2   8
TORSDOF 5
ENDMDL
MODEL      237
REMARK 921   NORMALIZED FREE ENERGY PREDICTED BY IDOCK:   -2.79 KCAL/MOL
REMARK 922        TOTAL FREE ENERGY PREDICTED BY IDOCK:   -4.39 KCAL/MOL
REMARK 923 INTER-LIGAND FREE ENERGY PREDICTED BY IDOCK:   -3.49 KCAL/MOL
REMARK 924 INTRA-LIGAND FREE ENERGY PREDICTED BY IDOCK:   -0.90 KCAL/MOL
REMARK 927      BINDING AFFINITY PREDICTED BY RF-SCORE:    0.00 PKD
ROOT
HETATM    1  C   UNL     1      -7.207  10.705  66.606  1.00  0.00    -0.128 C  
HETATM    2  C   UNL     1      -8.738  10.581  66.781  1.00  0.00    -0.136 C  
HETATM    3  C   UNL     1      -9.193  11.795  67.626  1.00  0.00    -0.180 C  
ENDROOT
BRANCH   2   4
HETATM    4  C   UNL     1      -9.392  10.744  65.418  1.00  0.00    -0.207 C  
HETATM    5  H2  UNL     1      -9.825   9.900  64.019  1.00  0.00     0.000 HD 
HETATM    6  N   UNL     1      -9.934  10.878  64.287  1.00  0.00    -0.304 NA 
HETATM    7  H1  UNL     1     -10.372  10.987  63.373  1.00  0.00     0.000 HD 
ENDBRANCH   2   4
BRANCH   2   8
HETATM    8  C   UNL     1      -9.078   9.212  67.360  1.00  0.00    -0.142 A  
HETATM    9  C   UNL     1      -9.120   7.643  69.255  1.00  0.00    -0.145 A  
HETATM   10  C   UNL     1      -8.844   8.909  68.704  1.00  0.00    -0.137 A  
HETATM   11  C   UNL     1      -9.642   6.657  68.400  1.00  0.00    -0.123 A  
HETATM   12  C   UNL     1      -9.611   8.201  66.540  1.00  0.00    -0.303 A  
HETATM   13  C   UNL     1      -9.873   6.918  67.038  1.00  0.00    -0.228 A  
BRANCH   9  14
HETATM   14  C   UNL     1      -8.806   7.413  70.746  1.00  0.00    -0.149 C  
HETATM   15  C   UNL     1      -9.942   6.697  71.403  1.00  0.00    -0.183 C  
HETATM   16  C   UNL     1      -7.537   6.534  70.864  1.00  0.00    -0.089 C  
HETATM   17  C   UNL     1      -8.560   8.710  71.531  1.00  0.00    -0.256 C  
HETATM   18  N   UNL     1     -10.817   6.124  71.907  1.00  0.00    -0.239 NA 
ENDBRANCH   9  14
BRANCH  13  19
HETATM   19  C   UNL     1     -10.317   5.820  66.099  1.00  0.00     0.021 C  
BRANCH  19  20
HETATM   20  N   UNL     1      -9.427   4.674  66.056  1.00  0.00    -0.157 NA 
HETATM   21  C   UNL     1      -8.132   4.633  65.634  1.00  0.00    -0.107 A  
HETATM   22  N   UNL     1      -7.587   3.495  65.998  1.00  0.00    -0.080 NA 
HETATM   23  C   UNL     1      -8.600   2.865  66.660  1.00  0.00    -0.108 A  
HETATM   24  N   UNL     1      -9.749   3.542  66.719  1.00  0.00    -0.107 NA 
ENDBRANCH  19  20
ENDBRANCH  13  19
ENDBRANCH   2   8
TORSDOF 5
ENDMDL
MODEL      238
REMARK 921   NORMALIZED FREE ENERGY PREDICTED BY IDOCK:   -2.78 KCAL/MOL
REMARK 922        TOTAL FREE ENERGY PREDICTED BY IDOCK:   -4.38 KCAL/MOL
REMARK 923 INTER-LIGAND FREE ENERGY PREDICTED BY IDOCK:   -3.53 KCAL/MOL
REMARK 924 INTRA-LIGAND FREE ENERGY PREDICTED BY IDOCK:   -0.86 KCAL/MOL
REMARK 927      BINDING AFFINITY PREDICTED BY RF-SCORE:    0.00 PKD
ROOT
HETATM    1  C   UNL     1      -7.189   4.294  64.696  1.00  0.00    -0.070 C  
HETATM    2  C   UNL     1      -7.231   5.596  65.529  1.00  0.00    -0.067 C  
HETATM    3  C   UNL     1      -5.763   6.020  65.775  1.00  0.00    -0.020 C  
ENDROOT
BRANCH   2   4
HETATM    4  C   UNL     1      -7.850   6.691  64.675  1.00  0.00    -0.116 C  
HETATM    5  H2  UNL     1      -9.317   7.445  64.302  1.00  0.00     0.000 HD 
HETATM    6  N   UNL     1      -8.366   7.599  63.967  1.00  0.00    -0.368 NA 
HETATM    7  H1  UNL     1      -8.781   8.333  63.395  1.00  0.00     0.000 HD 
ENDBRANCH   2   4
BRANCH   2   8
HETATM    8  C   UNL     1      -8.072   5.377  66.782  1.00  0.00    -0.105 A  
HETATM    9  C   UNL     1      -8.797   3.941  68.644  1.00  0.00    -0.150 A  
HETATM   10  C   UNL     1      -8.008   4.181  67.502  1.00  0.00    -0.091 A  
HETATM   11  C   UNL     1      -9.683   4.953  69.051  1.00  0.00    -0.245 A  
HETATM   12  C   UNL     1      -8.964   6.368  67.228  1.00  0.00    -0.107 A  
HETATM   13  C   UNL     1      -9.790   6.161  68.341  1.00  0.00    -0.142 A  
BRANCH   9  14
HETATM   14  C   UNL     1      -8.659   2.579  69.353  1.00  0.00    -0.114 C  
HETATM   15  C   UNL     1      -9.305   2.637  70.700  1.00  0.00    -0.145 C  
HETATM   16  C   UNL     1      -9.375   1.497  68.509  1.00  0.00    -0.231 C  
HETATM   17  C   UNL     1      -7.202   2.136  69.557  1.00  0.00    -0.043 C  
HETATM   18  N   UNL     1      -9.825   2.677  71.737  1.00  0.00    -0.158 NA 
ENDBRANCH   9  14
BRANCH  13  19
HETATM   19  C   UNL     1     -10.830   7.193  68.710  1.00  0.00    -0.120 C  
BRANCH  19  20
HETATM   20  N   UNL     1     -10.497   7.986  69.880  1.00  0.00    -0.229 NA 
HETATM   21  C   UNL     1     -11.244   8.178  71.003  1.00  0.00    -0.258 A  
HETATM   22  N   UNL     1     -10.500   8.724  71.938  1.00  0.00    -0.335 NA 
HETATM   23  C   UNL     1      -9.282   8.840  71.335  1.00  0.00    -0.255 A  
HETATM   24  N   UNL     1      -9.229   8.407  70.073  1.00  0.00    -0.157 NA 
ENDBRANCH  19  20
ENDBRANCH  13  19
ENDBRANCH   2   8
TORSDOF 5
ENDMDL
MODEL      239
REMARK 921   NORMALIZED FREE ENERGY PREDICTED BY IDOCK:   -2.70 KCAL/MOL
REMARK 922        TOTAL FREE ENERGY PREDICTED BY IDOCK:   -4.28 KCAL/MOL
REMARK 923 INTER-LIGAND FREE ENERGY PREDICTED BY IDOCK:   -3.52 KCAL/MOL
REMARK 924 INTRA-LIGAND FREE ENERGY PREDICTED BY IDOCK:   -0.76 KCAL/MOL
REMARK 927      BINDING AFFINITY PREDICTED BY RF-SCORE:    0.00 PKD
ROOT
HETATM    1  C   UNL     1      -7.710   7.562  63.403  1.00  0.00    -0.129 C  
HETATM    2  C   UNL     1      -8.012   7.081  64.841  1.00  0.00    -0.127 C  
HETATM    3  C   UNL     1      -8.853   5.788  64.715  1.00  0.00     0.107 C  
ENDROOT
BRANCH   2   4
HETATM    4  C   UNL     1      -6.702   6.673  65.495  1.00  0.00    -0.051 C  
HETATM    5  H2  UNL     1      -5.909   5.376  66.234  1.00  0.00     0.000 HD 
HETATM    6  N   UNL     1      -5.616   6.333  66.039  1.00  0.00    -0.013 NA 
HETATM    7  H1  UNL     1      -4.737   6.059  66.478  1.00  0.00     0.000 HD 
ENDBRANCH   2   4
BRANCH   2   8
HETATM    8  C   UNL     1      -8.659   8.212  65.634  1.00  0.00    -0.181 A  
HETATM    9  C   UNL     1      -9.646  10.463  65.727  1.00  0.00    -0.269 A  
HETATM   10  C   UNL     1      -9.075   9.393  65.013  1.00  0.00    -0.271 A  
HETATM   11  C   UNL     1      -9.784  10.322  67.119  1.00  0.00    -0.210 A  
HETATM   12  C   UNL     1      -8.824   8.106  67.027  1.00  0.00    -0.143 A  
HETATM   13  C   UNL     1      -9.358   9.158  67.781  1.00  0.00    -0.152 A  
BRANCH   9  14
HETATM   14  C   UNL     1     -10.054  11.727  64.945  1.00  0.00    -0.298 C  
HETATM   15  C   UNL     1      -9.328  11.776  63.639  1.00  0.00     0.020 C  
HETATM   16  C   UNL     1     -11.575  11.675  64.660  1.00  0.00    -0.199 C  
HETATM   17  C   UNL     1      -9.755  13.036  65.691  1.00  0.00    -0.110 C  
HETATM   18  N   UNL     1      -8.778  11.803  62.617  1.00  0.00     0.004 NA 
ENDBRANCH   9  14
BRANCH  13  19
HETATM   19  C   UNL     1      -9.396   9.062  69.290  1.00  0.00    -0.150 C  
BRANCH  19  20
HETATM   20  N   UNL     1     -10.582   8.413  69.818  1.00  0.00    -0.222 NA 
HETATM   21  C   UNL     1     -10.908   7.091  69.766  1.00  0.00    -0.248 A  
HETATM   22  N   UNL     1     -11.910   6.853  70.582  1.00  0.00    -0.372 NA 
HETATM   23  C   UNL     1     -12.161   8.078  71.128  1.00  0.00    -0.245 A  
HETATM   24  N   UNL     1     -11.379   9.067  70.691  1.00  0.00    -0.264 NA 
ENDBRANCH  19  20
ENDBRANCH  13  19
ENDBRANCH   2   8
TORSDOF 5
ENDMDL
MODEL      240
REMARK 921   NORMALIZED FREE ENERGY PREDICTED BY IDOCK:   -2.68 KCAL/MOL
REMARK 922        TOTAL FREE ENERGY PREDICTED BY IDOCK:   -4.26 KCAL/MOL
REMARK 923 INTER-LIGAND FREE ENERGY PREDICTED BY IDOCK:   -3.42 KCAL/MOL
REMARK 924 INTRA-LIGAND FREE ENERGY PREDICTED BY IDOCK:   -0.83 KCAL/MOL
REMARK 927      BINDING AFFINITY PREDICTED BY RF-SCORE:    0.00 PKD
ROOT
HETATM    1  C   UNL     1     -10.611   8.595  69.023  1.00  0.00    -0.179 C  
HETATM    2  C   UNL     1      -9.652   8.173  70.159  1.00  0.00    -0.168 C  
HETATM    3  C   UNL     1      -8.514   9.221  70.200  1.00  0.00    -0.206 C  
ENDROOT
BRANCH   2   4
HETATM    4  C   UNL     1     -10.391   8.299  71.482  1.00  0.00    -0.214 C  
HETATM    5  H2  UNL     1     -10.548   7.600  73.013  1.00  0.00     0.000 HD 
HETATM    6  N   UNL     1     -11.004   8.402  72.579  1.00  0.00    -0.355 NA 
HETATM    7  H1  UNL     1     -11.500   8.487  73.466  1.00  0.00     0.000 HD 
ENDBRANCH   2   4
BRANCH   2   8
HETATM    8  C   UNL     1      -9.209   6.729  69.947  1.00  0.00    -0.147 A  
HETATM    9  C   UNL     1      -8.854   4.799  68.463  1.00  0.00    -0.119 A  
HETATM   10  C   UNL     1      -9.228   6.139  68.680  1.00  0.00    -0.123 A  
HETATM   11  C   UNL     1      -8.460   4.040  69.579  1.00  0.00    -0.088 A  
HETATM   12  C   UNL     1      -8.800   5.939  71.036  1.00  0.00    -0.141 A  
HETATM   13  C   UNL     1      -8.449   4.593  70.871  1.00  0.00    -0.109 A  
BRANCH   9  14
HETATM   14  C   UNL     1      -8.928   4.245  67.027  1.00  0.00    -0.130 C  
HETATM   15  C   UNL     1      -9.014   2.753  67.059  1.00  0.00    -0.156 C  
HETATM   16  C   UNL     1     -10.200   4.796  66.339  1.00  0.00    -0.308 C  
HETATM   17  C   UNL     1      -7.717   4.620  66.159  1.00  0.00    -0.091 C  
HETATM   18  N   UNL     1      -9.101   1.595  67.086  1.00  0.00    -0.119 NA 
ENDBRANCH   9  14
BRANCH  13  19
HETATM   19  C   UNL     1      -8.144   3.739  72.081  1.00  0.00    -0.076 C  
BRANCH  19  20
HETATM   20  N   UNL     1      -9.318   3.273  72.795  1.00  0.00    -0.095 NA 
HETATM   21  C   UNL     1     -10.190   4.005  73.544  1.00  0.00    -0.146 A  
HETATM   22  N   UNL     1     -11.261   3.288  73.799  1.00  0.00    -0.198 NA 
HETATM   23  C   UNL     1     -11.000   2.108  73.167  1.00  0.00    -0.149 A  
HETATM   24  N   UNL     1      -9.822   2.045  72.542  1.00  0.00    -0.110 NA 
ENDBRANCH  19  20
ENDBRANCH  13  19
ENDBRANCH   2   8
TORSDOF 5
ENDMDL
MODEL      241
REMARK 921   NORMALIZED FREE ENERGY PREDICTED BY IDOCK:   -2.68 KCAL/MOL
REMARK 922        TOTAL FREE ENERGY PREDICTED BY IDOCK:   -4.25 KCAL/MOL
REMARK 923 INTER-LIGAND FREE ENERGY PREDICTED BY IDOCK:   -3.39 KCAL/MOL
REMARK 924 INTRA-LIGAND FREE ENERGY PREDICTED BY IDOCK:   -0.87 KCAL/MOL
REMARK 927      BINDING AFFINITY PREDICTED BY RF-SCORE:    0.00 PKD
ROOT
HETATM    1  C   UNL     1     -10.901   8.429  68.304  1.00  0.00     0.024 C  
HETATM    2  C   UNL     1     -10.463   6.954  68.458  1.00  0.00    -0.229 C  
HETATM    3  C   UNL     1     -11.355   6.333  69.560  1.00  0.00    -0.475 C  
ENDROOT
BRANCH   2   4
HETATM    4  C   UNL     1     -10.802   6.216  67.173  1.00  0.00    -0.360 C  
HETATM    5  H2  UNL     1     -11.532   4.815  66.573  1.00  0.00     0.000 HD 
HETATM    6  N   UNL     1     -11.084   5.603  66.107  1.00  0.00    -0.756 NA 
HETATM    7  H1  UNL     1     -11.310   5.108  65.245  1.00  0.00     0.000 HD 
ENDBRANCH   2   4
BRANCH   2   8
HETATM    8  C   UNL     1      -8.961   6.890  68.713  1.00  0.00    -0.130 A  
HETATM    9  C   UNL     1      -7.056   6.895  70.270  1.00  0.00    -0.067 A  
HETATM   10  C   UNL     1      -8.439   6.922  70.010  1.00  0.00    -0.140 A  
HETATM   11  C   UNL     1      -6.183   6.845  69.169  1.00  0.00    -0.027 A  
HETATM   12  C   UNL     1      -8.055   6.829  67.640  1.00  0.00    -0.116 A  
HETATM   13  C   UNL     1      -6.670   6.832  67.851  1.00  0.00    -0.068 A  
BRANCH   9  14
HETATM   14  C   UNL     1      -6.589   6.953  71.738  1.00  0.00    -0.049 C  
HETATM   15  C   UNL     1      -7.436   7.916  72.506  1.00  0.00    -0.104 C  
HETATM   16  C   UNL     1      -6.742   5.549  72.371  1.00  0.00    -0.071 C  
HETATM   17  C   UNL     1      -5.126   7.391  71.902  1.00  0.00    -0.035 C  
HETATM   18  N   UNL     1      -8.107   8.649  73.106  1.00  0.00    -0.415 NA 
ENDBRANCH   9  14
BRANCH  13  19
HETATM   19  C   UNL     1      -5.727   6.902  66.672  1.00  0.00    -0.018 C  
BRANCH  19  20
HETATM   20  N   UNL     1      -5.827   8.125  65.898  1.00  0.00    -0.037 NA 
HETATM   21  C   UNL     1      -6.120   8.259  64.574  1.00  0.00    -0.064 A  
HETATM   22  N   UNL     1      -6.385   9.517  64.306  1.00  0.00    -0.093 NA 
HETATM   23  C   UNL     1      -6.248  10.126  65.519  1.00  0.00    -0.101 A  
HETATM   24  N   UNL     1      -5.904   9.319  66.525  1.00  0.00    -0.057 NA 
ENDBRANCH  19  20
ENDBRANCH  13  19
ENDBRANCH   2   8
TORSDOF 5
ENDMDL
MODEL      242
REMARK 921   NORMALIZED FREE ENERGY PREDICTED BY IDOCK:   -2.46 KCAL/MOL
REMARK 922        TOTAL FREE ENERGY PREDICTED BY IDOCK:   -3.96 KCAL/MOL
REMARK 923 INTER-LIGAND FREE ENERGY PREDICTED BY IDOCK:   -3.37 KCAL/MOL
REMARK 924 INTRA-LIGAND FREE ENERGY PREDICTED BY IDOCK:   -0.59 KCAL/MOL
REMARK 927      BINDING AFFINITY PREDICTED BY RF-SCORE:    0.00 PKD
ROOT
HETATM    1  C   UNL     1      -7.048   6.001  65.120  1.00  0.00    -0.064 C  
HETATM    2  C   UNL     1      -7.674   4.671  65.598  1.00  0.00    -0.094 C  
HETATM    3  C   UNL     1      -8.588   4.168  64.457  1.00  0.00    -0.121 C  
ENDROOT
BRANCH   2   4
HETATM    4  C   UNL     1      -6.564   3.642  65.737  1.00  0.00    -0.040 C  
HETATM    5  H2  UNL     1      -5.335   2.858  64.881  1.00  0.00     0.000 HD 
HETATM    6  N   UNL     1      -5.642   2.788  65.851  1.00  0.00    -0.017 NA 
HETATM    7  H1  UNL     1      -4.898   2.097  65.945  1.00  0.00     0.000 HD 
ENDBRANCH   2   4
BRANCH   2   8
HETATM    8  C   UNL     1      -8.357   4.883  66.945  1.00  0.00    -0.106 A  
HETATM    9  C   UNL     1      -8.972   4.062  69.182  1.00  0.00    -0.167 A  
HETATM   10  C   UNL     1      -8.323   3.903  67.942  1.00  0.00    -0.099 A  
HETATM   11  C   UNL     1      -9.685   5.253  69.400  1.00  0.00    -0.241 A  
HETATM   12  C   UNL     1      -9.072   6.065  67.208  1.00  0.00    -0.111 A  
HETATM   13  C   UNL     1      -9.758   6.252  68.414  1.00  0.00    -0.130 A  
BRANCH   9  14
HETATM   14  C   UNL     1      -8.885   2.910  70.203  1.00  0.00    -0.148 C  
HETATM   15  C   UNL     1      -7.468   2.719  70.637  1.00  0.00    -0.036 C  
HETATM   16  C   UNL     1      -9.736   3.271  71.444  1.00  0.00    -0.226 C  
HETATM   17  C   UNL     1      -9.388   1.565  69.658  1.00  0.00    -0.158 C  
HETATM   18  N   UNL     1      -6.369   2.584  70.988  1.00  0.00    -0.019 NA 
ENDBRANCH   9  14
BRANCH  13  19
HETATM   19  C   UNL     1     -10.626   7.475  68.608  1.00  0.00    -0.142 C  
BRANCH  19  20
HETATM   20  N   UNL     1     -10.849   7.836  69.996  1.00  0.00    -0.248 NA 
HETATM   21  C   UNL     1     -10.401   8.939  70.658  1.00  0.00    -0.215 A  
HETATM   22  N   UNL     1     -11.029   9.049  71.806  1.00  0.00    -0.359 NA 
HETATM   23  C   UNL     1     -11.875   7.978  71.799  1.00  0.00    -0.296 A  
HETATM   24  N   UNL     1     -11.801   7.202  70.715  1.00  0.00    -0.333 NA 
ENDBRANCH  19  20
ENDBRANCH  13  19
ENDBRANCH   2   8
TORSDOF 5
ENDMDL
MODEL      243
REMARK 921   NORMALIZED FREE ENERGY PREDICTED BY IDOCK:   -2.44 KCAL/MOL
REMARK 922        TOTAL FREE ENERGY PREDICTED BY IDOCK:   -3.95 KCAL/MOL
REMARK 923 INTER-LIGAND FREE ENERGY PREDICTED BY IDOCK:   -3.35 KCAL/MOL
REMARK 924 INTRA-LIGAND FREE ENERGY PREDICTED BY IDOCK:   -0.60 KCAL/MOL
REMARK 927      BINDING AFFINITY PREDICTED BY RF-SCORE:    0.00 PKD
ROOT
HETATM    1  C   UNL     1      -5.421  20.662  66.015  1.00  0.00    -0.225 C  
HETATM    2  C   UNL     1      -6.420  19.769  65.244  1.00  0.00    -0.311 C  
HETATM    3  C   UNL     1      -7.585  20.682  64.795  1.00  0.00     0.740 C  
ENDROOT
BRANCH   2   4
HETATM    4  C   UNL     1      -5.746  19.285  63.971  1.00  0.00    -0.291 C  
HETATM    5  H2  UNL     1      -4.742  18.074  63.351  1.00  0.00     0.000 HD 
HETATM    6  N   UNL     1      -5.186  18.882  62.915  1.00  0.00    -0.238 NA 
HETATM    7  H1  UNL     1      -4.734  18.557  62.060  1.00  0.00     0.000 HD 
ENDBRANCH   2   4
BRANCH   2   8
HETATM    8  C   UNL     1      -6.813  18.576  66.109  1.00  0.00    -0.285 A  
HETATM    9  C   UNL     1      -8.478  17.380  67.471  1.00  0.00    -0.218 A  
HETATM   10  C   UNL     1      -8.099  18.456  66.644  1.00  0.00    -0.282 A  
HETATM   11  C   UNL     1      -7.507  16.407  67.765  1.00  0.00    -0.158 A  
HETATM   12  C   UNL     1      -5.875  17.576  66.419  1.00  0.00    -0.245 A  
HETATM   13  C   UNL     1      -6.198  16.505  67.262  1.00  0.00    -0.209 A  
BRANCH   9  14
HETATM   14  C   UNL     1      -9.917  17.356  68.021  1.00  0.00    -0.302 C  
HETATM   15  C   UNL     1     -10.668  18.557  67.544  1.00  0.00    -0.377 C  
HETATM   16  C   UNL     1     -10.635  16.088  67.498  1.00  0.00    -0.313 C  
HETATM   17  C   UNL     1      -9.990  17.344  69.555  1.00  0.00     0.101 C  
HETATM   18  N   UNL     1     -11.255  19.481  67.157  1.00  0.00    -0.191 NA 
ENDBRANCH   9  14
BRANCH  13  19
HETATM   19  C   UNL     1      -5.127  15.524  67.681  1.00  0.00    -0.032 C  
BRANCH  19  20
HETATM   20  N   UNL     1      -5.623  14.196  67.996  1.00  0.00    -0.133 NA 
HETATM   21  C   UNL     1      -6.076  13.732  69.194  1.00  0.00    -0.095 A  
HETATM   22  N   UNL     1      -6.686  12.583  69.019  1.00  0.00    -0.099 NA 
HETATM   23  C   UNL     1      -6.589  12.384  67.673  1.00  0.00    -0.131 A  
HETATM   24  N   UNL     1      -5.943  13.340  67.002  1.00  0.00    -0.053 NA 
ENDBRANCH  19  20
ENDBRANCH  13  19
ENDBRANCH   2   8
TORSDOF 5
ENDMDL
MODEL      244
REMARK 921   NORMALIZED FREE ENERGY PREDICTED BY IDOCK:   -2.42 KCAL/MOL
REMARK 922        TOTAL FREE ENERGY PREDICTED BY IDOCK:   -3.92 KCAL/MOL
REMARK 923 INTER-LIGAND FREE ENERGY PREDICTED BY IDOCK:   -3.04 KCAL/MOL
REMARK 924 INTRA-LIGAND FREE ENERGY PREDICTED BY IDOCK:   -0.88 KCAL/MOL
REMARK 927      BINDING AFFINITY PREDICTED BY RF-SCORE:    0.00 PKD
ROOT
HETATM    1  C   UNL     1      -7.620   5.644  63.674  1.00  0.00    -0.081 C  
HETATM    2  C   UNL     1      -8.192   4.371  64.337  1.00  0.00    -0.104 C  
HETATM    3  C   UNL     1      -9.254   3.797  63.369  1.00  0.00    -0.112 C  
ENDROOT
BRANCH   2   4
HETATM    4  C   UNL     1      -7.085   3.332  64.416  1.00  0.00    -0.057 C  
HETATM    5  H2  UNL     1      -5.756   2.843  65.339  1.00  0.00     0.000 HD 
HETATM    6  N   UNL     1      -6.166   2.470  64.483  1.00  0.00    -0.018 NA 
HETATM    7  H1  UNL     1      -5.424   1.774  64.535  1.00  0.00     0.000 HD 
ENDBRANCH   2   4
BRANCH   2   8
HETATM    8  C   UNL     1      -8.692   4.704  65.739  1.00  0.00    -0.124 A  
HETATM    9  C   UNL     1      -9.053   4.065  68.088  1.00  0.00    -0.179 A  
HETATM   10  C   UNL     1      -8.572   3.793  66.793  1.00  0.00    -0.108 A  
HETATM   11  C   UNL     1      -9.683   5.302  68.306  1.00  0.00    -0.185 A  
HETATM   12  C   UNL     1      -9.320   5.935  66.002  1.00  0.00    -0.117 A  
HETATM   13  C   UNL     1      -9.840   6.235  67.267  1.00  0.00    -0.165 A  
BRANCH   9  14
HETATM   14  C   UNL     1      -8.884   2.981  69.171  1.00  0.00    -0.155 C  
HETATM   15  C   UNL     1      -7.432   2.741  69.431  1.00  0.00    -0.044 C  
HETATM   16  C   UNL     1      -9.545   3.471  70.481  1.00  0.00    -0.246 C  
HETATM   17  C   UNL     1      -9.516   1.632  68.795  1.00  0.00    -0.208 C  
HETATM   18  N   UNL     1      -6.304   2.570  69.647  1.00  0.00    -0.028 NA 
ENDBRANCH   9  14
BRANCH  13  19
HETATM   19  C   UNL     1     -10.627   7.509  67.476  1.00  0.00    -0.261 C  
BRANCH  19  20
HETATM   20  N   UNL     1      -9.871   8.725  67.236  1.00  0.00    -0.185 NA 
HETATM   21  C   UNL     1     -10.098   9.681  66.293  1.00  0.00    -0.252 A  
HETATM   22  N   UNL     1      -9.378  10.746  66.563  1.00  0.00    -0.165 NA 
HETATM   23  C   UNL     1      -8.722  10.393  67.706  1.00  0.00    -0.122 A  
HETATM   24  N   UNL     1      -8.985   9.164  68.157  1.00  0.00    -0.129 NA 
ENDBRANCH  19  20
ENDBRANCH  13  19
ENDBRANCH   2   8
TORSDOF 5
ENDMDL
MODEL      245
REMARK 921   NORMALIZED FREE ENERGY PREDICTED BY IDOCK:   -2.28 KCAL/MOL
REMARK 922        TOTAL FREE ENERGY PREDICTED BY IDOCK:   -3.74 KCAL/MOL
REMARK 923 INTER-LIGAND FREE ENERGY PREDICTED BY IDOCK:   -3.03 KCAL/MOL
REMARK 924 INTRA-LIGAND FREE ENERGY PREDICTED BY IDOCK:   -0.71 KCAL/MOL
REMARK 927      BINDING AFFINITY PREDICTED BY RF-SCORE:    0.00 PKD
ROOT
HETATM    1  C   UNL     1      -7.570  10.398  69.892  1.00  0.00    -0.112 C  
HETATM    2  C   UNL     1      -8.480  10.138  68.670  1.00  0.00    -0.122 C  
HETATM    3  C   UNL     1      -9.834  10.827  68.962  1.00  0.00    -0.208 C  
ENDROOT
BRANCH   2   4
HETATM    4  C   UNL     1      -7.888  10.858  67.469  1.00  0.00    -0.114 C  
HETATM    5  H2  UNL     1      -6.787  10.683  66.198  1.00  0.00     0.000 HD 
HETATM    6  N   UNL     1      -7.397  11.454  66.472  1.00  0.00    -0.301 NA 
HETATM    7  H1  UNL     1      -7.000  11.937  65.666  1.00  0.00     0.000 HD 
ENDBRANCH   2   4
BRANCH   2   8
HETATM    8  C   UNL     1      -8.551   8.639  68.394  1.00  0.00    -0.135 A  
HETATM    9  C   UNL     1      -8.658   6.320  69.207  1.00  0.00    -0.124 A  
HETATM   10  C   UNL     1      -8.623   7.709  69.435  1.00  0.00    -0.136 A  
HETATM   11  C   UNL     1      -8.606   5.873  67.876  1.00  0.00    -0.105 A  
HETATM   12  C   UNL     1      -8.511   8.151  67.076  1.00  0.00    -0.120 A  
HETATM   13  C   UNL     1      -8.513   6.777  66.804  1.00  0.00    -0.117 A  
BRANCH   9  14
HETATM   14  C   UNL     1      -8.721   5.382  70.429  1.00  0.00    -0.136 C  
HETATM   15  C   UNL     1      -7.369   4.803  70.699  1.00  0.00    -0.056 C  
HETATM   16  C   UNL     1      -9.162   6.198  71.668  1.00  0.00    -0.150 C  
HETATM   17  C   UNL     1      -9.700   4.211  70.258  1.00  0.00    -0.277 C  
HETATM   18  N   UNL     1      -6.315   4.369  70.918  1.00  0.00    -0.021 NA 
ENDBRANCH   9  14
BRANCH  13  19
HETATM   19  C   UNL     1      -8.334   6.288  65.385  1.00  0.00    -0.148 C  
BRANCH  19  20
HETATM   20  N   UNL     1      -8.547   4.862  65.213  1.00  0.00    -0.136 NA 
HETATM   21  C   UNL     1      -9.732   4.190  65.178  1.00  0.00    -0.197 A  
HETATM   22  N   UNL     1      -9.532   2.969  64.737  1.00  0.00    -0.151 NA 
HETATM   23  C   UNL     1      -8.188   2.942  64.501  1.00  0.00    -0.086 A  
HETATM   24  N   UNL     1      -7.539   4.074  64.781  1.00  0.00    -0.076 NA 
ENDBRANCH  19  20
ENDBRANCH  13  19
ENDBRANCH   2   8
TORSDOF 5
ENDMDL
MODEL      246
REMARK 921   NORMALIZED FREE ENERGY PREDICTED BY IDOCK:   -2.26 KCAL/MOL
REMARK 922        TOTAL FREE ENERGY PREDICTED BY IDOCK:   -3.71 KCAL/MOL
REMARK 923 INTER-LIGAND FREE ENERGY PREDICTED BY IDOCK:   -2.79 KCAL/MOL
REMARK 924 INTRA-LIGAND FREE ENERGY PREDICTED BY IDOCK:   -0.92 KCAL/MOL
REMARK 927      BINDING AFFINITY PREDICTED BY RF-SCORE:    0.00 PKD
ROOT
HETATM    1  C   UNL     1     -11.449   8.942  69.545  1.00  0.00     0.335 C  
HETATM    2  C   UNL     1     -10.910   7.534  69.886  1.00  0.00    -0.250 C  
HETATM    3  C   UNL     1     -11.938   6.877  70.836  1.00  0.00    -0.430 C  
ENDROOT
BRANCH   2   4
HETATM    4  C   UNL     1     -10.913   6.699  68.615  1.00  0.00    -0.251 C  
HETATM    5  H2  UNL     1     -11.181   6.778  66.948  1.00  0.00     0.000 HD 
HETATM    6  N   UNL     1     -10.916   6.007  67.561  1.00  0.00    -0.410 NA 
HETATM    7  H1  UNL     1     -10.918   5.447  66.709  1.00  0.00     0.000 HD 
ENDBRANCH   2   4
BRANCH   2   8
HETATM    8  C   UNL     1      -9.490   7.648  70.429  1.00  0.00    -0.164 A  
HETATM    9  C   UNL     1      -7.902   7.511  72.304  1.00  0.00    -0.109 A  
HETATM   10  C   UNL     1      -9.199   7.384  71.771  1.00  0.00    -0.155 A  
HETATM   11  C   UNL     1      -6.877   7.931  71.439  1.00  0.00    -0.047 A  
HETATM   12  C   UNL     1      -8.434   8.056  69.595  1.00  0.00    -0.131 A  
HETATM   13  C   UNL     1      -7.135   8.226  70.089  1.00  0.00    -0.040 A  
BRANCH   9  14
HETATM   14  C   UNL     1      -7.696   7.211  73.802  1.00  0.00    -0.122 C  
HETATM   15  C   UNL     1      -6.734   6.080  73.970  1.00  0.00    -0.080 C  
HETATM   16  C   UNL     1      -7.106   8.465  74.490  1.00  0.00    -0.232 C  
HETATM   17  C   UNL     1      -8.991   6.830  74.536  1.00  0.00    -0.221 C  
HETATM   18  N   UNL     1      -5.971   5.214  74.099  1.00  0.00    -0.048 NA 
ENDBRANCH   9  14
BRANCH  13  19
HETATM   19  C   UNL     1      -6.056   8.794  69.196  1.00  0.00    -0.043 C  
BRANCH  19  20
HETATM   20  N   UNL     1      -6.454   9.977  68.455  1.00  0.00    -0.053 NA 
HETATM   21  C   UNL     1      -6.526  11.262  68.901  1.00  0.00    -0.063 A  
HETATM   22  N   UNL     1      -6.659  12.076  67.880  1.00  0.00    -0.069 NA 
HETATM   23  C   UNL     1      -6.655  11.231  66.809  1.00  0.00    -0.140 A  
HETATM   24  N   UNL     1      -6.536   9.935  67.107  1.00  0.00    -0.069 NA 
ENDBRANCH  19  20
ENDBRANCH  13  19
ENDBRANCH   2   8
TORSDOF 5
ENDMDL
MODEL      247
REMARK 921   NORMALIZED FREE ENERGY PREDICTED BY IDOCK:   -2.22 KCAL/MOL
REMARK 922        TOTAL FREE ENERGY PREDICTED BY IDOCK:   -3.66 KCAL/MOL
REMARK 923 INTER-LIGAND FREE ENERGY PREDICTED BY IDOCK:   -2.76 KCAL/MOL
REMARK 924 INTRA-LIGAND FREE ENERGY PREDICTED BY IDOCK:   -0.91 KCAL/MOL
REMARK 927      BINDING AFFINITY PREDICTED BY RF-SCORE:    0.00 PKD
ROOT
HETATM    1  C   UNL     1      -8.980   4.899  62.380  1.00  0.00    -0.104 C  
HETATM    2  C   UNL     1      -9.181   4.173  63.730  1.00  0.00    -0.141 C  
HETATM    3  C   UNL     1     -10.684   3.823  63.833  1.00  0.00    -0.257 C  
ENDROOT
BRANCH   2   4
HETATM    4  C   UNL     1      -8.439   2.847  63.677  1.00  0.00    -0.086 C  
HETATM    5  H2  UNL     1      -7.644   1.706  64.638  1.00  0.00     0.000 HD 
HETATM    6  N   UNL     1      -7.824   1.747  63.635  1.00  0.00    -0.060 NA 
HETATM    7  H1  UNL     1      -7.327   0.858  63.599  1.00  0.00     0.000 HD 
ENDBRANCH   2   4
BRANCH   2   8
HETATM    8  C   UNL     1      -8.627   5.033  64.861  1.00  0.00    -0.150 A  
HETATM    9  C   UNL     1      -8.131   5.364  67.248  1.00  0.00    -0.101 A  
HETATM   10  C   UNL     1      -8.609   4.578  66.183  1.00  0.00    -0.113 A  
HETATM   11  C   UNL     1      -7.668   6.658  66.951  1.00  0.00    -0.106 A  
HETATM   12  C   UNL     1      -8.145   6.330  64.605  1.00  0.00    -0.115 A  
HETATM   13  C   UNL     1      -7.689   7.158  65.638  1.00  0.00    -0.102 A  
BRANCH   9  14
HETATM   14  C   UNL     1      -8.173   4.769  68.670  1.00  0.00    -0.083 C  
HETATM   15  C   UNL     1      -6.933   5.141  69.416  1.00  0.00    -0.055 C  
HETATM   16  C   UNL     1      -9.394   5.350  69.423  1.00  0.00    -0.164 C  
HETATM   17  C   UNL     1      -8.286   3.237  68.692  1.00  0.00    -0.075 C  
HETATM   18  N   UNL     1      -5.978   5.446  70.002  1.00  0.00    -0.017 NA 
ENDBRANCH   9  14
BRANCH  13  19
HETATM   19  C   UNL     1      -7.307   8.591  65.344  1.00  0.00    -0.084 C  
BRANCH  19  20
HETATM   20  N   UNL     1      -8.339   9.562  65.658  1.00  0.00    -0.122 NA 
HETATM   21  C   UNL     1      -9.471   9.840  64.952  1.00  0.00    -0.265 A  
HETATM   22  N   UNL     1     -10.278  10.571  65.686  1.00  0.00    -0.262 NA 
HETATM   23  C   UNL     1      -9.591  10.710  66.857  1.00  0.00    -0.171 A  
HETATM   24  N   UNL     1      -8.396  10.115  66.889  1.00  0.00    -0.122 NA 
ENDBRANCH  19  20
ENDBRANCH  13  19
ENDBRANCH   2   8
TORSDOF 5
ENDMDL
MODEL      248
REMARK 921   NORMALIZED FREE ENERGY PREDICTED BY IDOCK:   -2.22 KCAL/MOL
REMARK 922        TOTAL FREE ENERGY PREDICTED BY IDOCK:   -3.66 KCAL/MOL
REMARK 923 INTER-LIGAND FREE ENERGY PREDICTED BY IDOCK:   -3.13 KCAL/MOL
REMARK 924 INTRA-LIGAND FREE ENERGY PREDICTED BY IDOCK:   -0.53 KCAL/MOL
REMARK 927      BINDING AFFINITY PREDICTED BY RF-SCORE:    0.00 PKD
ROOT
HETATM    1  C   UNL     1     -10.651   8.283  68.224  1.00  0.00    -0.157 C  
HETATM    2  C   UNL     1     -10.520   6.760  68.456  1.00  0.00    -0.234 C  
HETATM    3  C   UNL     1     -11.601   6.368  69.491  1.00  0.00    -0.303 C  
ENDROOT
BRANCH   2   4
HETATM    4  C   UNL     1     -10.888   6.045  67.167  1.00  0.00    -0.329 C  
HETATM    5  H2  UNL     1     -11.474   6.299  65.602  1.00  0.00     0.000 HD 
HETATM    6  N   UNL     1     -11.194   5.452  66.096  1.00  0.00    -0.750 NA 
HETATM    7  H1  UNL     1     -11.441   4.972  65.231  1.00  0.00     0.000 HD 
ENDBRANCH   2   4
BRANCH   2   8
HETATM    8  C   UNL     1      -9.084   6.424  68.845  1.00  0.00    -0.129 A  
HETATM    9  C   UNL     1      -7.156   6.699  70.350  1.00  0.00    -0.068 A  
HETATM   10  C   UNL     1      -8.490   6.970  69.986  1.00  0.00    -0.140 A  
HETATM   11  C   UNL     1      -6.409   5.853  69.512  1.00  0.00    -0.041 A  
HETATM   12  C   UNL     1      -8.304   5.574  68.040  1.00  0.00    -0.099 A  
HETATM   13  C   UNL     1      -6.965   5.302  68.346  1.00  0.00    -0.061 A  
BRANCH   9  14
HETATM   14  C   UNL     1      -6.597   7.369  71.620  1.00  0.00    -0.046 C  
HETATM   15  C   UNL     1      -6.640   8.856  71.475  1.00  0.00    -0.080 C  
HETATM   16  C   UNL     1      -7.474   6.967  72.830  1.00  0.00    -0.082 C  
HETATM   17  C   UNL     1      -5.145   6.976  71.934  1.00  0.00    -0.028 C  
HETATM   18  N   UNL     1      -6.692  10.011  71.369  1.00  0.00    -0.200 NA 
ENDBRANCH   9  14
BRANCH  13  19
HETATM   19  C   UNL     1      -6.120   4.494  67.387  1.00  0.00    -0.027 C  
BRANCH  19  20
HETATM   20  N   UNL     1      -6.778   4.177  66.132  1.00  0.00    -0.048 NA 
HETATM   21  C   UNL     1      -7.418   3.024  65.789  1.00  0.00    -0.073 A  
HETATM   22  N   UNL     1      -8.112   3.216  64.690  1.00  0.00    -0.086 NA 
HETATM   23  C   UNL     1      -7.869   4.526  64.397  1.00  0.00    -0.086 A  
HETATM   24  N   UNL     1      -7.056   5.158  65.246  1.00  0.00    -0.065 NA 
ENDBRANCH  19  20
ENDBRANCH  13  19
ENDBRANCH   2   8
TORSDOF 5
ENDMDL
MODEL      249
REMARK 921   NORMALIZED FREE ENERGY PREDICTED BY IDOCK:   -2.06 KCAL/MOL
REMARK 922        TOTAL FREE ENERGY PREDICTED BY IDOCK:   -3.45 KCAL/MOL
REMARK 923 INTER-LIGAND FREE ENERGY PREDICTED BY IDOCK:   -3.11 KCAL/MOL
REMARK 924 INTRA-LIGAND FREE ENERGY PREDICTED BY IDOCK:   -0.34 KCAL/MOL
REMARK 927      BINDING AFFINITY PREDICTED BY RF-SCORE:    0.00 PKD
ROOT
HETATM    1  C   UNL     1      -8.190   7.044  67.477  1.00  0.00    -0.116 C  
HETATM    2  C   UNL     1      -8.055   8.234  68.455  1.00  0.00    -0.127 C  
HETATM    3  C   UNL     1      -6.607   8.206  68.999  1.00  0.00    -0.048 C  
ENDROOT
BRANCH   2   4
HETATM    4  C   UNL     1      -8.184   9.524  67.661  1.00  0.00    -0.121 C  
HETATM    5  H2  UNL     1      -7.945  11.195  67.751  1.00  0.00     0.000 HD 
HETATM    6  N   UNL     1      -8.291  10.595  67.003  1.00  0.00    -0.125 NA 
HETATM    7  H1  UNL     1      -8.378  11.460  66.470  1.00  0.00     0.000 HD 
ENDBRANCH   2   4
BRANCH   2   8
HETATM    8  C   UNL     1      -9.155   8.160  69.508  1.00  0.00    -0.151 A  
HETATM    9  C   UNL     1     -11.204   9.067  70.525  1.00  0.00    -0.301 A  
HETATM   10  C   UNL     1     -10.194   9.095  69.545  1.00  0.00    -0.208 A  
HETATM   11  C   UNL     1     -11.141   8.057  71.501  1.00  0.00    -0.290 A  
HETATM   12  C   UNL     1      -9.135   7.160  70.496  1.00  0.00    -0.155 A  
HETATM   13  C   UNL     1     -10.101   7.111  71.508  1.00  0.00    -0.197 A  
BRANCH   9  14
HETATM   14  C   UNL     1     -12.292  10.157  70.483  1.00  0.00    -0.330 C  
HETATM   15  C   UNL     1     -12.234  10.888  69.180  1.00  0.00    -0.110 C  
HETATM   16  C   UNL     1     -13.682   9.488  70.610  1.00  0.00     0.277 C  
HETATM   17  C   UNL     1     -12.163  11.200  71.604  1.00  0.00     0.014 C  
HETATM   18  N   UNL     1     -12.199  11.441  68.159  1.00  0.00    -0.523 NA 
ENDBRANCH   9  14
BRANCH  13  19
HETATM   19  C   UNL     1      -9.971   6.106  72.630  1.00  0.00    -0.175 C  
BRANCH  19  20
HETATM   20  N   UNL     1      -8.726   5.359  72.622  1.00  0.00    -0.124 NA 
HETATM   21  C   UNL     1      -8.519   4.077  72.211  1.00  0.00    -0.102 A  
HETATM   22  N   UNL     1      -7.230   3.852  72.100  1.00  0.00    -0.050 NA 
HETATM   23  C   UNL     1      -6.677   5.050  72.450  1.00  0.00    -0.057 A  
HETATM   24  N   UNL     1      -7.550   6.004  72.783  1.00  0.00    -0.095 NA 
ENDBRANCH  19  20
ENDBRANCH  13  19
ENDBRANCH   2   8
TORSDOF 5
ENDMDL
MODEL      250
REMARK 921   NORMALIZED FREE ENERGY PREDICTED BY IDOCK:   -1.96 KCAL/MOL
REMARK 922        TOTAL FREE ENERGY PREDICTED BY IDOCK:   -3.33 KCAL/MOL
REMARK 923 INTER-LIGAND FREE ENERGY PREDICTED BY IDOCK:   -2.44 KCAL/MOL
REMARK 924 INTRA-LIGAND FREE ENERGY PREDICTED BY IDOCK:   -0.89 KCAL/MOL
REMARK 927      BINDING AFFINITY PREDICTED BY RF-SCORE:    0.00 PKD
ROOT
HETATM    1  C   UNL     1      -6.416  10.653  70.280  1.00  0.00    -0.138 C  
HETATM    2  C   UNL     1      -7.020  10.310  68.899  1.00  0.00    -0.065 C  
HETATM    3  C   UNL     1      -8.255  11.222  68.709  1.00  0.00    -0.122 C  
ENDROOT
BRANCH   2   4
HETATM    4  C   UNL     1      -6.023  10.717  67.826  1.00  0.00    -0.043 C  
HETATM    5  H2  UNL     1      -4.614  11.611  67.562  1.00  0.00     0.000 HD 
HETATM    6  N   UNL     1      -5.196  11.055  66.936  1.00  0.00    -0.055 NA 
HETATM    7  H1  UNL     1      -4.527  11.328  66.216  1.00  0.00     0.000 HD 
ENDBRANCH   2   4
BRANCH   2   8
HETATM    8  C   UNL     1      -7.290   8.811  68.816  1.00  0.00    -0.083 A  
HETATM    9  C   UNL     1      -8.825   6.937  68.390  1.00  0.00    -0.123 A  
HETATM   10  C   UNL     1      -8.542   8.315  68.444  1.00  0.00    -0.133 A  
HETATM   11  C   UNL     1      -7.797   6.043  68.737  1.00  0.00    -0.100 A  
HETATM   12  C   UNL     1      -6.285   7.884  69.146  1.00  0.00    -0.035 A  
HETATM   13  C   UNL     1      -6.531   6.505  69.136  1.00  0.00    -0.040 A  
BRANCH   9  14
HETATM   14  C   UNL     1     -10.246   6.500  67.984  1.00  0.00    -0.192 C  
HETATM   15  C   UNL     1     -11.101   6.344  69.200  1.00  0.00    -0.365 C  
HETATM   16  C   UNL     1     -10.870   7.591  67.080  1.00  0.00    -0.298 C  
HETATM   17  C   UNL     1     -10.285   5.169  67.217  1.00  0.00    -0.239 C  
HETATM   18  N   UNL     1     -11.769   6.242  70.145  1.00  0.00    -0.335 NA 
ENDBRANCH   9  14
BRANCH  13  19
HETATM   19  C   UNL     1      -5.471   5.545  69.626  1.00  0.00    -0.004 C  
BRANCH  19  20
HETATM   20  N   UNL     1      -5.749   4.959  70.924  1.00  0.00    -0.015 NA 
HETATM   21  C   UNL     1      -6.319   3.751  71.194  1.00  0.00    -0.018 A  
HETATM   22  N   UNL     1      -6.154   3.461  72.464  1.00  0.00    -0.009 NA 
HETATM   23  C   UNL     1      -5.457   4.533  72.938  1.00  0.00    -0.008 A  
HETATM   24  N   UNL     1      -5.187   5.480  72.036  1.00  0.00    -0.015 NA 
ENDBRANCH  19  20
ENDBRANCH  13  19
ENDBRANCH   2   8
TORSDOF 5
ENDMDL
MODEL      251
REMARK 921   NORMALIZED FREE ENERGY PREDICTED BY IDOCK:   -1.65 KCAL/MOL
REMARK 922        TOTAL FREE ENERGY PREDICTED BY IDOCK:   -2.92 KCAL/MOL
REMARK 923 INTER-LIGAND FREE ENERGY PREDICTED BY IDOCK:   -2.22 KCAL/MOL
REMARK 924 INTRA-LIGAND FREE ENERGY PREDICTED BY IDOCK:   -0.70 KCAL/MOL
REMARK 927      BINDING AFFINITY PREDICTED BY RF-SCORE:    0.00 PKD
ROOT
HETATM    1  C   UNL     1      -7.275   7.723  67.240  1.00  0.00    -0.090 C  
HETATM    2  C   UNL     1      -7.576   8.483  68.552  1.00  0.00    -0.095 C  
HETATM    3  C   UNL     1      -6.307   8.380  69.432  1.00  0.00    -0.038 C  
ENDROOT
BRANCH   2   4
HETATM    4  C   UNL     1      -7.746   9.958  68.225  1.00  0.00    -0.085 C  
HETATM    5  H2  UNL     1      -7.835  11.054  66.941  1.00  0.00     0.000 HD 
HETATM    6  N   UNL     1      -7.887  11.181  67.951  1.00  0.00    -0.108 NA 
HETATM    7  H1  UNL     1      -8.001  12.170  67.732  1.00  0.00     0.000 HD 
ENDBRANCH   2   4
BRANCH   2   8
HETATM    8  C   UNL     1      -8.856   7.939  69.178  1.00  0.00    -0.142 A  
HETATM    9  C   UNL     1     -11.025   8.316  70.276  1.00  0.00    -0.233 A  
HETATM   10  C   UNL     1      -9.849   8.793  69.667  1.00  0.00    -0.183 A  
HETATM   11  C   UNL     1     -11.182   6.924  70.396  1.00  0.00    -0.359 A  
HETATM   12  C   UNL     1      -9.056   6.553  69.308  1.00  0.00    -0.137 A  
HETATM   13  C   UNL     1     -10.197   6.035  69.934  1.00  0.00    -0.265 A  
BRANCH   9  14
HETATM   14  C   UNL     1     -12.047   9.347  70.796  1.00  0.00    -0.270 C  
HETATM   15  C   UNL     1     -12.302  10.385  69.752  1.00  0.00    -0.053 C  
HETATM   16  C   UNL     1     -13.379   8.623  71.107  1.00  0.00    -0.059 C  
HETATM   17  C   UNL     1     -11.592  10.074  72.071  1.00  0.00     0.558 C  
HETATM   18  N   UNL     1     -12.514  11.180  68.932  1.00  0.00    -0.352 NA 
ENDBRANCH   9  14
BRANCH  13  19
HETATM   19  C   UNL     1     -10.315   4.547  70.177  1.00  0.00     0.131 C  
BRANCH  19  20
HETATM   20  N   UNL     1      -9.186   3.772  69.696  1.00  0.00    -0.135 NA 
HETATM   21  C   UNL     1      -8.065   3.409  70.381  1.00  0.00    -0.045 A  
HETATM   22  N   UNL     1      -7.412   2.494  69.703  1.00  0.00    -0.044 NA 
HETATM   23  C   UNL     1      -8.188   2.318  68.595  1.00  0.00    -0.056 A  
HETATM   24  N   UNL     1      -9.283   3.079  68.541  1.00  0.00    -0.160 NA 
ENDBRANCH  19  20
ENDBRANCH  13  19
ENDBRANCH   2   8
TORSDOF 5
ENDMDL
MODEL      252
REMARK 921   NORMALIZED FREE ENERGY PREDICTED BY IDOCK:   -1.62 KCAL/MOL
REMARK 922        TOTAL FREE ENERGY PREDICTED BY IDOCK:   -2.88 KCAL/MOL
REMARK 923 INTER-LIGAND FREE ENERGY PREDICTED BY IDOCK:   -2.41 KCAL/MOL
REMARK 924 INTRA-LIGAND FREE ENERGY PREDICTED BY IDOCK:   -0.48 KCAL/MOL
REMARK 927      BINDING AFFINITY PREDICTED BY RF-SCORE:    0.00 PKD
ROOT
HETATM    1  C   UNL     1     -13.720  13.014  70.175  1.00  0.00     2.564 C  
HETATM    2  C   UNL     1     -12.569  12.337  70.955  1.00  0.00    -0.334 C  
HETATM    3  C   UNL     1     -12.058  13.370  71.987  1.00  0.00     0.774 C  
ENDROOT
BRANCH   2   4
HETATM    4  C   UNL     1     -13.148  11.184  71.759  1.00  0.00    -0.431 C  
HETATM    5  H2  UNL     1     -12.730   9.923  72.804  1.00  0.00     0.000 HD 
HETATM    6  N   UNL     1     -13.627  10.228  72.427  1.00  0.00    -0.554 NA 
HETATM    7  H1  UNL     1     -14.015   9.454  72.966  1.00  0.00     0.000 HD 
ENDBRANCH   2   4
BRANCH   2   8
HETATM    8  C   UNL     1     -11.525  11.814  69.974  1.00  0.00    -0.234 A  
HETATM    9  C   UNL     1      -9.871  10.113  69.320  1.00  0.00    -0.235 A  
HETATM   10  C   UNL     1     -10.861  10.603  70.193  1.00  0.00    -0.224 A  
HETATM   11  C   UNL     1      -9.546  10.892  68.196  1.00  0.00    -0.169 A  
HETATM   12  C   UNL     1     -11.178  12.558  68.833  1.00  0.00    -0.330 A  
HETATM   13  C   UNL     1     -10.177  12.124  67.953  1.00  0.00    -0.203 A  
BRANCH   9  14
HETATM   14  C   UNL     1      -9.190   8.775  69.667  1.00  0.00    -0.150 C  
HETATM   15  C   UNL     1      -9.233   7.858  68.487  1.00  0.00    -0.138 C  
HETATM   16  C   UNL     1      -7.710   9.041  70.030  1.00  0.00    -0.082 C  
HETATM   17  C   UNL     1      -9.844   8.039  70.847  1.00  0.00    -0.195 C  
HETATM   18  N   UNL     1      -9.249   7.155  67.563  1.00  0.00    -0.125 NA 
ENDBRANCH   9  14
BRANCH  13  19
HETATM   19  C   UNL     1      -9.737  13.014  66.813  1.00  0.00    -0.248 C  
BRANCH  19  20
HETATM   20  N   UNL     1     -10.737  13.197  65.777  1.00  0.00    -0.276 NA 
HETATM   21  C   UNL     1     -12.088  13.053  65.881  1.00  0.00    -0.444 A  
HETATM   22  N   UNL     1     -12.668  13.564  64.819  1.00  0.00    -0.680 NA 
HETATM   23  C   UNL     1     -11.615  14.026  64.084  1.00  0.00    -0.266 A  
HETATM   24  N   UNL     1     -10.412  13.822  64.625  1.00  0.00    -0.431 NA 
ENDBRANCH  19  20
ENDBRANCH  13  19
ENDBRANCH   2   8
TORSDOF 5
ENDMDL
MODEL      253
REMARK 921   NORMALIZED FREE ENERGY PREDICTED BY IDOCK:   -1.20 KCAL/MOL
REMARK 922        TOTAL FREE ENERGY PREDICTED BY IDOCK:   -2.34 KCAL/MOL
REMARK 923 INTER-LIGAND FREE ENERGY PREDICTED BY IDOCK:   -2.00 KCAL/MOL
REMARK 924 INTRA-LIGAND FREE ENERGY PREDICTED BY IDOCK:   -0.34 KCAL/MOL
REMARK 927      BINDING AFFINITY PREDICTED BY RF-SCORE:    0.00 PKD
ROOT
HETATM    1  C   UNL     1      -6.202  14.479  70.290  1.00  0.00    -0.176 C  
HETATM    2  C   UNL     1      -6.506  14.235  68.794  1.00  0.00    -0.089 C  
HETATM    3  C   UNL     1      -5.522  15.113  67.986  1.00  0.00    -0.142 C  
ENDROOT
BRANCH   2   4
HETATM    4  C   UNL     1      -6.157  12.792  68.463  1.00  0.00    -0.067 C  
HETATM    5  H2  UNL     1      -6.181  11.221  69.085  1.00  0.00     0.000 HD 
HETATM    6  N   UNL     1      -5.868  11.596  68.190  1.00  0.00    -0.046 NA 
HETATM    7  H1  UNL     1      -5.634  10.629  67.968  1.00  0.00     0.000 HD 
ENDBRANCH   2   4
BRANCH   2   8
HETATM    8  C   UNL     1      -7.986  14.486  68.525  1.00  0.00    -0.142 A  
HETATM    9  C   UNL     1     -10.141  13.758  67.586  1.00  0.00    -0.242 A  
HETATM   10  C   UNL     1      -8.780  13.537  67.874  1.00  0.00    -0.183 A  
HETATM   11  C   UNL     1     -10.699  14.990  67.967  1.00  0.00    -0.262 A  
HETATM   12  C   UNL     1      -8.586  15.702  68.899  1.00  0.00    -0.211 A  
HETATM   13  C   UNL     1      -9.927  15.976  68.605  1.00  0.00    -0.220 A  
BRANCH   9  14
HETATM   14  C   UNL     1     -10.919  12.651  66.848  1.00  0.00    -0.297 C  
HETATM   15  C   UNL     1     -11.991  13.257  66.001  1.00  0.00    -0.423 C  
HETATM   16  C   UNL     1      -9.944  11.877  65.928  1.00  0.00    -0.261 C  
HETATM   17  C   UNL     1     -11.589  11.638  67.789  1.00  0.00    -0.359 C  
HETATM   18  N   UNL     1     -12.811  13.730  65.329  1.00  0.00    -0.737 NA 
ENDBRANCH   9  14
BRANCH  13  19
HETATM   19  C   UNL     1     -10.500  17.344  68.901  1.00  0.00    -0.312 C  
BRANCH  19  20
HETATM   20  N   UNL     1      -9.505  18.358  69.196  1.00  0.00    -0.107 NA 
HETATM   21  C   UNL     1      -9.295  19.009  70.374  1.00  0.00     1.898 A  
HETATM   22  N   UNL     1      -8.146  19.644  70.327  1.00  0.00     0.939 NA 
HETATM   23  C   UNL     1      -7.676  19.339  69.083  1.00  0.00    -0.237 A  
HETATM   24  N   UNL     1      -8.472  18.559  68.349  1.00  0.00    -0.321 NA 
ENDBRANCH  19  20
ENDBRANCH  13  19
ENDBRANCH   2   8
TORSDOF 5
ENDMDL
MODEL      254
REMARK 921   NORMALIZED FREE ENERGY PREDICTED BY IDOCK:   -0.21 KCAL/MOL
REMARK 922        TOTAL FREE ENERGY PREDICTED BY IDOCK:   -1.06 KCAL/MOL
REMARK 923 INTER-LIGAND FREE ENERGY PREDICTED BY IDOCK:   -0.26 KCAL/MOL
REMARK 924 INTRA-LIGAND FREE ENERGY PREDICTED BY IDOCK:   -0.79 KCAL/MOL
REMARK 927      BINDING AFFINITY PREDICTED BY RF-SCORE:    0.00 PKD
ROOT
HETATM    1  C   UNL     1      -7.121  14.724  72.113  1.00  0.00     2.850 C  
HETATM    2  C   UNL     1      -6.463  14.976  70.738  1.00  0.00     0.219 C  
HETATM    3  C   UNL     1      -5.254  15.911  70.981  1.00  0.00    -0.112 C  
ENDROOT
BRANCH   2   4
HETATM    4  C   UNL     1      -5.887  13.662  70.234  1.00  0.00    -0.155 C  
HETATM    5  H2  UNL     1      -4.441  12.897  69.808  1.00  0.00     0.000 HD 
HETATM    6  N   UNL     1      -5.408  12.572  69.817  1.00  0.00    -0.079 NA 
HETATM    7  H1  UNL     1      -5.022  11.691  69.479  1.00  0.00     0.000 HD 
ENDBRANCH   2   4
BRANCH   2   8
HETATM    8  C   UNL     1      -7.508  15.494  69.756  1.00  0.00    -0.081 A  
HETATM    9  C   UNL     1      -9.552  15.148  68.430  1.00  0.00    -0.212 A  
HETATM   10  C   UNL     1      -8.590  14.704  69.358  1.00  0.00     0.110 A  
HETATM   11  C   UNL     1      -9.393  16.435  67.887  1.00  0.00    -0.214 A  
HETATM   12  C   UNL     1      -7.391  16.780  69.198  1.00  0.00    -0.213 A  
HETATM   13  C   UNL     1      -8.307  17.251  68.248  1.00  0.00    -0.242 A  
BRANCH   9  14
HETATM   14  C   UNL     1     -10.695  14.187  68.048  1.00  0.00    -0.248 C  
HETATM   15  C   UNL     1     -10.140  12.975  67.371  1.00  0.00    -0.231 C  
HETATM   16  C   UNL     1     -11.428  13.739  69.335  1.00  0.00    -0.341 C  
HETATM   17  C   UNL     1     -11.733  14.810  67.103  1.00  0.00    -0.351 C  
HETATM   18  N   UNL     1      -9.705  12.026  66.863  1.00  0.00    -0.200 NA 
ENDBRANCH   9  14
BRANCH  13  19
HETATM   19  C   UNL     1      -8.074  18.582  67.571  1.00  0.00    -0.251 C  
BRANCH  19  20
HETATM   20  N   UNL     1      -9.254  19.147  66.941  1.00  0.00    -0.299 NA 
HETATM   21  C   UNL     1     -10.257  19.859  67.527  1.00  0.00    -0.422 A  
HETATM   22  N   UNL     1     -10.995  20.425  66.599  1.00  0.00     0.418 NA 
HETATM   23  C   UNL     1     -10.389  20.033  65.441  1.00  0.00    -0.005 A  
HETATM   24  N   UNL     1      -9.322  19.246  65.596  1.00  0.00    -0.205 NA 
ENDBRANCH  19  20
ENDBRANCH  13  19
ENDBRANCH   2   8
TORSDOF 5
ENDMDL
MODEL      255
REMARK 921   NORMALIZED FREE ENERGY PREDICTED BY IDOCK:   -0.12 KCAL/MOL
REMARK 922        TOTAL FREE ENERGY PREDICTED BY IDOCK:   -0.95 KCAL/MOL
REMARK 923 INTER-LIGAND FREE ENERGY PREDICTED BY IDOCK:   -0.31 KCAL/MOL
REMARK 924 INTRA-LIGAND FREE ENERGY PREDICTED BY IDOCK:   -0.64 KCAL/MOL
REMARK 927      BINDING AFFINITY PREDICTED BY RF-SCORE:    0.00 PKD
ROOT
HETATM    1  C   UNL     1      -7.191  14.655  71.942  1.00  0.00     2.890 C  
HETATM    2  C   UNL     1      -6.316  14.089  70.801  1.00  0.00     0.014 C  
HETATM    3  C   UNL     1      -5.130  15.064  70.617  1.00  0.00    -0.126 C  
ENDROOT
BRANCH   2   4
HETATM    4  C   UNL     1      -5.714  12.772  71.266  1.00  0.00     0.142 C  
HETATM    5  H2  UNL     1      -4.292  12.071  71.851  1.00  0.00     0.000 HD 
HETATM    6  N   UNL     1      -5.214  11.681  71.652  1.00  0.00    -0.340 NA 
HETATM    7  H1  UNL     1      -4.810  10.798  71.963  1.00  0.00     0.000 HD 
ENDBRANCH   2   4
BRANCH   2   8
HETATM    8  C   UNL     1      -7.176  13.858  69.563  1.00  0.00     0.147 A  
HETATM    9  C   UNL     1      -7.979  12.385  67.762  1.00  0.00    -0.156 A  
HETATM   10  C   UNL     1      -7.217  12.615  68.924  1.00  0.00    -0.045 A  
HETATM   11  C   UNL     1      -8.711  13.463  67.235  1.00  0.00    -0.219 A  
HETATM   12  C   UNL     1      -7.931  14.907  69.009  1.00  0.00    -0.170 A  
HETATM   13  C   UNL     1      -8.679  14.732  67.838  1.00  0.00    -0.167 A  
BRANCH   9  14
HETATM   14  C   UNL     1      -7.937  10.980  67.130  1.00  0.00    -0.135 C  
HETATM   15  C   UNL     1      -9.270  10.644  66.543  1.00  0.00    -0.166 C  
HETATM   16  C   UNL     1      -6.883  10.969  65.996  1.00  0.00    -0.017 C  
HETATM   17  C   UNL     1      -7.576   9.867  68.125  1.00  0.00    -0.081 C  
HETATM   18  N   UNL     1     -10.300  10.392  66.070  1.00  0.00    -0.223 NA 
ENDBRANCH   9  14
BRANCH  13  19
HETATM   19  C   UNL     1      -9.368  15.916  67.198  1.00  0.00    -0.212 C  
BRANCH  19  20
HETATM   20  N   UNL     1      -9.008  17.200  67.771  1.00  0.00    -0.223 NA 
HETATM   21  C   UNL     1      -7.866  17.916  67.572  1.00  0.00    -0.212 A  
HETATM   22  N   UNL     1      -8.024  19.134  68.037  1.00  0.00    -0.287 NA 
HETATM   23  C   UNL     1      -9.303  19.119  68.513  1.00  0.00    -0.374 A  
HETATM   24  N   UNL     1      -9.946  17.958  68.378  1.00  0.00    -0.346 NA 
ENDBRANCH  19  20
ENDBRANCH  13  19
ENDBRANCH   2   8
TORSDOF 5
ENDMDL
MODEL      256
REMARK 921   NORMALIZED FREE ENERGY PREDICTED BY IDOCK:    3.44 KCAL/MOL
REMARK 922        TOTAL FREE ENERGY PREDICTED BY IDOCK:    3.65 KCAL/MOL
REMARK 923 INTER-LIGAND FREE ENERGY PREDICTED BY IDOCK:    4.46 KCAL/MOL
REMARK 924 INTRA-LIGAND FREE ENERGY PREDICTED BY IDOCK:   -0.81 KCAL/MOL
REMARK 927      BINDING AFFINITY PREDICTED BY RF-SCORE:    0.00 PKD
ROOT
HETATM    1  C   UNL     1     -10.486   8.729  66.390  1.00  0.00    -0.024 C  
HETATM    2  C   UNL     1      -9.193   9.569  66.491  1.00  0.00    -0.201 C  
HETATM    3  C   UNL     1      -8.243   9.068  65.377  1.00  0.00    -0.131 C  
ENDROOT
BRANCH   2   4
HETATM    4  C   UNL     1      -9.529  11.011  66.144  1.00  0.00    -0.203 C  
HETATM    5  H2  UNL     1     -10.787  12.019  65.637  1.00  0.00     0.000 HD 
HETATM    6  N   UNL     1      -9.809  12.206  65.856  1.00  0.00    -0.245 NA 
HETATM    7  H1  UNL     1     -10.034  13.173  65.624  1.00  0.00     0.000 HD 
ENDBRANCH   2   4
BRANCH   2   8
HETATM    8  C   UNL     1      -8.641   9.492  67.911  1.00  0.00    -0.119 A  
HETATM    9  C   UNL     1      -7.911   8.166  69.850  1.00  0.00    -0.109 A  
HETATM   10  C   UNL     1      -8.391   8.264  68.530  1.00  0.00    -0.129 A  
HETATM   11  C   UNL     1      -7.691   9.360  70.558  1.00  0.00    -0.177 A  
HETATM   12  C   UNL     1      -8.398  10.664  68.649  1.00  0.00    -0.137 A  
HETATM   13  C   UNL     1      -7.950  10.613  69.975  1.00  0.00     0.384 A  
BRANCH   9  14
HETATM   14  C   UNL     1      -7.687   6.760  70.442  1.00  0.00    -0.100 C  
HETATM   15  C   UNL     1      -6.707   6.004  69.606  1.00  0.00    -0.052 C  
HETATM   16  C   UNL     1      -7.110   6.901  71.871  1.00  0.00    -0.074 C  
HETATM   17  C   UNL     1      -8.969   5.918  70.528  1.00  0.00    -0.151 C  
HETATM   18  N   UNL     1      -5.930   5.425  68.966  1.00  0.00    -0.023 NA 
ENDBRANCH   9  14
BRANCH  13  19
HETATM   19  C   UNL     1      -7.829  11.887  70.781  1.00  0.00     5.500 C  
BRANCH  19  20
HETATM   20  N   UNL     1      -6.875  12.842  70.248  1.00  0.00     0.517 NA 
HETATM   21  C   UNL     1      -5.646  12.593  69.716  1.00  0.00    -0.101 A  
HETATM   22  N   UNL     1      -5.206  13.667  69.102  1.00  0.00    -0.073 NA 
HETATM   23  C   UNL     1      -6.220  14.562  69.280  1.00  0.00    -0.112 A  
HETATM   24  N   UNL     1      -7.263  14.108  69.979  1.00  0.00     0.225 NA 
ENDBRANCH  19  20
ENDBRANCH  13  19
ENDBRANCH   2   8
TORSDOF 5
ENDMDL
MODEL      257
REMARK 921   NORMALIZED FREE ENERGY PREDICTED BY IDOCK:   11.82 KCAL/MOL
REMARK 922        TOTAL FREE ENERGY PREDICTED BY IDOCK:   14.48 KCAL/MOL
REMARK 923 INTER-LIGAND FREE ENERGY PREDICTED BY IDOCK:   15.26 KCAL/MOL
REMARK 924 INTRA-LIGAND FREE ENERGY PREDICTED BY IDOCK:   -0.78 KCAL/MOL
REMARK 927      BINDING AFFINITY PREDICTED BY RF-SCORE:    0.00 PKD
ROOT
HETATM    1  C   UNL     1      -9.351  14.361  71.125  1.00  0.00     4.115 C  
HETATM    2  C   UNL     1      -9.649  13.916  69.675  1.00  0.00     0.961 C  
HETATM    3  C   UNL     1      -8.443  13.065  69.209  1.00  0.00     0.851 C  
ENDROOT
BRANCH   2   4
HETATM    4  C   UNL     1     -10.846  12.978  69.697  1.00  0.00     0.320 C  
HETATM    5  H2  UNL     1     -11.537  11.692  70.547  1.00  0.00     0.000 HD 
HETATM    6  N   UNL     1     -11.838  12.200  69.716  1.00  0.00    -0.333 NA 
HETATM    7  H1  UNL     1     -12.641  11.572  69.731  1.00  0.00     0.000 HD 
ENDBRANCH   2   4
BRANCH   2   8
HETATM    8  C   UNL     1      -9.962  15.138  68.818  1.00  0.00    -0.229 A  
HETATM    9  C   UNL     1     -11.075  16.157  66.875  1.00  0.00     0.011 A  
HETATM   10  C   UNL     1     -10.796  15.051  67.699  1.00  0.00    -0.291 A  
HETATM   11  C   UNL     1     -10.475  17.385  67.202  1.00  0.00    -0.305 A  
HETATM   12  C   UNL     1      -9.389  16.387  69.116  1.00  0.00    -0.224 A  
HETATM   13  C   UNL     1      -9.615  17.508  68.307  1.00  0.00    -0.299 A  
BRANCH   9  14
HETATM   14  C   UNL     1     -11.994  15.944  65.656  1.00  0.00     0.945 C  
HETATM   15  C   UNL     1     -11.172  15.709  64.431  1.00  0.00    -0.236 C  
HETATM   16  C   UNL     1     -12.879  14.698  65.903  1.00  0.00     0.185 C  
HETATM   17  C   UNL     1     -12.921  17.135  65.369  1.00  0.00     8.260 C  
HETATM   18  N   UNL     1     -10.531  15.506  63.483  1.00  0.00     2.906 NA 
ENDBRANCH   9  14
BRANCH  13  19
HETATM   19  C   UNL     1      -8.877  18.798  68.580  1.00  0.00    -0.325 C  
BRANCH  19  20
HETATM   20  N   UNL     1      -7.617  18.928  67.871  1.00  0.00    -0.254 NA 
HETATM   21  C   UNL     1      -6.358  18.930  68.392  1.00  0.00    -0.227 A  
HETATM   22  N   UNL     1      -5.482  18.794  67.423  1.00  0.00    -0.153 NA 
HETATM   23  C   UNL     1      -6.264  18.702  66.309  1.00  0.00    -0.183 A  
HETATM   24  N   UNL     1      -7.578  18.784  66.529  1.00  0.00    -0.238 NA 
ENDBRANCH  19  20
ENDBRANCH  13  19
ENDBRANCH   2   8
TORSDOF 5
ENDMDL
MODEL      258
REMARK 921   NORMALIZED FREE ENERGY PREDICTED BY IDOCK:   39.70 KCAL/MOL
REMARK 922        TOTAL FREE ENERGY PREDICTED BY IDOCK:   50.52 KCAL/MOL
REMARK 923 INTER-LIGAND FREE ENERGY PREDICTED BY IDOCK:   50.57 KCAL/MOL
REMARK 924 INTRA-LIGAND FREE ENERGY PREDICTED BY IDOCK:   -0.05 KCAL/MOL
REMARK 927      BINDING AFFINITY PREDICTED BY RF-SCORE:    0.00 PKD
ROOT
HETATM    1  C   UNL     1      -9.557  16.407  70.590  1.00  0.00     2.150 C  
HETATM    2  C   UNL     1      -8.935  17.638  69.891  1.00  0.00     1.619 C  
HETATM    3  C   UNL     1      -9.120  18.840  70.847  1.00  0.00     4.324 C  
ENDROOT
BRANCH   2   4
HETATM    4  C   UNL     1      -7.435  17.417  69.774  1.00  0.00     0.764 C  
HETATM    5  H2  UNL     1      -6.086  16.843  70.615  1.00  0.00     0.000 HD 
HETATM    6  N   UNL     1      -6.191  17.232  69.679  1.00  0.00    -0.247 NA 
HETATM    7  H1  UNL     1      -5.186  17.084  69.600  1.00  0.00     0.000 HD 
ENDBRANCH   2   4
BRANCH   2   8
HETATM    8  C   UNL     1      -9.545  17.801  68.503  1.00  0.00    -0.322 A  
HETATM    9  C   UNL     1      -9.958  16.940  66.235  1.00  0.00    -0.324 A  
HETATM   10  C   UNL     1      -9.431  16.801  67.533  1.00  0.00    -0.237 A  
HETATM   11  C   UNL     1     -10.613  18.144  65.920  1.00  0.00    -0.247 A  
HETATM   12  C   UNL     1     -10.217  18.986  68.151  1.00  0.00    -0.472 A  
HETATM   13  C   UNL     1     -10.730  19.180  66.862  1.00  0.00    -0.515 A  
BRANCH   9  14
HETATM   14  C   UNL     1      -9.759  15.781  65.239  1.00  0.00    -0.005 C  
HETATM   15  C   UNL     1     -10.986  15.610  64.403  1.00  0.00    -0.036 C  
HETATM   16  C   UNL     1      -8.570  16.117  64.306  1.00  0.00     9.245 C  
HETATM   17  C   UNL     1      -9.467  14.433  65.914  1.00  0.00    -0.189 C  
HETATM   18  N   UNL     1     -11.932  15.490  63.740  1.00  0.00    -0.329 NA 
ENDBRANCH   9  14
BRANCH  13  19
HETATM   19  C   UNL     1     -11.325  20.516  66.480  1.00  0.00     1.981 C  
BRANCH  19  20
HETATM   20  N   UNL     1     -11.602  20.664  65.063  1.00  0.00     1.213 NA 
HETATM   21  C   UNL     1     -10.905  20.147  64.013  1.00  0.00     5.190 A  
HETATM   22  N   UNL     1     -11.611  20.268  62.913  1.00  0.00     9.742 NA 
HETATM   23  C   UNL     1     -12.757  20.867  63.346  1.00  0.00    10.422 A  
HETATM   24  N   UNL     1     -12.800  21.135  64.653  1.00  0.00     6.838 NA 
ENDBRANCH  19  20
ENDBRANCH  13  19
ENDBRANCH   2   8
TORSDOF 5
ENDMDL
