MODEL        1
REMARK 921   NORMALIZED FREE ENERGY PREDICTED BY IDOCK:   -5.31 KCAL/MOL
REMARK 922        TOTAL FREE ENERGY PREDICTED BY IDOCK:   -6.13 KCAL/MOL
REMARK 923 INTER-LIGAND FREE ENERGY PREDICTED BY IDOCK:   -5.93 KCAL/MOL
REMARK 924 INTRA-LIGAND FREE ENERGY PREDICTED BY IDOCK:   -0.20 KCAL/MOL
REMARK 927      BINDING AFFINITY PREDICTED BY RF-SCORE:    0.00 PKD
ROOT
HETATM    1  C   UNL     1     -12.319  15.604  74.515  1.00  0.00    -0.621 C  
HETATM    2  O   UNL     1     -12.941  14.730  73.574  1.00  0.00    -0.525 OA 
ENDROOT
BRANCH   2   3
HETATM    3  C   UNL     1     -12.516  14.878  72.284  1.00  0.00    -0.341 A  
HETATM    4  C   UNL     1     -11.839  15.991  71.797  1.00  0.00    -0.599 A  
HETATM    5  C   UNL     1     -11.466  16.054  70.452  1.00  0.00    -0.392 A  
HETATM    6  C   UNL     1     -11.769  15.016  69.554  1.00  0.00    -0.350 A  
HETATM    7  C   UNL     1     -12.767  13.807  71.426  1.00  0.00    -0.450 A  
HETATM    8  C   UNL     1     -12.410  13.879  70.073  1.00  0.00    -0.378 A  
BRANCH   6   9
HETATM    9  C   UNL     1     -11.443  15.135  68.112  1.00  0.00    -0.342 C  
HETATM   10  C   UNL     1     -11.836  14.251  67.186  1.00  0.00    -0.454 C  
HETATM   11  C   UNL     1     -11.420  14.509  65.789  1.00  0.00    -0.342 C  
HETATM   12  S   UNL     1     -11.833  13.559  64.478  1.00  0.00    -0.425 S  
HETATM   13  S   UNL     1     -10.403  15.931  65.649  1.00  0.00    -0.401 SA 
HETATM   14  S   UNL     1     -10.531  16.521  67.594  1.00  0.00    -0.307 SA 
ENDBRANCH   6   9
ENDBRANCH   2   3
TORSDOF 2
ENDMDL
MODEL        2
REMARK 921   NORMALIZED FREE ENERGY PREDICTED BY IDOCK:   -5.09 KCAL/MOL
REMARK 922        TOTAL FREE ENERGY PREDICTED BY IDOCK:   -5.89 KCAL/MOL
REMARK 923 INTER-LIGAND FREE ENERGY PREDICTED BY IDOCK:   -5.70 KCAL/MOL
REMARK 924 INTRA-LIGAND FREE ENERGY PREDICTED BY IDOCK:   -0.19 KCAL/MOL
REMARK 927      BINDING AFFINITY PREDICTED BY RF-SCORE:    0.00 PKD
ROOT
HETATM    1  C   UNL     1     -12.622  16.172  74.193  1.00  0.00    -0.542 C  
HETATM    2  O   UNL     1     -13.606  15.879  73.201  1.00  0.00    -0.580 OA 
ENDROOT
BRANCH   2   3
HETATM    3  C   UNL     1     -13.213  14.978  72.251  1.00  0.00    -0.375 A  
HETATM    4  C   UNL     1     -13.322  13.597  72.379  1.00  0.00    -0.641 A  
HETATM    5  C   UNL     1     -12.869  12.759  71.356  1.00  0.00    -0.371 A  
HETATM    6  C   UNL     1     -12.285  13.275  70.186  1.00  0.00    -0.376 A  
HETATM    7  C   UNL     1     -12.699  15.513  71.070  1.00  0.00    -0.526 A  
HETATM    8  C   UNL     1     -12.228  14.671  70.053  1.00  0.00    -0.385 A  
BRANCH   6   9
HETATM    9  C   UNL     1     -11.732  12.372  69.147  1.00  0.00    -0.322 C  
HETATM   10  C   UNL     1     -11.627  12.703  67.854  1.00  0.00    -0.401 C  
HETATM   11  C   UNL     1     -11.060  11.684  66.942  1.00  0.00    -0.308 C  
HETATM   12  S   UNL     1     -10.804  11.903  65.306  1.00  0.00    -0.302 S  
HETATM   13  S   UNL     1     -10.700  10.179  67.766  1.00  0.00    -0.290 SA 
HETATM   14  S   UNL     1     -11.155  10.810  69.648  1.00  0.00    -0.283 SA 
ENDBRANCH   6   9
ENDBRANCH   2   3
TORSDOF 2
ENDMDL
MODEL        3
REMARK 921   NORMALIZED FREE ENERGY PREDICTED BY IDOCK:   -5.07 KCAL/MOL
REMARK 922        TOTAL FREE ENERGY PREDICTED BY IDOCK:   -5.86 KCAL/MOL
REMARK 923 INTER-LIGAND FREE ENERGY PREDICTED BY IDOCK:   -5.66 KCAL/MOL
REMARK 924 INTRA-LIGAND FREE ENERGY PREDICTED BY IDOCK:   -0.21 KCAL/MOL
REMARK 927      BINDING AFFINITY PREDICTED BY RF-SCORE:    0.00 PKD
ROOT
HETATM    1  C   UNL     1     -11.661   6.369  70.302  1.00  0.00    -0.383 C  
HETATM    2  O   UNL     1     -12.188   6.945  71.497  1.00  0.00    -0.333 OA 
ENDROOT
BRANCH   2   3
HETATM    3  C   UNL     1     -12.315   8.306  71.471  1.00  0.00    -0.306 A  
HETATM    4  C   UNL     1     -13.290   9.021  72.158  1.00  0.00    -0.510 A  
HETATM    5  C   UNL     1     -13.348  10.413  72.048  1.00  0.00    -0.440 A  
HETATM    6  C   UNL     1     -12.444  11.126  71.241  1.00  0.00    -0.466 A  
HETATM    7  C   UNL     1     -11.367   8.998  70.718  1.00  0.00    -0.329 A  
HETATM    8  C   UNL     1     -11.437  10.392  70.593  1.00  0.00    -0.438 A  
BRANCH   6   9
HETATM    9  C   UNL     1     -12.571  12.593  71.066  1.00  0.00    -0.262 C  
HETATM   10  C   UNL     1     -11.931  13.287  70.116  1.00  0.00    -0.388 C  
HETATM   11  C   UNL     1     -12.159  14.749  70.081  1.00  0.00    -0.327 C  
HETATM   12  S   UNL     1     -11.494  15.793  68.958  1.00  0.00    -0.403 S  
HETATM   13  S   UNL     1     -13.199  15.293  71.383  1.00  0.00    -0.507 SA 
HETATM   14  S   UNL     1     -13.641  13.452  72.134  1.00  0.00    -0.565 SA 
ENDBRANCH   6   9
ENDBRANCH   2   3
TORSDOF 2
ENDMDL
MODEL        4
REMARK 921   NORMALIZED FREE ENERGY PREDICTED BY IDOCK:   -5.07 KCAL/MOL
REMARK 922        TOTAL FREE ENERGY PREDICTED BY IDOCK:   -5.86 KCAL/MOL
REMARK 923 INTER-LIGAND FREE ENERGY PREDICTED BY IDOCK:   -5.67 KCAL/MOL
REMARK 924 INTRA-LIGAND FREE ENERGY PREDICTED BY IDOCK:   -0.19 KCAL/MOL
REMARK 927      BINDING AFFINITY PREDICTED BY RF-SCORE:    0.00 PKD
ROOT
HETATM    1  C   UNL     1     -11.865  16.178  71.639  1.00  0.00    -0.487 C  
HETATM    2  O   UNL     1     -12.968  15.481  71.059  1.00  0.00    -0.457 OA 
ENDROOT
BRANCH   2   3
HETATM    3  C   UNL     1     -12.906  14.120  71.163  1.00  0.00    -0.360 A  
HETATM    4  C   UNL     1     -13.566  13.370  72.130  1.00  0.00    -0.660 A  
HETATM    5  C   UNL     1     -13.419  11.981  72.163  1.00  0.00    -0.338 A  
HETATM    6  C   UNL     1     -12.602  11.305  71.242  1.00  0.00    -0.487 A  
HETATM    7  C   UNL     1     -12.143  13.463  70.197  1.00  0.00    -0.415 A  
HETATM    8  C   UNL     1     -11.981  12.072  70.243  1.00  0.00    -0.398 A  
BRANCH   6   9
HETATM    9  C   UNL     1     -12.388   9.840  71.342  1.00  0.00    -0.388 C  
HETATM   10  C   UNL     1     -11.243   9.231  71.007  1.00  0.00    -0.392 C  
HETATM   11  C   UNL     1     -11.194   7.760  71.158  1.00  0.00    -0.264 C  
HETATM   12  S   UNL     1      -9.857   6.810  70.837  1.00  0.00    -0.185 S  
HETATM   13  S   UNL     1     -12.725   7.093  71.694  1.00  0.00    -0.362 SA 
HETATM   14  S   UNL     1     -13.687   8.868  71.965  1.00  0.00    -0.479 SA 
ENDBRANCH   6   9
ENDBRANCH   2   3
TORSDOF 2
ENDMDL
MODEL        5
REMARK 921   NORMALIZED FREE ENERGY PREDICTED BY IDOCK:   -5.04 KCAL/MOL
REMARK 922        TOTAL FREE ENERGY PREDICTED BY IDOCK:   -5.84 KCAL/MOL
REMARK 923 INTER-LIGAND FREE ENERGY PREDICTED BY IDOCK:   -5.65 KCAL/MOL
REMARK 924 INTRA-LIGAND FREE ENERGY PREDICTED BY IDOCK:   -0.19 KCAL/MOL
REMARK 927      BINDING AFFINITY PREDICTED BY RF-SCORE:    0.00 PKD
ROOT
HETATM    1  C   UNL     1     -12.534  15.958  74.426  1.00  0.00    -0.621 C  
HETATM    2  O   UNL     1     -13.435  15.870  73.322  1.00  0.00    -0.576 OA 
ENDROOT
BRANCH   2   3
HETATM    3  C   UNL     1     -12.958  15.177  72.245  1.00  0.00    -0.354 A  
HETATM    4  C   UNL     1     -12.257  15.745  71.187  1.00  0.00    -0.473 A  
HETATM    5  C   UNL     1     -11.831  14.950  70.119  1.00  0.00    -0.357 A  
HETATM    6  C   UNL     1     -12.104  13.573  70.072  1.00  0.00    -0.411 A  
HETATM    7  C   UNL     1     -13.181  13.800  72.252  1.00  0.00    -0.563 A  
HETATM    8  C   UNL     1     -12.770  13.007  71.171  1.00  0.00    -0.372 A  
BRANCH   6   9
HETATM    9  C   UNL     1     -11.720  12.759  68.893  1.00  0.00    -0.326 C  
HETATM   10  C   UNL     1     -11.289  11.493  68.971  1.00  0.00    -0.339 C  
HETATM   11  C   UNL     1     -10.938  10.821  67.700  1.00  0.00    -0.306 C  
HETATM   12  S   UNL     1     -10.420   9.238  67.567  1.00  0.00    -0.260 S  
HETATM   13  S   UNL     1     -11.099  11.887  66.317  1.00  0.00    -0.316 SA 
HETATM   14  S   UNL     1     -11.877  13.480  67.319  1.00  0.00    -0.378 SA 
ENDBRANCH   6   9
ENDBRANCH   2   3
TORSDOF 2
ENDMDL
MODEL        6
REMARK 921   NORMALIZED FREE ENERGY PREDICTED BY IDOCK:   -5.03 KCAL/MOL
REMARK 922        TOTAL FREE ENERGY PREDICTED BY IDOCK:   -5.82 KCAL/MOL
REMARK 923 INTER-LIGAND FREE ENERGY PREDICTED BY IDOCK:   -5.63 KCAL/MOL
REMARK 924 INTRA-LIGAND FREE ENERGY PREDICTED BY IDOCK:   -0.19 KCAL/MOL
REMARK 927      BINDING AFFINITY PREDICTED BY RF-SCORE:    0.00 PKD
ROOT
HETATM    1  C   UNL     1     -12.399  15.672  74.565  1.00  0.00    -0.621 C  
HETATM    2  O   UNL     1     -13.390  15.557  73.544  1.00  0.00    -0.456 OA 
ENDROOT
BRANCH   2   3
HETATM    3  C   UNL     1     -12.926  15.106  72.340  1.00  0.00    -0.362 A  
HETATM    4  C   UNL     1     -12.322  15.906  71.376  1.00  0.00    -0.485 A  
HETATM    5  C   UNL     1     -11.902  15.350  70.165  1.00  0.00    -0.362 A  
HETATM    6  C   UNL     1     -12.083  13.986  69.878  1.00  0.00    -0.406 A  
HETATM    7  C   UNL     1     -13.055  13.737  72.104  1.00  0.00    -0.497 A  
HETATM    8  C   UNL     1     -12.650  13.184  70.882  1.00  0.00    -0.377 A  
BRANCH   6   9
HETATM    9  C   UNL     1     -11.709  13.428  68.556  1.00  0.00    -0.357 C  
HETATM   10  C   UNL     1     -11.946  14.048  67.393  1.00  0.00    -0.439 C  
HETATM   11  C   UNL     1     -11.518  13.352  66.159  1.00  0.00    -0.327 C  
HETATM   12  S   UNL     1     -11.680  13.963  64.612  1.00  0.00    -0.417 S  
HETATM   13  S   UNL     1     -10.831  11.773  66.489  1.00  0.00    -0.293 SA 
HETATM   14  S   UNL     1     -10.884  11.899  68.521  1.00  0.00    -0.233 SA 
ENDBRANCH   6   9
ENDBRANCH   2   3
TORSDOF 2
ENDMDL
MODEL        7
REMARK 921   NORMALIZED FREE ENERGY PREDICTED BY IDOCK:   -4.96 KCAL/MOL
REMARK 922        TOTAL FREE ENERGY PREDICTED BY IDOCK:   -5.74 KCAL/MOL
REMARK 923 INTER-LIGAND FREE ENERGY PREDICTED BY IDOCK:   -5.55 KCAL/MOL
REMARK 924 INTRA-LIGAND FREE ENERGY PREDICTED BY IDOCK:   -0.19 KCAL/MOL
REMARK 927      BINDING AFFINITY PREDICTED BY RF-SCORE:    0.00 PKD
ROOT
HETATM    1  C   UNL     1     -12.508  11.972  63.494  1.00  0.00    -0.540 C  
HETATM    2  O   UNL     1     -13.108  12.565  64.645  1.00  0.00    -0.845 OA 
ENDROOT
BRANCH   2   3
HETATM    3  C   UNL     1     -12.338  13.500  65.278  1.00  0.00    -0.467 A  
HETATM    4  C   UNL     1     -12.042  13.491  66.637  1.00  0.00    -0.447 A  
HETATM    5  C   UNL     1     -11.261  14.509  67.193  1.00  0.00    -0.341 A  
HETATM    6  C   UNL     1     -10.767  15.567  66.412  1.00  0.00    -0.303 A  
HETATM    7  C   UNL     1     -11.802  14.505  64.472  1.00  0.00    -0.459 A  
HETATM    8  C   UNL     1     -11.035  15.535  65.034  1.00  0.00    -0.454 A  
BRANCH   6   9
HETATM    9  C   UNL     1     -10.012  16.684  67.030  1.00  0.00    -0.271 C  
HETATM   10  C   UNL     1     -10.344  17.974  66.889  1.00  0.00    -0.377 C  
HETATM   11  C   UNL     1      -9.482  18.969  67.565  1.00  0.00    -0.303 C  
HETATM   12  S   UNL     1      -9.738  20.620  67.553  1.00  0.00    -0.256 S  
HETATM   13  S   UNL     1      -8.117  18.226  68.377  1.00  0.00    -0.310 SA 
HETATM   14  S   UNL     1      -8.642  16.290  68.024  1.00  0.00    -0.179 SA 
ENDBRANCH   6   9
ENDBRANCH   2   3
TORSDOF 2
ENDMDL
MODEL        8
REMARK 921   NORMALIZED FREE ENERGY PREDICTED BY IDOCK:   -4.95 KCAL/MOL
REMARK 922        TOTAL FREE ENERGY PREDICTED BY IDOCK:   -5.73 KCAL/MOL
REMARK 923 INTER-LIGAND FREE ENERGY PREDICTED BY IDOCK:   -5.52 KCAL/MOL
REMARK 924 INTRA-LIGAND FREE ENERGY PREDICTED BY IDOCK:   -0.21 KCAL/MOL
REMARK 927      BINDING AFFINITY PREDICTED BY RF-SCORE:    0.00 PKD
ROOT
HETATM    1  C   UNL     1     -12.942   8.519  71.830  1.00  0.00    -0.362 C  
HETATM    2  O   UNL     1     -13.476   9.756  72.299  1.00  0.00    -0.434 OA 
ENDROOT
BRANCH   2   3
HETATM    3  C   UNL     1     -13.035  10.863  71.629  1.00  0.00    -0.464 A  
HETATM    4  C   UNL     1     -13.230  12.173  72.054  1.00  0.00    -0.496 A  
HETATM    5  C   UNL     1     -12.758  13.239  71.282  1.00  0.00    -0.411 A  
HETATM    6  C   UNL     1     -12.091  13.027  70.064  1.00  0.00    -0.367 A  
HETATM    7  C   UNL     1     -12.317  10.628  70.457  1.00  0.00    -0.448 A  
HETATM    8  C   UNL     1     -11.860  11.698  69.675  1.00  0.00    -0.419 A  
BRANCH   6   9
HETATM    9  C   UNL     1     -11.671  14.169  69.215  1.00  0.00    -0.323 C  
HETATM   10  C   UNL     1     -11.436  14.071  67.900  1.00  0.00    -0.347 C  
HETATM   11  C   UNL     1     -11.016  15.304  67.198  1.00  0.00    -0.331 C  
HETATM   12  S   UNL     1     -10.713  15.414  65.558  1.00  0.00    -0.406 S  
HETATM   13  S   UNL     1     -10.838  16.665  68.289  1.00  0.00    -0.337 SA 
HETATM   14  S   UNL     1     -11.512  15.728  69.967  1.00  0.00    -0.378 SA 
ENDBRANCH   6   9
ENDBRANCH   2   3
TORSDOF 2
ENDMDL
MODEL        9
REMARK 921   NORMALIZED FREE ENERGY PREDICTED BY IDOCK:   -4.95 KCAL/MOL
REMARK 922        TOTAL FREE ENERGY PREDICTED BY IDOCK:   -5.73 KCAL/MOL
REMARK 923 INTER-LIGAND FREE ENERGY PREDICTED BY IDOCK:   -5.53 KCAL/MOL
REMARK 924 INTRA-LIGAND FREE ENERGY PREDICTED BY IDOCK:   -0.20 KCAL/MOL
REMARK 927      BINDING AFFINITY PREDICTED BY RF-SCORE:    0.00 PKD
ROOT
HETATM    1  C   UNL     1     -13.471  15.925  73.023  1.00  0.00    -0.568 C  
HETATM    2  O   UNL     1     -13.633  15.494  71.672  1.00  0.00    -0.474 OA 
ENDROOT
BRANCH   2   3
HETATM    3  C   UNL     1     -13.258  14.202  71.432  1.00  0.00    -0.347 A  
HETATM    4  C   UNL     1     -13.600  13.118  72.234  1.00  0.00    -0.677 A  
HETATM    5  C   UNL     1     -13.146  11.836  71.912  1.00  0.00    -0.482 A  
HETATM    6  C   UNL     1     -12.330  11.603  70.792  1.00  0.00    -0.454 A  
HETATM    7  C   UNL     1     -12.505  13.984  70.278  1.00  0.00    -0.403 A  
HETATM    8  C   UNL     1     -12.035  12.701  69.967  1.00  0.00    -0.377 A  
BRANCH   6   9
HETATM    9  C   UNL     1     -11.786  10.252  70.511  1.00  0.00    -0.329 C  
HETATM   10  C   UNL     1     -12.057   9.172  71.256  1.00  0.00    -0.392 C  
HETATM   11  C   UNL     1     -11.427   7.897  70.847  1.00  0.00    -0.281 C  
HETATM   12  S   UNL     1     -11.661   6.428  71.608  1.00  0.00    -0.293 S  
HETATM   13  S   UNL     1     -10.365   8.091  69.465  1.00  0.00    -0.222 SA 
HETATM   14  S   UNL     1     -10.771  10.056  69.114  1.00  0.00    -0.229 SA 
ENDBRANCH   6   9
ENDBRANCH   2   3
TORSDOF 2
ENDMDL
MODEL       10
REMARK 921   NORMALIZED FREE ENERGY PREDICTED BY IDOCK:   -4.94 KCAL/MOL
REMARK 922        TOTAL FREE ENERGY PREDICTED BY IDOCK:   -5.72 KCAL/MOL
REMARK 923 INTER-LIGAND FREE ENERGY PREDICTED BY IDOCK:   -5.53 KCAL/MOL
REMARK 924 INTRA-LIGAND FREE ENERGY PREDICTED BY IDOCK:   -0.19 KCAL/MOL
REMARK 927      BINDING AFFINITY PREDICTED BY RF-SCORE:    0.00 PKD
ROOT
HETATM    1  C   UNL     1     -12.587  12.137  63.591  1.00  0.00    -0.504 C  
HETATM    2  O   UNL     1     -13.100  12.692  64.802  1.00  0.00    -0.852 OA 
ENDROOT
BRANCH   2   3
HETATM    3  C   UNL     1     -12.292  13.620  65.396  1.00  0.00    -0.476 A  
HETATM    4  C   UNL     1     -12.009  13.665  66.757  1.00  0.00    -0.458 A  
HETATM    5  C   UNL     1     -11.185  14.672  67.270  1.00  0.00    -0.344 A  
HETATM    6  C   UNL     1     -10.634  15.665  66.443  1.00  0.00    -0.308 A  
HETATM    7  C   UNL     1     -11.701  14.556  64.547  1.00  0.00    -0.421 A  
HETATM    8  C   UNL     1     -10.891  15.576  65.065  1.00  0.00    -0.468 A  
BRANCH   6   9
HETATM    9  C   UNL     1      -9.833  16.775  67.014  1.00  0.00    -0.262 C  
HETATM   10  C   UNL     1      -8.700  16.595  67.706  1.00  0.00    -0.201 C  
HETATM   11  C   UNL     1      -8.023  17.808  68.216  1.00  0.00    -0.282 C  
HETATM   12  S   UNL     1      -6.583  17.813  69.064  1.00  0.00    -0.246 S  
HETATM   13  S   UNL     1      -8.918  19.272  67.855  1.00  0.00    -0.320 SA 
HETATM   14  S   UNL     1     -10.378  18.401  66.735  1.00  0.00    -0.393 SA 
ENDBRANCH   6   9
ENDBRANCH   2   3
TORSDOF 2
ENDMDL
MODEL       11
REMARK 921   NORMALIZED FREE ENERGY PREDICTED BY IDOCK:   -4.94 KCAL/MOL
REMARK 922        TOTAL FREE ENERGY PREDICTED BY IDOCK:   -5.72 KCAL/MOL
REMARK 923 INTER-LIGAND FREE ENERGY PREDICTED BY IDOCK:   -5.53 KCAL/MOL
REMARK 924 INTRA-LIGAND FREE ENERGY PREDICTED BY IDOCK:   -0.19 KCAL/MOL
REMARK 927      BINDING AFFINITY PREDICTED BY RF-SCORE:    0.00 PKD
ROOT
HETATM    1  C   UNL     1     -13.064  15.938  73.347  1.00  0.00    -0.587 C  
HETATM    2  O   UNL     1     -13.932  15.271  72.431  1.00  0.00    -0.486 OA 
ENDROOT
BRANCH   2   3
HETATM    3  C   UNL     1     -13.422  14.126  71.885  1.00  0.00    -0.405 A  
HETATM    4  C   UNL     1     -13.654  12.845  72.375  1.00  0.00    -0.577 A  
HETATM    5  C   UNL     1     -13.066  11.739  71.756  1.00  0.00    -0.480 A  
HETATM    6  C   UNL     1     -12.221  11.882  70.642  1.00  0.00    -0.424 A  
HETATM    7  C   UNL     1     -12.641  14.285  70.740  1.00  0.00    -0.427 A  
HETATM    8  C   UNL     1     -12.036  13.177  70.131  1.00  0.00    -0.392 A  
BRANCH   6   9
HETATM    9  C   UNL     1     -11.536  10.708  70.048  1.00  0.00    -0.325 C  
HETATM   10  C   UNL     1     -11.229  10.605  68.748  1.00  0.00    -0.337 C  
HETATM   11  C   UNL     1     -10.552   9.363  68.312  1.00  0.00    -0.210 C  
HETATM   12  S   UNL     1     -10.047   9.047  66.751  1.00  0.00    -0.274 S  
HETATM   13  S   UNL     1     -10.352   8.217  69.625  1.00  0.00    -0.219 SA 
HETATM   14  S   UNL     1     -11.073   9.411  71.109  1.00  0.00    -0.390 SA 
ENDBRANCH   6   9
ENDBRANCH   2   3
TORSDOF 2
ENDMDL
MODEL       12
REMARK 921   NORMALIZED FREE ENERGY PREDICTED BY IDOCK:   -4.87 KCAL/MOL
REMARK 922        TOTAL FREE ENERGY PREDICTED BY IDOCK:   -5.64 KCAL/MOL
REMARK 923 INTER-LIGAND FREE ENERGY PREDICTED BY IDOCK:   -5.44 KCAL/MOL
REMARK 924 INTRA-LIGAND FREE ENERGY PREDICTED BY IDOCK:   -0.20 KCAL/MOL
REMARK 927      BINDING AFFINITY PREDICTED BY RF-SCORE:    0.00 PKD
ROOT
HETATM    1  C   UNL     1     -14.065  15.342  72.392  1.00  0.00    -0.549 C  
HETATM    2  O   UNL     1     -14.062  13.948  72.699  1.00  0.00    -0.679 OA 
ENDROOT
BRANCH   2   3
HETATM    3  C   UNL     1     -13.326  13.173  71.847  1.00  0.00    -0.455 A  
HETATM    4  C   UNL     1     -12.536  13.666  70.814  1.00  0.00    -0.432 A  
HETATM    5  C   UNL     1     -11.838  12.786  69.982  1.00  0.00    -0.352 A  
HETATM    6  C   UNL     1     -11.920  11.394  70.150  1.00  0.00    -0.460 A  
HETATM    7  C   UNL     1     -13.369  11.797  72.073  1.00  0.00    -0.417 A  
HETATM    8  C   UNL     1     -12.684  10.915  71.226  1.00  0.00    -0.542 A  
BRANCH   6   9
HETATM    9  C   UNL     1     -11.243  10.470  69.207  1.00  0.00    -0.262 C  
HETATM   10  C   UNL     1     -10.968  10.778  67.933  1.00  0.00    -0.344 C  
HETATM   11  C   UNL     1     -10.294   9.741  67.120  1.00  0.00    -0.248 C  
HETATM   12  S   UNL     1      -9.826   9.931  65.527  1.00  0.00    -0.289 S  
HETATM   13  S   UNL     1     -10.055   8.249  68.009  1.00  0.00    -0.207 SA 
HETATM   14  S   UNL     1     -10.746   8.915  69.804  1.00  0.00    -0.200 SA 
ENDBRANCH   6   9
ENDBRANCH   2   3
TORSDOF 2
ENDMDL
MODEL       13
REMARK 921   NORMALIZED FREE ENERGY PREDICTED BY IDOCK:   -4.85 KCAL/MOL
REMARK 922        TOTAL FREE ENERGY PREDICTED BY IDOCK:   -5.62 KCAL/MOL
REMARK 923 INTER-LIGAND FREE ENERGY PREDICTED BY IDOCK:   -5.41 KCAL/MOL
REMARK 924 INTRA-LIGAND FREE ENERGY PREDICTED BY IDOCK:   -0.21 KCAL/MOL
REMARK 927      BINDING AFFINITY PREDICTED BY RF-SCORE:    0.00 PKD
ROOT
HETATM    1  C   UNL     1     -12.524  15.482  74.459  1.00  0.00    -0.552 C  
HETATM    2  O   UNL     1     -13.054  14.544  73.523  1.00  0.00    -0.564 OA 
ENDROOT
BRANCH   2   3
HETATM    3  C   UNL     1     -12.571  14.666  72.250  1.00  0.00    -0.322 A  
HETATM    4  C   UNL     1     -12.672  13.685  71.269  1.00  0.00    -0.443 A  
HETATM    5  C   UNL     1     -12.124  13.901  70.002  1.00  0.00    -0.411 A  
HETATM    6  C   UNL     1     -11.451  15.093  69.684  1.00  0.00    -0.314 A  
HETATM    7  C   UNL     1     -11.967  15.883  71.935  1.00  0.00    -0.588 A  
HETATM    8  C   UNL     1     -11.401  16.091  70.670  1.00  0.00    -0.424 A  
BRANCH   6   9
HETATM    9  C   UNL     1     -10.801  15.273  68.363  1.00  0.00    -0.257 C  
HETATM   10  C   UNL     1      -9.689  15.995  68.173  1.00  0.00    -0.217 C  
HETATM   11  C   UNL     1      -9.170  16.082  66.790  1.00  0.00    -0.240 C  
HETATM   12  S   UNL     1      -7.780  16.894  66.340  1.00  0.00    -0.301 S  
HETATM   13  S   UNL     1     -10.200  15.252  65.638  1.00  0.00    -0.397 SA 
HETATM   14  S   UNL     1     -11.505  14.468  66.991  1.00  0.00    -0.379 SA 
ENDBRANCH   6   9
ENDBRANCH   2   3
TORSDOF 2
ENDMDL
MODEL       14
REMARK 921   NORMALIZED FREE ENERGY PREDICTED BY IDOCK:   -4.84 KCAL/MOL
REMARK 922        TOTAL FREE ENERGY PREDICTED BY IDOCK:   -5.61 KCAL/MOL
REMARK 923 INTER-LIGAND FREE ENERGY PREDICTED BY IDOCK:   -5.42 KCAL/MOL
REMARK 924 INTRA-LIGAND FREE ENERGY PREDICTED BY IDOCK:   -0.19 KCAL/MOL
REMARK 927      BINDING AFFINITY PREDICTED BY RF-SCORE:    0.00 PKD
ROOT
HETATM    1  C   UNL     1     -12.617  11.898  63.538  1.00  0.00    -0.459 C  
HETATM    2  O   UNL     1     -13.111  12.554  64.705  1.00  0.00    -0.845 OA 
ENDROOT
BRANCH   2   3
HETATM    3  C   UNL     1     -12.355  13.609  65.135  1.00  0.00    -0.452 A  
HETATM    4  C   UNL     1     -11.788  14.567  64.302  1.00  0.00    -0.368 A  
HETATM    5  C   UNL     1     -11.011  15.596  64.841  1.00  0.00    -0.447 A  
HETATM    6  C   UNL     1     -10.767  15.688  66.222  1.00  0.00    -0.295 A  
HETATM    7  C   UNL     1     -12.182  13.719  66.515  1.00  0.00    -0.475 A  
HETATM    8  C   UNL     1     -11.386  14.740  67.053  1.00  0.00    -0.358 A  
BRANCH   6   9
HETATM    9  C   UNL     1      -9.871  16.735  66.770  1.00  0.00    -0.276 C  
HETATM   10  C   UNL     1      -8.603  16.911  66.374  1.00  0.00    -0.328 C  
HETATM   11  C   UNL     1      -7.839  17.997  67.027  1.00  0.00    -0.218 C  
HETATM   12  S   UNL     1      -6.263  18.412  66.656  1.00  0.00    -0.179 S  
HETATM   13  S   UNL     1      -8.765  18.805  68.278  1.00  0.00    -0.342 SA 
HETATM   14  S   UNL     1     -10.517  17.816  67.968  1.00  0.00    -0.377 SA 
ENDBRANCH   6   9
ENDBRANCH   2   3
TORSDOF 2
ENDMDL
MODEL       15
REMARK 921   NORMALIZED FREE ENERGY PREDICTED BY IDOCK:   -4.82 KCAL/MOL
REMARK 922        TOTAL FREE ENERGY PREDICTED BY IDOCK:   -5.59 KCAL/MOL
REMARK 923 INTER-LIGAND FREE ENERGY PREDICTED BY IDOCK:   -5.38 KCAL/MOL
REMARK 924 INTRA-LIGAND FREE ENERGY PREDICTED BY IDOCK:   -0.21 KCAL/MOL
REMARK 927      BINDING AFFINITY PREDICTED BY RF-SCORE:    0.00 PKD
ROOT
HETATM    1  C   UNL     1     -10.132  11.328  63.407  1.00  0.00    -0.400 C  
HETATM    2  O   UNL     1     -10.678  12.647  63.421  1.00  0.00    -0.384 OA 
ENDROOT
BRANCH   2   3
HETATM    3  C   UNL     1     -10.956  13.141  64.665  1.00  0.00    -0.356 A  
HETATM    4  C   UNL     1     -10.728  14.454  65.062  1.00  0.00    -0.440 A  
HETATM    5  C   UNL     1     -11.027  14.855  66.367  1.00  0.00    -0.336 A  
HETATM    6  C   UNL     1     -11.548  13.955  67.312  1.00  0.00    -0.393 A  
HETATM    7  C   UNL     1     -11.535  12.248  65.567  1.00  0.00    -0.408 A  
HETATM    8  C   UNL     1     -11.816  12.646  66.881  1.00  0.00    -0.425 A  
BRANCH   6   9
HETATM    9  C   UNL     1     -11.780  14.373  68.717  1.00  0.00    -0.337 C  
HETATM   10  C   UNL     1     -12.486  13.655  69.599  1.00  0.00    -0.145 C  
HETATM   11  C   UNL     1     -12.632  14.216  70.961  1.00  0.00    -0.369 C  
HETATM   12  S   UNL     1     -13.435  13.469  72.221  1.00  0.00    -0.586 S  
HETATM   13  S   UNL     1     -11.883  15.794  71.115  1.00  0.00    -0.460 SA 
HETATM   14  S   UNL     1     -11.061  15.862  69.253  1.00  0.00    -0.340 SA 
ENDBRANCH   6   9
ENDBRANCH   2   3
TORSDOF 2
ENDMDL
MODEL       16
REMARK 921   NORMALIZED FREE ENERGY PREDICTED BY IDOCK:   -4.79 KCAL/MOL
REMARK 922        TOTAL FREE ENERGY PREDICTED BY IDOCK:   -5.55 KCAL/MOL
REMARK 923 INTER-LIGAND FREE ENERGY PREDICTED BY IDOCK:   -5.35 KCAL/MOL
REMARK 924 INTRA-LIGAND FREE ENERGY PREDICTED BY IDOCK:   -0.20 KCAL/MOL
REMARK 927      BINDING AFFINITY PREDICTED BY RF-SCORE:    0.00 PKD
ROOT
HETATM    1  C   UNL     1     -10.040  18.775  66.155  1.00  0.00    -0.384 C  
HETATM    2  O   UNL     1     -10.061  17.391  65.804  1.00  0.00    -0.544 OA 
ENDROOT
BRANCH   2   3
HETATM    3  C   UNL     1     -10.561  16.561  66.769  1.00  0.00    -0.224 A  
HETATM    4  C   UNL     1     -11.009  15.265  66.541  1.00  0.00    -0.295 A  
HETATM    5  C   UNL     1     -11.524  14.504  67.594  1.00  0.00    -0.374 A  
HETATM    6  C   UNL     1     -11.617  15.020  68.898  1.00  0.00    -0.349 A  
HETATM    7  C   UNL     1     -10.581  17.070  68.068  1.00  0.00    -0.373 A  
HETATM    8  C   UNL     1     -11.115  16.313  69.120  1.00  0.00    -0.322 A  
BRANCH   6   9
HETATM    9  C   UNL     1     -12.243  14.232  69.988  1.00  0.00    -0.359 C  
HETATM   10  C   UNL     1     -12.161  12.899  70.084  1.00  0.00    -0.373 C  
HETATM   11  C   UNL     1     -12.850  12.263  71.229  1.00  0.00    -0.239 C  
HETATM   12  S   UNL     1     -12.840  10.625  71.559  1.00  0.00    -0.468 S  
HETATM   13  S   UNL     1     -13.721  13.424  72.212  1.00  0.00    -0.567 SA 
HETATM   14  S   UNL     1     -13.102  15.096  71.228  1.00  0.00    -0.478 SA 
ENDBRANCH   6   9
ENDBRANCH   2   3
TORSDOF 2
ENDMDL
MODEL       17
REMARK 921   NORMALIZED FREE ENERGY PREDICTED BY IDOCK:   -4.78 KCAL/MOL
REMARK 922        TOTAL FREE ENERGY PREDICTED BY IDOCK:   -5.54 KCAL/MOL
REMARK 923 INTER-LIGAND FREE ENERGY PREDICTED BY IDOCK:   -5.35 KCAL/MOL
REMARK 924 INTRA-LIGAND FREE ENERGY PREDICTED BY IDOCK:   -0.19 KCAL/MOL
REMARK 927      BINDING AFFINITY PREDICTED BY RF-SCORE:    0.00 PKD
ROOT
HETATM    1  C   UNL     1     -13.340  13.749  72.497  1.00  0.00    -0.552 C  
HETATM    2  O   UNL     1     -12.824  12.503  72.030  1.00  0.00    -0.264 OA 
ENDROOT
BRANCH   2   3
HETATM    3  C   UNL     1     -12.451  12.491  70.715  1.00  0.00    -0.268 A  
HETATM    4  C   UNL     1     -12.259  13.629  69.939  1.00  0.00    -0.367 A  
HETATM    5  C   UNL     1     -11.899  13.508  68.594  1.00  0.00    -0.404 A  
HETATM    6  C   UNL     1     -11.734  12.252  67.985  1.00  0.00    -0.417 A  
HETATM    7  C   UNL     1     -12.228  11.236  70.150  1.00  0.00    -0.410 A  
HETATM    8  C   UNL     1     -11.885  11.116  68.796  1.00  0.00    -0.388 A  
BRANCH   6   9
HETATM    9  C   UNL     1     -11.436  12.139  66.537  1.00  0.00    -0.369 C  
HETATM   10  C   UNL     1     -10.517  11.308  66.029  1.00  0.00    -0.310 C  
HETATM   11  C   UNL     1     -10.334  11.321  64.561  1.00  0.00    -0.322 C  
HETATM   12  S   UNL     1      -9.275  10.339  63.721  1.00  0.00    -0.293 S  
HETATM   13  S   UNL     1     -11.346  12.518  63.774  1.00  0.00    -0.504 SA 
HETATM   14  S   UNL     1     -12.361  13.116  65.435  1.00  0.00    -0.484 SA 
ENDBRANCH   6   9
ENDBRANCH   2   3
TORSDOF 2
ENDMDL
MODEL       18
REMARK 921   NORMALIZED FREE ENERGY PREDICTED BY IDOCK:   -4.78 KCAL/MOL
REMARK 922        TOTAL FREE ENERGY PREDICTED BY IDOCK:   -5.54 KCAL/MOL
REMARK 923 INTER-LIGAND FREE ENERGY PREDICTED BY IDOCK:   -5.36 KCAL/MOL
REMARK 924 INTRA-LIGAND FREE ENERGY PREDICTED BY IDOCK:   -0.18 KCAL/MOL
REMARK 927      BINDING AFFINITY PREDICTED BY RF-SCORE:    0.00 PKD
ROOT
HETATM    1  C   UNL     1     -10.677   7.622  73.080  1.00  0.00    -0.391 C  
HETATM    2  O   UNL     1     -11.936   8.089  72.596  1.00  0.00    -0.356 OA 
ENDROOT
BRANCH   2   3
HETATM    3  C   UNL     1     -11.865   9.155  71.743  1.00  0.00    -0.383 A  
HETATM    4  C   UNL     1     -10.921   9.295  70.731  1.00  0.00    -0.349 A  
HETATM    5  C   UNL     1     -10.920  10.437  69.925  1.00  0.00    -0.364 A  
HETATM    6  C   UNL     1     -11.849  11.473  70.115  1.00  0.00    -0.440 A  
HETATM    7  C   UNL     1     -12.839  10.140  71.906  1.00  0.00    -0.526 A  
HETATM    8  C   UNL     1     -12.825  11.293  71.109  1.00  0.00    -0.452 A  
BRANCH   6   9
HETATM    9  C   UNL     1     -11.782  12.716  69.308  1.00  0.00    -0.322 C  
HETATM   10  C   UNL     1     -11.765  12.734  67.969  1.00  0.00    -0.405 C  
HETATM   11  C   UNL     1     -11.688  14.058  67.314  1.00  0.00    -0.389 C  
HETATM   12  S   UNL     1     -11.696  14.309  65.662  1.00  0.00    -0.366 S  
HETATM   13  S   UNL     1     -11.557  15.368  68.472  1.00  0.00    -0.340 SA 
HETATM   14  S   UNL     1     -11.762  14.235  70.152  1.00  0.00    -0.273 SA 
ENDBRANCH   6   9
ENDBRANCH   2   3
TORSDOF 2
ENDMDL
MODEL       19
REMARK 921   NORMALIZED FREE ENERGY PREDICTED BY IDOCK:   -4.78 KCAL/MOL
REMARK 922        TOTAL FREE ENERGY PREDICTED BY IDOCK:   -5.53 KCAL/MOL
REMARK 923 INTER-LIGAND FREE ENERGY PREDICTED BY IDOCK:   -5.35 KCAL/MOL
REMARK 924 INTRA-LIGAND FREE ENERGY PREDICTED BY IDOCK:   -0.19 KCAL/MOL
REMARK 927      BINDING AFFINITY PREDICTED BY RF-SCORE:    0.00 PKD
ROOT
HETATM    1  C   UNL     1     -12.888  15.891  73.683  1.00  0.00    -0.599 C  
HETATM    2  O   UNL     1     -11.968  16.344  72.690  1.00  0.00    -0.538 OA 
ENDROOT
BRANCH   2   3
HETATM    3  C   UNL     1     -11.939  15.593  71.548  1.00  0.00    -0.417 A  
HETATM    4  C   UNL     1     -12.427  14.295  71.443  1.00  0.00    -0.437 A  
HETATM    5  C   UNL     1     -12.329  13.604  70.233  1.00  0.00    -0.392 A  
HETATM    6  C   UNL     1     -11.732  14.183  69.100  1.00  0.00    -0.368 A  
HETATM    7  C   UNL     1     -11.403  16.212  70.419  1.00  0.00    -0.377 A  
HETATM    8  C   UNL     1     -11.288  15.511  69.210  1.00  0.00    -0.330 A  
BRANCH   6   9
HETATM    9  C   UNL     1     -11.558  13.407  67.848  1.00  0.00    -0.339 C  
HETATM   10  C   UNL     1     -10.934  12.224  67.787  1.00  0.00    -0.274 C  
HETATM   11  C   UNL     1     -10.837  11.581  66.457  1.00  0.00    -0.288 C  
HETATM   12  S   UNL     1     -10.139  10.092  66.164  1.00  0.00    -0.225 S  
HETATM   13  S   UNL     1     -11.523  12.576  65.185  1.00  0.00    -0.341 SA 
HETATM   14  S   UNL     1     -12.238  14.057  66.386  1.00  0.00    -0.422 SA 
ENDBRANCH   6   9
ENDBRANCH   2   3
TORSDOF 2
ENDMDL
MODEL       20
REMARK 921   NORMALIZED FREE ENERGY PREDICTED BY IDOCK:   -4.72 KCAL/MOL
REMARK 922        TOTAL FREE ENERGY PREDICTED BY IDOCK:   -5.48 KCAL/MOL
REMARK 923 INTER-LIGAND FREE ENERGY PREDICTED BY IDOCK:   -5.28 KCAL/MOL
REMARK 924 INTRA-LIGAND FREE ENERGY PREDICTED BY IDOCK:   -0.20 KCAL/MOL
REMARK 927      BINDING AFFINITY PREDICTED BY RF-SCORE:    0.00 PKD
ROOT
HETATM    1  C   UNL     1     -14.076   8.617  71.921  1.00  0.00    -0.443 C  
HETATM    2  O   UNL     1     -13.334   9.665  72.545  1.00  0.00    -0.390 OA 
ENDROOT
BRANCH   2   3
HETATM    3  C   UNL     1     -12.919  10.657  71.701  1.00  0.00    -0.477 A  
HETATM    4  C   UNL     1     -13.213  12.006  71.863  1.00  0.00    -0.469 A  
HETATM    5  C   UNL     1     -12.758  12.941  70.928  1.00  0.00    -0.291 A  
HETATM    6  C   UNL     1     -12.011  12.554  69.803  1.00  0.00    -0.359 A  
HETATM    7  C   UNL     1     -12.122  10.258  70.628  1.00  0.00    -0.433 A  
HETATM    8  C   UNL     1     -11.682  11.194  69.681  1.00  0.00    -0.410 A  
BRANCH   6   9
HETATM    9  C   UNL     1     -11.608  13.545  68.776  1.00  0.00    -0.325 C  
HETATM   10  C   UNL     1     -11.332  14.827  69.048  1.00  0.00    -0.295 C  
HETATM   11  C   UNL     1     -10.953  15.691  67.907  1.00  0.00    -0.319 C  
HETATM   12  S   UNL     1     -10.531  17.303  68.028  1.00  0.00    -0.385 S  
HETATM   13  S   UNL     1     -11.017  14.838  66.376  1.00  0.00    -0.335 SA 
HETATM   14  S   UNL     1     -11.450  12.998  67.133  1.00  0.00    -0.350 SA 
ENDBRANCH   6   9
ENDBRANCH   2   3
TORSDOF 2
ENDMDL
MODEL       21
REMARK 921   NORMALIZED FREE ENERGY PREDICTED BY IDOCK:   -4.72 KCAL/MOL
REMARK 922        TOTAL FREE ENERGY PREDICTED BY IDOCK:   -5.47 KCAL/MOL
REMARK 923 INTER-LIGAND FREE ENERGY PREDICTED BY IDOCK:   -5.28 KCAL/MOL
REMARK 924 INTRA-LIGAND FREE ENERGY PREDICTED BY IDOCK:   -0.20 KCAL/MOL
REMARK 927      BINDING AFFINITY PREDICTED BY RF-SCORE:    0.00 PKD
ROOT
HETATM    1  C   UNL     1     -13.091  15.844  73.606  1.00  0.00    -0.505 C  
HETATM    2  O   UNL     1     -13.734  14.644  73.178  1.00  0.00    -0.530 OA 
ENDROOT
BRANCH   2   3
HETATM    3  C   UNL     1     -13.143  14.023  72.114  1.00  0.00    -0.411 A  
HETATM    4  C   UNL     1     -12.500  14.682  71.072  1.00  0.00    -0.399 A  
HETATM    5  C   UNL     1     -11.945  13.954  70.016  1.00  0.00    -0.404 A  
HETATM    6  C   UNL     1     -12.029  12.552  69.964  1.00  0.00    -0.372 A  
HETATM    7  C   UNL     1     -13.180  12.628  72.117  1.00  0.00    -0.527 A  
HETATM    8  C   UNL     1     -12.640  11.900  71.048  1.00  0.00    -0.381 A  
BRANCH   6   9
HETATM    9  C   UNL     1     -11.512  11.799  68.795  1.00  0.00    -0.291 C  
HETATM   10  C   UNL     1     -11.186  10.500  68.832  1.00  0.00    -0.323 C  
HETATM   11  C   UNL     1     -10.676   9.899  67.581  1.00  0.00    -0.281 C  
HETATM   12  S   UNL     1     -10.251   8.293  67.396  1.00  0.00    -0.282 S  
HETATM   13  S   UNL     1     -10.533  11.073  66.286  1.00  0.00    -0.237 SA 
HETATM   14  S   UNL     1     -11.357  12.645  67.285  1.00  0.00    -0.338 SA 
ENDBRANCH   6   9
ENDBRANCH   2   3
TORSDOF 2
ENDMDL
MODEL       22
REMARK 921   NORMALIZED FREE ENERGY PREDICTED BY IDOCK:   -4.69 KCAL/MOL
REMARK 922        TOTAL FREE ENERGY PREDICTED BY IDOCK:   -5.44 KCAL/MOL
REMARK 923 INTER-LIGAND FREE ENERGY PREDICTED BY IDOCK:   -5.25 KCAL/MOL
REMARK 924 INTRA-LIGAND FREE ENERGY PREDICTED BY IDOCK:   -0.19 KCAL/MOL
REMARK 927      BINDING AFFINITY PREDICTED BY RF-SCORE:    0.00 PKD
ROOT
HETATM    1  C   UNL     1     -11.197   5.630  72.846  1.00  0.00    -0.290 C  
HETATM    2  O   UNL     1     -12.249   6.021  71.964  1.00  0.00    -0.257 OA 
ENDROOT
BRANCH   2   3
HETATM    3  C   UNL     1     -12.394   7.371  71.805  1.00  0.00    -0.333 A  
HETATM    4  C   UNL     1     -13.616   8.032  71.738  1.00  0.00    -0.395 A  
HETATM    5  C   UNL     1     -13.656   9.416  71.550  1.00  0.00    -0.408 A  
HETATM    6  C   UNL     1     -12.481  10.175  71.412  1.00  0.00    -0.524 A  
HETATM    7  C   UNL     1     -11.214   8.113  71.738  1.00  0.00    -0.329 A  
HETATM    8  C   UNL     1     -11.256   9.499  71.531  1.00  0.00    -0.437 A  
BRANCH   6   9
HETATM    9  C   UNL     1     -12.541  11.630  71.129  1.00  0.00    -0.335 C  
HETATM   10  C   UNL     1     -13.138  12.520  71.932  1.00  0.00    -0.473 C  
HETATM   11  C   UNL     1     -13.117  13.936  71.502  1.00  0.00    -0.365 C  
HETATM   12  S   UNL     1     -13.764  15.208  72.370  1.00  0.00    -0.529 S  
HETATM   13  S   UNL     1     -12.350  14.146  69.938  1.00  0.00    -0.271 SA 
HETATM   14  S   UNL     1     -11.759  12.213  69.690  1.00  0.00    -0.298 SA 
ENDBRANCH   6   9
ENDBRANCH   2   3
TORSDOF 2
ENDMDL
MODEL       23
REMARK 921   NORMALIZED FREE ENERGY PREDICTED BY IDOCK:   -4.66 KCAL/MOL
REMARK 922        TOTAL FREE ENERGY PREDICTED BY IDOCK:   -5.41 KCAL/MOL
REMARK 923 INTER-LIGAND FREE ENERGY PREDICTED BY IDOCK:   -5.21 KCAL/MOL
REMARK 924 INTRA-LIGAND FREE ENERGY PREDICTED BY IDOCK:   -0.20 KCAL/MOL
REMARK 927      BINDING AFFINITY PREDICTED BY RF-SCORE:    0.00 PKD
ROOT
HETATM    1  C   UNL     1     -10.423   7.232  72.773  1.00  0.00    -0.260 C  
HETATM    2  O   UNL     1     -11.622   8.004  72.836  1.00  0.00    -0.397 OA 
ENDROOT
BRANCH   2   3
HETATM    3  C   UNL     1     -11.708   9.008  71.913  1.00  0.00    -0.374 A  
HETATM    4  C   UNL     1     -12.775   9.894  71.807  1.00  0.00    -0.523 A  
HETATM    5  C   UNL     1     -12.777  10.875  70.811  1.00  0.00    -0.431 A  
HETATM    6  C   UNL     1     -11.724  10.990  69.888  1.00  0.00    -0.424 A  
HETATM    7  C   UNL     1     -10.621   9.146  71.050  1.00  0.00    -0.362 A  
HETATM    8  C   UNL     1     -10.633  10.118  70.040  1.00  0.00    -0.338 A  
BRANCH   6   9
HETATM    9  C   UNL     1     -11.780  11.979  68.785  1.00  0.00    -0.321 C  
HETATM   10  C   UNL     1     -11.849  11.646  67.489  1.00  0.00    -0.196 C  
HETATM   11  C   UNL     1     -11.890  12.755  66.510  1.00  0.00    -0.405 C  
HETATM   12  S   UNL     1     -12.016  12.563  64.855  1.00  0.00    -0.416 S  
HETATM   13  S   UNL     1     -11.763  14.327  67.277  1.00  0.00    -0.407 SA 
HETATM   14  S   UNL     1     -11.795  13.666  69.203  1.00  0.00    -0.355 SA 
ENDBRANCH   6   9
ENDBRANCH   2   3
TORSDOF 2
ENDMDL
MODEL       24
REMARK 921   NORMALIZED FREE ENERGY PREDICTED BY IDOCK:   -4.64 KCAL/MOL
REMARK 922        TOTAL FREE ENERGY PREDICTED BY IDOCK:   -5.38 KCAL/MOL
REMARK 923 INTER-LIGAND FREE ENERGY PREDICTED BY IDOCK:   -5.19 KCAL/MOL
REMARK 924 INTRA-LIGAND FREE ENERGY PREDICTED BY IDOCK:   -0.19 KCAL/MOL
REMARK 927      BINDING AFFINITY PREDICTED BY RF-SCORE:    0.00 PKD
ROOT
HETATM    1  C   UNL     1      -6.137  21.026  67.364  1.00  0.00    -0.312 C  
HETATM    2  O   UNL     1      -7.538  21.260  67.217  1.00  0.00    -0.408 OA 
ENDROOT
BRANCH   2   3
HETATM    3  C   UNL     1      -8.291  20.136  67.021  1.00  0.00    -0.328 A  
HETATM    4  C   UNL     1      -9.680  20.119  66.949  1.00  0.00    -0.582 A  
HETATM    5  C   UNL     1     -10.359  18.911  66.768  1.00  0.00    -0.477 A  
HETATM    6  C   UNL     1      -9.672  17.689  66.668  1.00  0.00    -0.304 A  
HETATM    7  C   UNL     1      -7.586  18.944  66.856  1.00  0.00    -0.240 A  
HETATM    8  C   UNL     1      -8.269  17.730  66.694  1.00  0.00    -0.287 A  
BRANCH   6   9
HETATM    9  C   UNL     1     -10.409  16.406  66.562  1.00  0.00    -0.303 C  
HETATM   10  C   UNL     1     -10.677  15.795  65.400  1.00  0.00    -0.420 C  
HETATM   11  C   UNL     1     -11.430  14.523  65.466  1.00  0.00    -0.343 C  
HETATM   12  S   UNL     1     -11.832  13.582  64.145  1.00  0.00    -0.429 S  
HETATM   13  S   UNL     1     -11.892  14.106  67.106  1.00  0.00    -0.430 SA 
HETATM   14  S   UNL     1     -10.920  15.636  68.034  1.00  0.00    -0.327 SA 
ENDBRANCH   6   9
ENDBRANCH   2   3
TORSDOF 2
ENDMDL
MODEL       25
REMARK 921   NORMALIZED FREE ENERGY PREDICTED BY IDOCK:   -4.61 KCAL/MOL
REMARK 922        TOTAL FREE ENERGY PREDICTED BY IDOCK:   -5.34 KCAL/MOL
REMARK 923 INTER-LIGAND FREE ENERGY PREDICTED BY IDOCK:   -5.16 KCAL/MOL
REMARK 924 INTRA-LIGAND FREE ENERGY PREDICTED BY IDOCK:   -0.18 KCAL/MOL
REMARK 927      BINDING AFFINITY PREDICTED BY RF-SCORE:    0.00 PKD
ROOT
HETATM    1  C   UNL     1     -11.088  15.654  64.686  1.00  0.00    -0.373 C  
HETATM    2  O   UNL     1     -12.145  14.714  64.875  1.00  0.00    -0.401 OA 
ENDROOT
BRANCH   2   3
HETATM    3  C   UNL     1     -11.920  13.785  65.852  1.00  0.00    -0.406 A  
HETATM    4  C   UNL     1     -11.567  12.461  65.616  1.00  0.00    -0.441 A  
HETATM    5  C   UNL     1     -11.381  11.582  66.688  1.00  0.00    -0.285 A  
HETATM    6  C   UNL     1     -11.556  11.997  68.019  1.00  0.00    -0.407 A  
HETATM    7  C   UNL     1     -12.033  14.235  67.167  1.00  0.00    -0.449 A  
HETATM    8  C   UNL     1     -11.866  13.349  68.240  1.00  0.00    -0.393 A  
BRANCH   6   9
HETATM    9  C   UNL     1     -11.439  11.033  69.140  1.00  0.00    -0.301 C  
HETATM   10  C   UNL     1     -12.444  10.740  69.976  1.00  0.00    -0.317 C  
HETATM   11  C   UNL     1     -12.162   9.761  71.050  1.00  0.00    -0.347 C  
HETATM   12  S   UNL     1     -13.279   9.226  72.172  1.00  0.00    -0.478 S  
HETATM   13  S   UNL     1     -10.491   9.228  71.044  1.00  0.00    -0.329 SA 
HETATM   14  S   UNL     1      -9.922  10.212  69.355  1.00  0.00    -0.235 SA 
ENDBRANCH   6   9
ENDBRANCH   2   3
TORSDOF 2
ENDMDL
MODEL       26
REMARK 921   NORMALIZED FREE ENERGY PREDICTED BY IDOCK:   -4.53 KCAL/MOL
REMARK 922        TOTAL FREE ENERGY PREDICTED BY IDOCK:   -5.26 KCAL/MOL
REMARK 923 INTER-LIGAND FREE ENERGY PREDICTED BY IDOCK:   -5.08 KCAL/MOL
REMARK 924 INTRA-LIGAND FREE ENERGY PREDICTED BY IDOCK:   -0.18 KCAL/MOL
REMARK 927      BINDING AFFINITY PREDICTED BY RF-SCORE:    0.00 PKD
ROOT
HETATM    1  C   UNL     1     -12.040  14.030  65.045  1.00  0.00    -0.415 C  
HETATM    2  O   UNL     1     -12.127  14.425  66.414  1.00  0.00    -0.414 OA 
ENDROOT
BRANCH   2   3
HETATM    3  C   UNL     1     -11.915  13.421  67.317  1.00  0.00    -0.347 A  
HETATM    4  C   UNL     1     -11.607  12.107  66.980  1.00  0.00    -0.406 A  
HETATM    5  C   UNL     1     -11.430  11.148  67.981  1.00  0.00    -0.366 A  
HETATM    6  C   UNL     1     -11.569  11.470  69.341  1.00  0.00    -0.388 A  
HETATM    7  C   UNL     1     -11.991  13.777  68.663  1.00  0.00    -0.401 A  
HETATM    8  C   UNL     1     -11.833  12.811  69.666  1.00  0.00    -0.384 A  
BRANCH   6   9
HETATM    9  C   UNL     1     -11.463  10.424  70.388  1.00  0.00    -0.337 C  
HETATM   10  C   UNL     1     -10.342   9.734  70.640  1.00  0.00    -0.330 C  
HETATM   11  C   UNL     1     -10.404   8.718  71.713  1.00  0.00    -0.343 C  
HETATM   12  S   UNL     1      -9.117   7.778  72.214  1.00  0.00    -0.164 S  
HETATM   13  S   UNL     1     -12.010   8.576  72.405  1.00  0.00    -0.320 SA 
HETATM   14  S   UNL     1     -12.864  10.104  71.366  1.00  0.00    -0.463 SA 
ENDBRANCH   6   9
ENDBRANCH   2   3
TORSDOF 2
ENDMDL
MODEL       27
REMARK 921   NORMALIZED FREE ENERGY PREDICTED BY IDOCK:   -4.50 KCAL/MOL
REMARK 922        TOTAL FREE ENERGY PREDICTED BY IDOCK:   -5.23 KCAL/MOL
REMARK 923 INTER-LIGAND FREE ENERGY PREDICTED BY IDOCK:   -5.05 KCAL/MOL
REMARK 924 INTRA-LIGAND FREE ENERGY PREDICTED BY IDOCK:   -0.18 KCAL/MOL
REMARK 927      BINDING AFFINITY PREDICTED BY RF-SCORE:    0.00 PKD
ROOT
HETATM    1  C   UNL     1      -6.415  21.176  67.026  1.00  0.00    -0.344 C  
HETATM    2  O   UNL     1      -7.831  21.267  67.184  1.00  0.00    -0.274 OA 
ENDROOT
BRANCH   2   3
HETATM    3  C   UNL     1      -8.442  20.108  67.574  1.00  0.00    -0.335 A  
HETATM    4  C   UNL     1      -7.792  19.037  68.179  1.00  0.00    -0.334 A  
HETATM    5  C   UNL     1      -8.506  17.885  68.520  1.00  0.00    -0.303 A  
HETATM    6  C   UNL     1      -9.881  17.766  68.256  1.00  0.00    -0.340 A  
HETATM    7  C   UNL     1      -9.819  20.038  67.365  1.00  0.00    -0.558 A  
HETATM    8  C   UNL     1     -10.530  18.875  67.690  1.00  0.00    -0.514 A  
BRANCH   6   9
HETATM    9  C   UNL     1     -10.607  16.505  68.546  1.00  0.00    -0.318 C  
HETATM   10  C   UNL     1     -11.116  16.199  69.747  1.00  0.00    -0.350 C  
HETATM   11  C   UNL     1     -11.805  14.896  69.873  1.00  0.00    -0.311 C  
HETATM   12  S   UNL     1     -12.544  14.336  71.264  1.00  0.00    -0.385 S  
HETATM   13  S   UNL     1     -11.746  13.963  68.389  1.00  0.00    -0.373 SA 
HETATM   14  S   UNL     1     -10.842  15.381  67.241  1.00  0.00    -0.311 SA 
ENDBRANCH   6   9
ENDBRANCH   2   3
TORSDOF 2
ENDMDL
MODEL       28
REMARK 921   NORMALIZED FREE ENERGY PREDICTED BY IDOCK:   -4.50 KCAL/MOL
REMARK 922        TOTAL FREE ENERGY PREDICTED BY IDOCK:   -5.23 KCAL/MOL
REMARK 923 INTER-LIGAND FREE ENERGY PREDICTED BY IDOCK:   -5.04 KCAL/MOL
REMARK 924 INTRA-LIGAND FREE ENERGY PREDICTED BY IDOCK:   -0.19 KCAL/MOL
REMARK 927      BINDING AFFINITY PREDICTED BY RF-SCORE:    0.00 PKD
ROOT
HETATM    1  C   UNL     1     -11.293   7.628  72.709  1.00  0.00    -0.367 C  
HETATM    2  O   UNL     1     -12.376   8.547  72.568  1.00  0.00    -0.388 OA 
ENDROOT
BRANCH   2   3
HETATM    3  C   UNL     1     -12.166   9.549  71.662  1.00  0.00    -0.398 A  
HETATM    4  C   UNL     1     -11.213   9.513  70.651  1.00  0.00    -0.364 A  
HETATM    5  C   UNL     1     -11.062  10.602  69.788  1.00  0.00    -0.358 A  
HETATM    6  C   UNL     1     -11.848  11.760  69.920  1.00  0.00    -0.423 A  
HETATM    7  C   UNL     1     -13.003  10.660  71.769  1.00  0.00    -0.577 A  
HETATM    8  C   UNL     1     -12.838  11.760  70.916  1.00  0.00    -0.243 A  
BRANCH   6   9
HETATM    9  C   UNL     1     -11.619  12.941  69.052  1.00  0.00    -0.322 C  
HETATM   10  C   UNL     1     -11.372  14.171  69.520  1.00  0.00    -0.308 C  
HETATM   11  C   UNL     1     -11.174  15.244  68.521  1.00  0.00    -0.303 C  
HETATM   12  S   UNL     1     -10.816  16.835  68.886  1.00  0.00    -0.263 S  
HETATM   13  S   UNL     1     -11.383  14.671  66.877  1.00  0.00    -0.358 SA 
HETATM   14  S   UNL     1     -11.636  12.702  67.330  1.00  0.00    -0.369 SA 
ENDBRANCH   6   9
ENDBRANCH   2   3
TORSDOF 2
ENDMDL
MODEL       29
REMARK 921   NORMALIZED FREE ENERGY PREDICTED BY IDOCK:   -4.49 KCAL/MOL
REMARK 922        TOTAL FREE ENERGY PREDICTED BY IDOCK:   -5.21 KCAL/MOL
REMARK 923 INTER-LIGAND FREE ENERGY PREDICTED BY IDOCK:   -5.01 KCAL/MOL
REMARK 924 INTRA-LIGAND FREE ENERGY PREDICTED BY IDOCK:   -0.20 KCAL/MOL
REMARK 927      BINDING AFFINITY PREDICTED BY RF-SCORE:    0.00 PKD
ROOT
HETATM    1  C   UNL     1      -9.139  19.562  66.289  1.00  0.00    -0.360 C  
HETATM    2  O   UNL     1     -10.087  18.689  65.677  1.00  0.00    -0.495 OA 
ENDROOT
BRANCH   2   3
HETATM    3  C   UNL     1     -10.372  17.559  66.391  1.00  0.00    -0.334 A  
HETATM    4  C   UNL     1     -10.433  16.278  65.852  1.00  0.00    -0.359 A  
HETATM    5  C   UNL     1     -10.756  15.188  66.665  1.00  0.00    -0.310 A  
HETATM    6  C   UNL     1     -11.038  15.348  68.032  1.00  0.00    -0.312 A  
HETATM    7  C   UNL     1     -10.582  17.731  67.759  1.00  0.00    -0.392 A  
HETATM    8  C   UNL     1     -10.924  16.640  68.570  1.00  0.00    -0.339 A  
BRANCH   6   9
HETATM    9  C   UNL     1     -11.462  14.195  68.864  1.00  0.00    -0.293 C  
HETATM   10  C   UNL     1     -12.176  14.313  69.991  1.00  0.00    -0.417 C  
HETATM   11  C   UNL     1     -12.512  13.064  70.710  1.00  0.00    -0.302 C  
HETATM   12  S   UNL     1     -13.425  12.982  72.107  1.00  0.00    -0.468 S  
HETATM   13  S   UNL     1     -11.816  11.648  69.945  1.00  0.00    -0.350 SA 
HETATM   14  S   UNL     1     -11.037  12.599  68.322  1.00  0.00    -0.281 SA 
ENDBRANCH   6   9
ENDBRANCH   2   3
TORSDOF 2
ENDMDL
MODEL       30
REMARK 921   NORMALIZED FREE ENERGY PREDICTED BY IDOCK:   -4.49 KCAL/MOL
REMARK 922        TOTAL FREE ENERGY PREDICTED BY IDOCK:   -5.21 KCAL/MOL
REMARK 923 INTER-LIGAND FREE ENERGY PREDICTED BY IDOCK:   -5.02 KCAL/MOL
REMARK 924 INTRA-LIGAND FREE ENERGY PREDICTED BY IDOCK:   -0.20 KCAL/MOL
REMARK 927      BINDING AFFINITY PREDICTED BY RF-SCORE:    0.00 PKD
ROOT
HETATM    1  C   UNL     1     -11.649  14.308  65.170  1.00  0.00    -0.355 C  
HETATM    2  O   UNL     1     -11.652  14.821  66.502  1.00  0.00    -0.355 OA 
ENDROOT
BRANCH   2   3
HETATM    3  C   UNL     1     -11.723  13.873  67.483  1.00  0.00    -0.380 A  
HETATM    4  C   UNL     1     -11.970  14.141  68.825  1.00  0.00    -0.367 A  
HETATM    5  C   UNL     1     -12.000  13.099  69.756  1.00  0.00    -0.382 A  
HETATM    6  C   UNL     1     -11.774  11.765  69.375  1.00  0.00    -0.405 A  
HETATM    7  C   UNL     1     -11.563  12.549  67.073  1.00  0.00    -0.437 A  
HETATM    8  C   UNL     1     -11.575  11.507  68.009  1.00  0.00    -0.370 A  
BRANCH   6   9
HETATM    9  C   UNL     1     -11.726  10.681  70.386  1.00  0.00    -0.353 C  
HETATM   10  C   UNL     1     -10.635   9.944  70.634  1.00  0.00    -0.341 C  
HETATM   11  C   UNL     1     -10.754   8.893  71.670  1.00  0.00    -0.347 C  
HETATM   12  S   UNL     1      -9.510   7.892  72.162  1.00  0.00    -0.196 S  
HETATM   13  S   UNL     1     -12.376   8.785  72.327  1.00  0.00    -0.353 SA 
HETATM   14  S   UNL     1     -13.156  10.378  71.326  1.00  0.00    -0.374 SA 
ENDBRANCH   6   9
ENDBRANCH   2   3
TORSDOF 2
ENDMDL
MODEL       31
REMARK 921   NORMALIZED FREE ENERGY PREDICTED BY IDOCK:   -4.48 KCAL/MOL
REMARK 922        TOTAL FREE ENERGY PREDICTED BY IDOCK:   -5.20 KCAL/MOL
REMARK 923 INTER-LIGAND FREE ENERGY PREDICTED BY IDOCK:   -5.01 KCAL/MOL
REMARK 924 INTRA-LIGAND FREE ENERGY PREDICTED BY IDOCK:   -0.20 KCAL/MOL
REMARK 927      BINDING AFFINITY PREDICTED BY RF-SCORE:    0.00 PKD
ROOT
HETATM    1  C   UNL     1      -9.811  10.679  63.107  1.00  0.00    -0.302 C  
HETATM    2  O   UNL     1     -11.095  11.229  63.398  1.00  0.00    -0.329 OA 
ENDROOT
BRANCH   2   3
HETATM    3  C   UNL     1     -11.074  12.393  64.113  1.00  0.00    -0.372 A  
HETATM    4  C   UNL     1     -11.941  13.461  63.911  1.00  0.00    -0.520 A  
HETATM    5  C   UNL     1     -11.821  14.620  64.683  1.00  0.00    -0.459 A  
HETATM    6  C   UNL     1     -10.826  14.750  65.666  1.00  0.00    -0.344 A  
HETATM    7  C   UNL     1     -10.122  12.474  65.130  1.00  0.00    -0.266 A  
HETATM    8  C   UNL     1      -9.990  13.644  65.891  1.00  0.00    -0.304 A  
BRANCH   6   9
HETATM    9  C   UNL     1     -10.657  16.017  66.419  1.00  0.00    -0.284 C  
HETATM   10  C   UNL     1     -10.459  17.207  65.836  1.00  0.00    -0.265 C  
HETATM   11  C   UNL     1     -10.300  18.376  66.729  1.00  0.00    -0.394 C  
HETATM   12  S   UNL     1     -10.085  19.950  66.213  1.00  0.00    -0.508 S  
HETATM   13  S   UNL     1     -10.335  17.928  68.425  1.00  0.00    -0.348 SA 
HETATM   14  S   UNL     1     -10.760  15.955  68.153  1.00  0.00    -0.314 SA 
ENDBRANCH   6   9
ENDBRANCH   2   3
TORSDOF 2
ENDMDL
MODEL       32
REMARK 921   NORMALIZED FREE ENERGY PREDICTED BY IDOCK:   -4.47 KCAL/MOL
REMARK 922        TOTAL FREE ENERGY PREDICTED BY IDOCK:   -5.20 KCAL/MOL
REMARK 923 INTER-LIGAND FREE ENERGY PREDICTED BY IDOCK:   -5.02 KCAL/MOL
REMARK 924 INTRA-LIGAND FREE ENERGY PREDICTED BY IDOCK:   -0.18 KCAL/MOL
REMARK 927      BINDING AFFINITY PREDICTED BY RF-SCORE:    0.00 PKD
ROOT
HETATM    1  C   UNL     1     -10.441  15.532  65.314  1.00  0.00    -0.411 C  
HETATM    2  O   UNL     1     -11.676  14.827  65.444  1.00  0.00    -0.344 OA 
ENDROOT
BRANCH   2   3
HETATM    3  C   UNL     1     -11.724  13.938  66.481  1.00  0.00    -0.393 A  
HETATM    4  C   UNL     1     -11.971  14.282  67.805  1.00  0.00    -0.384 A  
HETATM    5  C   UNL     1     -11.977  13.297  68.797  1.00  0.00    -0.335 A  
HETATM    6  C   UNL     1     -11.725  11.947  68.496  1.00  0.00    -0.388 A  
HETATM    7  C   UNL     1     -11.539  12.595  66.150  1.00  0.00    -0.445 A  
HETATM    8  C   UNL     1     -11.526  11.611  67.147  1.00  0.00    -0.344 A  
BRANCH   6   9
HETATM    9  C   UNL     1     -11.651  10.927  69.570  1.00  0.00    -0.313 C  
HETATM   10  C   UNL     1     -12.688  10.585  70.345  1.00  0.00    -0.325 C  
HETATM   11  C   UNL     1     -12.447   9.554  71.378  1.00  0.00    -0.362 C  
HETATM   12  S   UNL     1     -13.608   8.954  72.420  1.00  0.00    -0.416 S  
HETATM   13  S   UNL     1     -10.773   9.030  71.419  1.00  0.00    -0.357 SA 
HETATM   14  S   UNL     1     -10.138  10.104  69.809  1.00  0.00    -0.203 SA 
ENDBRANCH   6   9
ENDBRANCH   2   3
TORSDOF 2
ENDMDL
MODEL       33
REMARK 921   NORMALIZED FREE ENERGY PREDICTED BY IDOCK:   -4.47 KCAL/MOL
REMARK 922        TOTAL FREE ENERGY PREDICTED BY IDOCK:   -5.19 KCAL/MOL
REMARK 923 INTER-LIGAND FREE ENERGY PREDICTED BY IDOCK:   -5.00 KCAL/MOL
REMARK 924 INTRA-LIGAND FREE ENERGY PREDICTED BY IDOCK:   -0.19 KCAL/MOL
REMARK 927      BINDING AFFINITY PREDICTED BY RF-SCORE:    0.00 PKD
ROOT
HETATM    1  C   UNL     1     -13.170   9.369  72.114  1.00  0.00    -0.460 C  
HETATM    2  O   UNL     1     -11.823   9.712  71.792  1.00  0.00    -0.386 OA 
ENDROOT
BRANCH   2   3
HETATM    3  C   UNL     1     -11.635  10.171  70.518  1.00  0.00    -0.329 A  
HETATM    4  C   UNL     1     -12.128  11.377  70.032  1.00  0.00    -0.417 A  
HETATM    5  C   UNL     1     -11.900  11.745  68.703  1.00  0.00    -0.369 A  
HETATM    6  C   UNL     1     -11.186  10.916  67.822  1.00  0.00    -0.384 A  
HETATM    7  C   UNL     1     -10.867   9.363  69.680  1.00  0.00    -0.245 A  
HETATM    8  C   UNL     1     -10.654   9.724  68.342  1.00  0.00    -0.264 A  
BRANCH   6   9
HETATM    9  C   UNL     1     -11.024  11.280  66.393  1.00  0.00    -0.227 C  
HETATM   10  C   UNL     1     -10.265  10.590  65.531  1.00  0.00    -0.325 C  
HETATM   11  C   UNL     1     -10.203  11.090  64.140  1.00  0.00    -0.357 C  
HETATM   12  S   UNL     1      -9.353  10.362  62.900  1.00  0.00    -0.329 S  
HETATM   13  S   UNL     1     -11.112  12.575  63.924  1.00  0.00    -0.459 SA 
HETATM   14  S   UNL     1     -11.901  12.658  65.799  1.00  0.00    -0.445 SA 
ENDBRANCH   6   9
ENDBRANCH   2   3
TORSDOF 2
ENDMDL
MODEL       34
REMARK 921   NORMALIZED FREE ENERGY PREDICTED BY IDOCK:   -4.46 KCAL/MOL
REMARK 922        TOTAL FREE ENERGY PREDICTED BY IDOCK:   -5.18 KCAL/MOL
REMARK 923 INTER-LIGAND FREE ENERGY PREDICTED BY IDOCK:   -4.98 KCAL/MOL
REMARK 924 INTRA-LIGAND FREE ENERGY PREDICTED BY IDOCK:   -0.20 KCAL/MOL
REMARK 927      BINDING AFFINITY PREDICTED BY RF-SCORE:    0.00 PKD
ROOT
HETATM    1  C   UNL     1      -9.332  10.555  62.682  1.00  0.00    -0.312 C  
HETATM    2  O   UNL     1      -9.824  11.853  63.014  1.00  0.00    -0.385 OA 
ENDROOT
BRANCH   2   3
HETATM    3  C   UNL     1     -10.349  11.965  64.271  1.00  0.00    -0.321 A  
HETATM    4  C   UNL     1     -11.231  12.963  64.673  1.00  0.00    -0.353 A  
HETATM    5  C   UNL     1     -11.692  13.002  65.992  1.00  0.00    -0.442 A  
HETATM    6  C   UNL     1     -11.278  12.057  66.945  1.00  0.00    -0.375 A  
HETATM    7  C   UNL     1      -9.977  10.978  65.183  1.00  0.00    -0.333 A  
HETATM    8  C   UNL     1     -10.426  11.029  66.510  1.00  0.00    -0.309 A  
BRANCH   6   9
HETATM    9  C   UNL     1     -11.709  12.161  68.361  1.00  0.00    -0.332 C  
HETATM   10  C   UNL     1     -11.953  11.102  69.144  1.00  0.00    -0.413 C  
HETATM   11  C   UNL     1     -12.384  11.377  70.533  1.00  0.00    -0.349 C  
HETATM   12  S   UNL     1     -12.700  10.208  71.684  1.00  0.00    -0.460 S  
HETATM   13  S   UNL     1     -12.560  13.093  70.849  1.00  0.00    -0.227 SA 
HETATM   14  S   UNL     1     -11.870  13.749  69.049  1.00  0.00    -0.369 SA 
ENDBRANCH   6   9
ENDBRANCH   2   3
TORSDOF 2
ENDMDL
MODEL       35
REMARK 921   NORMALIZED FREE ENERGY PREDICTED BY IDOCK:   -4.43 KCAL/MOL
REMARK 922        TOTAL FREE ENERGY PREDICTED BY IDOCK:   -5.14 KCAL/MOL
REMARK 923 INTER-LIGAND FREE ENERGY PREDICTED BY IDOCK:   -4.94 KCAL/MOL
REMARK 924 INTRA-LIGAND FREE ENERGY PREDICTED BY IDOCK:   -0.20 KCAL/MOL
REMARK 927      BINDING AFFINITY PREDICTED BY RF-SCORE:    0.00 PKD
ROOT
HETATM    1  C   UNL     1     -11.691  16.145  64.216  1.00  0.00     0.003 C  
HETATM    2  O   UNL     1     -12.444  14.940  64.081  1.00  0.00    -0.763 OA 
ENDROOT
BRANCH   2   3
HETATM    3  C   UNL     1     -12.037  13.915  64.888  1.00  0.00    -0.414 A  
HETATM    4  C   UNL     1     -11.474  12.727  64.433  1.00  0.00    -0.404 A  
HETATM    5  C   UNL     1     -11.112  11.728  65.342  1.00  0.00    -0.336 A  
HETATM    6  C   UNL     1     -11.312  11.883  66.724  1.00  0.00    -0.393 A  
HETATM    7  C   UNL     1     -12.183  14.116  66.261  1.00  0.00    -0.474 A  
HETATM    8  C   UNL     1     -11.837  13.107  67.169  1.00  0.00    -0.424 A  
BRANCH   6   9
HETATM    9  C   UNL     1     -11.002  10.781  67.668  1.00  0.00    -0.306 C  
HETATM   10  C   UNL     1     -11.392  10.767  68.949  1.00  0.00    -0.349 C  
HETATM   11  C   UNL     1     -10.993   9.597  69.762  1.00  0.00    -0.240 C  
HETATM   12  S   UNL     1     -11.407   9.359  71.363  1.00  0.00    -0.394 S  
HETATM   13  S   UNL     1      -9.996   8.469  68.862  1.00  0.00    -0.195 SA 
HETATM   14  S   UNL     1     -10.112   9.416  67.063  1.00  0.00    -0.257 SA 
ENDBRANCH   6   9
ENDBRANCH   2   3
TORSDOF 2
ENDMDL
MODEL       36
REMARK 921   NORMALIZED FREE ENERGY PREDICTED BY IDOCK:   -4.42 KCAL/MOL
REMARK 922        TOTAL FREE ENERGY PREDICTED BY IDOCK:   -5.13 KCAL/MOL
REMARK 923 INTER-LIGAND FREE ENERGY PREDICTED BY IDOCK:   -4.95 KCAL/MOL
REMARK 924 INTRA-LIGAND FREE ENERGY PREDICTED BY IDOCK:   -0.19 KCAL/MOL
REMARK 927      BINDING AFFINITY PREDICTED BY RF-SCORE:    0.00 PKD
ROOT
HETATM    1  C   UNL     1     -10.221  17.496  68.925  1.00  0.00    -0.353 C  
HETATM    2  O   UNL     1     -11.250  16.756  68.269  1.00  0.00    -0.333 OA 
ENDROOT
BRANCH   2   3
HETATM    3  C   UNL     1     -11.468  15.504  68.773  1.00  0.00    -0.355 A  
HETATM    4  C   UNL     1     -12.054  15.239  70.006  1.00  0.00    -0.386 A  
HETATM    5  C   UNL     1     -12.212  13.920  70.439  1.00  0.00    -0.438 A  
HETATM    6  C   UNL     1     -11.778  12.832  69.662  1.00  0.00    -0.372 A  
HETATM    7  C   UNL     1     -11.091  14.438  67.956  1.00  0.00    -0.287 A  
HETATM    8  C   UNL     1     -11.232  13.116  68.400  1.00  0.00    -0.305 A  
BRANCH   6   9
HETATM    9  C   UNL     1     -11.874  11.443  70.173  1.00  0.00    -0.355 C  
HETATM   10  C   UNL     1     -12.834  11.022  71.007  1.00  0.00    -0.442 C  
HETATM   11  C   UNL     1     -12.783   9.605  71.430  1.00  0.00    -0.374 C  
HETATM   12  S   UNL     1     -13.900   8.866  72.430  1.00  0.00    -0.403 S  
HETATM   13  S   UNL     1     -11.386   8.765  70.783  1.00  0.00    -0.264 SA 
HETATM   14  S   UNL     1     -10.694  10.290  69.625  1.00  0.00    -0.280 SA 
ENDBRANCH   6   9
ENDBRANCH   2   3
TORSDOF 2
ENDMDL
MODEL       37
REMARK 921   NORMALIZED FREE ENERGY PREDICTED BY IDOCK:   -4.41 KCAL/MOL
REMARK 922        TOTAL FREE ENERGY PREDICTED BY IDOCK:   -5.13 KCAL/MOL
REMARK 923 INTER-LIGAND FREE ENERGY PREDICTED BY IDOCK:   -4.93 KCAL/MOL
REMARK 924 INTRA-LIGAND FREE ENERGY PREDICTED BY IDOCK:   -0.20 KCAL/MOL
REMARK 927      BINDING AFFINITY PREDICTED BY RF-SCORE:    0.00 PKD
ROOT
HETATM    1  C   UNL     1     -11.714   7.833  72.069  1.00  0.00    -0.304 C  
HETATM    2  O   UNL     1     -11.331   9.202  71.948  1.00  0.00    -0.365 OA 
ENDROOT
BRANCH   2   3
HETATM    3  C   UNL     1     -11.274   9.673  70.666  1.00  0.00    -0.320 A  
HETATM    4  C   UNL     1     -10.631   9.027  69.616  1.00  0.00    -0.230 A  
HETATM    5  C   UNL     1     -10.611   9.604  68.343  1.00  0.00    -0.264 A  
HETATM    6  C   UNL     1     -11.219  10.845  68.088  1.00  0.00    -0.363 A  
HETATM    7  C   UNL     1     -11.942  10.872  70.420  1.00  0.00    -0.453 A  
HETATM    8  C   UNL     1     -11.905  11.460  69.148  1.00  0.00    -0.413 A  
BRANCH   6   9
HETATM    9  C   UNL     1     -11.117  11.485  66.754  1.00  0.00    -0.302 C  
HETATM   10  C   UNL     1     -11.711  12.643  66.437  1.00  0.00    -0.466 C  
HETATM   11  C   UNL     1     -11.517  13.144  65.058  1.00  0.00    -0.308 C  
HETATM   12  S   UNL     1     -12.134  14.581  64.468  1.00  0.00    -0.446 S  
HETATM   13  S   UNL     1     -10.574  12.041  64.074  1.00  0.00    -0.422 SA 
HETATM   14  S   UNL     1     -10.138  10.705  65.548  1.00  0.00    -0.275 SA 
ENDBRANCH   6   9
ENDBRANCH   2   3
TORSDOF 2
ENDMDL
MODEL       38
REMARK 921   NORMALIZED FREE ENERGY PREDICTED BY IDOCK:   -4.38 KCAL/MOL
REMARK 922        TOTAL FREE ENERGY PREDICTED BY IDOCK:   -5.10 KCAL/MOL
REMARK 923 INTER-LIGAND FREE ENERGY PREDICTED BY IDOCK:   -4.89 KCAL/MOL
REMARK 924 INTRA-LIGAND FREE ENERGY PREDICTED BY IDOCK:   -0.21 KCAL/MOL
REMARK 927      BINDING AFFINITY PREDICTED BY RF-SCORE:    0.00 PKD
ROOT
HETATM    1  C   UNL     1     -14.403  15.093  71.913  1.00  0.00    -0.596 C  
HETATM    2  O   UNL     1     -13.935  13.940  72.612  1.00  0.00    -0.684 OA 
ENDROOT
BRANCH   2   3
HETATM    3  C   UNL     1     -13.274  13.028  71.838  1.00  0.00    -0.430 A  
HETATM    4  C   UNL     1     -13.324  11.650  72.024  1.00  0.00    -0.405 A  
HETATM    5  C   UNL     1     -12.591  10.802  71.189  1.00  0.00    -0.532 A  
HETATM    6  C   UNL     1     -11.781  11.304  70.157  1.00  0.00    -0.429 A  
HETATM    7  C   UNL     1     -12.529  13.544  70.778  1.00  0.00    -0.428 A  
HETATM    8  C   UNL     1     -11.780  12.694  69.954  1.00  0.00    -0.320 A  
BRANCH   6   9
HETATM    9  C   UNL     1     -10.943  10.398  69.335  1.00  0.00    -0.251 C  
HETATM   10  C   UNL     1     -10.900   9.069  69.501  1.00  0.00    -0.177 C  
HETATM   11  C   UNL     1     -10.006   8.307  68.602  1.00  0.00    -0.190 C  
HETATM   12  S   UNL     1      -9.833   6.645  68.611  1.00  0.00    -0.140 S  
HETATM   13  S   UNL     1      -9.104   9.350  67.518  1.00  0.00    -0.123 SA 
HETATM   14  S   UNL     1      -9.993  11.100  68.060  1.00  0.00    -0.181 SA 
ENDBRANCH   6   9
ENDBRANCH   2   3
TORSDOF 2
ENDMDL
MODEL       39
REMARK 921   NORMALIZED FREE ENERGY PREDICTED BY IDOCK:   -4.37 KCAL/MOL
REMARK 922        TOTAL FREE ENERGY PREDICTED BY IDOCK:   -5.08 KCAL/MOL
REMARK 923 INTER-LIGAND FREE ENERGY PREDICTED BY IDOCK:   -4.89 KCAL/MOL
REMARK 924 INTRA-LIGAND FREE ENERGY PREDICTED BY IDOCK:   -0.19 KCAL/MOL
REMARK 927      BINDING AFFINITY PREDICTED BY RF-SCORE:    0.00 PKD
ROOT
HETATM    1  C   UNL     1     -11.143   7.217  72.221  1.00  0.00    -0.254 C  
HETATM    2  O   UNL     1     -11.129   8.627  72.439  1.00  0.00    -0.354 OA 
ENDROOT
BRANCH   2   3
HETATM    3  C   UNL     1     -11.184   9.385  71.303  1.00  0.00    -0.367 A  
HETATM    4  C   UNL     1     -10.452   9.131  70.147  1.00  0.00    -0.249 A  
HETATM    5  C   UNL     1     -10.564   9.982  69.044  1.00  0.00    -0.235 A  
HETATM    6  C   UNL     1     -11.397  11.113  69.068  1.00  0.00    -0.343 A  
HETATM    7  C   UNL     1     -12.068  10.464  71.324  1.00  0.00    -0.461 A  
HETATM    8  C   UNL     1     -12.165  11.327  70.224  1.00  0.00    -0.428 A  
BRANCH   6   9
HETATM    9  C   UNL     1     -11.440  12.054  67.922  1.00  0.00    -0.330 C  
HETATM   10  C   UNL     1     -11.234  11.686  66.650  1.00  0.00    -0.362 C  
HETATM   11  C   UNL     1     -11.304  12.749  65.623  1.00  0.00    -0.319 C  
HETATM   12  S   UNL     1     -11.119  12.503  63.980  1.00  0.00    -0.434 S  
HETATM   13  S   UNL     1     -11.580  14.334  66.321  1.00  0.00    -0.383 SA 
HETATM   14  S   UNL     1     -11.817  13.719  68.248  1.00  0.00    -0.371 SA 
ENDBRANCH   6   9
ENDBRANCH   2   3
TORSDOF 2
ENDMDL
MODEL       40
REMARK 921   NORMALIZED FREE ENERGY PREDICTED BY IDOCK:   -4.33 KCAL/MOL
REMARK 922        TOTAL FREE ENERGY PREDICTED BY IDOCK:   -5.04 KCAL/MOL
REMARK 923 INTER-LIGAND FREE ENERGY PREDICTED BY IDOCK:   -4.84 KCAL/MOL
REMARK 924 INTRA-LIGAND FREE ENERGY PREDICTED BY IDOCK:   -0.20 KCAL/MOL
REMARK 927      BINDING AFFINITY PREDICTED BY RF-SCORE:    0.00 PKD
ROOT
HETATM    1  C   UNL     1     -11.219  15.689  64.594  1.00  0.00    -0.369 C  
HETATM    2  O   UNL     1     -12.077  14.549  64.582  1.00  0.00    -0.438 OA 
ENDROOT
BRANCH   2   3
HETATM    3  C   UNL     1     -11.853  13.650  65.586  1.00  0.00    -0.364 A  
HETATM    4  C   UNL     1     -11.417  12.343  65.394  1.00  0.00    -0.402 A  
HETATM    5  C   UNL     1     -11.239  11.494  66.490  1.00  0.00    -0.324 A  
HETATM    6  C   UNL     1     -11.503  11.920  67.803  1.00  0.00    -0.389 A  
HETATM    7  C   UNL     1     -12.057  14.115  66.886  1.00  0.00    -0.466 A  
HETATM    8  C   UNL     1     -11.896  13.256  67.982  1.00  0.00    -0.392 A  
BRANCH   6   9
HETATM    9  C   UNL     1     -11.392  10.983  68.947  1.00  0.00    -0.280 C  
HETATM   10  C   UNL     1     -10.684   9.846  68.911  1.00  0.00    -0.244 C  
HETATM   11  C   UNL     1     -10.681   9.016  70.136  1.00  0.00    -0.233 C  
HETATM   12  S   UNL     1      -9.835   7.587  70.320  1.00  0.00    -0.184 S  
HETATM   13  S   UNL     1     -11.701   9.684  71.397  1.00  0.00    -0.407 SA 
HETATM   14  S   UNL     1     -12.198  11.406  70.428  1.00  0.00    -0.349 SA 
ENDBRANCH   6   9
ENDBRANCH   2   3
TORSDOF 2
ENDMDL
MODEL       41
REMARK 921   NORMALIZED FREE ENERGY PREDICTED BY IDOCK:   -4.33 KCAL/MOL
REMARK 922        TOTAL FREE ENERGY PREDICTED BY IDOCK:   -5.03 KCAL/MOL
REMARK 923 INTER-LIGAND FREE ENERGY PREDICTED BY IDOCK:   -4.83 KCAL/MOL
REMARK 924 INTRA-LIGAND FREE ENERGY PREDICTED BY IDOCK:   -0.21 KCAL/MOL
REMARK 927      BINDING AFFINITY PREDICTED BY RF-SCORE:    0.00 PKD
ROOT
HETATM    1  C   UNL     1     -12.252   9.488  71.948  1.00  0.00    -0.358 C  
HETATM    2  O   UNL     1     -13.046  10.674  71.915  1.00  0.00    -0.469 OA 
ENDROOT
BRANCH   2   3
HETATM    3  C   UNL     1     -12.598  11.642  71.061  1.00  0.00    -0.331 A  
HETATM    4  C   UNL     1     -12.934  12.989  71.147  1.00  0.00    -0.265 A  
HETATM    5  C   UNL     1     -12.439  13.898  70.208  1.00  0.00    -0.380 A  
HETATM    6  C   UNL     1     -11.607  13.487  69.153  1.00  0.00    -0.359 A  
HETATM    7  C   UNL     1     -11.719  11.223  70.061  1.00  0.00    -0.428 A  
HETATM    8  C   UNL     1     -11.238  12.132  69.109  1.00  0.00    -0.303 A  
BRANCH   6   9
HETATM    9  C   UNL     1     -11.158  14.448  68.116  1.00  0.00    -0.264 C  
HETATM   10  C   UNL     1     -11.022  15.763  68.329  1.00  0.00    -0.325 C  
HETATM   11  C   UNL     1     -10.572  16.588  67.186  1.00  0.00    -0.270 C  
HETATM   12  S   UNL     1     -10.299  18.235  67.245  1.00  0.00    -0.399 S  
HETATM   13  S   UNL     1     -10.374  15.644  65.721  1.00  0.00    -0.391 SA 
HETATM   14  S   UNL     1     -10.752  13.821  66.546  1.00  0.00    -0.286 SA 
ENDBRANCH   6   9
ENDBRANCH   2   3
TORSDOF 2
ENDMDL
MODEL       42
REMARK 921   NORMALIZED FREE ENERGY PREDICTED BY IDOCK:   -4.33 KCAL/MOL
REMARK 922        TOTAL FREE ENERGY PREDICTED BY IDOCK:   -5.03 KCAL/MOL
REMARK 923 INTER-LIGAND FREE ENERGY PREDICTED BY IDOCK:   -4.82 KCAL/MOL
REMARK 924 INTRA-LIGAND FREE ENERGY PREDICTED BY IDOCK:   -0.21 KCAL/MOL
REMARK 927      BINDING AFFINITY PREDICTED BY RF-SCORE:    0.00 PKD
ROOT
HETATM    1  C   UNL     1     -12.652  10.606  70.529  1.00  0.00    -0.348 C  
HETATM    2  O   UNL     1     -12.242  10.676  69.163  1.00  0.00    -0.328 OA 
ENDROOT
BRANCH   2   3
HETATM    3  C   UNL     1     -11.916  11.929  68.725  1.00  0.00    -0.249 A  
HETATM    4  C   UNL     1     -11.682  12.265  67.396  1.00  0.00    -0.405 A  
HETATM    5  C   UNL     1     -11.332  13.574  67.053  1.00  0.00    -0.348 A  
HETATM    6  C   UNL     1     -11.195  14.578  68.027  1.00  0.00    -0.308 A  
HETATM    7  C   UNL     1     -11.851  12.925  69.700  1.00  0.00    -0.387 A  
HETATM    8  C   UNL     1     -11.482  14.233  69.358  1.00  0.00    -0.337 A  
BRANCH   6   9
HETATM    9  C   UNL     1     -10.740  15.941  67.659  1.00  0.00    -0.312 C  
HETATM   10  C   UNL     1     -10.636  16.952  68.532  1.00  0.00    -0.367 C  
HETATM   11  C   UNL     1     -10.175  18.254  68.002  1.00  0.00    -0.385 C  
HETATM   12  S   UNL     1      -9.938  19.629  68.922  1.00  0.00    -0.364 S  
HETATM   13  S   UNL     1      -9.921  18.216  66.268  1.00  0.00    -0.313 SA 
HETATM   14  S   UNL     1     -10.281  16.229  66.007  1.00  0.00    -0.372 SA 
ENDBRANCH   6   9
ENDBRANCH   2   3
TORSDOF 2
ENDMDL
MODEL       43
REMARK 921   NORMALIZED FREE ENERGY PREDICTED BY IDOCK:   -4.33 KCAL/MOL
REMARK 922        TOTAL FREE ENERGY PREDICTED BY IDOCK:   -5.03 KCAL/MOL
REMARK 923 INTER-LIGAND FREE ENERGY PREDICTED BY IDOCK:   -4.85 KCAL/MOL
REMARK 924 INTRA-LIGAND FREE ENERGY PREDICTED BY IDOCK:   -0.19 KCAL/MOL
REMARK 927      BINDING AFFINITY PREDICTED BY RF-SCORE:    0.00 PKD
ROOT
HETATM    1  C   UNL     1     -11.528  11.558  67.100  1.00  0.00    -0.237 C  
HETATM    2  O   UNL     1     -12.172  12.531  66.278  1.00  0.00    -0.600 OA 
ENDROOT
BRANCH   2   3
HETATM    3  C   UNL     1     -11.592  13.768  66.290  1.00  0.00    -0.350 A  
HETATM    4  C   UNL     1     -11.045  14.395  65.175  1.00  0.00    -0.365 A  
HETATM    5  C   UNL     1     -10.453  15.655  65.297  1.00  0.00    -0.439 A  
HETATM    6  C   UNL     1     -10.379  16.317  66.535  1.00  0.00    -0.310 A  
HETATM    7  C   UNL     1     -11.590  14.436  67.514  1.00  0.00    -0.398 A  
HETATM    8  C   UNL     1     -10.979  15.691  67.640  1.00  0.00    -0.315 A  
BRANCH   6   9
HETATM    9  C   UNL     1      -9.673  17.614  66.666  1.00  0.00    -0.301 C  
HETATM   10  C   UNL     1      -8.369  17.781  66.408  1.00  0.00    -0.281 C  
HETATM   11  C   UNL     1      -7.814  19.140  66.596  1.00  0.00    -0.267 C  
HETATM   12  S   UNL     1      -6.229  19.574  66.294  1.00  0.00    -0.176 S  
HETATM   13  S   UNL     1      -9.008  20.269  67.206  1.00  0.00    -0.349 SA 
HETATM   14  S   UNL     1     -10.602  19.003  67.144  1.00  0.00    -0.458 SA 
ENDBRANCH   6   9
ENDBRANCH   2   3
TORSDOF 2
ENDMDL
MODEL       44
REMARK 921   NORMALIZED FREE ENERGY PREDICTED BY IDOCK:   -4.31 KCAL/MOL
REMARK 922        TOTAL FREE ENERGY PREDICTED BY IDOCK:   -5.02 KCAL/MOL
REMARK 923 INTER-LIGAND FREE ENERGY PREDICTED BY IDOCK:   -4.83 KCAL/MOL
REMARK 924 INTRA-LIGAND FREE ENERGY PREDICTED BY IDOCK:   -0.19 KCAL/MOL
REMARK 927      BINDING AFFINITY PREDICTED BY RF-SCORE:    0.00 PKD
ROOT
HETATM    1  C   UNL     1     -10.630  16.826  68.827  1.00  0.00    -0.348 C  
HETATM    2  O   UNL     1     -11.786  16.055  68.500  1.00  0.00    -0.375 OA 
ENDROOT
BRANCH   2   3
HETATM    3  C   UNL     1     -11.770  14.770  68.965  1.00  0.00    -0.312 A  
HETATM    4  C   UNL     1     -11.234  13.687  68.276  1.00  0.00    -0.302 A  
HETATM    5  C   UNL     1     -11.288  12.405  68.830  1.00  0.00    -0.342 A  
HETATM    6  C   UNL     1     -11.888  12.168  70.078  1.00  0.00    -0.383 A  
HETATM    7  C   UNL     1     -12.309  14.568  70.235  1.00  0.00    -0.408 A  
HETATM    8  C   UNL     1     -12.380  13.279  70.782  1.00  0.00    -0.425 A  
BRANCH   6   9
HETATM    9  C   UNL     1     -12.014  10.790  70.615  1.00  0.00    -0.367 C  
HETATM   10  C   UNL     1     -11.244   9.766  70.224  1.00  0.00    -0.347 C  
HETATM   11  C   UNL     1     -11.502   8.452  70.852  1.00  0.00    -0.267 C  
HETATM   12  S   UNL     1     -10.636   7.057  70.540  1.00  0.00    -0.230 S  
HETATM   13  S   UNL     1     -12.859   8.498  71.962  1.00  0.00    -0.386 SA 
HETATM   14  S   UNL     1     -13.204  10.502  71.848  1.00  0.00    -0.333 SA 
ENDBRANCH   6   9
ENDBRANCH   2   3
TORSDOF 2
ENDMDL
MODEL       45
REMARK 921   NORMALIZED FREE ENERGY PREDICTED BY IDOCK:   -4.31 KCAL/MOL
REMARK 922        TOTAL FREE ENERGY PREDICTED BY IDOCK:   -5.02 KCAL/MOL
REMARK 923 INTER-LIGAND FREE ENERGY PREDICTED BY IDOCK:   -4.82 KCAL/MOL
REMARK 924 INTRA-LIGAND FREE ENERGY PREDICTED BY IDOCK:   -0.20 KCAL/MOL
REMARK 927      BINDING AFFINITY PREDICTED BY RF-SCORE:    0.00 PKD
ROOT
HETATM    1  C   UNL     1     -10.773   6.540  72.523  1.00  0.00    -0.226 C  
HETATM    2  O   UNL     1     -11.857   7.426  72.800  1.00  0.00    -0.199 OA 
ENDROOT
BRANCH   2   3
HETATM    3  C   UNL     1     -11.881   8.561  72.039  1.00  0.00    -0.362 A  
HETATM    4  C   UNL     1     -12.927   9.477  72.020  1.00  0.00    -0.514 A  
HETATM    5  C   UNL     1     -12.863  10.598  71.188  1.00  0.00    -0.518 A  
HETATM    6  C   UNL     1     -11.763  10.828  70.345  1.00  0.00    -0.445 A  
HETATM    7  C   UNL     1     -10.749   8.804  71.261  1.00  0.00    -0.339 A  
HETATM    8  C   UNL     1     -10.695   9.919  70.412  1.00  0.00    -0.379 A  
BRANCH   6   9
HETATM    9  C   UNL     1     -11.748  11.975  69.405  1.00  0.00    -0.340 C  
HETATM   10  C   UNL     1     -11.892  13.251  69.786  1.00  0.00    -0.394 C  
HETATM   11  C   UNL     1     -11.862  14.280  68.723  1.00  0.00    -0.341 C  
HETATM   12  S   UNL     1     -11.982  15.926  68.982  1.00  0.00    -0.078 S  
HETATM   13  S   UNL     1     -11.710  13.579  67.122  1.00  0.00    -0.393 SA 
HETATM   14  S   UNL     1     -11.491  11.644  67.718  1.00  0.00    -0.290 SA 
ENDBRANCH   6   9
ENDBRANCH   2   3
TORSDOF 2
ENDMDL
MODEL       46
REMARK 921   NORMALIZED FREE ENERGY PREDICTED BY IDOCK:   -4.31 KCAL/MOL
REMARK 922        TOTAL FREE ENERGY PREDICTED BY IDOCK:   -5.01 KCAL/MOL
REMARK 923 INTER-LIGAND FREE ENERGY PREDICTED BY IDOCK:   -4.83 KCAL/MOL
REMARK 924 INTRA-LIGAND FREE ENERGY PREDICTED BY IDOCK:   -0.19 KCAL/MOL
REMARK 927      BINDING AFFINITY PREDICTED BY RF-SCORE:    0.00 PKD
ROOT
HETATM    1  C   UNL     1     -13.783  13.778  72.548  1.00  0.00    -0.561 C  
HETATM    2  O   UNL     1     -13.041  13.195  71.476  1.00  0.00    -0.365 OA 
ENDROOT
BRANCH   2   3
HETATM    3  C   UNL     1     -12.388  14.090  70.676  1.00  0.00    -0.375 A  
HETATM    4  C   UNL     1     -12.035  13.855  69.351  1.00  0.00    -0.402 A  
HETATM    5  C   UNL     1     -11.347  14.830  68.624  1.00  0.00    -0.305 A  
HETATM    6  C   UNL     1     -10.982  16.058  69.201  1.00  0.00    -0.297 A  
HETATM    7  C   UNL     1     -12.095  15.328  71.248  1.00  0.00    -0.407 A  
HETATM    8  C   UNL     1     -11.388  16.298  70.524  1.00  0.00    -0.318 A  
BRANCH   6   9
HETATM    9  C   UNL     1     -10.177  17.048  68.444  1.00  0.00    -0.331 C  
HETATM   10  C   UNL     1     -10.704  17.942  67.597  1.00  0.00    -0.343 C  
HETATM   11  C   UNL     1      -9.763  18.856  66.912  1.00  0.00    -0.318 C  
HETATM   12  S   UNL     1     -10.209  20.068  65.852  1.00  0.00    -0.312 S  
HETATM   13  S   UNL     1      -8.090  18.515  67.315  1.00  0.00    -0.243 SA 
HETATM   14  S   UNL     1      -8.458  17.070  68.701  1.00  0.00    -0.247 SA 
ENDBRANCH   6   9
ENDBRANCH   2   3
TORSDOF 2
ENDMDL
MODEL       47
REMARK 921   NORMALIZED FREE ENERGY PREDICTED BY IDOCK:   -4.26 KCAL/MOL
REMARK 922        TOTAL FREE ENERGY PREDICTED BY IDOCK:   -4.96 KCAL/MOL
REMARK 923 INTER-LIGAND FREE ENERGY PREDICTED BY IDOCK:   -4.76 KCAL/MOL
REMARK 924 INTRA-LIGAND FREE ENERGY PREDICTED BY IDOCK:   -0.20 KCAL/MOL
REMARK 927      BINDING AFFINITY PREDICTED BY RF-SCORE:    0.00 PKD
ROOT
HETATM    1  C   UNL     1     -10.577  18.742  65.759  1.00  0.00    -0.271 C  
HETATM    2  O   UNL     1     -10.845  17.683  64.840  1.00  0.00    -0.831 OA 
ENDROOT
BRANCH   2   3
HETATM    3  C   UNL     1     -10.888  16.436  65.397  1.00  0.00    -0.239 A  
HETATM    4  C   UNL     1     -11.263  15.281  64.720  1.00  0.00    -0.405 A  
HETATM    5  C   UNL     1     -11.296  14.054  65.388  1.00  0.00    -0.315 A  
HETATM    6  C   UNL     1     -10.970  13.949  66.751  1.00  0.00    -0.301 A  
HETATM    7  C   UNL     1     -10.496  16.344  66.733  1.00  0.00    -0.273 A  
HETATM    8  C   UNL     1     -10.548  15.116  67.407  1.00  0.00    -0.271 A  
BRANCH   6   9
HETATM    9  C   UNL     1     -11.092  12.656  67.468  1.00  0.00    -0.272 C  
HETATM   10  C   UNL     1     -11.649  12.526  68.679  1.00  0.00    -0.357 C  
HETATM   11  C   UNL     1     -11.686  11.167  69.262  1.00  0.00    -0.331 C  
HETATM   12  S   UNL     1     -12.368  10.777  70.736  1.00  0.00    -0.415 S  
HETATM   13  S   UNL     1     -10.900   9.981  68.236  1.00  0.00    -0.222 SA 
HETATM   14  S   UNL     1     -10.512  11.224  66.670  1.00  0.00    -0.256 SA 
ENDBRANCH   6   9
ENDBRANCH   2   3
TORSDOF 2
ENDMDL
MODEL       48
REMARK 921   NORMALIZED FREE ENERGY PREDICTED BY IDOCK:   -4.25 KCAL/MOL
REMARK 922        TOTAL FREE ENERGY PREDICTED BY IDOCK:   -4.95 KCAL/MOL
REMARK 923 INTER-LIGAND FREE ENERGY PREDICTED BY IDOCK:   -4.76 KCAL/MOL
REMARK 924 INTRA-LIGAND FREE ENERGY PREDICTED BY IDOCK:   -0.18 KCAL/MOL
REMARK 927      BINDING AFFINITY PREDICTED BY RF-SCORE:    0.00 PKD
ROOT
HETATM    1  C   UNL     1      -6.616  20.276  66.527  1.00  0.00    -0.225 C  
HETATM    2  O   UNL     1      -8.040  20.242  66.435  1.00  0.00    -0.272 OA 
ENDROOT
BRANCH   2   3
HETATM    3  C   UNL     1      -8.583  18.989  66.375  1.00  0.00    -0.315 A  
HETATM    4  C   UNL     1      -7.846  17.811  66.313  1.00  0.00    -0.299 A  
HETATM    5  C   UNL     1      -8.499  16.578  66.232  1.00  0.00    -0.363 A  
HETATM    6  C   UNL     1      -9.901  16.488  66.198  1.00  0.00    -0.355 A  
HETATM    7  C   UNL     1      -9.976  18.919  66.410  1.00  0.00    -0.435 A  
HETATM    8  C   UNL     1     -10.629  17.684  66.310  1.00  0.00    -0.215 A  
BRANCH   6   9
HETATM    9  C   UNL     1     -10.578  15.180  66.025  1.00  0.00    -0.322 C  
HETATM   10  C   UNL     1     -10.951  14.685  64.838  1.00  0.00    -0.419 C  
HETATM   11  C   UNL     1     -11.624  13.368  64.838  1.00  0.00    -0.330 C  
HETATM   12  S   UNL     1     -12.132  12.555  63.469  1.00  0.00    -0.553 S  
HETATM   13  S   UNL     1     -11.864  12.742  66.458  1.00  0.00    -0.368 SA 
HETATM   14  S   UNL     1     -10.868  14.219  67.445  1.00  0.00    -0.291 SA 
ENDBRANCH   6   9
ENDBRANCH   2   3
TORSDOF 2
ENDMDL
MODEL       49
REMARK 921   NORMALIZED FREE ENERGY PREDICTED BY IDOCK:   -4.22 KCAL/MOL
REMARK 922        TOTAL FREE ENERGY PREDICTED BY IDOCK:   -4.92 KCAL/MOL
REMARK 923 INTER-LIGAND FREE ENERGY PREDICTED BY IDOCK:   -4.72 KCAL/MOL
REMARK 924 INTRA-LIGAND FREE ENERGY PREDICTED BY IDOCK:   -0.20 KCAL/MOL
REMARK 927      BINDING AFFINITY PREDICTED BY RF-SCORE:    0.00 PKD
ROOT
HETATM    1  C   UNL     1     -13.750  13.848  72.341  1.00  0.00    -0.576 C  
HETATM    2  O   UNL     1     -13.044  14.477  71.271  1.00  0.00    -0.321 OA 
ENDROOT
BRANCH   2   3
HETATM    3  C   UNL     1     -12.521  13.618  70.345  1.00  0.00    -0.294 A  
HETATM    4  C   UNL     1     -12.285  12.266  70.566  1.00  0.00    -0.387 A  
HETATM    5  C   UNL     1     -11.724  11.477  69.558  1.00  0.00    -0.413 A  
HETATM    6  C   UNL     1     -11.372  12.018  68.310  1.00  0.00    -0.342 A  
HETATM    7  C   UNL     1     -12.242  14.161  69.091  1.00  0.00    -0.290 A  
HETATM    8  C   UNL     1     -11.662  13.374  68.087  1.00  0.00    -0.397 A  
BRANCH   6   9
HETATM    9  C   UNL     1     -10.700  11.188  67.280  1.00  0.00    -0.258 C  
HETATM   10  C   UNL     1     -10.662  11.503  65.979  1.00  0.00    -0.332 C  
HETATM   11  C   UNL     1      -9.957  10.564  65.079  1.00  0.00    -0.322 C  
HETATM   12  S   UNL     1      -9.757  10.784  63.435  1.00  0.00    -0.367 S  
HETATM   13  S   UNL     1      -9.360   9.149  65.927  1.00  0.00    -0.251 SA 
HETATM   14  S   UNL     1      -9.884   9.745  67.802  1.00  0.00    -0.167 SA 
ENDBRANCH   6   9
ENDBRANCH   2   3
TORSDOF 2
ENDMDL
MODEL       50
REMARK 921   NORMALIZED FREE ENERGY PREDICTED BY IDOCK:   -4.19 KCAL/MOL
REMARK 922        TOTAL FREE ENERGY PREDICTED BY IDOCK:   -4.88 KCAL/MOL
REMARK 923 INTER-LIGAND FREE ENERGY PREDICTED BY IDOCK:   -4.69 KCAL/MOL
REMARK 924 INTRA-LIGAND FREE ENERGY PREDICTED BY IDOCK:   -0.19 KCAL/MOL
REMARK 927      BINDING AFFINITY PREDICTED BY RF-SCORE:    0.00 PKD
ROOT
HETATM    1  C   UNL     1      -8.480   9.615  62.893  1.00  0.00    -0.181 C  
HETATM    2  O   UNL     1      -9.730  10.266  62.662  1.00  0.00    -0.288 OA 
ENDROOT
BRANCH   2   3
HETATM    3  C   UNL     1     -10.143  11.090  63.670  1.00  0.00    -0.371 A  
HETATM    4  C   UNL     1     -10.975  12.192  63.499  1.00  0.00    -0.521 A  
HETATM    5  C   UNL     1     -11.322  12.987  64.594  1.00  0.00    -0.361 A  
HETATM    6  C   UNL     1     -10.840  12.712  65.885  1.00  0.00    -0.300 A  
HETATM    7  C   UNL     1      -9.708  10.760  64.953  1.00  0.00    -0.330 A  
HETATM    8  C   UNL     1     -10.041  11.569  66.048  1.00  0.00    -0.270 A  
BRANCH   6   9
HETATM    9  C   UNL     1     -11.148  13.614  67.023  1.00  0.00    -0.301 C  
HETATM   10  C   UNL     1     -11.697  13.200  68.172  1.00  0.00    -0.391 C  
HETATM   11  C   UNL     1     -11.949  14.228  69.206  1.00  0.00    -0.335 C  
HETATM   12  S   UNL     1     -12.587  13.923  70.721  1.00  0.00    -0.339 S  
HETATM   13  S   UNL     1     -11.525  15.840  68.662  1.00  0.00    -0.384 SA 
HETATM   14  S   UNL     1     -10.735  15.295  66.865  1.00  0.00    -0.314 SA 
ENDBRANCH   6   9
ENDBRANCH   2   3
TORSDOF 2
ENDMDL
MODEL       51
REMARK 921   NORMALIZED FREE ENERGY PREDICTED BY IDOCK:   -4.17 KCAL/MOL
REMARK 922        TOTAL FREE ENERGY PREDICTED BY IDOCK:   -4.86 KCAL/MOL
REMARK 923 INTER-LIGAND FREE ENERGY PREDICTED BY IDOCK:   -4.67 KCAL/MOL
REMARK 924 INTRA-LIGAND FREE ENERGY PREDICTED BY IDOCK:   -0.19 KCAL/MOL
REMARK 927      BINDING AFFINITY PREDICTED BY RF-SCORE:    0.00 PKD
ROOT
HETATM    1  C   UNL     1     -11.520  11.017  68.239  1.00  0.00    -0.304 C  
HETATM    2  O   UNL     1     -11.973  11.868  67.186  1.00  0.00    -0.611 OA 
ENDROOT
BRANCH   2   3
HETATM    3  C   UNL     1     -11.419  13.118  67.178  1.00  0.00    -0.334 A  
HETATM    4  C   UNL     1     -11.867  14.186  67.947  1.00  0.00    -0.405 A  
HETATM    5  C   UNL     1     -11.244  15.433  67.849  1.00  0.00    -0.329 A  
HETATM    6  C   UNL     1     -10.166  15.650  66.974  1.00  0.00    -0.274 A  
HETATM    7  C   UNL     1     -10.308  13.293  66.353  1.00  0.00    -0.286 A  
HETATM    8  C   UNL     1      -9.695  14.549  66.241  1.00  0.00    -0.330 A  
BRANCH   6   9
HETATM    9  C   UNL     1      -9.570  17.000  66.818  1.00  0.00    -0.264 C  
HETATM   10  C   UNL     1      -8.390  17.228  66.228  1.00  0.00    -0.289 C  
HETATM   11  C   UNL     1      -7.931  18.633  66.160  1.00  0.00    -0.202 C  
HETATM   12  S   UNL     1      -6.514  19.141  65.434  1.00  0.00    -0.269 S  
HETATM   13  S   UNL     1      -9.037  19.734  66.960  1.00  0.00    -0.360 SA 
HETATM   14  S   UNL     1     -10.476  18.363  67.403  1.00  0.00    -0.411 SA 
ENDBRANCH   6   9
ENDBRANCH   2   3
TORSDOF 2
ENDMDL
MODEL       52
REMARK 921   NORMALIZED FREE ENERGY PREDICTED BY IDOCK:   -4.17 KCAL/MOL
REMARK 922        TOTAL FREE ENERGY PREDICTED BY IDOCK:   -4.86 KCAL/MOL
REMARK 923 INTER-LIGAND FREE ENERGY PREDICTED BY IDOCK:   -4.66 KCAL/MOL
REMARK 924 INTRA-LIGAND FREE ENERGY PREDICTED BY IDOCK:   -0.19 KCAL/MOL
REMARK 927      BINDING AFFINITY PREDICTED BY RF-SCORE:    0.00 PKD
ROOT
HETATM    1  C   UNL     1      -9.583  10.470  62.904  1.00  0.00    -0.322 C  
HETATM    2  O   UNL     1     -10.911  10.940  63.136  1.00  0.00    -0.039 OA 
ENDROOT
BRANCH   2   3
HETATM    3  C   UNL     1     -11.043  11.786  64.201  1.00  0.00    -0.374 A  
HETATM    4  C   UNL     1     -12.207  12.476  64.523  1.00  0.00    -0.528 A  
HETATM    5  C   UNL     1     -12.232  13.337  65.624  1.00  0.00    -0.514 A  
HETATM    6  C   UNL     1     -11.095  13.542  66.424  1.00  0.00    -0.311 A  
HETATM    7  C   UNL     1      -9.923  11.923  65.021  1.00  0.00    -0.276 A  
HETATM    8  C   UNL     1      -9.943  12.801  66.114  1.00  0.00    -0.272 A  
BRANCH   6   9
HETATM    9  C   UNL     1     -11.112  14.522  67.537  1.00  0.00    -0.307 C  
HETATM   10  C   UNL     1     -10.574  15.747  67.458  1.00  0.00    -0.309 C  
HETATM   11  C   UNL     1     -10.668  16.602  68.661  1.00  0.00    -0.349 C  
HETATM   12  S   UNL     1     -10.101  18.171  68.765  1.00  0.00    -0.317 S  
HETATM   13  S   UNL     1     -11.427  15.776  70.009  1.00  0.00    -0.378 SA 
HETATM   14  S   UNL     1     -11.908  14.066  69.013  1.00  0.00    -0.364 SA 
ENDBRANCH   6   9
ENDBRANCH   2   3
TORSDOF 2
ENDMDL
MODEL       53
REMARK 921   NORMALIZED FREE ENERGY PREDICTED BY IDOCK:   -4.15 KCAL/MOL
REMARK 922        TOTAL FREE ENERGY PREDICTED BY IDOCK:   -4.84 KCAL/MOL
REMARK 923 INTER-LIGAND FREE ENERGY PREDICTED BY IDOCK:   -4.65 KCAL/MOL
REMARK 924 INTRA-LIGAND FREE ENERGY PREDICTED BY IDOCK:   -0.19 KCAL/MOL
REMARK 927      BINDING AFFINITY PREDICTED BY RF-SCORE:    0.00 PKD
ROOT
HETATM    1  C   UNL     1     -13.574  13.172  72.320  1.00  0.00    -0.581 C  
HETATM    2  O   UNL     1     -13.009  12.723  71.089  1.00  0.00    -0.271 OA 
ENDROOT
BRANCH   2   3
HETATM    3  C   UNL     1     -12.631  11.409  71.076  1.00  0.00    -0.386 A  
HETATM    4  C   UNL     1     -13.229  10.407  71.833  1.00  0.00    -0.535 A  
HETATM    5  C   UNL     1     -12.752   9.095  71.764  1.00  0.00    -0.446 A  
HETATM    6  C   UNL     1     -11.660   8.751  70.950  1.00  0.00    -0.320 A  
HETATM    7  C   UNL     1     -11.589  11.077  70.210  1.00  0.00    -0.414 A  
HETATM    8  C   UNL     1     -11.100   9.765  70.156  1.00  0.00    -0.335 A  
BRANCH   6   9
HETATM    9  C   UNL     1     -11.111   7.373  70.952  1.00  0.00    -0.263 C  
HETATM   10  C   UNL     1     -10.621   6.769  72.043  1.00  0.00    -0.239 C  
HETATM   11  C   UNL     1     -10.103   5.393  71.875  1.00  0.00    -0.193 C  
HETATM   12  S   UNL     1      -9.488   4.447  73.108  1.00  0.00    -0.120 S  
HETATM   13  S   UNL     1     -10.177   4.851  70.209  1.00  0.00    -0.177 SA 
HETATM   14  S   UNL     1     -11.142   6.481  69.460  1.00  0.00    -0.370 SA 
ENDBRANCH   6   9
ENDBRANCH   2   3
TORSDOF 2
ENDMDL
MODEL       54
REMARK 921   NORMALIZED FREE ENERGY PREDICTED BY IDOCK:   -4.14 KCAL/MOL
REMARK 922        TOTAL FREE ENERGY PREDICTED BY IDOCK:   -4.83 KCAL/MOL
REMARK 923 INTER-LIGAND FREE ENERGY PREDICTED BY IDOCK:   -4.64 KCAL/MOL
REMARK 924 INTRA-LIGAND FREE ENERGY PREDICTED BY IDOCK:   -0.18 KCAL/MOL
REMARK 927      BINDING AFFINITY PREDICTED BY RF-SCORE:    0.00 PKD
ROOT
HETATM    1  C   UNL     1     -12.668  14.068  65.226  1.00  0.00    -0.439 C  
HETATM    2  O   UNL     1     -11.812  13.821  66.340  1.00  0.00    -0.361 OA 
ENDROOT
BRANCH   2   3
HETATM    3  C   UNL     1     -11.019  14.874  66.701  1.00  0.00    -0.325 A  
HETATM    4  C   UNL     1     -11.182  15.625  67.860  1.00  0.00    -0.328 A  
HETATM    5  C   UNL     1     -10.329  16.699  68.127  1.00  0.00    -0.303 A  
HETATM    6  C   UNL     1      -9.301  17.061  67.240  1.00  0.00    -0.238 A  
HETATM    7  C   UNL     1      -9.963  15.173  65.840  1.00  0.00    -0.355 A  
HETATM    8  C   UNL     1      -9.120  16.263  66.098  1.00  0.00    -0.377 A  
BRANCH   6   9
HETATM    9  C   UNL     1      -8.458  18.255  67.493  1.00  0.00    -0.249 C  
HETATM   10  C   UNL     1      -7.756  18.444  68.618  1.00  0.00    -0.321 C  
HETATM   11  C   UNL     1      -6.971  19.695  68.719  1.00  0.00    -0.339 C  
HETATM   12  S   UNL     1      -5.996  20.109  70.012  1.00  0.00    -0.358 S  
HETATM   13  S   UNL     1      -7.192  20.735  67.325  1.00  0.00    -0.337 SA 
HETATM   14  S   UNL     1      -8.350  19.457  66.242  1.00  0.00    -0.311 SA 
ENDBRANCH   6   9
ENDBRANCH   2   3
TORSDOF 2
ENDMDL
MODEL       55
REMARK 921   NORMALIZED FREE ENERGY PREDICTED BY IDOCK:   -4.14 KCAL/MOL
REMARK 922        TOTAL FREE ENERGY PREDICTED BY IDOCK:   -4.82 KCAL/MOL
REMARK 923 INTER-LIGAND FREE ENERGY PREDICTED BY IDOCK:   -4.64 KCAL/MOL
REMARK 924 INTRA-LIGAND FREE ENERGY PREDICTED BY IDOCK:   -0.18 KCAL/MOL
REMARK 927      BINDING AFFINITY PREDICTED BY RF-SCORE:    0.00 PKD
ROOT
HETATM    1  C   UNL     1      -9.080  19.471  68.533  1.00  0.00    -0.352 C  
HETATM    2  O   UNL     1     -10.413  19.154  68.133  1.00  0.00    -0.390 OA 
ENDROOT
BRANCH   2   3
HETATM    3  C   UNL     1     -10.561  17.930  67.543  1.00  0.00    -0.376 A  
HETATM    4  C   UNL     1     -10.786  16.743  68.232  1.00  0.00    -0.366 A  
HETATM    5  C   UNL     1     -10.900  15.537  67.534  1.00  0.00    -0.306 A  
HETATM    6  C   UNL     1     -10.780  15.481  66.135  1.00  0.00    -0.315 A  
HETATM    7  C   UNL     1     -10.505  17.908  66.149  1.00  0.00    -0.321 A  
HETATM    8  C   UNL     1     -10.601  16.695  65.452  1.00  0.00    -0.254 A  
BRANCH   6   9
HETATM    9  C   UNL     1     -10.819  14.184  65.417  1.00  0.00    -0.337 C  
HETATM   10  C   UNL     1     -10.050  13.134  65.736  1.00  0.00    -0.290 C  
HETATM   11  C   UNL     1     -10.204  11.913  64.914  1.00  0.00    -0.271 C  
HETATM   12  S   UNL     1      -9.376  10.483  65.164  1.00  0.00    -0.238 S  
HETATM   13  S   UNL     1     -11.350  12.131  63.604  1.00  0.00    -0.478 SA 
HETATM   14  S   UNL     1     -11.954  14.008  64.112  1.00  0.00    -0.346 SA 
ENDBRANCH   6   9
ENDBRANCH   2   3
TORSDOF 2
ENDMDL
MODEL       56
REMARK 921   NORMALIZED FREE ENERGY PREDICTED BY IDOCK:   -4.13 KCAL/MOL
REMARK 922        TOTAL FREE ENERGY PREDICTED BY IDOCK:   -4.81 KCAL/MOL
REMARK 923 INTER-LIGAND FREE ENERGY PREDICTED BY IDOCK:   -4.62 KCAL/MOL
REMARK 924 INTRA-LIGAND FREE ENERGY PREDICTED BY IDOCK:   -0.19 KCAL/MOL
REMARK 927      BINDING AFFINITY PREDICTED BY RF-SCORE:    0.00 PKD
ROOT
HETATM    1  C   UNL     1      -9.307   9.805  64.679  1.00  0.00    -0.256 C  
HETATM    2  O   UNL     1     -10.320  10.781  64.440  1.00  0.00    -0.353 OA 
ENDROOT
BRANCH   2   3
HETATM    3  C   UNL     1     -10.675  11.520  65.534  1.00  0.00    -0.272 A  
HETATM    4  C   UNL     1     -11.106  12.842  65.489  1.00  0.00    -0.318 A  
HETATM    5  C   UNL     1     -11.425  13.518  66.670  1.00  0.00    -0.366 A  
HETATM    6  C   UNL     1     -11.310  12.899  67.926  1.00  0.00    -0.336 A  
HETATM    7  C   UNL     1     -10.618  10.866  66.765  1.00  0.00    -0.313 A  
HETATM    8  C   UNL     1     -10.919  11.550  67.950  1.00  0.00    -0.287 A  
BRANCH   6   9
HETATM    9  C   UNL     1     -11.569  13.655  69.176  1.00  0.00    -0.309 C  
HETATM   10  C   UNL     1     -12.404  13.239  70.137  1.00  0.00    -0.306 C  
HETATM   11  C   UNL     1     -12.559  14.115  71.320  1.00  0.00    -0.363 C  
HETATM   12  S   UNL     1     -13.514  13.768  72.646  1.00  0.00    -0.415 S  
HETATM   13  S   UNL     1     -11.637  15.600  71.175  1.00  0.00    -0.450 SA 
HETATM   14  S   UNL     1     -10.710  15.146  69.420  1.00  0.00    -0.277 SA 
ENDBRANCH   6   9
ENDBRANCH   2   3
TORSDOF 2
ENDMDL
MODEL       57
REMARK 921   NORMALIZED FREE ENERGY PREDICTED BY IDOCK:   -4.13 KCAL/MOL
REMARK 922        TOTAL FREE ENERGY PREDICTED BY IDOCK:   -4.81 KCAL/MOL
REMARK 923 INTER-LIGAND FREE ENERGY PREDICTED BY IDOCK:   -4.64 KCAL/MOL
REMARK 924 INTRA-LIGAND FREE ENERGY PREDICTED BY IDOCK:   -0.17 KCAL/MOL
REMARK 927      BINDING AFFINITY PREDICTED BY RF-SCORE:    0.00 PKD
ROOT
HETATM    1  C   UNL     1      -6.129  21.267  66.726  1.00  0.00    -0.327 C  
HETATM    2  O   UNL     1      -6.858  20.684  65.646  1.00  0.00    -0.223 OA 
ENDROOT
BRANCH   2   3
HETATM    3  C   UNL     1      -7.595  19.582  65.979  1.00  0.00    -0.315 A  
HETATM    4  C   UNL     1      -7.099  18.284  66.029  1.00  0.00    -0.307 A  
HETATM    5  C   UNL     1      -7.943  17.221  66.360  1.00  0.00    -0.338 A  
HETATM    6  C   UNL     1      -9.306  17.422  66.638  1.00  0.00    -0.279 A  
HETATM    7  C   UNL     1      -8.929  19.813  66.316  1.00  0.00    -0.431 A  
HETATM    8  C   UNL     1      -9.780  18.744  66.630  1.00  0.00    -0.370 A  
BRANCH   6   9
HETATM    9  C   UNL     1     -10.208  16.275  66.904  1.00  0.00    -0.288 C  
HETATM   10  C   UNL     1     -10.539  15.858  68.133  1.00  0.00    -0.280 C  
HETATM   11  C   UNL     1     -11.445  14.692  68.228  1.00  0.00    -0.314 C  
HETATM   12  S   UNL     1     -12.013  14.037  69.656  1.00  0.00    -0.353 S  
HETATM   13  S   UNL     1     -11.851  14.034  66.654  1.00  0.00    -0.438 SA 
HETATM   14  S   UNL     1     -10.903  15.451  65.540  1.00  0.00    -0.377 SA 
ENDBRANCH   6   9
ENDBRANCH   2   3
TORSDOF 2
ENDMDL
MODEL       58
REMARK 921   NORMALIZED FREE ENERGY PREDICTED BY IDOCK:   -4.12 KCAL/MOL
REMARK 922        TOTAL FREE ENERGY PREDICTED BY IDOCK:   -4.80 KCAL/MOL
REMARK 923 INTER-LIGAND FREE ENERGY PREDICTED BY IDOCK:   -4.61 KCAL/MOL
REMARK 924 INTRA-LIGAND FREE ENERGY PREDICTED BY IDOCK:   -0.19 KCAL/MOL
REMARK 927      BINDING AFFINITY PREDICTED BY RF-SCORE:    0.00 PKD
ROOT
HETATM    1  C   UNL     1     -11.979  15.644  64.229  1.00  0.00    -0.115 C  
HETATM    2  O   UNL     1     -12.655  14.402  64.033  1.00  0.00    -0.764 OA 
ENDROOT
BRANCH   2   3
HETATM    3  C   UNL     1     -11.965  13.299  64.454  1.00  0.00    -0.406 A  
HETATM    4  C   UNL     1     -11.431  12.332  63.609  1.00  0.00    -0.572 A  
HETATM    5  C   UNL     1     -10.761  11.227  64.142  1.00  0.00    -0.436 A  
HETATM    6  C   UNL     1     -10.616  11.052  65.529  1.00  0.00    -0.267 A  
HETATM    7  C   UNL     1     -11.775  13.180  65.830  1.00  0.00    -0.427 A  
HETATM    8  C   UNL     1     -11.119  12.063  66.365  1.00  0.00    -0.365 A  
BRANCH   6   9
HETATM    9  C   UNL     1      -9.977   9.833  66.082  1.00  0.00    -0.268 C  
HETATM   10  C   UNL     1     -10.365   9.240  67.219  1.00  0.00    -0.332 C  
HETATM   11  C   UNL     1      -9.618   8.034  67.639  1.00  0.00    -0.151 C  
HETATM   12  S   UNL     1      -9.961   7.122  68.996  1.00  0.00    -0.179 S  
HETATM   13  S   UNL     1      -8.287   7.665  66.557  1.00  0.00    -0.135 SA 
HETATM   14  S   UNL     1      -8.675   9.115  65.181  1.00  0.00    -0.195 SA 
ENDBRANCH   6   9
ENDBRANCH   2   3
TORSDOF 2
ENDMDL
MODEL       59
REMARK 921   NORMALIZED FREE ENERGY PREDICTED BY IDOCK:   -4.09 KCAL/MOL
REMARK 922        TOTAL FREE ENERGY PREDICTED BY IDOCK:   -4.77 KCAL/MOL
REMARK 923 INTER-LIGAND FREE ENERGY PREDICTED BY IDOCK:   -4.59 KCAL/MOL
REMARK 924 INTRA-LIGAND FREE ENERGY PREDICTED BY IDOCK:   -0.18 KCAL/MOL
REMARK 927      BINDING AFFINITY PREDICTED BY RF-SCORE:    0.00 PKD
ROOT
HETATM    1  C   UNL     1      -9.512  10.843  62.980  1.00  0.00    -0.352 C  
HETATM    2  O   UNL     1     -10.081  12.092  63.372  1.00  0.00    -0.428 OA 
ENDROOT
BRANCH   2   3
HETATM    3  C   UNL     1     -10.409  12.185  64.695  1.00  0.00    -0.297 A  
HETATM    4  C   UNL     1      -9.640  11.677  65.737  1.00  0.00    -0.255 A  
HETATM    5  C   UNL     1     -10.076  11.804  67.059  1.00  0.00    -0.232 A  
HETATM    6  C   UNL     1     -11.295  12.429  67.375  1.00  0.00    -0.381 A  
HETATM    7  C   UNL     1     -11.589  12.868  64.991  1.00  0.00    -0.367 A  
HETATM    8  C   UNL     1     -12.035  12.978  66.315  1.00  0.00    -0.477 A  
BRANCH   6   9
HETATM    9  C   UNL     1     -11.785  12.481  68.774  1.00  0.00    -0.327 C  
HETATM   10  C   UNL     1     -11.982  13.619  69.452  1.00  0.00    -0.394 C  
HETATM   11  C   UNL     1     -12.467  13.499  70.844  1.00  0.00    -0.369 C  
HETATM   12  S   UNL     1     -12.815  14.788  71.850  1.00  0.00    -0.346 S  
HETATM   13  S   UNL     1     -12.620  11.828  71.355  1.00  0.00    -0.178 SA 
HETATM   14  S   UNL     1     -12.161  10.978  69.562  1.00  0.00    -0.189 SA 
ENDBRANCH   6   9
ENDBRANCH   2   3
TORSDOF 2
ENDMDL
MODEL       60
REMARK 921   NORMALIZED FREE ENERGY PREDICTED BY IDOCK:   -4.07 KCAL/MOL
REMARK 922        TOTAL FREE ENERGY PREDICTED BY IDOCK:   -4.75 KCAL/MOL
REMARK 923 INTER-LIGAND FREE ENERGY PREDICTED BY IDOCK:   -4.56 KCAL/MOL
REMARK 924 INTRA-LIGAND FREE ENERGY PREDICTED BY IDOCK:   -0.19 KCAL/MOL
REMARK 927      BINDING AFFINITY PREDICTED BY RF-SCORE:    0.00 PKD
ROOT
HETATM    1  C   UNL     1     -11.008   6.364  69.310  1.00  0.00    -0.356 C  
HETATM    2  O   UNL     1     -10.082   7.378  68.922  1.00  0.00    -0.175 OA 
ENDROOT
BRANCH   2   3
HETATM    3  C   UNL     1     -10.532   8.659  69.082  1.00  0.00    -0.211 A  
HETATM    4  C   UNL     1     -10.683   9.579  68.050  1.00  0.00    -0.266 A  
HETATM    5  C   UNL     1     -11.131  10.874  68.324  1.00  0.00    -0.324 A  
HETATM    6  C   UNL     1     -11.427  11.290  69.633  1.00  0.00    -0.380 A  
HETATM    7  C   UNL     1     -10.884   9.029  70.380  1.00  0.00    -0.284 A  
HETATM    8  C   UNL     1     -11.315  10.334  70.656  1.00  0.00    -0.431 A  
BRANCH   6   9
HETATM    9  C   UNL     1     -11.819  12.692  69.919  1.00  0.00    -0.294 C  
HETATM   10  C   UNL     1     -12.695  13.040  70.870  1.00  0.00    -0.299 C  
HETATM   11  C   UNL     1     -12.985  14.483  71.023  1.00  0.00    -0.358 C  
HETATM   12  S   UNL     1     -14.011  15.135  72.169  1.00  0.00    -0.579 S  
HETATM   13  S   UNL     1     -12.143  15.461  69.836  1.00  0.00    -0.338 SA 
HETATM   14  S   UNL     1     -11.067  13.954  68.989  1.00  0.00    -0.262 SA 
ENDBRANCH   6   9
ENDBRANCH   2   3
TORSDOF 2
ENDMDL
MODEL       61
REMARK 921   NORMALIZED FREE ENERGY PREDICTED BY IDOCK:   -4.07 KCAL/MOL
REMARK 922        TOTAL FREE ENERGY PREDICTED BY IDOCK:   -4.75 KCAL/MOL
REMARK 923 INTER-LIGAND FREE ENERGY PREDICTED BY IDOCK:   -4.54 KCAL/MOL
REMARK 924 INTRA-LIGAND FREE ENERGY PREDICTED BY IDOCK:   -0.21 KCAL/MOL
REMARK 927      BINDING AFFINITY PREDICTED BY RF-SCORE:    0.00 PKD
ROOT
HETATM    1  C   UNL     1     -12.368  13.678  65.601  1.00  0.00    -0.478 C  
HETATM    2  O   UNL     1     -11.970  13.912  66.951  1.00  0.00    -0.396 OA 
ENDROOT
BRANCH   2   3
HETATM    3  C   UNL     1     -11.740  12.783  67.687  1.00  0.00    -0.367 A  
HETATM    4  C   UNL     1     -11.933  12.681  69.060  1.00  0.00    -0.282 A  
HETATM    5  C   UNL     1     -11.646  11.485  69.723  1.00  0.00    -0.401 A  
HETATM    6  C   UNL     1     -11.148  10.364  69.037  1.00  0.00    -0.297 A  
HETATM    7  C   UNL     1     -11.310  11.662  66.976  1.00  0.00    -0.373 A  
HETATM    8  C   UNL     1     -11.004  10.469  67.644  1.00  0.00    -0.375 A  
BRANCH   6   9
HETATM    9  C   UNL     1     -10.767   9.130  69.767  1.00  0.00    -0.228 C  
HETATM   10  C   UNL     1     -10.872   8.988  71.095  1.00  0.00    -0.364 C  
HETATM   11  C   UNL     1     -10.442   7.695  71.670  1.00  0.00    -0.197 C  
HETATM   12  S   UNL     1     -10.526   7.295  73.291  1.00  0.00    -0.389 S  
HETATM   13  S   UNL     1      -9.795   6.608  70.456  1.00  0.00    -0.175 SA 
HETATM   14  S   UNL     1     -10.188   7.780  68.838  1.00  0.00    -0.213 SA 
ENDBRANCH   6   9
ENDBRANCH   2   3
TORSDOF 2
ENDMDL
MODEL       62
REMARK 921   NORMALIZED FREE ENERGY PREDICTED BY IDOCK:   -4.05 KCAL/MOL
REMARK 922        TOTAL FREE ENERGY PREDICTED BY IDOCK:   -4.72 KCAL/MOL
REMARK 923 INTER-LIGAND FREE ENERGY PREDICTED BY IDOCK:   -4.51 KCAL/MOL
REMARK 924 INTRA-LIGAND FREE ENERGY PREDICTED BY IDOCK:   -0.21 KCAL/MOL
REMARK 927      BINDING AFFINITY PREDICTED BY RF-SCORE:    0.00 PKD
ROOT
HETATM    1  C   UNL     1     -10.137  19.723  68.611  1.00  0.00    -0.440 C  
HETATM    2  O   UNL     1     -10.628  19.242  67.360  1.00  0.00    -0.436 OA 
ENDROOT
BRANCH   2   3
HETATM    3  C   UNL     1     -10.532  17.890  67.185  1.00  0.00    -0.353 A  
HETATM    4  C   UNL     1     -10.346  17.263  65.958  1.00  0.00    -0.312 A  
HETATM    5  C   UNL     1     -10.284  15.868  65.884  1.00  0.00    -0.373 A  
HETATM    6  C   UNL     1     -10.417  15.064  67.029  1.00  0.00    -0.278 A  
HETATM    7  C   UNL     1     -10.599  17.114  68.343  1.00  0.00    -0.371 A  
HETATM    8  C   UNL     1     -10.555  15.715  68.265  1.00  0.00    -0.262 A  
BRANCH   6   9
HETATM    9  C   UNL     1     -10.434  13.584  66.924  1.00  0.00    -0.271 C  
HETATM   10  C   UNL     1     -10.036  12.911  65.836  1.00  0.00    -0.295 C  
HETATM   11  C   UNL     1     -10.123  11.435  65.888  1.00  0.00    -0.243 C  
HETATM   12  S   UNL     1      -9.644  10.405  64.662  1.00  0.00    -0.325 S  
HETATM   13  S   UNL     1     -10.821  10.861  67.392  1.00  0.00    -0.291 SA 
HETATM   14  S   UNL     1     -10.965  12.675  68.307  1.00  0.00    -0.263 SA 
ENDBRANCH   6   9
ENDBRANCH   2   3
TORSDOF 2
ENDMDL
MODEL       63
REMARK 921   NORMALIZED FREE ENERGY PREDICTED BY IDOCK:   -4.03 KCAL/MOL
REMARK 922        TOTAL FREE ENERGY PREDICTED BY IDOCK:   -4.70 KCAL/MOL
REMARK 923 INTER-LIGAND FREE ENERGY PREDICTED BY IDOCK:   -4.52 KCAL/MOL
REMARK 924 INTRA-LIGAND FREE ENERGY PREDICTED BY IDOCK:   -0.18 KCAL/MOL
REMARK 927      BINDING AFFINITY PREDICTED BY RF-SCORE:    0.00 PKD
ROOT
HETATM    1  C   UNL     1     -11.290  10.261  68.335  1.00  0.00    -0.178 C  
HETATM    2  O   UNL     1     -12.212  11.293  67.986  1.00  0.00    -0.621 OA 
ENDROOT
BRANCH   2   3
HETATM    3  C   UNL     1     -11.671  12.546  67.908  1.00  0.00    -0.359 A  
HETATM    4  C   UNL     1     -11.339  13.190  66.722  1.00  0.00    -0.353 A  
HETATM    5  C   UNL     1     -10.768  14.466  66.751  1.00  0.00    -0.292 A  
HETATM    6  C   UNL     1     -10.502  15.125  67.963  1.00  0.00    -0.247 A  
HETATM    7  C   UNL     1     -11.478  13.209  69.120  1.00  0.00    -0.358 A  
HETATM    8  C   UNL     1     -10.888  14.480  69.149  1.00  0.00    -0.278 A  
BRANCH   6   9
HETATM    9  C   UNL     1      -9.818  16.441  67.982  1.00  0.00    -0.238 C  
HETATM   10  C   UNL     1     -10.286  17.532  67.360  1.00  0.00    -0.351 C  
HETATM   11  C   UNL     1      -9.480  18.767  67.469  1.00  0.00    -0.298 C  
HETATM   12  S   UNL     1      -9.899  20.244  66.807  1.00  0.00    -0.410 S  
HETATM   13  S   UNL     1      -7.991  18.515  68.360  1.00  0.00    -0.321 SA 
HETATM   14  S   UNL     1      -8.345  16.582  68.894  1.00  0.00    -0.216 SA 
ENDBRANCH   6   9
ENDBRANCH   2   3
TORSDOF 2
ENDMDL
MODEL       64
REMARK 921   NORMALIZED FREE ENERGY PREDICTED BY IDOCK:   -4.03 KCAL/MOL
REMARK 922        TOTAL FREE ENERGY PREDICTED BY IDOCK:   -4.70 KCAL/MOL
REMARK 923 INTER-LIGAND FREE ENERGY PREDICTED BY IDOCK:   -4.49 KCAL/MOL
REMARK 924 INTRA-LIGAND FREE ENERGY PREDICTED BY IDOCK:   -0.21 KCAL/MOL
REMARK 927      BINDING AFFINITY PREDICTED BY RF-SCORE:    0.00 PKD
ROOT
HETATM    1  C   UNL     1     -13.696  13.862  72.454  1.00  0.00    -0.576 C  
HETATM    2  O   UNL     1     -13.229  13.690  71.116  1.00  0.00    -0.278 OA 
ENDROOT
BRANCH   2   3
HETATM    3  C   UNL     1     -12.647  12.479  70.862  1.00  0.00    -0.241 A  
HETATM    4  C   UNL     1     -11.716  12.246  69.857  1.00  0.00    -0.346 A  
HETATM    5  C   UNL     1     -11.196  10.962  69.665  1.00  0.00    -0.348 A  
HETATM    6  C   UNL     1     -11.601   9.878  70.461  1.00  0.00    -0.386 A  
HETATM    7  C   UNL     1     -13.013  11.431  71.708  1.00  0.00    -0.519 A  
HETATM    8  C   UNL     1     -12.505  10.141  71.502  1.00  0.00    -0.526 A  
BRANCH   6   9
HETATM    9  C   UNL     1     -11.105   8.506  70.190  1.00  0.00    -0.188 C  
HETATM   10  C   UNL     1     -10.254   8.204  69.201  1.00  0.00    -0.219 C  
HETATM   11  C   UNL     1      -9.862   6.784  69.060  1.00  0.00    -0.149 C  
HETATM   12  S   UNL     1      -8.786   6.198  67.924  1.00  0.00    -0.111 S  
HETATM   13  S   UNL     1     -10.681   5.749  70.214  1.00  0.00    -0.298 SA 
HETATM   14  S   UNL     1     -11.632   7.227  71.243  1.00  0.00    -0.300 SA 
ENDBRANCH   6   9
ENDBRANCH   2   3
TORSDOF 2
ENDMDL
MODEL       65
REMARK 921   NORMALIZED FREE ENERGY PREDICTED BY IDOCK:   -4.01 KCAL/MOL
REMARK 922        TOTAL FREE ENERGY PREDICTED BY IDOCK:   -4.69 KCAL/MOL
REMARK 923 INTER-LIGAND FREE ENERGY PREDICTED BY IDOCK:   -4.49 KCAL/MOL
REMARK 924 INTRA-LIGAND FREE ENERGY PREDICTED BY IDOCK:   -0.19 KCAL/MOL
REMARK 927      BINDING AFFINITY PREDICTED BY RF-SCORE:    0.00 PKD
ROOT
HETATM    1  C   UNL     1     -13.873  13.588  72.364  1.00  0.00    -0.586 C  
HETATM    2  O   UNL     1     -12.988  12.997  71.413  1.00  0.00    -0.354 OA 
ENDROOT
BRANCH   2   3
HETATM    3  C   UNL     1     -12.227  13.886  70.707  1.00  0.00    -0.369 A  
HETATM    4  C   UNL     1     -11.804  13.697  69.396  1.00  0.00    -0.392 A  
HETATM    5  C   UNL     1     -11.007  14.659  68.769  1.00  0.00    -0.268 A  
HETATM    6  C   UNL     1     -10.601  15.827  69.436  1.00  0.00    -0.255 A  
HETATM    7  C   UNL     1     -11.891  15.069  71.366  1.00  0.00    -0.413 A  
HETATM    8  C   UNL     1     -11.076  16.024  70.743  1.00  0.00    -0.321 A  
BRANCH   6   9
HETATM    9  C   UNL     1      -9.686  16.797  68.788  1.00  0.00    -0.261 C  
HETATM   10  C   UNL     1      -8.361  16.815  68.982  1.00  0.00    -0.163 C  
HETATM   11  C   UNL     1      -7.588  17.854  68.266  1.00  0.00    -0.266 C  
HETATM   12  S   UNL     1      -5.928  18.027  68.334  1.00  0.00    -0.178 S  
HETATM   13  S   UNL     1      -8.618  18.927  67.337  1.00  0.00    -0.276 SA 
HETATM   14  S   UNL     1     -10.372  17.953  67.685  1.00  0.00    -0.393 SA 
ENDBRANCH   6   9
ENDBRANCH   2   3
TORSDOF 2
ENDMDL
MODEL       66
REMARK 921   NORMALIZED FREE ENERGY PREDICTED BY IDOCK:   -4.01 KCAL/MOL
REMARK 922        TOTAL FREE ENERGY PREDICTED BY IDOCK:   -4.68 KCAL/MOL
REMARK 923 INTER-LIGAND FREE ENERGY PREDICTED BY IDOCK:   -4.49 KCAL/MOL
REMARK 924 INTRA-LIGAND FREE ENERGY PREDICTED BY IDOCK:   -0.19 KCAL/MOL
REMARK 927      BINDING AFFINITY PREDICTED BY RF-SCORE:    0.00 PKD
ROOT
HETATM    1  C   UNL     1     -13.065  12.927  71.729  1.00  0.00    -0.360 C  
HETATM    2  O   UNL     1     -13.647  11.661  72.038  1.00  0.00    -0.309 OA 
ENDROOT
BRANCH   2   3
HETATM    3  C   UNL     1     -12.930  10.579  71.610  1.00  0.00    -0.476 A  
HETATM    4  C   UNL     1     -11.852  10.642  70.733  1.00  0.00    -0.459 A  
HETATM    5  C   UNL     1     -11.198   9.472  70.339  1.00  0.00    -0.323 A  
HETATM    6  C   UNL     1     -11.608   8.209  70.798  1.00  0.00    -0.249 A  
HETATM    7  C   UNL     1     -13.311   9.342  72.131  1.00  0.00    -0.545 A  
HETATM    8  C   UNL     1     -12.666   8.167  71.720  1.00  0.00    -0.356 A  
BRANCH   6   9
HETATM    9  C   UNL     1     -10.959   6.969  70.304  1.00  0.00    -0.271 C  
HETATM   10  C   UNL     1     -10.798   6.680  69.007  1.00  0.00    -0.324 C  
HETATM   11  C   UNL     1     -10.137   5.397  68.680  1.00  0.00    -0.179 C  
HETATM   12  S   UNL     1      -9.802   4.862  67.132  1.00  0.00    -0.195 S  
HETATM   13  S   UNL     1      -9.755   4.460  70.112  1.00  0.00    -0.220 SA 
HETATM   14  S   UNL     1     -10.339   5.850  71.481  1.00  0.00    -0.230 SA 
ENDBRANCH   6   9
ENDBRANCH   2   3
TORSDOF 2
ENDMDL
MODEL       67
REMARK 921   NORMALIZED FREE ENERGY PREDICTED BY IDOCK:   -4.00 KCAL/MOL
REMARK 922        TOTAL FREE ENERGY PREDICTED BY IDOCK:   -4.67 KCAL/MOL
REMARK 923 INTER-LIGAND FREE ENERGY PREDICTED BY IDOCK:   -4.47 KCAL/MOL
REMARK 924 INTRA-LIGAND FREE ENERGY PREDICTED BY IDOCK:   -0.20 KCAL/MOL
REMARK 927      BINDING AFFINITY PREDICTED BY RF-SCORE:    0.00 PKD
ROOT
HETATM    1  C   UNL     1     -12.223  15.578  64.210  1.00  0.00    -0.066 C  
HETATM    2  O   UNL     1     -12.368  14.247  63.714  1.00  0.00    -0.735 OA 
ENDROOT
BRANCH   2   3
HETATM    3  C   UNL     1     -11.835  13.275  64.514  1.00  0.00    -0.387 A  
HETATM    4  C   UNL     1     -11.033  12.232  64.063  1.00  0.00    -0.438 A  
HETATM    5  C   UNL     1     -10.556  11.274  64.962  1.00  0.00    -0.353 A  
HETATM    6  C   UNL     1     -10.876  11.323  66.329  1.00  0.00    -0.296 A  
HETATM    7  C   UNL     1     -12.110  13.381  65.878  1.00  0.00    -0.486 A  
HETATM    8  C   UNL     1     -11.646  12.409  66.775  1.00  0.00    -0.444 A  
BRANCH   6   9
HETATM    9  C   UNL     1     -10.433  10.253  67.255  1.00  0.00    -0.253 C  
HETATM   10  C   UNL     1     -10.223   8.984  66.880  1.00  0.00    -0.339 C  
HETATM   11  C   UNL     1      -9.790   8.034  67.929  1.00  0.00    -0.167 C  
HETATM   12  S   UNL     1      -9.436   6.422  67.671  1.00  0.00    -0.119 S  
HETATM   13  S   UNL     1      -9.710   8.782  69.513  1.00  0.00    -0.176 SA 
HETATM   14  S   UNL     1     -10.134  10.681  68.913  1.00  0.00    -0.210 SA 
ENDBRANCH   6   9
ENDBRANCH   2   3
TORSDOF 2
ENDMDL
MODEL       68
REMARK 921   NORMALIZED FREE ENERGY PREDICTED BY IDOCK:   -3.99 KCAL/MOL
REMARK 922        TOTAL FREE ENERGY PREDICTED BY IDOCK:   -4.65 KCAL/MOL
REMARK 923 INTER-LIGAND FREE ENERGY PREDICTED BY IDOCK:   -4.46 KCAL/MOL
REMARK 924 INTRA-LIGAND FREE ENERGY PREDICTED BY IDOCK:   -0.19 KCAL/MOL
REMARK 927      BINDING AFFINITY PREDICTED BY RF-SCORE:    0.00 PKD
ROOT
HETATM    1  C   UNL     1     -10.368  19.796  66.449  1.00  0.00    -0.508 C  
HETATM    2  O   UNL     1      -9.371  18.942  67.009  1.00  0.00    -0.290 OA 
ENDROOT
BRANCH   2   3
HETATM    3  C   UNL     1      -9.786  17.665  67.267  1.00  0.00    -0.284 A  
HETATM    4  C   UNL     1     -10.658  17.310  68.291  1.00  0.00    -0.383 A  
HETATM    5  C   UNL     1     -11.003  15.970  68.486  1.00  0.00    -0.326 A  
HETATM    6  C   UNL     1     -10.479  14.949  67.675  1.00  0.00    -0.249 A  
HETATM    7  C   UNL     1      -9.306  16.676  66.408  1.00  0.00    -0.309 A  
HETATM    8  C   UNL     1      -9.639  15.331  66.616  1.00  0.00    -0.276 A  
BRANCH   6   9
HETATM    9  C   UNL     1     -10.787  13.524  67.947  1.00  0.00    -0.247 C  
HETATM   10  C   UNL     1     -11.312  13.083  69.098  1.00  0.00    -0.328 C  
HETATM   11  C   UNL     1     -11.553  11.628  69.214  1.00  0.00    -0.320 C  
HETATM   12  S   UNL     1     -12.235  10.875  70.541  1.00  0.00    -0.394 S  
HETATM   13  S   UNL     1     -11.014  10.747  67.796  1.00  0.00    -0.315 SA 
HETATM   14  S   UNL     1     -10.484  12.369  66.684  1.00  0.00    -0.232 SA 
ENDBRANCH   6   9
ENDBRANCH   2   3
TORSDOF 2
ENDMDL
MODEL       69
REMARK 921   NORMALIZED FREE ENERGY PREDICTED BY IDOCK:   -3.97 KCAL/MOL
REMARK 922        TOTAL FREE ENERGY PREDICTED BY IDOCK:   -4.63 KCAL/MOL
REMARK 923 INTER-LIGAND FREE ENERGY PREDICTED BY IDOCK:   -4.45 KCAL/MOL
REMARK 924 INTRA-LIGAND FREE ENERGY PREDICTED BY IDOCK:   -0.18 KCAL/MOL
REMARK 927      BINDING AFFINITY PREDICTED BY RF-SCORE:    0.00 PKD
ROOT
HETATM    1  C   UNL     1     -11.538  13.416  67.377  1.00  0.00    -0.354 C  
HETATM    2  O   UNL     1     -11.954  12.059  67.227  1.00  0.00    -0.591 OA 
ENDROOT
BRANCH   2   3
HETATM    3  C   UNL     1     -11.722  11.263  68.313  1.00  0.00    -0.274 A  
HETATM    4  C   UNL     1     -12.255  11.478  69.579  1.00  0.00    -0.287 A  
HETATM    5  C   UNL     1     -11.937  10.615  70.632  1.00  0.00    -0.466 A  
HETATM    6  C   UNL     1     -11.069   9.524  70.452  1.00  0.00    -0.330 A  
HETATM    7  C   UNL     1     -10.912  10.148  68.097  1.00  0.00    -0.313 A  
HETATM    8  C   UNL     1     -10.578   9.294  69.157  1.00  0.00    -0.228 A  
BRANCH   6   9
HETATM    9  C   UNL     1     -10.673   8.668  71.597  1.00  0.00    -0.303 C  
HETATM   10  C   UNL     1      -9.427   8.607  72.084  1.00  0.00    -0.373 C  
HETATM   11  C   UNL     1      -9.194   7.695  73.226  1.00  0.00    -0.229 C  
HETATM   12  S   UNL     1      -7.731   7.498  74.009  1.00  0.00    -0.149 S  
HETATM   13  S   UNL     1     -10.636   6.802  73.670  1.00  0.00    -0.262 SA 
HETATM   14  S   UNL     1     -11.907   7.720  72.371  1.00  0.00    -0.294 SA 
ENDBRANCH   6   9
ENDBRANCH   2   3
TORSDOF 2
ENDMDL
MODEL       70
REMARK 921   NORMALIZED FREE ENERGY PREDICTED BY IDOCK:   -3.96 KCAL/MOL
REMARK 922        TOTAL FREE ENERGY PREDICTED BY IDOCK:   -4.62 KCAL/MOL
REMARK 923 INTER-LIGAND FREE ENERGY PREDICTED BY IDOCK:   -4.44 KCAL/MOL
REMARK 924 INTRA-LIGAND FREE ENERGY PREDICTED BY IDOCK:   -0.18 KCAL/MOL
REMARK 927      BINDING AFFINITY PREDICTED BY RF-SCORE:    0.00 PKD
ROOT
HETATM    1  C   UNL     1      -6.979  19.830  68.965  1.00  0.00    -0.337 C  
HETATM    2  O   UNL     1      -7.704  19.743  67.739  1.00  0.00    -0.275 OA 
ENDROOT
BRANCH   2   3
HETATM    3  C   UNL     1      -8.457  18.612  67.595  1.00  0.00    -0.267 A  
HETATM    4  C   UNL     1      -9.505  18.248  68.435  1.00  0.00    -0.336 A  
HETATM    5  C   UNL     1     -10.200  17.056  68.214  1.00  0.00    -0.326 A  
HETATM    6  C   UNL     1      -9.861  16.190  67.161  1.00  0.00    -0.241 A  
HETATM    7  C   UNL     1      -8.147  17.800  66.504  1.00  0.00    -0.305 A  
HETATM    8  C   UNL     1      -8.832  16.595  66.295  1.00  0.00    -0.348 A  
BRANCH   6   9
HETATM    9  C   UNL     1     -10.550  14.888  66.991  1.00  0.00    -0.289 C  
HETATM   10  C   UNL     1     -10.711  13.997  67.979  1.00  0.00    -0.253 C  
HETATM   11  C   UNL     1     -11.416  12.740  67.643  1.00  0.00    -0.334 C  
HETATM   12  S   UNL     1     -11.758  11.517  68.729  1.00  0.00    -0.335 S  
HETATM   13  S   UNL     1     -11.844  12.648  65.945  1.00  0.00    -0.438 SA 
HETATM   14  S   UNL     1     -11.219  14.517  65.430  1.00  0.00    -0.357 SA 
ENDBRANCH   6   9
ENDBRANCH   2   3
TORSDOF 2
ENDMDL
MODEL       71
REMARK 921   NORMALIZED FREE ENERGY PREDICTED BY IDOCK:   -3.95 KCAL/MOL
REMARK 922        TOTAL FREE ENERGY PREDICTED BY IDOCK:   -4.61 KCAL/MOL
REMARK 923 INTER-LIGAND FREE ENERGY PREDICTED BY IDOCK:   -4.41 KCAL/MOL
REMARK 924 INTRA-LIGAND FREE ENERGY PREDICTED BY IDOCK:   -0.19 KCAL/MOL
REMARK 927      BINDING AFFINITY PREDICTED BY RF-SCORE:    0.00 PKD
ROOT
HETATM    1  C   UNL     1     -11.256  16.121  64.739  1.00  0.00    -0.304 C  
HETATM    2  O   UNL     1     -12.058  14.989  64.403  1.00  0.00    -0.467 OA 
ENDROOT
BRANCH   2   3
HETATM    3  C   UNL     1     -11.769  13.851  65.104  1.00  0.00    -0.350 A  
HETATM    4  C   UNL     1     -12.040  13.666  66.455  1.00  0.00    -0.478 A  
HETATM    5  C   UNL     1     -11.684  12.470  67.085  1.00  0.00    -0.425 A  
HETATM    6  C   UNL     1     -11.038  11.435  66.389  1.00  0.00    -0.301 A  
HETATM    7  C   UNL     1     -11.190  12.811  64.377  1.00  0.00    -0.390 A  
HETATM    8  C   UNL     1     -10.816  11.620  65.014  1.00  0.00    -0.346 A  
BRANCH   6   9
HETATM    9  C   UNL     1     -10.590  10.207  67.090  1.00  0.00    -0.246 C  
HETATM   10  C   UNL     1     -10.054   9.149  66.468  1.00  0.00    -0.357 C  
HETATM   11  C   UNL     1      -9.665   7.997  67.311  1.00  0.00    -0.177 C  
HETATM   12  S   UNL     1      -8.945   6.599  66.747  1.00  0.00    -0.138 S  
HETATM   13  S   UNL     1     -10.070   8.242  69.000  1.00  0.00    -0.205 SA 
HETATM   14  S   UNL     1     -10.736  10.158  68.821  1.00  0.00    -0.230 SA 
ENDBRANCH   6   9
ENDBRANCH   2   3
TORSDOF 2
ENDMDL
MODEL       72
REMARK 921   NORMALIZED FREE ENERGY PREDICTED BY IDOCK:   -3.93 KCAL/MOL
REMARK 922        TOTAL FREE ENERGY PREDICTED BY IDOCK:   -4.60 KCAL/MOL
REMARK 923 INTER-LIGAND FREE ENERGY PREDICTED BY IDOCK:   -4.39 KCAL/MOL
REMARK 924 INTRA-LIGAND FREE ENERGY PREDICTED BY IDOCK:   -0.21 KCAL/MOL
REMARK 927      BINDING AFFINITY PREDICTED BY RF-SCORE:    0.00 PKD
ROOT
HETATM    1  C   UNL     1      -9.231   7.192  66.604  1.00  0.00    -0.160 C  
HETATM    2  O   UNL     1      -9.485   8.500  66.094  1.00  0.00    -0.218 OA 
ENDROOT
BRANCH   2   3
HETATM    3  C   UNL     1     -10.146   9.334  66.952  1.00  0.00    -0.256 A  
HETATM    4  C   UNL     1     -10.710  10.553  66.592  1.00  0.00    -0.222 A  
HETATM    5  C   UNL     1     -11.347  11.343  67.554  1.00  0.00    -0.362 A  
HETATM    6  C   UNL     1     -11.427  10.945  68.899  1.00  0.00    -0.369 A  
HETATM    7  C   UNL     1     -10.273   8.887  68.268  1.00  0.00    -0.239 A  
HETATM    8  C   UNL     1     -10.895   9.689  69.235  1.00  0.00    -0.227 A  
BRANCH   6   9
HETATM    9  C   UNL     1     -12.030  11.832  69.923  1.00  0.00    -0.332 C  
HETATM   10  C   UNL     1     -11.983  13.170  69.869  1.00  0.00    -0.387 C  
HETATM   11  C   UNL     1     -12.628  13.912  70.975  1.00  0.00    -0.371 C  
HETATM   12  S   UNL     1     -12.720  15.577  71.083  1.00  0.00    -0.472 S  
HETATM   13  S   UNL     1     -13.277  12.843  72.205  1.00  0.00    -0.383 SA 
HETATM   14  S   UNL     1     -12.877  11.091  71.247  1.00  0.00    -0.392 SA 
ENDBRANCH   6   9
ENDBRANCH   2   3
TORSDOF 2
ENDMDL
MODEL       73
REMARK 921   NORMALIZED FREE ENERGY PREDICTED BY IDOCK:   -3.91 KCAL/MOL
REMARK 922        TOTAL FREE ENERGY PREDICTED BY IDOCK:   -4.57 KCAL/MOL
REMARK 923 INTER-LIGAND FREE ENERGY PREDICTED BY IDOCK:   -4.37 KCAL/MOL
REMARK 924 INTRA-LIGAND FREE ENERGY PREDICTED BY IDOCK:   -0.20 KCAL/MOL
REMARK 927      BINDING AFFINITY PREDICTED BY RF-SCORE:    0.00 PKD
ROOT
HETATM    1  C   UNL     1      -9.404   7.164  71.492  1.00  0.00    -0.153 C  
HETATM    2  O   UNL     1     -10.316   7.045  70.401  1.00  0.00    -0.199 OA 
ENDROOT
BRANCH   2   3
HETATM    3  C   UNL     1     -10.597   8.217  69.755  1.00  0.00    -0.231 A  
HETATM    4  C   UNL     1     -10.408   8.434  68.395  1.00  0.00    -0.239 A  
HETATM    5  C   UNL     1     -10.706   9.680  67.835  1.00  0.00    -0.302 A  
HETATM    6  C   UNL     1     -11.186  10.743  68.618  1.00  0.00    -0.333 A  
HETATM    7  C   UNL     1     -11.136   9.237  70.539  1.00  0.00    -0.317 A  
HETATM    8  C   UNL     1     -11.416  10.492  69.980  1.00  0.00    -0.393 A  
BRANCH   6   9
HETATM    9  C   UNL     1     -11.417  12.083  68.025  1.00  0.00    -0.328 C  
HETATM   10  C   UNL     1     -11.517  12.308  66.709  1.00  0.00    -0.421 C  
HETATM   11  C   UNL     1     -11.740  13.706  66.279  1.00  0.00    -0.367 C  
HETATM   12  S   UNL     1     -11.933  14.199  64.694  1.00  0.00    -0.466 S  
HETATM   13  S   UNL     1     -11.754  14.824  67.630  1.00  0.00    -0.287 SA 
HETATM   14  S   UNL     1     -11.605  13.431  69.107  1.00  0.00    -0.332 SA 
ENDBRANCH   6   9
ENDBRANCH   2   3
TORSDOF 2
ENDMDL
MODEL       74
REMARK 921   NORMALIZED FREE ENERGY PREDICTED BY IDOCK:   -3.89 KCAL/MOL
REMARK 922        TOTAL FREE ENERGY PREDICTED BY IDOCK:   -4.54 KCAL/MOL
REMARK 923 INTER-LIGAND FREE ENERGY PREDICTED BY IDOCK:   -4.35 KCAL/MOL
REMARK 924 INTRA-LIGAND FREE ENERGY PREDICTED BY IDOCK:   -0.19 KCAL/MOL
REMARK 927      BINDING AFFINITY PREDICTED BY RF-SCORE:    0.00 PKD
ROOT
HETATM    1  C   UNL     1      -7.865  20.318  67.045  1.00  0.00    -0.329 C  
HETATM    2  O   UNL     1      -9.124  19.843  66.569  1.00  0.00    -0.350 OA 
ENDROOT
BRANCH   2   3
HETATM    3  C   UNL     1      -9.674  18.833  67.307  1.00  0.00    -0.302 A  
HETATM    4  C   UNL     1      -9.579  18.723  68.690  1.00  0.00    -0.432 A  
HETATM    5  C   UNL     1     -10.159  17.636  69.350  1.00  0.00    -0.033 A  
HETATM    6  C   UNL     1     -10.837  16.625  68.648  1.00  0.00    -0.344 A  
HETATM    7  C   UNL     1     -10.400  17.876  66.597  1.00  0.00    -0.362 A  
HETATM    8  C   UNL     1     -10.965  16.777  67.258  1.00  0.00    -0.040 A  
BRANCH   6   9
HETATM    9  C   UNL     1     -11.373  15.435  69.352  1.00  0.00    -0.307 C  
HETATM   10  C   UNL     1     -12.095  15.499  70.478  1.00  0.00    -0.423 C  
HETATM   11  C   UNL     1     -12.550  14.217  71.061  1.00  0.00    -0.358 C  
HETATM   12  S   UNL     1     -13.492  14.073  72.434  1.00  0.00    -0.578 S  
HETATM   13  S   UNL     1     -11.965  12.831  70.161  1.00  0.00    -0.217 SA 
HETATM   14  S   UNL     1     -11.077  13.871  68.652  1.00  0.00    -0.278 SA 
ENDBRANCH   6   9
ENDBRANCH   2   3
TORSDOF 2
ENDMDL
MODEL       75
REMARK 921   NORMALIZED FREE ENERGY PREDICTED BY IDOCK:   -3.84 KCAL/MOL
REMARK 922        TOTAL FREE ENERGY PREDICTED BY IDOCK:   -4.49 KCAL/MOL
REMARK 923 INTER-LIGAND FREE ENERGY PREDICTED BY IDOCK:   -4.30 KCAL/MOL
REMARK 924 INTRA-LIGAND FREE ENERGY PREDICTED BY IDOCK:   -0.19 KCAL/MOL
REMARK 927      BINDING AFFINITY PREDICTED BY RF-SCORE:    0.00 PKD
ROOT
HETATM    1  C   UNL     1     -12.929  12.251  71.331  1.00  0.00    -0.256 C  
HETATM    2  O   UNL     1     -13.463  11.184  72.114  1.00  0.00    -0.380 OA 
ENDROOT
BRANCH   2   3
HETATM    3  C   UNL     1     -12.903   9.960  71.876  1.00  0.00    -0.429 A  
HETATM    4  C   UNL     1     -13.516   8.743  72.152  1.00  0.00    -0.469 A  
HETATM    5  C   UNL     1     -12.847   7.544  71.891  1.00  0.00    -0.306 A  
HETATM    6  C   UNL     1     -11.545   7.528  71.363  1.00  0.00    -0.302 A  
HETATM    7  C   UNL     1     -11.637   9.966  71.289  1.00  0.00    -0.456 A  
HETATM    8  C   UNL     1     -10.959   8.764  71.046  1.00  0.00    -0.328 A  
BRANCH   6   9
HETATM    9  C   UNL     1     -10.815   6.251  71.172  1.00  0.00    -0.266 C  
HETATM   10  C   UNL     1     -10.556   5.713  69.972  1.00  0.00    -0.388 C  
HETATM   11  C   UNL     1      -9.824   4.428  69.953  1.00  0.00    -0.220 C  
HETATM   12  S   UNL     1      -9.366   3.610  68.570  1.00  0.00    -0.148 S  
HETATM   13  S   UNL     1      -9.499   3.822  71.567  1.00  0.00    -0.161 SA 
HETATM   14  S   UNL     1     -10.230   5.427  72.586  1.00  0.00    -0.193 SA 
ENDBRANCH   6   9
ENDBRANCH   2   3
TORSDOF 2
ENDMDL
MODEL       76
REMARK 921   NORMALIZED FREE ENERGY PREDICTED BY IDOCK:   -3.83 KCAL/MOL
REMARK 922        TOTAL FREE ENERGY PREDICTED BY IDOCK:   -4.48 KCAL/MOL
REMARK 923 INTER-LIGAND FREE ENERGY PREDICTED BY IDOCK:   -4.28 KCAL/MOL
REMARK 924 INTRA-LIGAND FREE ENERGY PREDICTED BY IDOCK:   -0.20 KCAL/MOL
REMARK 927      BINDING AFFINITY PREDICTED BY RF-SCORE:    0.00 PKD
ROOT
HETATM    1  C   UNL     1      -8.190   9.274  63.252  1.00  0.00    -0.176 C  
HETATM    2  O   UNL     1      -9.523   9.740  63.046  1.00  0.00    -0.219 OA 
ENDROOT
BRANCH   2   3
HETATM    3  C   UNL     1      -9.851  10.870  63.742  1.00  0.00    -0.337 A  
HETATM    4  C   UNL     1     -10.564  11.942  63.217  1.00  0.00    -0.420 A  
HETATM    5  C   UNL     1     -10.829  13.064  64.007  1.00  0.00    -0.408 A  
HETATM    6  C   UNL     1     -10.380  13.151  65.336  1.00  0.00    -0.313 A  
HETATM    7  C   UNL     1      -9.455  10.906  65.079  1.00  0.00    -0.274 A  
HETATM    8  C   UNL     1      -9.705  12.039  65.865  1.00  0.00    -0.256 A  
BRANCH   6   9
HETATM    9  C   UNL     1     -10.595  14.382  66.135  1.00  0.00    -0.298 C  
HETATM   10  C   UNL     1     -10.266  15.610  65.712  1.00  0.00    -0.391 C  
HETATM   11  C   UNL     1     -10.539  16.735  66.634  1.00  0.00    -0.198 C  
HETATM   12  S   UNL     1     -10.244  18.344  66.292  1.00  0.00    -0.388 S  
HETATM   13  S   UNL     1     -11.192  16.195  68.169  1.00  0.00    -0.265 SA 
HETATM   14  S   UNL     1     -11.351  14.222  67.692  1.00  0.00    -0.342 SA 
ENDBRANCH   6   9
ENDBRANCH   2   3
TORSDOF 2
ENDMDL
MODEL       77
REMARK 921   NORMALIZED FREE ENERGY PREDICTED BY IDOCK:   -3.82 KCAL/MOL
REMARK 922        TOTAL FREE ENERGY PREDICTED BY IDOCK:   -4.46 KCAL/MOL
REMARK 923 INTER-LIGAND FREE ENERGY PREDICTED BY IDOCK:   -4.27 KCAL/MOL
REMARK 924 INTRA-LIGAND FREE ENERGY PREDICTED BY IDOCK:   -0.20 KCAL/MOL
REMARK 927      BINDING AFFINITY PREDICTED BY RF-SCORE:    0.00 PKD
ROOT
HETATM    1  C   UNL     1     -10.315  15.201  65.100  1.00  0.00    -0.385 C  
HETATM    2  O   UNL     1     -10.864  13.973  64.622  1.00  0.00    -0.401 OA 
ENDROOT
BRANCH   2   3
HETATM    3  C   UNL     1     -10.897  12.962  65.542  1.00  0.00    -0.274 A  
HETATM    4  C   UNL     1     -11.514  13.045  66.785  1.00  0.00    -0.392 A  
HETATM    5  C   UNL     1     -11.471  11.958  67.664  1.00  0.00    -0.387 A  
HETATM    6  C   UNL     1     -10.803  10.768  67.331  1.00  0.00    -0.345 A  
HETATM    7  C   UNL     1     -10.286  11.766  65.163  1.00  0.00    -0.323 A  
HETATM    8  C   UNL     1     -10.228  10.684  66.053  1.00  0.00    -0.309 A  
BRANCH   6   9
HETATM    9  C   UNL     1     -10.693   9.656  68.306  1.00  0.00    -0.217 C  
HETATM   10  C   UNL     1     -11.158   9.718  69.561  1.00  0.00    -0.226 C  
HETATM   11  C   UNL     1     -10.962   8.524  70.412  1.00  0.00    -0.238 C  
HETATM   12  S   UNL     1     -11.497   8.375  71.988  1.00  0.00    -0.377 S  
HETATM   13  S   UNL     1     -10.067   7.259  69.590  1.00  0.00    -0.199 SA 
HETATM   14  S   UNL     1      -9.953   8.175  67.775  1.00  0.00    -0.193 SA 
ENDBRANCH   6   9
ENDBRANCH   2   3
TORSDOF 2
ENDMDL
MODEL       78
REMARK 921   NORMALIZED FREE ENERGY PREDICTED BY IDOCK:   -3.80 KCAL/MOL
REMARK 922        TOTAL FREE ENERGY PREDICTED BY IDOCK:   -4.45 KCAL/MOL
REMARK 923 INTER-LIGAND FREE ENERGY PREDICTED BY IDOCK:   -4.25 KCAL/MOL
REMARK 924 INTRA-LIGAND FREE ENERGY PREDICTED BY IDOCK:   -0.20 KCAL/MOL
REMARK 927      BINDING AFFINITY PREDICTED BY RF-SCORE:    0.00 PKD
ROOT
HETATM    1  C   UNL     1     -10.091   5.647  73.042  1.00  0.00    -0.181 C  
HETATM    2  O   UNL     1     -10.934   6.703  73.504  1.00  0.00    -0.238 OA 
ENDROOT
BRANCH   2   3
HETATM    3  C   UNL     1     -11.051   7.761  72.647  1.00  0.00    -0.376 A  
HETATM    4  C   UNL     1     -12.252   8.381  72.318  1.00  0.00    -0.449 A  
HETATM    5  C   UNL     1     -12.267   9.445  71.411  1.00  0.00    -0.438 A  
HETATM    6  C   UNL     1     -11.090   9.908  70.800  1.00  0.00    -0.417 A  
HETATM    7  C   UNL     1      -9.863   8.248  72.104  1.00  0.00    -0.342 A  
HETATM    8  C   UNL     1      -9.882   9.302  71.180  1.00  0.00    -0.342 A  
BRANCH   6   9
HETATM    9  C   UNL     1     -11.133  10.981  69.776  1.00  0.00    -0.235 C  
HETATM   10  C   UNL     1     -10.513  10.903  68.591  1.00  0.00    -0.216 C  
HETATM   11  C   UNL     1     -10.648  12.064  67.684  1.00  0.00    -0.210 C  
HETATM   12  S   UNL     1      -9.992  12.158  66.150  1.00  0.00    -0.237 S  
HETATM   13  S   UNL     1     -11.564  13.373  68.407  1.00  0.00    -0.355 SA 
HETATM   14  S   UNL     1     -12.073  12.401  70.122  1.00  0.00    -0.215 SA 
ENDBRANCH   6   9
ENDBRANCH   2   3
TORSDOF 2
ENDMDL
MODEL       79
REMARK 921   NORMALIZED FREE ENERGY PREDICTED BY IDOCK:   -3.80 KCAL/MOL
REMARK 922        TOTAL FREE ENERGY PREDICTED BY IDOCK:   -4.44 KCAL/MOL
REMARK 923 INTER-LIGAND FREE ENERGY PREDICTED BY IDOCK:   -4.25 KCAL/MOL
REMARK 924 INTRA-LIGAND FREE ENERGY PREDICTED BY IDOCK:   -0.20 KCAL/MOL
REMARK 927      BINDING AFFINITY PREDICTED BY RF-SCORE:    0.00 PKD
ROOT
HETATM    1  C   UNL     1     -10.403   4.374  72.397  1.00  0.00    -0.173 C  
HETATM    2  O   UNL     1     -11.163   5.471  72.902  1.00  0.00    -0.278 OA 
ENDROOT
BRANCH   2   3
HETATM    3  C   UNL     1     -11.234   6.553  72.070  1.00  0.00    -0.273 A  
HETATM    4  C   UNL     1     -11.072   6.500  70.690  1.00  0.00    -0.364 A  
HETATM    5  C   UNL     1     -11.140   7.671  69.929  1.00  0.00    -0.160 A  
HETATM    6  C   UNL     1     -11.358   8.925  70.526  1.00  0.00    -0.268 A  
HETATM    7  C   UNL     1     -11.518   7.778  72.675  1.00  0.00    -0.430 A  
HETATM    8  C   UNL     1     -11.567   8.953  71.914  1.00  0.00    -0.442 A  
BRANCH   6   9
HETATM    9  C   UNL     1     -11.343  10.168  69.716  1.00  0.00    -0.256 C  
HETATM   10  C   UNL     1     -11.782  11.352  70.163  1.00  0.00    -0.414 C  
HETATM   11  C   UNL     1     -11.705  12.495  69.227  1.00  0.00    -0.321 C  
HETATM   12  S   UNL     1     -12.160  14.061  69.593  1.00  0.00    -0.344 S  
HETATM   13  S   UNL     1     -11.101  12.026  67.649  1.00  0.00    -0.284 SA 
HETATM   14  S   UNL     1     -10.682  10.087  68.111  1.00  0.00    -0.238 SA 
ENDBRANCH   6   9
ENDBRANCH   2   3
TORSDOF 2
ENDMDL
MODEL       80
REMARK 921   NORMALIZED FREE ENERGY PREDICTED BY IDOCK:   -3.80 KCAL/MOL
REMARK 922        TOTAL FREE ENERGY PREDICTED BY IDOCK:   -4.44 KCAL/MOL
REMARK 923 INTER-LIGAND FREE ENERGY PREDICTED BY IDOCK:   -4.24 KCAL/MOL
REMARK 924 INTRA-LIGAND FREE ENERGY PREDICTED BY IDOCK:   -0.20 KCAL/MOL
REMARK 927      BINDING AFFINITY PREDICTED BY RF-SCORE:    0.00 PKD
ROOT
HETATM    1  C   UNL     1     -10.540  19.700  65.973  1.00  0.00    -0.483 C  
HETATM    2  O   UNL     1      -9.799  19.214  67.092  1.00  0.00    -0.316 OA 
ENDROOT
BRANCH   2   3
HETATM    3  C   UNL     1     -10.181  17.983  67.544  1.00  0.00    -0.369 A  
HETATM    4  C   UNL     1     -10.491  17.688  68.867  1.00  0.00    -0.256 A  
HETATM    5  C   UNL     1     -10.851  16.388  69.232  1.00  0.00    -0.327 A  
HETATM    6  C   UNL     1     -10.899  15.346  68.290  1.00  0.00    -0.269 A  
HETATM    7  C   UNL     1     -10.287  16.979  66.581  1.00  0.00    -0.299 A  
HETATM    8  C   UNL     1     -10.630  15.671  66.951  1.00  0.00    -0.311 A  
BRANCH   6   9
HETATM    9  C   UNL     1     -11.199  13.954  68.707  1.00  0.00    -0.272 C  
HETATM   10  C   UNL     1     -10.766  12.871  68.048  1.00  0.00    -0.244 C  
HETATM   11  C   UNL     1     -11.161  11.552  68.590  1.00  0.00    -0.238 C  
HETATM   12  S   UNL     1     -10.698  10.079  67.949  1.00  0.00    -0.274 S  
HETATM   13  S   UNL     1     -12.209  11.691  69.989  1.00  0.00    -0.228 SA 
HETATM   14  S   UNL     1     -12.134  13.720  70.153  1.00  0.00    -0.355 SA 
ENDBRANCH   6   9
ENDBRANCH   2   3
TORSDOF 2
ENDMDL
MODEL       81
REMARK 921   NORMALIZED FREE ENERGY PREDICTED BY IDOCK:   -3.79 KCAL/MOL
REMARK 922        TOTAL FREE ENERGY PREDICTED BY IDOCK:   -4.44 KCAL/MOL
REMARK 923 INTER-LIGAND FREE ENERGY PREDICTED BY IDOCK:   -4.24 KCAL/MOL
REMARK 924 INTRA-LIGAND FREE ENERGY PREDICTED BY IDOCK:   -0.20 KCAL/MOL
REMARK 927      BINDING AFFINITY PREDICTED BY RF-SCORE:    0.00 PKD
ROOT
HETATM    1  C   UNL     1     -12.025  14.257  66.251  1.00  0.00    -0.412 C  
HETATM    2  O   UNL     1     -12.123  14.011  67.654  1.00  0.00    -0.382 OA 
ENDROOT
BRANCH   2   3
HETATM    3  C   UNL     1     -11.772  12.748  68.042  1.00  0.00    -0.356 A  
HETATM    4  C   UNL     1     -11.330  11.751  67.179  1.00  0.00    -0.387 A  
HETATM    5  C   UNL     1     -11.016  10.482  67.674  1.00  0.00    -0.375 A  
HETATM    6  C   UNL     1     -11.148  10.171  69.038  1.00  0.00    -0.249 A  
HETATM    7  C   UNL     1     -11.846  12.481  69.409  1.00  0.00    -0.368 A  
HETATM    8  C   UNL     1     -11.550  11.203  69.901  1.00  0.00    -0.416 A  
BRANCH   6   9
HETATM    9  C   UNL     1     -10.893   8.797  69.535  1.00  0.00    -0.142 C  
HETATM   10  C   UNL     1     -11.322   8.343  70.720  1.00  0.00    -0.290 C  
HETATM   11  C   UNL     1     -10.977   6.948  71.072  1.00  0.00    -0.252 C  
HETATM   12  S   UNL     1     -11.444   6.173  72.477  1.00  0.00    -0.244 S  
HETATM   13  S   UNL     1      -9.982   6.179  69.850  1.00  0.00    -0.180 SA 
HETATM   14  S   UNL     1     -10.021   7.704  68.502  1.00  0.00    -0.185 SA 
ENDBRANCH   6   9
ENDBRANCH   2   3
TORSDOF 2
ENDMDL
MODEL       82
REMARK 921   NORMALIZED FREE ENERGY PREDICTED BY IDOCK:   -3.74 KCAL/MOL
REMARK 922        TOTAL FREE ENERGY PREDICTED BY IDOCK:   -4.37 KCAL/MOL
REMARK 923 INTER-LIGAND FREE ENERGY PREDICTED BY IDOCK:   -4.19 KCAL/MOL
REMARK 924 INTRA-LIGAND FREE ENERGY PREDICTED BY IDOCK:   -0.19 KCAL/MOL
REMARK 927      BINDING AFFINITY PREDICTED BY RF-SCORE:    0.00 PKD
ROOT
HETATM    1  C   UNL     1      -9.562  10.796  64.886  1.00  0.00    -0.256 C  
HETATM    2  O   UNL     1     -10.656  11.623  65.283  1.00  0.00    -0.265 OA 
ENDROOT
BRANCH   2   3
HETATM    3  C   UNL     1     -10.333  12.930  65.518  1.00  0.00    -0.291 A  
HETATM    4  C   UNL     1     -10.844  14.010  64.807  1.00  0.00    -0.430 A  
HETATM    5  C   UNL     1     -10.432  15.310  65.111  1.00  0.00    -0.438 A  
HETATM    6  C   UNL     1      -9.491  15.566  66.123  1.00  0.00    -0.376 A  
HETATM    7  C   UNL     1      -9.449  13.166  66.571  1.00  0.00    -0.246 A  
HETATM    8  C   UNL     1      -9.022  14.469  66.863  1.00  0.00    -0.267 A  
BRANCH   6   9
HETATM    9  C   UNL     1      -8.999  16.942  66.378  1.00  0.00    -0.283 C  
HETATM   10  C   UNL     1      -9.800  17.978  66.662  1.00  0.00    -0.352 C  
HETATM   11  C   UNL     1      -9.151  19.289  66.882  1.00  0.00    -0.316 C  
HETATM   12  S   UNL     1      -9.956  20.697  67.286  1.00  0.00    -0.148 S  
HETATM   13  S   UNL     1      -7.415  19.223  66.644  1.00  0.00    -0.244 SA 
HETATM   14  S   UNL     1      -7.282  17.214  66.341  1.00  0.00    -0.278 SA 
ENDBRANCH   6   9
ENDBRANCH   2   3
TORSDOF 2
ENDMDL
MODEL       83
REMARK 921   NORMALIZED FREE ENERGY PREDICTED BY IDOCK:   -3.73 KCAL/MOL
REMARK 922        TOTAL FREE ENERGY PREDICTED BY IDOCK:   -4.37 KCAL/MOL
REMARK 923 INTER-LIGAND FREE ENERGY PREDICTED BY IDOCK:   -4.18 KCAL/MOL
REMARK 924 INTRA-LIGAND FREE ENERGY PREDICTED BY IDOCK:   -0.19 KCAL/MOL
REMARK 927      BINDING AFFINITY PREDICTED BY RF-SCORE:    0.00 PKD
ROOT
HETATM    1  C   UNL     1     -14.340   8.139  71.964  1.00  0.00    -0.430 C  
HETATM    2  O   UNL     1     -13.353   9.024  72.494  1.00  0.00    -0.453 OA 
ENDROOT
BRANCH   2   3
HETATM    3  C   UNL     1     -12.451   9.493  71.581  1.00  0.00    -0.391 A  
HETATM    4  C   UNL     1     -11.160   9.001  71.420  1.00  0.00    -0.399 A  
HETATM    5  C   UNL     1     -10.306   9.567  70.469  1.00  0.00    -0.350 A  
HETATM    6  C   UNL     1     -10.712  10.645  69.664  1.00  0.00    -0.290 A  
HETATM    7  C   UNL     1     -12.898  10.518  70.746  1.00  0.00    -0.454 A  
HETATM    8  C   UNL     1     -12.034  11.097  69.806  1.00  0.00    -0.428 A  
BRANCH   6   9
HETATM    9  C   UNL     1      -9.768  11.290  68.720  1.00  0.00    -0.174 C  
HETATM   10  C   UNL     1      -9.953  12.511  68.200  1.00  0.00    -0.224 C  
HETATM   11  C   UNL     1      -8.920  13.008  67.265  1.00  0.00    -0.212 C  
HETATM   12  S   UNL     1      -8.934  14.513  66.537  1.00  0.00    -0.111 S  
HETATM   13  S   UNL     1      -7.662  11.823  66.969  1.00  0.00    -0.137 SA 
HETATM   14  S   UNL     1      -8.321  10.425  68.296  1.00  0.00    -0.123 SA 
ENDBRANCH   6   9
ENDBRANCH   2   3
TORSDOF 2
ENDMDL
MODEL       84
REMARK 921   NORMALIZED FREE ENERGY PREDICTED BY IDOCK:   -3.73 KCAL/MOL
REMARK 922        TOTAL FREE ENERGY PREDICTED BY IDOCK:   -4.37 KCAL/MOL
REMARK 923 INTER-LIGAND FREE ENERGY PREDICTED BY IDOCK:   -4.18 KCAL/MOL
REMARK 924 INTRA-LIGAND FREE ENERGY PREDICTED BY IDOCK:   -0.18 KCAL/MOL
REMARK 927      BINDING AFFINITY PREDICTED BY RF-SCORE:    0.00 PKD
ROOT
HETATM    1  C   UNL     1     -11.578  15.551  69.636  1.00  0.00    -0.348 C  
HETATM    2  O   UNL     1     -11.818  15.776  68.247  1.00  0.00    -0.301 OA 
ENDROOT
BRANCH   2   3
HETATM    3  C   UNL     1     -11.411  14.765  67.422  1.00  0.00    -0.363 A  
HETATM    4  C   UNL     1     -12.266  13.968  66.668  1.00  0.00    -0.463 A  
HETATM    5  C   UNL     1     -11.750  12.943  65.871  1.00  0.00    -0.449 A  
HETATM    6  C   UNL     1     -10.371  12.676  65.816  1.00  0.00    -0.298 A  
HETATM    7  C   UNL     1     -10.034  14.561  67.331  1.00  0.00    -0.227 A  
HETATM    8  C   UNL     1      -9.519  13.520  66.547  1.00  0.00    -0.265 A  
BRANCH   6   9
HETATM    9  C   UNL     1      -9.846  11.531  65.033  1.00  0.00    -0.257 C  
HETATM   10  C   UNL     1      -9.334  10.424  65.587  1.00  0.00    -0.244 C  
HETATM   11  C   UNL     1      -8.844   9.374  64.665  1.00  0.00    -0.200 C  
HETATM   12  S   UNL     1      -8.209   7.905  65.143  1.00  0.00    -0.119 S  
HETATM   13  S   UNL     1      -8.976   9.851  62.983  1.00  0.00    -0.269 SA 
HETATM   14  S   UNL     1      -9.936  11.619  63.300  1.00  0.00    -0.380 SA 
ENDBRANCH   6   9
ENDBRANCH   2   3
TORSDOF 2
ENDMDL
MODEL       85
REMARK 921   NORMALIZED FREE ENERGY PREDICTED BY IDOCK:   -3.69 KCAL/MOL
REMARK 922        TOTAL FREE ENERGY PREDICTED BY IDOCK:   -4.32 KCAL/MOL
REMARK 923 INTER-LIGAND FREE ENERGY PREDICTED BY IDOCK:   -4.12 KCAL/MOL
REMARK 924 INTRA-LIGAND FREE ENERGY PREDICTED BY IDOCK:   -0.20 KCAL/MOL
REMARK 927      BINDING AFFINITY PREDICTED BY RF-SCORE:    0.00 PKD
ROOT
HETATM    1  C   UNL     1     -11.527  14.144  67.225  1.00  0.00    -0.350 C  
HETATM    2  O   UNL     1     -11.956  13.961  68.574  1.00  0.00    -0.352 OA 
ENDROOT
BRANCH   2   3
HETATM    3  C   UNL     1     -11.635  12.750  69.120  1.00  0.00    -0.319 A  
HETATM    4  C   UNL     1     -10.609  11.927  68.668  1.00  0.00    -0.259 A  
HETATM    5  C   UNL     1     -10.376  10.693  69.283  1.00  0.00    -0.240 A  
HETATM    6  C   UNL     1     -11.166  10.244  70.355  1.00  0.00    -0.407 A  
HETATM    7  C   UNL     1     -12.388  12.354  70.226  1.00  0.00    -0.264 A  
HETATM    8  C   UNL     1     -12.165  11.109  70.829  1.00  0.00    -0.484 A  
BRANCH   6   9
HETATM    9  C   UNL     1     -10.961   8.897  70.941  1.00  0.00    -0.266 C  
HETATM   10  C   UNL     1      -9.918   8.109  70.649  1.00  0.00    -0.204 C  
HETATM   11  C   UNL     1      -9.865   6.788  71.314  1.00  0.00    -0.176 C  
HETATM   12  S   UNL     1      -8.637   5.671  71.123  1.00  0.00    -0.128 S  
HETATM   13  S   UNL     1     -11.266   6.495  72.326  1.00  0.00    -0.286 SA 
HETATM   14  S   UNL     1     -12.123   8.328  72.102  1.00  0.00    -0.386 SA 
ENDBRANCH   6   9
ENDBRANCH   2   3
TORSDOF 2
ENDMDL
MODEL       86
REMARK 921   NORMALIZED FREE ENERGY PREDICTED BY IDOCK:   -3.68 KCAL/MOL
REMARK 922        TOTAL FREE ENERGY PREDICTED BY IDOCK:   -4.31 KCAL/MOL
REMARK 923 INTER-LIGAND FREE ENERGY PREDICTED BY IDOCK:   -4.10 KCAL/MOL
REMARK 924 INTRA-LIGAND FREE ENERGY PREDICTED BY IDOCK:   -0.21 KCAL/MOL
REMARK 927      BINDING AFFINITY PREDICTED BY RF-SCORE:    0.00 PKD
ROOT
HETATM    1  C   UNL     1     -10.480   5.609  68.908  1.00  0.00    -0.240 C  
HETATM    2  O   UNL     1     -10.386   6.456  70.052  1.00  0.00    -0.183 OA 
ENDROOT
BRANCH   2   3
HETATM    3  C   UNL     1     -10.612   7.782  69.807  1.00  0.00    -0.241 A  
HETATM    4  C   UNL     1     -11.083   8.691  70.748  1.00  0.00    -0.295 A  
HETATM    5  C   UNL     1     -11.303  10.024  70.389  1.00  0.00    -0.392 A  
HETATM    6  C   UNL     1     -11.071  10.481  69.081  1.00  0.00    -0.302 A  
HETATM    7  C   UNL     1     -10.312   8.230  68.520  1.00  0.00    -0.230 A  
HETATM    8  C   UNL     1     -10.550   9.562  68.156  1.00  0.00    -0.265 A  
BRANCH   6   9
HETATM    9  C   UNL     1     -11.390  11.877  68.693  1.00  0.00    -0.276 C  
HETATM   10  C   UNL     1     -11.607  12.863  69.574  1.00  0.00    -0.348 C  
HETATM   11  C   UNL     1     -11.922  14.200  69.024  1.00  0.00    -0.340 C  
HETATM   12  S   UNL     1     -12.187  15.572  69.941  1.00  0.00    -0.261 S  
HETATM   13  S   UNL     1     -12.018  14.195  67.273  1.00  0.00    -0.376 SA 
HETATM   14  S   UNL     1     -11.446  12.260  66.999  1.00  0.00    -0.354 SA 
ENDBRANCH   6   9
ENDBRANCH   2   3
TORSDOF 2
ENDMDL
MODEL       87
REMARK 921   NORMALIZED FREE ENERGY PREDICTED BY IDOCK:   -3.65 KCAL/MOL
REMARK 922        TOTAL FREE ENERGY PREDICTED BY IDOCK:   -4.28 KCAL/MOL
REMARK 923 INTER-LIGAND FREE ENERGY PREDICTED BY IDOCK:   -4.07 KCAL/MOL
REMARK 924 INTRA-LIGAND FREE ENERGY PREDICTED BY IDOCK:   -0.21 KCAL/MOL
REMARK 927      BINDING AFFINITY PREDICTED BY RF-SCORE:    0.00 PKD
ROOT
HETATM    1  C   UNL     1      -9.385   5.633  66.368  1.00  0.00    -0.154 C  
HETATM    2  O   UNL     1      -9.546   6.267  67.636  1.00  0.00    -0.115 OA 
ENDROOT
BRANCH   2   3
HETATM    3  C   UNL     1      -9.906   7.585  67.578  1.00  0.00    -0.162 A  
HETATM    4  C   UNL     1     -10.397   8.317  68.653  1.00  0.00    -0.225 A  
HETATM    5  C   UNL     1     -10.759   9.657  68.484  1.00  0.00    -0.239 A  
HETATM    6  C   UNL     1     -10.652  10.296  67.237  1.00  0.00    -0.324 A  
HETATM    7  C   UNL     1      -9.728   8.218  66.348  1.00  0.00    -0.300 A  
HETATM    8  C   UNL     1     -10.109   9.556  66.175  1.00  0.00    -0.326 A  
BRANCH   6   9
HETATM    9  C   UNL     1     -11.119  11.692  67.053  1.00  0.00    -0.302 C  
HETATM   10  C   UNL     1     -11.316  12.258  65.855  1.00  0.00    -0.406 C  
HETATM   11  C   UNL     1     -11.777  13.664  65.842  1.00  0.00    -0.354 C  
HETATM   12  S   UNL     1     -12.122  14.544  64.464  1.00  0.00    -0.446 S  
HETATM   13  S   UNL     1     -11.901  14.339  67.456  1.00  0.00    -0.380 SA 
HETATM   14  S   UNL     1     -11.463  12.631  68.474  1.00  0.00    -0.335 SA 
ENDBRANCH   6   9
ENDBRANCH   2   3
TORSDOF 2
ENDMDL
MODEL       88
REMARK 921   NORMALIZED FREE ENERGY PREDICTED BY IDOCK:   -3.65 KCAL/MOL
REMARK 922        TOTAL FREE ENERGY PREDICTED BY IDOCK:   -4.28 KCAL/MOL
REMARK 923 INTER-LIGAND FREE ENERGY PREDICTED BY IDOCK:   -4.08 KCAL/MOL
REMARK 924 INTRA-LIGAND FREE ENERGY PREDICTED BY IDOCK:   -0.20 KCAL/MOL
REMARK 927      BINDING AFFINITY PREDICTED BY RF-SCORE:    0.00 PKD
ROOT
HETATM    1  C   UNL     1     -10.230   9.641  66.978  1.00  0.00    -0.244 C  
HETATM    2  O   UNL     1     -10.843  10.602  66.119  1.00  0.00    -0.130 OA 
ENDROOT
BRANCH   2   3
HETATM    3  C   UNL     1     -10.704  11.902  66.519  1.00  0.00    -0.258 A  
HETATM    4  C   UNL     1     -10.901  12.354  67.820  1.00  0.00    -0.257 A  
HETATM    5  C   UNL     1     -10.755  13.711  68.121  1.00  0.00    -0.260 A  
HETATM    6  C   UNL     1     -10.423  14.653  67.134  1.00  0.00    -0.268 A  
HETATM    7  C   UNL     1     -10.308  12.809  65.537  1.00  0.00    -0.301 A  
HETATM    8  C   UNL     1     -10.180  14.173  65.836  1.00  0.00    -0.332 A  
BRANCH   6   9
HETATM    9  C   UNL     1     -10.355  16.100  67.451  1.00  0.00    -0.294 C  
HETATM   10  C   UNL     1     -10.408  17.068  66.527  1.00  0.00    -0.298 C  
HETATM   11  C   UNL     1     -10.320  18.465  67.008  1.00  0.00    -0.393 C  
HETATM   12  S   UNL     1     -10.405  19.818  66.032  1.00  0.00    -0.470 S  
HETATM   13  S   UNL     1     -10.084  18.558  68.743  1.00  0.00    -0.273 SA 
HETATM   14  S   UNL     1     -10.239  16.563  69.123  1.00  0.00    -0.302 SA 
ENDBRANCH   6   9
ENDBRANCH   2   3
TORSDOF 2
ENDMDL
MODEL       89
REMARK 921   NORMALIZED FREE ENERGY PREDICTED BY IDOCK:   -3.61 KCAL/MOL
REMARK 922        TOTAL FREE ENERGY PREDICTED BY IDOCK:   -4.23 KCAL/MOL
REMARK 923 INTER-LIGAND FREE ENERGY PREDICTED BY IDOCK:   -4.05 KCAL/MOL
REMARK 924 INTRA-LIGAND FREE ENERGY PREDICTED BY IDOCK:   -0.19 KCAL/MOL
REMARK 927      BINDING AFFINITY PREDICTED BY RF-SCORE:    0.00 PKD
ROOT
HETATM    1  C   UNL     1      -9.935   7.423  73.235  1.00  0.00    -0.291 C  
HETATM    2  O   UNL     1     -11.028   8.241  72.819  1.00  0.00    -0.354 OA 
ENDROOT
BRANCH   2   3
HETATM    3  C   UNL     1     -10.779   9.022  71.726  1.00  0.00    -0.367 A  
HETATM    4  C   UNL     1      -9.573   9.049  71.032  1.00  0.00    -0.348 A  
HETATM    5  C   UNL     1      -9.412   9.902  69.937  1.00  0.00    -0.256 A  
HETATM    6  C   UNL     1     -10.442  10.759  69.513  1.00  0.00    -0.205 A  
HETATM    7  C   UNL     1     -11.837   9.815  71.281  1.00  0.00    -0.481 A  
HETATM    8  C   UNL     1     -11.668  10.684  70.194  1.00  0.00    -0.417 A  
BRANCH   6   9
HETATM    9  C   UNL     1     -10.227  11.719  68.403  1.00  0.00    -0.206 C  
HETATM   10  C   UNL     1      -9.481  12.827  68.511  1.00  0.00    -0.094 C  
HETATM   11  C   UNL     1      -9.374  13.686  67.312  1.00  0.00    -0.233 C  
HETATM   12  S   UNL     1      -8.466  15.086  67.217  1.00  0.00    -0.211 S  
HETATM   13  S   UNL     1     -10.340  13.089  65.975  1.00  0.00    -0.289 SA 
HETATM   14  S   UNL     1     -10.957  11.364  66.866  1.00  0.00    -0.295 SA 
ENDBRANCH   6   9
ENDBRANCH   2   3
TORSDOF 2
ENDMDL
MODEL       90
REMARK 921   NORMALIZED FREE ENERGY PREDICTED BY IDOCK:   -3.61 KCAL/MOL
REMARK 922        TOTAL FREE ENERGY PREDICTED BY IDOCK:   -4.23 KCAL/MOL
REMARK 923 INTER-LIGAND FREE ENERGY PREDICTED BY IDOCK:   -4.03 KCAL/MOL
REMARK 924 INTRA-LIGAND FREE ENERGY PREDICTED BY IDOCK:   -0.20 KCAL/MOL
REMARK 927      BINDING AFFINITY PREDICTED BY RF-SCORE:    0.00 PKD
ROOT
HETATM    1  C   UNL     1     -12.221  12.679  65.278  1.00  0.00    -0.475 C  
HETATM    2  O   UNL     1     -10.819  12.424  65.371  1.00  0.00    -0.271 OA 
ENDROOT
BRANCH   2   3
HETATM    3  C   UNL     1     -10.083  13.448  65.899  1.00  0.00    -0.293 A  
HETATM    4  C   UNL     1      -9.087  13.292  66.857  1.00  0.00    -0.235 A  
HETATM    5  C   UNL     1      -8.406  14.408  67.350  1.00  0.00    -0.216 A  
HETATM    6  C   UNL     1      -8.709  15.708  66.912  1.00  0.00    -0.283 A  
HETATM    7  C   UNL     1     -10.354  14.722  65.401  1.00  0.00    -0.410 A  
HETATM    8  C   UNL     1      -9.684  15.843  65.910  1.00  0.00    -0.386 A  
BRANCH   6   9
HETATM    9  C   UNL     1      -8.038  16.890  67.507  1.00  0.00    -0.173 C  
HETATM   10  C   UNL     1      -8.045  18.108  66.949  1.00  0.00    -0.254 C  
HETATM   11  C   UNL     1      -7.320  19.181  67.666  1.00  0.00    -0.228 C  
HETATM   12  S   UNL     1      -7.237  20.774  67.170  1.00  0.00    -0.316 S  
HETATM   13  S   UNL     1      -6.515  18.592  69.109  1.00  0.00    -0.269 SA 
HETATM   14  S   UNL     1      -7.229  16.687  69.032  1.00  0.00    -0.217 SA 
ENDBRANCH   6   9
ENDBRANCH   2   3
TORSDOF 2
ENDMDL
MODEL       91
REMARK 921   NORMALIZED FREE ENERGY PREDICTED BY IDOCK:   -3.60 KCAL/MOL
REMARK 922        TOTAL FREE ENERGY PREDICTED BY IDOCK:   -4.22 KCAL/MOL
REMARK 923 INTER-LIGAND FREE ENERGY PREDICTED BY IDOCK:   -4.02 KCAL/MOL
REMARK 924 INTRA-LIGAND FREE ENERGY PREDICTED BY IDOCK:   -0.20 KCAL/MOL
REMARK 927      BINDING AFFINITY PREDICTED BY RF-SCORE:    0.00 PKD
ROOT
HETATM    1  C   UNL     1     -10.612  19.247  65.770  1.00  0.00    -0.366 C  
HETATM    2  O   UNL     1     -11.042  18.130  64.991  1.00  0.00    -0.650 OA 
ENDROOT
BRANCH   2   3
HETATM    3  C   UNL     1     -10.643  16.912  65.464  1.00  0.00    -0.202 A  
HETATM    4  C   UNL     1      -9.981  16.710  66.671  1.00  0.00    -0.290 A  
HETATM    5  C   UNL     1      -9.594  15.423  67.054  1.00  0.00    -0.227 A  
HETATM    6  C   UNL     1      -9.846  14.306  66.239  1.00  0.00    -0.323 A  
HETATM    7  C   UNL     1     -10.962  15.809  64.671  1.00  0.00    -0.333 A  
HETATM    8  C   UNL     1     -10.557  14.521  65.047  1.00  0.00    -0.458 A  
BRANCH   6   9
HETATM    9  C   UNL     1      -9.354  12.959  66.618  1.00  0.00    -0.240 C  
HETATM   10  C   UNL     1      -9.629  11.845  65.927  1.00  0.00    -0.248 C  
HETATM   11  C   UNL     1      -9.069  10.576  66.443  1.00  0.00    -0.162 C  
HETATM   12  S   UNL     1      -9.254   9.084  65.715  1.00  0.00    -0.224 S  
HETATM   13  S   UNL     1      -8.191  10.798  67.945  1.00  0.00    -0.115 SA 
HETATM   14  S   UNL     1      -8.333  12.828  68.019  1.00  0.00    -0.182 SA 
ENDBRANCH   6   9
ENDBRANCH   2   3
TORSDOF 2
ENDMDL
MODEL       92
REMARK 921   NORMALIZED FREE ENERGY PREDICTED BY IDOCK:   -3.56 KCAL/MOL
REMARK 922        TOTAL FREE ENERGY PREDICTED BY IDOCK:   -4.18 KCAL/MOL
REMARK 923 INTER-LIGAND FREE ENERGY PREDICTED BY IDOCK:   -3.99 KCAL/MOL
REMARK 924 INTRA-LIGAND FREE ENERGY PREDICTED BY IDOCK:   -0.19 KCAL/MOL
REMARK 927      BINDING AFFINITY PREDICTED BY RF-SCORE:    0.00 PKD
ROOT
HETATM    1  C   UNL     1      -9.263   7.727  68.957  1.00  0.00    -0.143 C  
HETATM    2  O   UNL     1     -10.565   8.142  68.544  1.00  0.00    -0.186 OA 
ENDROOT
BRANCH   2   3
HETATM    3  C   UNL     1     -10.618   9.383  67.973  1.00  0.00    -0.226 A  
HETATM    4  C   UNL     1     -10.202   9.674  66.678  1.00  0.00    -0.302 A  
HETATM    5  C   UNL     1     -10.278  10.984  66.195  1.00  0.00    -0.298 A  
HETATM    6  C   UNL     1     -10.757  12.036  66.992  1.00  0.00    -0.280 A  
HETATM    7  C   UNL     1     -11.160  10.400  68.759  1.00  0.00    -0.298 A  
HETATM    8  C   UNL     1     -11.218  11.715  68.279  1.00  0.00    -0.320 A  
BRANCH   6   9
HETATM    9  C   UNL     1     -10.752  13.434  66.495  1.00  0.00    -0.286 C  
HETATM   10  C   UNL     1     -10.623  14.505  67.289  1.00  0.00    -0.280 C  
HETATM   11  C   UNL     1     -10.645  15.833  66.636  1.00  0.00    -0.307 C  
HETATM   12  S   UNL     1     -10.460  17.291  67.431  1.00  0.00    -0.312 S  
HETATM   13  S   UNL     1     -10.918  15.722  64.908  1.00  0.00    -0.338 SA 
HETATM   14  S   UNL     1     -10.883  13.690  64.781  1.00  0.00    -0.412 SA 
ENDBRANCH   6   9
ENDBRANCH   2   3
TORSDOF 2
ENDMDL
MODEL       93
REMARK 921   NORMALIZED FREE ENERGY PREDICTED BY IDOCK:   -3.54 KCAL/MOL
REMARK 922        TOTAL FREE ENERGY PREDICTED BY IDOCK:   -4.15 KCAL/MOL
REMARK 923 INTER-LIGAND FREE ENERGY PREDICTED BY IDOCK:   -3.96 KCAL/MOL
REMARK 924 INTRA-LIGAND FREE ENERGY PREDICTED BY IDOCK:   -0.19 KCAL/MOL
REMARK 927      BINDING AFFINITY PREDICTED BY RF-SCORE:    0.00 PKD
ROOT
HETATM    1  C   UNL     1     -12.854  14.292  65.700  1.00  0.00    -0.296 C  
HETATM    2  O   UNL     1     -12.849  13.320  64.655  1.00  0.00    -0.679 OA 
ENDROOT
BRANCH   2   3
HETATM    3  C   UNL     1     -11.871  12.370  64.760  1.00  0.00    -0.382 A  
HETATM    4  C   UNL     1     -11.428  11.821  65.958  1.00  0.00    -0.281 A  
HETATM    5  C   UNL     1     -10.405  10.869  65.959  1.00  0.00    -0.304 A  
HETATM    6  C   UNL     1      -9.789  10.450  64.767  1.00  0.00    -0.406 A  
HETATM    7  C   UNL     1     -11.321  11.919  63.560  1.00  0.00    -0.516 A  
HETATM    8  C   UNL     1     -10.282  10.978  63.563  1.00  0.00    -0.424 A  
BRANCH   6   9
HETATM    9  C   UNL     1      -8.647   9.503  64.791  1.00  0.00    -0.176 C  
HETATM   10  C   UNL     1      -8.535   8.494  65.664  1.00  0.00    -0.170 C  
HETATM   11  C   UNL     1      -7.329   7.643  65.559  1.00  0.00    -0.074 C  
HETATM   12  S   UNL     1      -7.012   6.312  66.519  1.00  0.00    -0.068 S  
HETATM   13  S   UNL     1      -6.226   8.201  64.315  1.00  0.00    -0.066 SA 
HETATM   14  S   UNL     1      -7.404   9.695  63.590  1.00  0.00    -0.120 SA 
ENDBRANCH   6   9
ENDBRANCH   2   3
TORSDOF 2
ENDMDL
MODEL       94
REMARK 921   NORMALIZED FREE ENERGY PREDICTED BY IDOCK:   -3.51 KCAL/MOL
REMARK 922        TOTAL FREE ENERGY PREDICTED BY IDOCK:   -4.12 KCAL/MOL
REMARK 923 INTER-LIGAND FREE ENERGY PREDICTED BY IDOCK:   -3.92 KCAL/MOL
REMARK 924 INTRA-LIGAND FREE ENERGY PREDICTED BY IDOCK:   -0.20 KCAL/MOL
REMARK 927      BINDING AFFINITY PREDICTED BY RF-SCORE:    0.00 PKD
ROOT
HETATM    1  C   UNL     1     -12.731  12.436  63.346  1.00  0.00    -0.266 C  
HETATM    2  O   UNL     1     -12.676  12.279  64.763  1.00  0.00    -0.556 OA 
ENDROOT
BRANCH   2   3
HETATM    3  C   UNL     1     -11.699  13.005  65.385  1.00  0.00    -0.364 A  
HETATM    4  C   UNL     1     -10.965  14.021  64.781  1.00  0.00    -0.410 A  
HETATM    5  C   UNL     1      -9.969  14.689  65.499  1.00  0.00    -0.384 A  
HETATM    6  C   UNL     1      -9.671  14.354  66.830  1.00  0.00    -0.266 A  
HETATM    7  C   UNL     1     -11.465  12.701  66.726  1.00  0.00    -0.410 A  
HETATM    8  C   UNL     1     -10.453  13.359  67.439  1.00  0.00    -0.243 A  
BRANCH   6   9
HETATM    9  C   UNL     1      -8.554  15.013  67.551  1.00  0.00    -0.180 C  
HETATM   10  C   UNL     1      -7.912  14.463  68.590  1.00  0.00    -0.145 C  
HETATM   11  C   UNL     1      -6.824  15.256  69.205  1.00  0.00    -0.155 C  
HETATM   12  S   UNL     1      -5.872  14.743  70.479  1.00  0.00    -0.145 S  
HETATM   13  S   UNL     1      -6.648  16.835  68.463  1.00  0.00    -0.169 SA 
HETATM   14  S   UNL     1      -8.029  16.572  66.989  1.00  0.00    -0.229 SA 
ENDBRANCH   6   9
ENDBRANCH   2   3
TORSDOF 2
ENDMDL
MODEL       95
REMARK 921   NORMALIZED FREE ENERGY PREDICTED BY IDOCK:   -3.50 KCAL/MOL
REMARK 922        TOTAL FREE ENERGY PREDICTED BY IDOCK:   -4.11 KCAL/MOL
REMARK 923 INTER-LIGAND FREE ENERGY PREDICTED BY IDOCK:   -3.90 KCAL/MOL
REMARK 924 INTRA-LIGAND FREE ENERGY PREDICTED BY IDOCK:   -0.21 KCAL/MOL
REMARK 927      BINDING AFFINITY PREDICTED BY RF-SCORE:    0.00 PKD
ROOT
HETATM    1  C   UNL     1     -10.230  11.774  64.099  1.00  0.00    -0.322 C  
HETATM    2  O   UNL     1     -11.019  12.329  65.150  1.00  0.00    -0.286 OA 
ENDROOT
BRANCH   2   3
HETATM    3  C   UNL     1     -11.010  11.614  66.315  1.00  0.00    -0.289 A  
HETATM    4  C   UNL     1     -11.705  11.969  67.466  1.00  0.00    -0.351 A  
HETATM    5  C   UNL     1     -11.611  11.180  68.616  1.00  0.00    -0.383 A  
HETATM    6  C   UNL     1     -10.811  10.025  68.652  1.00  0.00    -0.265 A  
HETATM    7  C   UNL     1     -10.264  10.435  66.308  1.00  0.00    -0.286 A  
HETATM    8  C   UNL     1     -10.155   9.655  67.467  1.00  0.00    -0.247 A  
BRANCH   6   9
HETATM    9  C   UNL     1     -10.654   9.245  69.904  1.00  0.00    -0.226 C  
HETATM   10  C   UNL     1      -9.762   8.257  70.057  1.00  0.00    -0.176 C  
HETATM   11  C   UNL     1      -9.736   7.571  71.368  1.00  0.00    -0.166 C  
HETATM   12  S   UNL     1      -8.680   6.345  71.784  1.00  0.00    -0.131 S  
HETATM   13  S   UNL     1     -10.973   8.169  72.458  1.00  0.00    -0.362 SA 
HETATM   14  S   UNL     1     -11.660   9.664  71.258  1.00  0.00    -0.406 SA 
ENDBRANCH   6   9
ENDBRANCH   2   3
TORSDOF 2
ENDMDL
MODEL       96
REMARK 921   NORMALIZED FREE ENERGY PREDICTED BY IDOCK:   -3.50 KCAL/MOL
REMARK 922        TOTAL FREE ENERGY PREDICTED BY IDOCK:   -4.10 KCAL/MOL
REMARK 923 INTER-LIGAND FREE ENERGY PREDICTED BY IDOCK:   -3.90 KCAL/MOL
REMARK 924 INTRA-LIGAND FREE ENERGY PREDICTED BY IDOCK:   -0.20 KCAL/MOL
REMARK 927      BINDING AFFINITY PREDICTED BY RF-SCORE:    0.00 PKD
ROOT
HETATM    1  C   UNL     1     -12.060  11.513  70.342  1.00  0.00    -0.382 C  
HETATM    2  O   UNL     1     -12.905  10.392  70.599  1.00  0.00    -0.353 OA 
ENDROOT
BRANCH   2   3
HETATM    3  C   UNL     1     -12.295   9.347  71.236  1.00  0.00    -0.341 A  
HETATM    4  C   UNL     1     -10.977   9.353  71.680  1.00  0.00    -0.382 A  
HETATM    5  C   UNL     1     -10.440   8.222  72.301  1.00  0.00    -0.392 A  
HETATM    6  C   UNL     1     -11.198   7.053  72.484  1.00  0.00    -0.312 A  
HETATM    7  C   UNL     1     -13.086   8.222  71.467  1.00  0.00    -0.313 A  
HETATM    8  C   UNL     1     -12.540   7.081  72.073  1.00  0.00    -0.254 A  
BRANCH   6   9
HETATM    9  C   UNL     1     -10.589   5.833  73.067  1.00  0.00    -0.242 C  
HETATM   10  C   UNL     1     -11.216   4.651  73.141  1.00  0.00    -0.367 C  
HETATM   11  C   UNL     1     -10.472   3.532  73.760  1.00  0.00    -0.181 C  
HETATM   12  S   UNL     1     -11.050   1.972  73.916  1.00  0.00    -0.164 S  
HETATM   13  S   UNL     1      -8.897   4.025  74.352  1.00  0.00    -0.093 SA 
HETATM   14  S   UNL     1      -8.955   5.936  73.652  1.00  0.00    -0.127 SA 
ENDBRANCH   6   9
ENDBRANCH   2   3
TORSDOF 2
ENDMDL
MODEL       97
REMARK 921   NORMALIZED FREE ENERGY PREDICTED BY IDOCK:   -3.48 KCAL/MOL
REMARK 922        TOTAL FREE ENERGY PREDICTED BY IDOCK:   -4.08 KCAL/MOL
REMARK 923 INTER-LIGAND FREE ENERGY PREDICTED BY IDOCK:   -3.88 KCAL/MOL
REMARK 924 INTRA-LIGAND FREE ENERGY PREDICTED BY IDOCK:   -0.20 KCAL/MOL
REMARK 927      BINDING AFFINITY PREDICTED BY RF-SCORE:    0.00 PKD
ROOT
HETATM    1  C   UNL     1     -11.565  15.549  68.543  1.00  0.00    -0.368 C  
HETATM    2  O   UNL     1     -11.821  14.871  67.313  1.00  0.00    -0.345 OA 
ENDROOT
BRANCH   2   3
HETATM    3  C   UNL     1     -11.504  13.542  67.312  1.00  0.00    -0.339 A  
HETATM    4  C   UNL     1     -11.722  12.676  68.379  1.00  0.00    -0.377 A  
HETATM    5  C   UNL     1     -11.339  11.335  68.285  1.00  0.00    -0.359 A  
HETATM    6  C   UNL     1     -10.718  10.826  67.133  1.00  0.00    -0.324 A  
HETATM    7  C   UNL     1     -10.950  13.042  66.134  1.00  0.00    -0.300 A  
HETATM    8  C   UNL     1     -10.550  11.701  66.048  1.00  0.00    -0.303 A  
BRANCH   6   9
HETATM    9  C   UNL     1     -10.241   9.422  67.080  1.00  0.00    -0.255 C  
HETATM   10  C   UNL     1     -10.519   8.506  68.017  1.00  0.00    -0.249 C  
HETATM   11  C   UNL     1      -9.960   7.151  67.820  1.00  0.00    -0.155 C  
HETATM   12  S   UNL     1     -10.217   5.853  68.842  1.00  0.00    -0.221 S  
HETATM   13  S   UNL     1      -8.954   7.046  66.387  1.00  0.00    -0.150 SA 
HETATM   14  S   UNL     1      -9.298   8.933  65.704  1.00  0.00    -0.139 SA 
ENDBRANCH   6   9
ENDBRANCH   2   3
TORSDOF 2
ENDMDL
MODEL       98
REMARK 921   NORMALIZED FREE ENERGY PREDICTED BY IDOCK:   -3.46 KCAL/MOL
REMARK 922        TOTAL FREE ENERGY PREDICTED BY IDOCK:   -4.07 KCAL/MOL
REMARK 923 INTER-LIGAND FREE ENERGY PREDICTED BY IDOCK:   -3.87 KCAL/MOL
REMARK 924 INTRA-LIGAND FREE ENERGY PREDICTED BY IDOCK:   -0.20 KCAL/MOL
REMARK 927      BINDING AFFINITY PREDICTED BY RF-SCORE:    0.00 PKD
ROOT
HETATM    1  C   UNL     1     -13.139  11.771  71.883  1.00  0.00    -0.376 C  
HETATM    2  O   UNL     1     -12.700  10.440  71.609  1.00  0.00    -0.400 OA 
ENDROOT
BRANCH   2   3
HETATM    3  C   UNL     1     -12.015  10.292  70.436  1.00  0.00    -0.303 A  
HETATM    4  C   UNL     1     -12.099  11.163  69.355  1.00  0.00    -0.396 A  
HETATM    5  C   UNL     1     -11.373  10.908  68.189  1.00  0.00    -0.383 A  
HETATM    6  C   UNL     1     -10.554   9.773  68.065  1.00  0.00    -0.291 A  
HETATM    7  C   UNL     1     -11.156   9.195  70.359  1.00  0.00    -0.293 A  
HETATM    8  C   UNL     1     -10.442   8.930  69.182  1.00  0.00    -0.236 A  
BRANCH   6   9
HETATM    9  C   UNL     1      -9.855   9.471  66.791  1.00  0.00    -0.216 C  
HETATM   10  C   UNL     1      -9.144   8.356  66.579  1.00  0.00    -0.217 C  
HETATM   11  C   UNL     1      -8.501   8.209  65.255  1.00  0.00    -0.139 C  
HETATM   12  S   UNL     1      -7.606   6.885  64.769  1.00  0.00    -0.115 S  
HETATM   13  S   UNL     1      -8.757   9.610  64.231  1.00  0.00    -0.216 SA 
HETATM   14  S   UNL     1     -10.003  10.614  65.490  1.00  0.00    -0.287 SA 
ENDBRANCH   6   9
ENDBRANCH   2   3
TORSDOF 2
ENDMDL
MODEL       99
REMARK 921   NORMALIZED FREE ENERGY PREDICTED BY IDOCK:   -3.46 KCAL/MOL
REMARK 922        TOTAL FREE ENERGY PREDICTED BY IDOCK:   -4.07 KCAL/MOL
REMARK 923 INTER-LIGAND FREE ENERGY PREDICTED BY IDOCK:   -3.87 KCAL/MOL
REMARK 924 INTRA-LIGAND FREE ENERGY PREDICTED BY IDOCK:   -0.20 KCAL/MOL
REMARK 927      BINDING AFFINITY PREDICTED BY RF-SCORE:    0.00 PKD
ROOT
HETATM    1  C   UNL     1     -10.453   5.344  69.318  1.00  0.00    -0.239 C  
HETATM    2  O   UNL     1      -9.455   6.361  69.396  1.00  0.00    -0.140 OA 
ENDROOT
BRANCH   2   3
HETATM    3  C   UNL     1      -9.707   7.474  68.644  1.00  0.00    -0.154 A  
HETATM    4  C   UNL     1     -10.113   8.700  69.158  1.00  0.00    -0.203 A  
HETATM    5  C   UNL     1     -10.368   9.773  68.299  1.00  0.00    -0.231 A  
HETATM    6  C   UNL     1     -10.238   9.647  66.905  1.00  0.00    -0.304 A  
HETATM    7  C   UNL     1      -9.507   7.346  67.269  1.00  0.00    -0.179 A  
HETATM    8  C   UNL     1      -9.781   8.416  66.407  1.00  0.00    -0.312 A  
BRANCH   6   9
HETATM    9  C   UNL     1     -10.594  10.767  66.001  1.00  0.00    -0.156 C  
HETATM   10  C   UNL     1     -11.368  11.799  66.364  1.00  0.00    -0.361 C  
HETATM   11  C   UNL     1     -11.636  12.832  65.339  1.00  0.00    -0.358 C  
HETATM   12  S   UNL     1     -12.539  14.216  65.591  1.00  0.00    -0.398 S  
HETATM   13  S   UNL     1     -10.915  12.438  63.790  1.00  0.00    -0.475 SA 
HETATM   14  S   UNL     1      -9.936  10.757  64.392  1.00  0.00    -0.358 SA 
ENDBRANCH   6   9
ENDBRANCH   2   3
TORSDOF 2
ENDMDL
MODEL      100
REMARK 921   NORMALIZED FREE ENERGY PREDICTED BY IDOCK:   -3.46 KCAL/MOL
REMARK 922        TOTAL FREE ENERGY PREDICTED BY IDOCK:   -4.06 KCAL/MOL
REMARK 923 INTER-LIGAND FREE ENERGY PREDICTED BY IDOCK:   -3.88 KCAL/MOL
REMARK 924 INTRA-LIGAND FREE ENERGY PREDICTED BY IDOCK:   -0.18 KCAL/MOL
REMARK 927      BINDING AFFINITY PREDICTED BY RF-SCORE:    0.00 PKD
ROOT
HETATM    1  C   UNL     1     -10.701  15.666  67.644  1.00  0.00    -0.302 C  
HETATM    2  O   UNL     1     -11.424  14.714  66.864  1.00  0.00    -0.347 OA 
ENDROOT
BRANCH   2   3
HETATM    3  C   UNL     1     -11.155  13.406  67.159  1.00  0.00    -0.286 A  
HETATM    4  C   UNL     1     -10.080  12.686  66.650  1.00  0.00    -0.248 A  
HETATM    5  C   UNL     1      -9.907  11.343  66.998  1.00  0.00    -0.214 A  
HETATM    6  C   UNL     1     -10.807  10.681  67.851  1.00  0.00    -0.328 A  
HETATM    7  C   UNL     1     -12.023  12.788  68.060  1.00  0.00    -0.315 A  
HETATM    8  C   UNL     1     -11.859  11.437  68.393  1.00  0.00    -0.344 A  
BRANCH   6   9
HETATM    9  C   UNL     1     -10.658   9.235  68.142  1.00  0.00    -0.198 C  
HETATM   10  C   UNL     1     -10.597   8.287  67.197  1.00  0.00    -0.340 C  
HETATM   11  C   UNL     1     -10.456   6.887  67.655  1.00  0.00    -0.228 C  
HETATM   12  S   UNL     1     -10.322   5.561  66.647  1.00  0.00    -0.281 S  
HETATM   13  S   UNL     1     -10.471   6.753  69.404  1.00  0.00    -0.231 SA 
HETATM   14  S   UNL     1     -10.517   8.749  69.806  1.00  0.00    -0.220 SA 
ENDBRANCH   6   9
ENDBRANCH   2   3
TORSDOF 2
ENDMDL
MODEL      101
REMARK 921   NORMALIZED FREE ENERGY PREDICTED BY IDOCK:   -3.43 KCAL/MOL
REMARK 922        TOTAL FREE ENERGY PREDICTED BY IDOCK:   -4.04 KCAL/MOL
REMARK 923 INTER-LIGAND FREE ENERGY PREDICTED BY IDOCK:   -3.86 KCAL/MOL
REMARK 924 INTRA-LIGAND FREE ENERGY PREDICTED BY IDOCK:   -0.18 KCAL/MOL
REMARK 927      BINDING AFFINITY PREDICTED BY RF-SCORE:    0.00 PKD
ROOT
HETATM    1  C   UNL     1     -12.158  15.872  71.926  1.00  0.00    -0.498 C  
HETATM    2  O   UNL     1     -11.029  16.031  71.068  1.00  0.00    -0.246 OA 
ENDROOT
BRANCH   2   3
HETATM    3  C   UNL     1     -11.178  15.501  69.816  1.00  0.00    -0.304 A  
HETATM    4  C   UNL     1     -12.018  14.437  69.504  1.00  0.00    -0.376 A  
HETATM    5  C   UNL     1     -12.082  13.954  68.194  1.00  0.00    -0.317 A  
HETATM    6  C   UNL     1     -11.303  14.510  67.166  1.00  0.00    -0.361 A  
HETATM    7  C   UNL     1     -10.446  16.111  68.798  1.00  0.00    -0.264 A  
HETATM    8  C   UNL     1     -10.497  15.614  67.488  1.00  0.00    -0.285 A  
BRANCH   6   9
HETATM    9  C   UNL     1     -11.318  13.932  65.800  1.00  0.00    -0.307 C  
HETATM   10  C   UNL     1     -10.493  12.957  65.395  1.00  0.00    -0.308 C  
HETATM   11  C   UNL     1     -10.631  12.496  63.996  1.00  0.00    -0.421 C  
HETATM   12  S   UNL     1      -9.734  11.268  63.302  1.00  0.00    -0.399 S  
HETATM   13  S   UNL     1     -11.839  13.407  63.110  1.00  0.00     0.425 SA 
HETATM   14  S   UNL     1     -12.499  14.531  64.674  1.00  0.00    -0.194 SA 
ENDBRANCH   6   9
ENDBRANCH   2   3
TORSDOF 2
ENDMDL
MODEL      102
REMARK 921   NORMALIZED FREE ENERGY PREDICTED BY IDOCK:   -3.41 KCAL/MOL
REMARK 922        TOTAL FREE ENERGY PREDICTED BY IDOCK:   -4.01 KCAL/MOL
REMARK 923 INTER-LIGAND FREE ENERGY PREDICTED BY IDOCK:   -3.83 KCAL/MOL
REMARK 924 INTRA-LIGAND FREE ENERGY PREDICTED BY IDOCK:   -0.17 KCAL/MOL
REMARK 927      BINDING AFFINITY PREDICTED BY RF-SCORE:    0.00 PKD
ROOT
HETATM    1  C   UNL     1     -12.400  13.413  70.437  1.00  0.00    -0.312 C  
HETATM    2  O   UNL     1     -12.047  13.586  69.065  1.00  0.00    -0.341 OA 
ENDROOT
BRANCH   2   3
HETATM    3  C   UNL     1     -11.176  14.610  68.820  1.00  0.00    -0.267 A  
HETATM    4  C   UNL     1     -11.511  15.959  68.865  1.00  0.00    -0.386 A  
HETATM    5  C   UNL     1     -10.549  16.931  68.576  1.00  0.00    -0.367 A  
HETATM    6  C   UNL     1      -9.234  16.584  68.223  1.00  0.00    -0.214 A  
HETATM    7  C   UNL     1      -9.860  14.245  68.538  1.00  0.00    -0.231 A  
HETATM    8  C   UNL     1      -8.901  15.220  68.229  1.00  0.00    -0.171 A  
BRANCH   6   9
HETATM    9  C   UNL     1      -8.248  17.622  67.835  1.00  0.00    -0.234 C  
HETATM   10  C   UNL     1      -7.715  18.500  68.696  1.00  0.00    -0.332 C  
HETATM   11  C   UNL     1      -6.750  19.479  68.148  1.00  0.00    -0.266 C  
HETATM   12  S   UNL     1      -5.941  20.630  69.050  1.00  0.00    -0.301 S  
HETATM   13  S   UNL     1      -6.556  19.324  66.412  1.00  0.00    -0.197 SA 
HETATM   14  S   UNL     1      -7.729  17.676  66.177  1.00  0.00    -0.216 SA 
ENDBRANCH   6   9
ENDBRANCH   2   3
TORSDOF 2
ENDMDL
MODEL      103
REMARK 921   NORMALIZED FREE ENERGY PREDICTED BY IDOCK:   -3.40 KCAL/MOL
REMARK 922        TOTAL FREE ENERGY PREDICTED BY IDOCK:   -4.00 KCAL/MOL
REMARK 923 INTER-LIGAND FREE ENERGY PREDICTED BY IDOCK:   -3.80 KCAL/MOL
REMARK 924 INTRA-LIGAND FREE ENERGY PREDICTED BY IDOCK:   -0.21 KCAL/MOL
REMARK 927      BINDING AFFINITY PREDICTED BY RF-SCORE:    0.00 PKD
ROOT
HETATM    1  C   UNL     1      -8.856   9.301  62.772  1.00  0.00    -0.188 C  
HETATM    2  O   UNL     1      -8.769  10.533  63.489  1.00  0.00    -0.176 OA 
ENDROOT
BRANCH   2   3
HETATM    3  C   UNL     1      -9.381  10.531  64.711  1.00  0.00    -0.238 A  
HETATM    4  C   UNL     1     -10.182  11.561  65.195  1.00  0.00    -0.322 A  
HETATM    5  C   UNL     1     -10.745  11.472  66.471  1.00  0.00    -0.318 A  
HETATM    6  C   UNL     1     -10.515  10.362  67.302  1.00  0.00    -0.304 A  
HETATM    7  C   UNL     1      -9.194   9.391  65.492  1.00  0.00    -0.292 A  
HETATM    8  C   UNL     1      -9.744   9.311  66.779  1.00  0.00    -0.260 A  
BRANCH   6   9
HETATM    9  C   UNL     1     -11.049  10.320  68.685  1.00  0.00    -0.239 C  
HETATM   10  C   UNL     1     -11.737  11.323  69.247  1.00  0.00    -0.403 C  
HETATM   11  C   UNL     1     -12.194  11.127  70.641  1.00  0.00    -0.397 C  
HETATM   12  S   UNL     1     -13.098  12.229  71.514  1.00  0.00    -0.128 S  
HETATM   13  S   UNL     1     -11.657   9.597  71.310  1.00  0.00    -0.406 SA 
HETATM   14  S   UNL     1     -10.798   8.872  69.612  1.00  0.00    -0.125 SA 
ENDBRANCH   6   9
ENDBRANCH   2   3
TORSDOF 2
ENDMDL
MODEL      104
REMARK 921   NORMALIZED FREE ENERGY PREDICTED BY IDOCK:   -3.40 KCAL/MOL
REMARK 922        TOTAL FREE ENERGY PREDICTED BY IDOCK:   -4.00 KCAL/MOL
REMARK 923 INTER-LIGAND FREE ENERGY PREDICTED BY IDOCK:   -3.80 KCAL/MOL
REMARK 924 INTRA-LIGAND FREE ENERGY PREDICTED BY IDOCK:   -0.20 KCAL/MOL
REMARK 927      BINDING AFFINITY PREDICTED BY RF-SCORE:    0.00 PKD
ROOT
HETATM    1  C   UNL     1     -11.287  13.880  64.405  1.00  0.00    -0.341 C  
HETATM    2  O   UNL     1     -10.457  12.810  63.955  1.00  0.00    -0.406 OA 
ENDROOT
BRANCH   2   3
HETATM    3  C   UNL     1     -10.349  11.761  64.825  1.00  0.00    -0.288 A  
HETATM    4  C   UNL     1     -10.930  11.720  66.088  1.00  0.00    -0.355 A  
HETATM    5  C   UNL     1     -10.740  10.607  66.913  1.00  0.00    -0.297 A  
HETATM    6  C   UNL     1      -9.957   9.514  66.505  1.00  0.00    -0.329 A  
HETATM    7  C   UNL     1      -9.624  10.659  64.374  1.00  0.00    -0.349 A  
HETATM    8  C   UNL     1      -9.418   9.552  65.208  1.00  0.00    -0.326 A  
BRANCH   6   9
HETATM    9  C   UNL     1      -9.695   8.379  67.423  1.00  0.00    -0.170 C  
HETATM   10  C   UNL     1     -10.471   8.074  68.471  1.00  0.00    -0.200 C  
HETATM   11  C   UNL     1     -10.067   6.913  69.294  1.00  0.00    -0.170 C  
HETATM   12  S   UNL     1     -10.911   6.339  70.617  1.00  0.00    -0.330 S  
HETATM   13  S   UNL     1      -8.561   6.200  68.746  1.00  0.00    -0.120 SA 
HETATM   14  S   UNL     1      -8.321   7.366  67.094  1.00  0.00    -0.119 SA 
ENDBRANCH   6   9
ENDBRANCH   2   3
TORSDOF 2
ENDMDL
MODEL      105
REMARK 921   NORMALIZED FREE ENERGY PREDICTED BY IDOCK:   -3.39 KCAL/MOL
REMARK 922        TOTAL FREE ENERGY PREDICTED BY IDOCK:   -3.98 KCAL/MOL
REMARK 923 INTER-LIGAND FREE ENERGY PREDICTED BY IDOCK:   -3.79 KCAL/MOL
REMARK 924 INTRA-LIGAND FREE ENERGY PREDICTED BY IDOCK:   -0.19 KCAL/MOL
REMARK 927      BINDING AFFINITY PREDICTED BY RF-SCORE:    0.00 PKD
ROOT
HETATM    1  C   UNL     1     -14.387   8.466  71.775  1.00  0.00    -0.472 C  
HETATM    2  O   UNL     1     -13.376   9.223  72.439  1.00  0.00    -0.445 OA 
ENDROOT
BRANCH   2   3
HETATM    3  C   UNL     1     -12.173   9.269  71.791  1.00  0.00    -0.385 A  
HETATM    4  C   UNL     1     -11.065   8.498  72.127  1.00  0.00    -0.436 A  
HETATM    5  C   UNL     1      -9.871   8.637  71.414  1.00  0.00    -0.327 A  
HETATM    6  C   UNL     1      -9.747   9.554  70.357  1.00  0.00    -0.328 A  
HETATM    7  C   UNL     1     -12.093  10.138  70.702  1.00  0.00    -0.411 A  
HETATM    8  C   UNL     1     -10.889  10.289  70.000  1.00  0.00    -0.364 A  
BRANCH   6   9
HETATM    9  C   UNL     1      -8.450   9.751  69.665  1.00  0.00    -0.185 C  
HETATM   10  C   UNL     1      -8.337  10.038  68.362  1.00  0.00    -0.111 C  
HETATM   11  C   UNL     1      -6.969  10.195  67.822  1.00  0.00    -0.084 C  
HETATM   12  S   UNL     1      -6.605  10.592  66.240  1.00  0.00    -0.133 S  
HETATM   13  S   UNL     1      -5.736   9.890  69.032  1.00  0.00    -0.034 SA 
HETATM   14  S   UNL     1      -6.996   9.638  70.612  1.00  0.00    -0.078 SA 
ENDBRANCH   6   9
ENDBRANCH   2   3
TORSDOF 2
ENDMDL
MODEL      106
REMARK 921   NORMALIZED FREE ENERGY PREDICTED BY IDOCK:   -3.39 KCAL/MOL
REMARK 922        TOTAL FREE ENERGY PREDICTED BY IDOCK:   -3.98 KCAL/MOL
REMARK 923 INTER-LIGAND FREE ENERGY PREDICTED BY IDOCK:   -3.79 KCAL/MOL
REMARK 924 INTRA-LIGAND FREE ENERGY PREDICTED BY IDOCK:   -0.19 KCAL/MOL
REMARK 927      BINDING AFFINITY PREDICTED BY RF-SCORE:    0.00 PKD
ROOT
HETATM    1  C   UNL     1     -11.034   2.586  73.825  1.00  0.00    -0.208 C  
HETATM    2  O   UNL     1     -10.662   3.769  74.532  1.00  0.00    -0.187 OA 
ENDROOT
BRANCH   2   3
HETATM    3  C   UNL     1     -10.790   4.928  73.819  1.00  0.00    -0.310 A  
HETATM    4  C   UNL     1      -9.912   6.004  73.896  1.00  0.00    -0.224 A  
HETATM    5  C   UNL     1     -10.145   7.156  73.140  1.00  0.00    -0.292 A  
HETATM    6  C   UNL     1     -11.265   7.271  72.299  1.00  0.00    -0.305 A  
HETATM    7  C   UNL     1     -11.871   4.994  72.939  1.00  0.00    -0.127 A  
HETATM    8  C   UNL     1     -12.114   6.157  72.196  1.00  0.00    -0.263 A  
BRANCH   6   9
HETATM    9  C   UNL     1     -11.545   8.531  71.569  1.00  0.00    -0.292 C  
HETATM   10  C   UNL     1     -10.735   9.045  70.634  1.00  0.00    -0.292 C  
HETATM   11  C   UNL     1     -11.155  10.317  70.004  1.00  0.00    -0.311 C  
HETATM   12  S   UNL     1     -10.317  11.106  68.793  1.00  0.00    -0.205 S  
HETATM   13  S   UNL     1     -12.643  10.941  70.691  1.00  0.00    -0.331 SA 
HETATM   14  S   UNL     1     -13.028   9.366  71.923  1.00  0.00    -0.445 SA 
ENDBRANCH   6   9
ENDBRANCH   2   3
TORSDOF 2
ENDMDL
MODEL      107
REMARK 921   NORMALIZED FREE ENERGY PREDICTED BY IDOCK:   -3.33 KCAL/MOL
REMARK 922        TOTAL FREE ENERGY PREDICTED BY IDOCK:   -3.92 KCAL/MOL
REMARK 923 INTER-LIGAND FREE ENERGY PREDICTED BY IDOCK:   -3.73 KCAL/MOL
REMARK 924 INTRA-LIGAND FREE ENERGY PREDICTED BY IDOCK:   -0.19 KCAL/MOL
REMARK 927      BINDING AFFINITY PREDICTED BY RF-SCORE:    0.00 PKD
ROOT
HETATM    1  C   UNL     1      -9.892   4.734  70.220  1.00  0.00    -0.242 C  
HETATM    2  O   UNL     1     -10.945   5.697  70.164  1.00  0.00    -0.313 OA 
ENDROOT
BRANCH   2   3
HETATM    3  C   UNL     1     -10.832   6.614  69.157  1.00  0.00    -0.283 A  
HETATM    4  C   UNL     1     -10.881   6.309  67.801  1.00  0.00    -0.424 A  
HETATM    5  C   UNL     1     -10.733   7.320  66.848  1.00  0.00    -0.346 A  
HETATM    6  C   UNL     1     -10.519   8.658  67.221  1.00  0.00    -0.360 A  
HETATM    7  C   UNL     1     -10.688   7.945  69.550  1.00  0.00    -0.195 A  
HETATM    8  C   UNL     1     -10.521   8.955  68.593  1.00  0.00    -0.223 A  
BRANCH   6   9
HETATM    9  C   UNL     1     -10.279   9.706  66.199  1.00  0.00    -0.205 C  
HETATM   10  C   UNL     1      -9.493   9.534  65.128  1.00  0.00    -0.305 C  
HETATM   11  C   UNL     1      -9.350  10.683  64.206  1.00  0.00    -0.258 C  
HETATM   12  S   UNL     1      -8.455  10.670  62.795  1.00  0.00    -0.192 S  
HETATM   13  S   UNL     1     -10.215  12.101  64.769  1.00  0.00    -0.271 SA 
HETATM   14  S   UNL     1     -11.095  11.229  66.386  1.00  0.00    -0.113 SA 
ENDBRANCH   6   9
ENDBRANCH   2   3
TORSDOF 2
ENDMDL
MODEL      108
REMARK 921   NORMALIZED FREE ENERGY PREDICTED BY IDOCK:   -3.29 KCAL/MOL
REMARK 922        TOTAL FREE ENERGY PREDICTED BY IDOCK:   -3.87 KCAL/MOL
REMARK 923 INTER-LIGAND FREE ENERGY PREDICTED BY IDOCK:   -3.68 KCAL/MOL
REMARK 924 INTRA-LIGAND FREE ENERGY PREDICTED BY IDOCK:   -0.19 KCAL/MOL
REMARK 927      BINDING AFFINITY PREDICTED BY RF-SCORE:    0.00 PKD
ROOT
HETATM    1  C   UNL     1      -9.587   6.311  70.166  1.00  0.00    -0.162 C  
HETATM    2  O   UNL     1     -10.519   6.781  69.191  1.00  0.00    -0.193 OA 
ENDROOT
BRANCH   2   3
HETATM    3  C   UNL     1     -10.562   8.139  69.046  1.00  0.00    -0.151 A  
HETATM    4  C   UNL     1     -10.799   9.037  70.080  1.00  0.00    -0.261 A  
HETATM    5  C   UNL     1     -10.846  10.410  69.822  1.00  0.00    -0.342 A  
HETATM    6  C   UNL     1     -10.670  10.921  68.525  1.00  0.00    -0.239 A  
HETATM    7  C   UNL     1     -10.318   8.629  67.762  1.00  0.00    -0.303 A  
HETATM    8  C   UNL     1     -10.384  10.004  67.501  1.00  0.00    -0.282 A  
BRANCH   6   9
HETATM    9  C   UNL     1     -10.807  12.373  68.252  1.00  0.00    -0.237 C  
HETATM   10  C   UNL     1     -10.177  13.004  67.252  1.00  0.00    -0.239 C  
HETATM   11  C   UNL     1     -10.414  14.459  67.120  1.00  0.00    -0.263 C  
HETATM   12  S   UNL     1      -9.763  15.428  65.924  1.00  0.00    -0.360 S  
HETATM   13  S   UNL     1     -11.451  15.084  68.389  1.00  0.00    -0.333 SA 
HETATM   14  S   UNL     1     -11.876  13.296  69.265  1.00  0.00    -0.319 SA 
ENDBRANCH   6   9
ENDBRANCH   2   3
TORSDOF 2
ENDMDL
MODEL      109
REMARK 921   NORMALIZED FREE ENERGY PREDICTED BY IDOCK:   -3.19 KCAL/MOL
REMARK 922        TOTAL FREE ENERGY PREDICTED BY IDOCK:   -3.77 KCAL/MOL
REMARK 923 INTER-LIGAND FREE ENERGY PREDICTED BY IDOCK:   -3.57 KCAL/MOL
REMARK 924 INTRA-LIGAND FREE ENERGY PREDICTED BY IDOCK:   -0.20 KCAL/MOL
REMARK 927      BINDING AFFINITY PREDICTED BY RF-SCORE:    0.00 PKD
ROOT
HETATM    1  C   UNL     1     -11.992  13.369  66.713  1.00  0.00    -0.394 C  
HETATM    2  O   UNL     1     -12.275  11.979  66.556  1.00  0.00    -0.548 OA 
ENDROOT
BRANCH   2   3
HETATM    3  C   UNL     1     -11.562  11.151  67.378  1.00  0.00    -0.071 A  
HETATM    4  C   UNL     1     -10.595  10.250  66.946  1.00  0.00    -0.282 A  
HETATM    5  C   UNL     1      -9.937   9.430  67.867  1.00  0.00    -0.220 A  
HETATM    6  C   UNL     1     -10.236   9.478  69.240  1.00  0.00    -0.212 A  
HETATM    7  C   UNL     1     -11.826  11.263  68.743  1.00  0.00    -0.396 A  
HETATM    8  C   UNL     1     -11.180  10.427  69.664  1.00  0.00    -0.333 A  
BRANCH   6   9
HETATM    9  C   UNL     1      -9.592   8.542  70.194  1.00  0.00    -0.169 C  
HETATM   10  C   UNL     1      -9.675   8.663  71.525  1.00  0.00    -0.333 C  
HETATM   11  C   UNL     1      -8.967   7.650  72.339  1.00  0.00    -0.142 C  
HETATM   12  S   UNL     1      -8.974   7.591  74.009  1.00  0.00    -0.221 S  
HETATM   13  S   UNL     1      -8.077   6.506  71.352  1.00  0.00    -0.113 SA 
HETATM   14  S   UNL     1      -8.710   7.193  69.543  1.00  0.00    -0.134 SA 
ENDBRANCH   6   9
ENDBRANCH   2   3
TORSDOF 2
ENDMDL
MODEL      110
REMARK 921   NORMALIZED FREE ENERGY PREDICTED BY IDOCK:   -3.19 KCAL/MOL
REMARK 922        TOTAL FREE ENERGY PREDICTED BY IDOCK:   -3.76 KCAL/MOL
REMARK 923 INTER-LIGAND FREE ENERGY PREDICTED BY IDOCK:   -3.57 KCAL/MOL
REMARK 924 INTRA-LIGAND FREE ENERGY PREDICTED BY IDOCK:   -0.19 KCAL/MOL
REMARK 927      BINDING AFFINITY PREDICTED BY RF-SCORE:    0.00 PKD
ROOT
HETATM    1  C   UNL     1     -13.130  11.333  71.721  1.00  0.00    -0.422 C  
HETATM    2  O   UNL     1     -13.443   9.998  72.118  1.00  0.00    -0.428 OA 
ENDROOT
BRANCH   2   3
HETATM    3  C   UNL     1     -12.612   9.038  71.610  1.00  0.00    -0.348 A  
HETATM    4  C   UNL     1     -12.924   7.685  71.533  1.00  0.00    -0.378 A  
HETATM    5  C   UNL     1     -11.993   6.779  71.016  1.00  0.00    -0.431 A  
HETATM    6  C   UNL     1     -10.726   7.195  70.575  1.00  0.00    -0.259 A  
HETATM    7  C   UNL     1     -11.386   9.483  71.116  1.00  0.00    -0.440 A  
HETATM    8  C   UNL     1     -10.447   8.571  70.615  1.00  0.00    -0.234 A  
BRANCH   6   9
HETATM    9  C   UNL     1      -9.719   6.212  70.109  1.00  0.00    -0.163 C  
HETATM   10  C   UNL     1      -8.617   5.891  70.799  1.00  0.00    -0.130 C  
HETATM   11  C   UNL     1      -7.706   4.896  70.191  1.00  0.00    -0.062 C  
HETATM   12  S   UNL     1      -6.303   4.327  70.898  1.00  0.00    -0.019 S  
HETATM   13  S   UNL     1      -8.246   4.381  68.604  1.00  0.00    -0.080 SA 
HETATM   14  S   UNL     1     -10.008   5.403  68.597  1.00  0.00    -0.174 SA 
ENDBRANCH   6   9
ENDBRANCH   2   3
TORSDOF 2
ENDMDL
MODEL      111
REMARK 921   NORMALIZED FREE ENERGY PREDICTED BY IDOCK:   -3.18 KCAL/MOL
REMARK 922        TOTAL FREE ENERGY PREDICTED BY IDOCK:   -3.76 KCAL/MOL
REMARK 923 INTER-LIGAND FREE ENERGY PREDICTED BY IDOCK:   -3.56 KCAL/MOL
REMARK 924 INTRA-LIGAND FREE ENERGY PREDICTED BY IDOCK:   -0.20 KCAL/MOL
REMARK 927      BINDING AFFINITY PREDICTED BY RF-SCORE:    0.00 PKD
ROOT
HETATM    1  C   UNL     1      -7.982   5.775  69.577  1.00  0.00    -0.097 C  
HETATM    2  O   UNL     1      -9.118   6.063  68.763  1.00  0.00    -0.124 OA 
ENDROOT
BRANCH   2   3
HETATM    3  C   UNL     1      -9.775   7.219  69.080  1.00  0.00    -0.160 A  
HETATM    4  C   UNL     1      -9.959   8.288  68.210  1.00  0.00    -0.217 A  
HETATM    5  C   UNL     1     -10.627   9.437  68.640  1.00  0.00    -0.230 A  
HETATM    6  C   UNL     1     -11.118   9.556  69.951  1.00  0.00    -0.244 A  
HETATM    7  C   UNL     1     -10.313   7.288  70.365  1.00  0.00    -0.217 A  
HETATM    8  C   UNL     1     -10.967   8.449  70.802  1.00  0.00    -0.276 A  
BRANCH   6   9
HETATM    9  C   UNL     1     -11.750  10.814  70.419  1.00  0.00    -0.351 C  
HETATM   10  C   UNL     1     -11.467  12.021  69.912  1.00  0.00    -0.239 C  
HETATM   11  C   UNL     1     -12.179  13.180  70.496  1.00  0.00    -0.328 C  
HETATM   12  S   UNL     1     -12.007  14.762  69.987  1.00  0.00    -0.337 S  
HETATM   13  S   UNL     1     -13.227  12.719  71.824  1.00  0.00    -0.281 SA 
HETATM   14  S   UNL     1     -12.951  10.707  71.670  1.00  0.00    -0.456 SA 
ENDBRANCH   6   9
ENDBRANCH   2   3
TORSDOF 2
ENDMDL
MODEL      112
REMARK 921   NORMALIZED FREE ENERGY PREDICTED BY IDOCK:   -3.16 KCAL/MOL
REMARK 922        TOTAL FREE ENERGY PREDICTED BY IDOCK:   -3.73 KCAL/MOL
REMARK 923 INTER-LIGAND FREE ENERGY PREDICTED BY IDOCK:   -3.56 KCAL/MOL
REMARK 924 INTRA-LIGAND FREE ENERGY PREDICTED BY IDOCK:   -0.18 KCAL/MOL
REMARK 927      BINDING AFFINITY PREDICTED BY RF-SCORE:    0.00 PKD
ROOT
HETATM    1  C   UNL     1      -6.950   4.067  71.092  1.00  0.00    -0.032 C  
HETATM    2  O   UNL     1      -8.371   4.006  71.214  1.00  0.00    -0.077 OA 
ENDROOT
BRANCH   2   3
HETATM    3  C   UNL     1      -9.004   5.217  71.176  1.00  0.00    -0.139 A  
HETATM    4  C   UNL     1      -8.542   6.370  71.803  1.00  0.00    -0.128 A  
HETATM    5  C   UNL     1      -9.277   7.556  71.722  1.00  0.00    -0.162 A  
HETATM    6  C   UNL     1     -10.495   7.621  71.026  1.00  0.00    -0.218 A  
HETATM    7  C   UNL     1     -10.177   5.276  70.424  1.00  0.00    -0.338 A  
HETATM    8  C   UNL     1     -10.922   6.461  70.359  1.00  0.00    -0.367 A  
BRANCH   6   9
HETATM    9  C   UNL     1     -11.306   8.863  71.020  1.00  0.00    -0.291 C  
HETATM   10  C   UNL     1     -11.064   9.905  70.214  1.00  0.00    -0.368 C  
HETATM   11  C   UNL     1     -11.962  11.075  70.338  1.00  0.00    -0.368 C  
HETATM   12  S   UNL     1     -11.864  12.458  69.405  1.00  0.00    -0.278 S  
HETATM   13  S   UNL     1     -13.152  10.870  71.610  1.00  0.00    -0.377 SA 
HETATM   14  S   UNL     1     -12.668   8.953  72.096  1.00  0.00    -0.412 SA 
ENDBRANCH   6   9
ENDBRANCH   2   3
TORSDOF 2
ENDMDL
MODEL      113
REMARK 921   NORMALIZED FREE ENERGY PREDICTED BY IDOCK:   -3.12 KCAL/MOL
REMARK 922        TOTAL FREE ENERGY PREDICTED BY IDOCK:   -3.69 KCAL/MOL
REMARK 923 INTER-LIGAND FREE ENERGY PREDICTED BY IDOCK:   -3.48 KCAL/MOL
REMARK 924 INTRA-LIGAND FREE ENERGY PREDICTED BY IDOCK:   -0.20 KCAL/MOL
REMARK 927      BINDING AFFINITY PREDICTED BY RF-SCORE:    0.00 PKD
ROOT
HETATM    1  C   UNL     1      -9.681  10.369  65.510  1.00  0.00    -0.249 C  
HETATM    2  O   UNL     1     -10.598  10.501  66.596  1.00  0.00    -0.241 OA 
ENDROOT
BRANCH   2   3
HETATM    3  C   UNL     1     -10.562   9.482  67.506  1.00  0.00    -0.275 A  
HETATM    4  C   UNL     1     -10.592   9.654  68.886  1.00  0.00    -0.239 A  
HETATM    5  C   UNL     1     -10.527   8.545  69.734  1.00  0.00    -0.220 A  
HETATM    6  C   UNL     1     -10.417   7.238  69.229  1.00  0.00    -0.221 A  
HETATM    7  C   UNL     1     -10.521   8.189  66.983  1.00  0.00    -0.396 A  
HETATM    8  C   UNL     1     -10.437   7.079  67.834  1.00  0.00    -0.267 A  
BRANCH   6   9
HETATM    9  C   UNL     1     -10.263   6.078  70.141  1.00  0.00    -0.208 C  
HETATM   10  C   UNL     1     -10.652   6.082  71.422  1.00  0.00    -0.300 C  
HETATM   11  C   UNL     1     -10.420   4.846  72.201  1.00  0.00    -0.192 C  
HETATM   12  S   UNL     1     -10.864   4.624  73.797  1.00  0.00    -0.299 S  
HETATM   13  S   UNL     1      -9.589   3.616  71.267  1.00  0.00    -0.174 SA 
HETATM   14  S   UNL     1      -9.572   4.620  69.495  1.00  0.00    -0.204 SA 
ENDBRANCH   6   9
ENDBRANCH   2   3
TORSDOF 2
ENDMDL
MODEL      114
REMARK 921   NORMALIZED FREE ENERGY PREDICTED BY IDOCK:   -3.12 KCAL/MOL
REMARK 922        TOTAL FREE ENERGY PREDICTED BY IDOCK:   -3.68 KCAL/MOL
REMARK 923 INTER-LIGAND FREE ENERGY PREDICTED BY IDOCK:   -3.49 KCAL/MOL
REMARK 924 INTRA-LIGAND FREE ENERGY PREDICTED BY IDOCK:   -0.19 KCAL/MOL
REMARK 927      BINDING AFFINITY PREDICTED BY RF-SCORE:    0.00 PKD
ROOT
HETATM    1  C   UNL     1      -9.901   2.868  64.523  1.00  0.00    -0.071 C  
HETATM    2  O   UNL     1      -9.035   3.811  65.154  1.00  0.00    -0.122 OA 
ENDROOT
BRANCH   2   3
HETATM    3  C   UNL     1      -9.530   4.370  66.299  1.00  0.00    -0.174 A  
HETATM    4  C   UNL     1     -10.377   5.472  66.337  1.00  0.00    -0.272 A  
HETATM    5  C   UNL     1     -10.811   5.982  67.564  1.00  0.00    -0.393 A  
HETATM    6  C   UNL     1     -10.402   5.416  68.783  1.00  0.00    -0.240 A  
HETATM    7  C   UNL     1      -9.166   3.750  67.494  1.00  0.00    -0.216 A  
HETATM    8  C   UNL     1      -9.586   4.274  68.724  1.00  0.00    -0.219 A  
BRANCH   6   9
HETATM    9  C   UNL     1     -10.801   6.020  70.077  1.00  0.00    -0.359 C  
HETATM   10  C   UNL     1     -11.902   6.765  70.243  1.00  0.00    -0.359 C  
HETATM   11  C   UNL     1     -12.154   7.302  71.598  1.00  0.00    -0.325 C  
HETATM   12  S   UNL     1     -13.484   8.217  72.031  1.00  0.00    -0.284 S  
HETATM   13  S   UNL     1     -10.875   6.894  72.726  1.00  0.00    -0.288 SA 
HETATM   14  S   UNL     1      -9.801   5.709  71.465  1.00  0.00    -0.172 SA 
ENDBRANCH   6   9
ENDBRANCH   2   3
TORSDOF 2
ENDMDL
MODEL      115
REMARK 921   NORMALIZED FREE ENERGY PREDICTED BY IDOCK:   -3.12 KCAL/MOL
REMARK 922        TOTAL FREE ENERGY PREDICTED BY IDOCK:   -3.68 KCAL/MOL
REMARK 923 INTER-LIGAND FREE ENERGY PREDICTED BY IDOCK:   -3.48 KCAL/MOL
REMARK 924 INTRA-LIGAND FREE ENERGY PREDICTED BY IDOCK:   -0.21 KCAL/MOL
REMARK 927      BINDING AFFINITY PREDICTED BY RF-SCORE:    0.00 PKD
ROOT
HETATM    1  C   UNL     1      -7.907   1.810  68.503  1.00  0.00    -0.049 C  
HETATM    2  O   UNL     1      -8.697   2.585  67.601  1.00  0.00    -0.094 OA 
ENDROOT
BRANCH   2   3
HETATM    3  C   UNL     1      -9.340   3.649  68.170  1.00  0.00    -0.180 A  
HETATM    4  C   UNL     1      -9.886   4.713  67.460  1.00  0.00    -0.200 A  
HETATM    5  C   UNL     1     -10.506   5.766  68.139  1.00  0.00    -0.277 A  
HETATM    6  C   UNL     1     -10.586   5.792  69.542  1.00  0.00    -0.390 A  
HETATM    7  C   UNL     1      -9.468   3.621  69.559  1.00  0.00    -0.246 A  
HETATM    8  C   UNL     1     -10.073   4.686  70.240  1.00  0.00    -0.276 A  
BRANCH   6   9
HETATM    9  C   UNL     1     -11.170   6.956  70.252  1.00  0.00    -0.316 C  
HETATM   10  C   UNL     1     -11.027   8.224  69.845  1.00  0.00    -0.166 C  
HETATM   11  C   UNL     1     -11.666   9.272  70.671  1.00  0.00    -0.222 C  
HETATM   12  S   UNL     1     -11.647  10.907  70.323  1.00  0.00    -0.326 S  
HETATM   13  S   UNL     1     -12.442   8.615  72.100  1.00  0.00    -0.399 SA 
HETATM   14  S   UNL     1     -12.123   6.649  71.673  1.00  0.00    -0.336 SA 
ENDBRANCH   6   9
ENDBRANCH   2   3
TORSDOF 2
ENDMDL
MODEL      116
REMARK 921   NORMALIZED FREE ENERGY PREDICTED BY IDOCK:   -3.10 KCAL/MOL
REMARK 922        TOTAL FREE ENERGY PREDICTED BY IDOCK:   -3.66 KCAL/MOL
REMARK 923 INTER-LIGAND FREE ENERGY PREDICTED BY IDOCK:   -3.47 KCAL/MOL
REMARK 924 INTRA-LIGAND FREE ENERGY PREDICTED BY IDOCK:   -0.19 KCAL/MOL
REMARK 927      BINDING AFFINITY PREDICTED BY RF-SCORE:    0.00 PKD
ROOT
HETATM    1  C   UNL     1      -6.561  10.208  62.364  1.00  0.00    -0.123 C  
HETATM    2  O   UNL     1      -7.852   9.607  62.451  1.00  0.00    -0.113 OA 
ENDROOT
BRANCH   2   3
HETATM    3  C   UNL     1      -8.581   9.966  63.550  1.00  0.00    -0.199 A  
HETATM    4  C   UNL     1      -9.727  10.754  63.515  1.00  0.00    -0.387 A  
HETATM    5  C   UNL     1     -10.388  11.084  64.702  1.00  0.00    -0.410 A  
HETATM    6  C   UNL     1      -9.918  10.650  65.952  1.00  0.00    -0.312 A  
HETATM    7  C   UNL     1      -8.135   9.469  64.775  1.00  0.00    -0.130 A  
HETATM    8  C   UNL     1      -8.788   9.816  65.965  1.00  0.00    -0.170 A  
BRANCH   6   9
HETATM    9  C   UNL     1     -10.580  11.080  67.208  1.00  0.00    -0.245 C  
HETATM   10  C   UNL     1     -10.898  12.351  67.484  1.00  0.00    -0.271 C  
HETATM   11  C   UNL     1     -11.550  12.615  68.787  1.00  0.00    -0.313 C  
HETATM   12  S   UNL     1     -12.063  14.116  69.312  1.00  0.00    -0.281 S  
HETATM   13  S   UNL     1     -11.709  11.163  69.758  1.00  0.00    -0.376 SA 
HETATM   14  S   UNL     1     -11.001   9.855  68.367  1.00  0.00    -0.141 SA 
ENDBRANCH   6   9
ENDBRANCH   2   3
TORSDOF 2
ENDMDL
MODEL      117
REMARK 921   NORMALIZED FREE ENERGY PREDICTED BY IDOCK:   -3.09 KCAL/MOL
REMARK 922        TOTAL FREE ENERGY PREDICTED BY IDOCK:   -3.66 KCAL/MOL
REMARK 923 INTER-LIGAND FREE ENERGY PREDICTED BY IDOCK:   -3.46 KCAL/MOL
REMARK 924 INTRA-LIGAND FREE ENERGY PREDICTED BY IDOCK:   -0.20 KCAL/MOL
REMARK 927      BINDING AFFINITY PREDICTED BY RF-SCORE:    0.00 PKD
ROOT
HETATM    1  C   UNL     1     -11.148   2.093  73.571  1.00  0.00    -0.197 C  
HETATM    2  O   UNL     1     -10.968   3.453  73.967  1.00  0.00    -0.205 OA 
ENDROOT
BRANCH   2   3
HETATM    3  C   UNL     1     -10.864   4.344  72.936  1.00  0.00    -0.176 A  
HETATM    4  C   UNL     1     -11.535   5.560  72.872  1.00  0.00    -0.327 A  
HETATM    5  C   UNL     1     -11.378   6.391  71.760  1.00  0.00    -0.337 A  
HETATM    6  C   UNL     1     -10.559   6.027  70.678  1.00  0.00    -0.322 A  
HETATM    7  C   UNL     1      -9.994   3.992  71.904  1.00  0.00    -0.246 A  
HETATM    8  C   UNL     1      -9.851   4.818  70.781  1.00  0.00    -0.280 A  
BRANCH   6   9
HETATM    9  C   UNL     1     -10.469   6.879  69.468  1.00  0.00    -0.223 C  
HETATM   10  C   UNL     1     -10.579   8.214  69.488  1.00  0.00    -0.215 C  
HETATM   11  C   UNL     1     -10.474   8.918  68.191  1.00  0.00    -0.202 C  
HETATM   12  S   UNL     1     -10.542  10.577  67.996  1.00  0.00    -0.234 S  
HETATM   13  S   UNL     1     -10.293   7.810  66.844  1.00  0.00    -0.292 SA 
HETATM   14  S   UNL     1     -10.165   6.101  67.943  1.00  0.00    -0.199 SA 
ENDBRANCH   6   9
ENDBRANCH   2   3
TORSDOF 2
ENDMDL
MODEL      118
REMARK 921   NORMALIZED FREE ENERGY PREDICTED BY IDOCK:   -3.08 KCAL/MOL
REMARK 922        TOTAL FREE ENERGY PREDICTED BY IDOCK:   -3.64 KCAL/MOL
REMARK 923 INTER-LIGAND FREE ENERGY PREDICTED BY IDOCK:   -3.43 KCAL/MOL
REMARK 924 INTRA-LIGAND FREE ENERGY PREDICTED BY IDOCK:   -0.20 KCAL/MOL
REMARK 927      BINDING AFFINITY PREDICTED BY RF-SCORE:    0.00 PKD
ROOT
HETATM    1  C   UNL     1     -12.874  14.415  65.758  1.00  0.00    -0.155 C  
HETATM    2  O   UNL     1     -12.615  13.783  64.505  1.00  0.00    -0.620 OA 
ENDROOT
BRANCH   2   3
HETATM    3  C   UNL     1     -11.604  12.864  64.523  1.00  0.00    -0.350 A  
HETATM    4  C   UNL     1     -11.404  11.890  63.550  1.00  0.00    -0.516 A  
HETATM    5  C   UNL     1     -10.351  10.980  63.673  1.00  0.00    -0.415 A  
HETATM    6  C   UNL     1      -9.478  11.008  64.774  1.00  0.00    -0.267 A  
HETATM    7  C   UNL     1     -10.709  12.952  65.590  1.00  0.00    -0.295 A  
HETATM    8  C   UNL     1      -9.665  12.027  65.722  1.00  0.00    -0.254 A  
BRANCH   6   9
HETATM    9  C   UNL     1      -8.418   9.983  64.934  1.00  0.00    -0.166 C  
HETATM   10  C   UNL     1      -7.774   9.412  63.907  1.00  0.00    -0.121 C  
HETATM   11  C   UNL     1      -6.746   8.400  64.236  1.00  0.00    -0.067 C  
HETATM   12  S   UNL     1      -5.801   7.598  63.115  1.00  0.00    -0.051 S  
HETATM   13  S   UNL     1      -6.636   8.098  65.960  1.00  0.00    -0.046 SA 
HETATM   14  S   UNL     1      -7.962   9.527  66.548  1.00  0.00    -0.112 SA 
ENDBRANCH   6   9
ENDBRANCH   2   3
TORSDOF 2
ENDMDL
MODEL      119
REMARK 921   NORMALIZED FREE ENERGY PREDICTED BY IDOCK:   -3.07 KCAL/MOL
REMARK 922        TOTAL FREE ENERGY PREDICTED BY IDOCK:   -3.63 KCAL/MOL
REMARK 923 INTER-LIGAND FREE ENERGY PREDICTED BY IDOCK:   -3.44 KCAL/MOL
REMARK 924 INTRA-LIGAND FREE ENERGY PREDICTED BY IDOCK:   -0.19 KCAL/MOL
REMARK 927      BINDING AFFINITY PREDICTED BY RF-SCORE:    0.00 PKD
ROOT
HETATM    1  C   UNL     1      -9.273   3.805  67.611  1.00  0.00    -0.174 C  
HETATM    2  O   UNL     1      -9.999   4.478  68.639  1.00  0.00    -0.132 OA 
ENDROOT
BRANCH   2   3
HETATM    3  C   UNL     1     -10.100   5.832  68.478  1.00  0.00    -0.178 A  
HETATM    4  C   UNL     1      -9.625   6.773  69.386  1.00  0.00    -0.146 A  
HETATM    5  C   UNL     1      -9.799   8.137  69.139  1.00  0.00    -0.182 A  
HETATM    6  C   UNL     1     -10.461   8.599  67.988  1.00  0.00    -0.254 A  
HETATM    7  C   UNL     1     -10.700   6.269  67.297  1.00  0.00    -0.424 A  
HETATM    8  C   UNL     1     -10.891   7.637  67.059  1.00  0.00    -0.219 A  
BRANCH   6   9
HETATM    9  C   UNL     1     -10.713  10.046  67.781  1.00  0.00    -0.280 C  
HETATM   10  C   UNL     1     -11.155  10.869  68.741  1.00  0.00    -0.310 C  
HETATM   11  C   UNL     1     -11.364  12.286  68.370  1.00  0.00    -0.292 C  
HETATM   12  S   UNL     1     -11.870  13.484  69.419  1.00  0.00    -0.337 S  
HETATM   13  S   UNL     1     -11.045  12.584  66.671  1.00  0.00    -0.299 SA 
HETATM   14  S   UNL     1     -10.378  10.715  66.212  1.00  0.00    -0.209 SA 
ENDBRANCH   6   9
ENDBRANCH   2   3
TORSDOF 2
ENDMDL
MODEL      120
REMARK 921   NORMALIZED FREE ENERGY PREDICTED BY IDOCK:   -3.07 KCAL/MOL
REMARK 922        TOTAL FREE ENERGY PREDICTED BY IDOCK:   -3.63 KCAL/MOL
REMARK 923 INTER-LIGAND FREE ENERGY PREDICTED BY IDOCK:   -3.42 KCAL/MOL
REMARK 924 INTRA-LIGAND FREE ENERGY PREDICTED BY IDOCK:   -0.21 KCAL/MOL
REMARK 927      BINDING AFFINITY PREDICTED BY RF-SCORE:    0.00 PKD
ROOT
HETATM    1  C   UNL     1      -8.752   1.581  73.114  1.00  0.00    -0.061 C  
HETATM    2  O   UNL     1     -10.087   2.058  73.283  1.00  0.00    -0.095 OA 
ENDROOT
BRANCH   2   3
HETATM    3  C   UNL     1     -10.303   3.330  72.831  1.00  0.00    -0.163 A  
HETATM    4  C   UNL     1     -11.070   4.284  73.493  1.00  0.00    -0.377 A  
HETATM    5  C   UNL     1     -11.249   5.552  72.934  1.00  0.00    -0.358 A  
HETATM    6  C   UNL     1     -10.680   5.898  71.697  1.00  0.00    -0.308 A  
HETATM    7  C   UNL     1      -9.674   3.674  71.635  1.00  0.00    -0.236 A  
HETATM    8  C   UNL     1      -9.870   4.940  71.066  1.00  0.00    -0.266 A  
BRANCH   6   9
HETATM    9  C   UNL     1     -10.949   7.218  71.075  1.00  0.00    -0.251 C  
HETATM   10  C   UNL     1     -10.564   7.549  69.836  1.00  0.00    -0.243 C  
HETATM   11  C   UNL     1     -10.903   8.911  69.367  1.00  0.00    -0.119 C  
HETATM   12  S   UNL     1     -10.555   9.512  67.847  1.00  0.00    -0.226 S  
HETATM   13  S   UNL     1     -11.703   9.862  70.604  1.00  0.00    -0.336 SA 
HETATM   14  S   UNL     1     -11.847   8.386  71.999  1.00  0.00    -0.380 SA 
ENDBRANCH   6   9
ENDBRANCH   2   3
TORSDOF 2
ENDMDL
MODEL      121
REMARK 921   NORMALIZED FREE ENERGY PREDICTED BY IDOCK:   -3.06 KCAL/MOL
REMARK 922        TOTAL FREE ENERGY PREDICTED BY IDOCK:   -3.62 KCAL/MOL
REMARK 923 INTER-LIGAND FREE ENERGY PREDICTED BY IDOCK:   -3.42 KCAL/MOL
REMARK 924 INTRA-LIGAND FREE ENERGY PREDICTED BY IDOCK:   -0.20 KCAL/MOL
REMARK 927      BINDING AFFINITY PREDICTED BY RF-SCORE:    0.00 PKD
ROOT
HETATM    1  C   UNL     1      -5.416  13.305  71.057  1.00  0.00    -0.196 C  
HETATM    2  O   UNL     1      -5.750  14.542  70.429  1.00  0.00    -0.121 OA 
ENDROOT
BRANCH   2   3
HETATM    3  C   UNL     1      -6.781  14.473  69.534  1.00  0.00    -0.151 A  
HETATM    4  C   UNL     1      -7.681  15.503  69.284  1.00  0.00    -0.223 A  
HETATM    5  C   UNL     1      -8.716  15.323  68.362  1.00  0.00    -0.170 A  
HETATM    6  C   UNL     1      -8.888  14.109  67.676  1.00  0.00    -0.194 A  
HETATM    7  C   UNL     1      -6.892  13.283  68.815  1.00  0.00    -0.102 A  
HETATM    8  C   UNL     1      -7.942  13.096  67.905  1.00  0.00    -0.158 A  
BRANCH   6   9
HETATM    9  C   UNL     1     -10.040  13.903  66.765  1.00  0.00    -0.265 C  
HETATM   10  C   UNL     1      -9.989  13.150  65.658  1.00  0.00    -0.237 C  
HETATM   11  C   UNL     1     -11.226  13.054  64.852  1.00  0.00    -0.302 C  
HETATM   12  S   UNL     1     -11.391  12.140  63.463  1.00  0.00    -0.443 S  
HETATM   13  S   UNL     1     -12.523  14.039  65.500  1.00  0.00    -0.497 SA 
HETATM   14  S   UNL     1     -11.552  14.654  67.181  1.00  0.00    -0.360 SA 
ENDBRANCH   6   9
ENDBRANCH   2   3
TORSDOF 2
ENDMDL
MODEL      122
REMARK 921   NORMALIZED FREE ENERGY PREDICTED BY IDOCK:   -3.06 KCAL/MOL
REMARK 922        TOTAL FREE ENERGY PREDICTED BY IDOCK:   -3.62 KCAL/MOL
REMARK 923 INTER-LIGAND FREE ENERGY PREDICTED BY IDOCK:   -3.41 KCAL/MOL
REMARK 924 INTRA-LIGAND FREE ENERGY PREDICTED BY IDOCK:   -0.21 KCAL/MOL
REMARK 927      BINDING AFFINITY PREDICTED BY RF-SCORE:    0.00 PKD
ROOT
HETATM    1  C   UNL     1      -9.446   3.735  67.923  1.00  0.00    -0.170 C  
HETATM    2  O   UNL     1      -9.602   4.676  68.986  1.00  0.00    -0.146 OA 
ENDROOT
BRANCH   2   3
HETATM    3  C   UNL     1      -9.794   5.969  68.585  1.00  0.00    -0.138 A  
HETATM    4  C   UNL     1     -10.180   7.007  69.426  1.00  0.00    -0.197 A  
HETATM    5  C   UNL     1     -10.373   8.293  68.912  1.00  0.00    -0.230 A  
HETATM    6  C   UNL     1     -10.198   8.573  67.546  1.00  0.00    -0.307 A  
HETATM    7  C   UNL     1      -9.549   6.239  67.239  1.00  0.00    -0.138 A  
HETATM    8  C   UNL     1      -9.761   7.524  66.721  1.00  0.00    -0.283 A  
BRANCH   6   9
HETATM    9  C   UNL     1     -10.488   9.921  67.000  1.00  0.00    -0.230 C  
HETATM   10  C   UNL     1     -10.187  10.299  65.751  1.00  0.00    -0.289 C  
HETATM   11  C   UNL     1     -10.536  11.684  65.364  1.00  0.00    -0.275 C  
HETATM   12  S   UNL     1     -10.286  12.344  63.849  1.00  0.00    -0.395 S  
HETATM   13  S   UNL     1     -11.229  12.593  66.693  1.00  0.00    -0.318 SA 
HETATM   14  S   UNL     1     -11.299  11.061  68.033  1.00  0.00    -0.294 SA 
ENDBRANCH   6   9
ENDBRANCH   2   3
TORSDOF 2
ENDMDL
MODEL      123
REMARK 921   NORMALIZED FREE ENERGY PREDICTED BY IDOCK:   -3.05 KCAL/MOL
REMARK 922        TOTAL FREE ENERGY PREDICTED BY IDOCK:   -3.61 KCAL/MOL
REMARK 923 INTER-LIGAND FREE ENERGY PREDICTED BY IDOCK:   -3.43 KCAL/MOL
REMARK 924 INTRA-LIGAND FREE ENERGY PREDICTED BY IDOCK:   -0.18 KCAL/MOL
REMARK 927      BINDING AFFINITY PREDICTED BY RF-SCORE:    0.00 PKD
ROOT
HETATM    1  C   UNL     1      -6.998   9.894  65.323  1.00  0.00    -0.122 C  
HETATM    2  O   UNL     1      -8.170  10.674  65.083  1.00  0.00    -0.159 OA 
ENDROOT
BRANCH   2   3
HETATM    3  C   UNL     1      -8.960  10.877  66.179  1.00  0.00    -0.183 A  
HETATM    4  C   UNL     1      -8.573  11.585  67.312  1.00  0.00    -0.150 A  
HETATM    5  C   UNL     1      -9.450  11.717  68.392  1.00  0.00    -0.193 A  
HETATM    6  C   UNL     1     -10.730  11.137  68.376  1.00  0.00    -0.234 A  
HETATM    7  C   UNL     1     -10.250  10.350  66.114  1.00  0.00    -0.288 A  
HETATM    8  C   UNL     1     -11.123  10.467  67.205  1.00  0.00    -0.284 A  
BRANCH   6   9
HETATM    9  C   UNL     1     -11.617  11.213  69.562  1.00  0.00    -0.321 C  
HETATM   10  C   UNL     1     -12.082  10.138  70.214  1.00  0.00    -0.282 C  
HETATM   11  C   UNL     1     -12.965  10.385  71.375  1.00  0.00    -0.443 C  
HETATM   12  S   UNL     1     -13.618   9.194  72.349  1.00  0.00    -0.438 S  
HETATM   13  S   UNL     1     -13.286  12.092  71.618  1.00  0.00    -0.112 SA 
HETATM   14  S   UNL     1     -12.046  12.788  70.159  1.00  0.00    -0.222 SA 
ENDBRANCH   6   9
ENDBRANCH   2   3
TORSDOF 2
ENDMDL
MODEL      124
REMARK 921   NORMALIZED FREE ENERGY PREDICTED BY IDOCK:   -3.04 KCAL/MOL
REMARK 922        TOTAL FREE ENERGY PREDICTED BY IDOCK:   -3.60 KCAL/MOL
REMARK 923 INTER-LIGAND FREE ENERGY PREDICTED BY IDOCK:   -3.40 KCAL/MOL
REMARK 924 INTRA-LIGAND FREE ENERGY PREDICTED BY IDOCK:   -0.19 KCAL/MOL
REMARK 927      BINDING AFFINITY PREDICTED BY RF-SCORE:    0.00 PKD
ROOT
HETATM    1  C   UNL     1     -10.341   8.703  67.985  1.00  0.00    -0.223 C  
HETATM    2  O   UNL     1     -11.021   9.605  67.112  1.00  0.00    -0.190 OA 
ENDROOT
BRANCH   2   3
HETATM    3  C   UNL     1     -10.672  10.919  67.257  1.00  0.00    -0.268 A  
HETATM    4  C   UNL     1     -11.344  11.984  66.667  1.00  0.00    -0.399 A  
HETATM    5  C   UNL     1     -10.892  13.292  66.861  1.00  0.00    -0.286 A  
HETATM    6  C   UNL     1      -9.754  13.571  67.635  1.00  0.00    -0.229 A  
HETATM    7  C   UNL     1      -9.580  11.178  68.085  1.00  0.00    -0.181 A  
HETATM    8  C   UNL     1      -9.116  12.489  68.262  1.00  0.00    -0.183 A  
BRANCH   6   9
HETATM    9  C   UNL     1      -9.237  14.956  67.761  1.00  0.00    -0.186 C  
HETATM   10  C   UNL     1      -8.388  15.516  66.889  1.00  0.00    -0.290 C  
HETATM   11  C   UNL     1      -7.960  16.905  67.162  1.00  0.00    -0.182 C  
HETATM   12  S   UNL     1      -6.943  17.802  66.186  1.00  0.00    -0.304 S  
HETATM   13  S   UNL     1      -8.623  17.523  68.664  1.00  0.00    -0.222 SA 
HETATM   14  S   UNL     1      -9.796  15.916  69.098  1.00  0.00    -0.262 SA 
ENDBRANCH   6   9
ENDBRANCH   2   3
TORSDOF 2
ENDMDL
MODEL      125
REMARK 921   NORMALIZED FREE ENERGY PREDICTED BY IDOCK:   -3.02 KCAL/MOL
REMARK 922        TOTAL FREE ENERGY PREDICTED BY IDOCK:   -3.57 KCAL/MOL
REMARK 923 INTER-LIGAND FREE ENERGY PREDICTED BY IDOCK:   -3.38 KCAL/MOL
REMARK 924 INTRA-LIGAND FREE ENERGY PREDICTED BY IDOCK:   -0.20 KCAL/MOL
REMARK 927      BINDING AFFINITY PREDICTED BY RF-SCORE:    0.00 PKD
ROOT
HETATM    1  C   UNL     1      -7.314  11.122  68.783  1.00  0.00    -0.114 C  
HETATM    2  O   UNL     1      -8.059  11.462  67.614  1.00  0.00    -0.117 OA 
ENDROOT
BRANCH   2   3
HETATM    3  C   UNL     1      -8.106  12.798  67.331  1.00  0.00    -0.185 A  
HETATM    4  C   UNL     1      -7.061  13.689  67.548  1.00  0.00    -0.166 A  
HETATM    5  C   UNL     1      -7.220  15.045  67.244  1.00  0.00    -0.175 A  
HETATM    6  C   UNL     1      -8.426  15.548  66.729  1.00  0.00    -0.314 A  
HETATM    7  C   UNL     1      -9.290  13.264  66.757  1.00  0.00    -0.254 A  
HETATM    8  C   UNL     1      -9.454  14.626  66.471  1.00  0.00    -0.319 A  
BRANCH   6   9
HETATM    9  C   UNL     1      -8.608  17.001  66.493  1.00  0.00    -0.270 C  
HETATM   10  C   UNL     1      -7.594  17.857  66.312  1.00  0.00    -0.315 C  
HETATM   11  C   UNL     1      -7.945  19.279  66.095  1.00  0.00    -0.294 C  
HETATM   12  S   UNL     1      -6.842  20.502  65.809  1.00  0.00    -0.160 S  
HETATM   13  S   UNL     1      -9.672  19.562  66.196  1.00  0.00    -0.349 SA 
HETATM   14  S   UNL     1     -10.232  17.616  66.409  1.00  0.00    -0.348 SA 
ENDBRANCH   6   9
ENDBRANCH   2   3
TORSDOF 2
ENDMDL
MODEL      126
REMARK 921   NORMALIZED FREE ENERGY PREDICTED BY IDOCK:   -3.01 KCAL/MOL
REMARK 922        TOTAL FREE ENERGY PREDICTED BY IDOCK:   -3.57 KCAL/MOL
REMARK 923 INTER-LIGAND FREE ENERGY PREDICTED BY IDOCK:   -3.36 KCAL/MOL
REMARK 924 INTRA-LIGAND FREE ENERGY PREDICTED BY IDOCK:   -0.21 KCAL/MOL
REMARK 927      BINDING AFFINITY PREDICTED BY RF-SCORE:    0.00 PKD
ROOT
HETATM    1  C   UNL     1     -13.056  12.457  71.684  1.00  0.00    -0.307 C  
HETATM    2  O   UNL     1     -12.984  11.064  71.986  1.00  0.00    -0.452 OA 
ENDROOT
BRANCH   2   3
HETATM    3  C   UNL     1     -12.271  10.318  71.089  1.00  0.00    -0.397 A  
HETATM    4  C   UNL     1     -11.994   8.962  71.233  1.00  0.00    -0.365 A  
HETATM    5  C   UNL     1     -11.235   8.295  70.268  1.00  0.00    -0.176 A  
HETATM    6  C   UNL     1     -10.722   8.962  69.143  1.00  0.00    -0.162 A  
HETATM    7  C   UNL     1     -11.828  10.985  69.947  1.00  0.00    -0.431 A  
HETATM    8  C   UNL     1     -11.051  10.319  68.990  1.00  0.00    -0.277 A  
BRANCH   6   9
HETATM    9  C   UNL     1      -9.847   8.261  68.172  1.00  0.00    -0.172 C  
HETATM   10  C   UNL     1      -9.121   8.887  67.237  1.00  0.00    -0.153 C  
HETATM   11  C   UNL     1      -8.305   8.041  66.339  1.00  0.00    -0.124 C  
HETATM   12  S   UNL     1      -7.299   8.617  65.135  1.00  0.00    -0.090 S  
HETATM   13  S   UNL     1      -8.525   6.330  66.654  1.00  0.00    -0.117 SA 
HETATM   14  S   UNL     1      -9.731   6.530  68.282  1.00  0.00    -0.133 SA 
ENDBRANCH   6   9
ENDBRANCH   2   3
TORSDOF 2
ENDMDL
MODEL      127
REMARK 921   NORMALIZED FREE ENERGY PREDICTED BY IDOCK:   -3.00 KCAL/MOL
REMARK 922        TOTAL FREE ENERGY PREDICTED BY IDOCK:   -3.55 KCAL/MOL
REMARK 923 INTER-LIGAND FREE ENERGY PREDICTED BY IDOCK:   -3.36 KCAL/MOL
REMARK 924 INTRA-LIGAND FREE ENERGY PREDICTED BY IDOCK:   -0.19 KCAL/MOL
REMARK 927      BINDING AFFINITY PREDICTED BY RF-SCORE:    0.00 PKD
ROOT
HETATM    1  C   UNL     1     -11.157  15.039  66.850  1.00  0.00    -0.331 C  
HETATM    2  O   UNL     1     -12.004  13.902  66.680  1.00  0.00    -0.396 OA 
ENDROOT
BRANCH   2   3
HETATM    3  C   UNL     1     -11.348  12.725  66.453  1.00  0.00    -0.323 A  
HETATM    4  C   UNL     1     -11.223  11.698  67.383  1.00  0.00    -0.358 A  
HETATM    5  C   UNL     1     -10.510  10.540  67.059  1.00  0.00    -0.304 A  
HETATM    6  C   UNL     1      -9.894  10.382  65.807  1.00  0.00    -0.300 A  
HETATM    7  C   UNL     1     -10.801  12.561  65.181  1.00  0.00    -0.323 A  
HETATM    8  C   UNL     1     -10.071  11.407  64.864  1.00  0.00    -0.323 A  
BRANCH   6   9
HETATM    9  C   UNL     1      -9.069   9.185  65.508  1.00  0.00    -0.219 C  
HETATM   10  C   UNL     1      -9.406   7.941  65.871  1.00  0.00    -0.059 C  
HETATM   11  C   UNL     1      -8.469   6.855  65.503  1.00  0.00    -0.116 C  
HETATM   12  S   UNL     1      -8.714   5.233  65.821  1.00  0.00    -0.146 S  
HETATM   13  S   UNL     1      -7.030   7.460  64.703  1.00  0.00    -0.053 SA 
HETATM   14  S   UNL     1      -7.603   9.411  64.602  1.00  0.00    -0.114 SA 
ENDBRANCH   6   9
ENDBRANCH   2   3
TORSDOF 2
ENDMDL
MODEL      128
REMARK 921   NORMALIZED FREE ENERGY PREDICTED BY IDOCK:   -3.00 KCAL/MOL
REMARK 922        TOTAL FREE ENERGY PREDICTED BY IDOCK:   -3.55 KCAL/MOL
REMARK 923 INTER-LIGAND FREE ENERGY PREDICTED BY IDOCK:   -3.34 KCAL/MOL
REMARK 924 INTRA-LIGAND FREE ENERGY PREDICTED BY IDOCK:   -0.21 KCAL/MOL
REMARK 927      BINDING AFFINITY PREDICTED BY RF-SCORE:    0.00 PKD
ROOT
HETATM    1  C   UNL     1      -8.498   6.447  65.967  1.00  0.00    -0.144 C  
HETATM    2  O   UNL     1      -8.995   6.717  67.277  1.00  0.00    -0.116 OA 
ENDROOT
BRANCH   2   3
HETATM    3  C   UNL     1      -9.345   8.019  67.502  1.00  0.00    -0.147 A  
HETATM    4  C   UNL     1      -9.299   8.647  68.742  1.00  0.00    -0.142 A  
HETATM    5  C   UNL     1      -9.701   9.980  68.870  1.00  0.00    -0.181 A  
HETATM    6  C   UNL     1     -10.170  10.716  67.770  1.00  0.00    -0.212 A  
HETATM    7  C   UNL     1      -9.743   8.752  66.384  1.00  0.00    -0.335 A  
HETATM    8  C   UNL     1     -10.164  10.082  66.517  1.00  0.00    -0.291 A  
BRANCH   6   9
HETATM    9  C   UNL     1     -10.673  12.102  67.937  1.00  0.00    -0.207 C  
HETATM   10  C   UNL     1     -11.060  12.616  69.111  1.00  0.00    -0.252 C  
HETATM   11  C   UNL     1     -11.545  14.014  69.107  1.00  0.00    -0.313 C  
HETATM   12  S   UNL     1     -12.036  14.859  70.463  1.00  0.00    -0.348 S  
HETATM   13  S   UNL     1     -11.580  14.703  67.495  1.00  0.00    -0.374 SA 
HETATM   14  S   UNL     1     -10.726  13.124  66.532  1.00  0.00    -0.282 SA 
ENDBRANCH   6   9
ENDBRANCH   2   3
TORSDOF 2
ENDMDL
MODEL      129
REMARK 921   NORMALIZED FREE ENERGY PREDICTED BY IDOCK:   -3.00 KCAL/MOL
REMARK 922        TOTAL FREE ENERGY PREDICTED BY IDOCK:   -3.55 KCAL/MOL
REMARK 923 INTER-LIGAND FREE ENERGY PREDICTED BY IDOCK:   -3.35 KCAL/MOL
REMARK 924 INTRA-LIGAND FREE ENERGY PREDICTED BY IDOCK:   -0.20 KCAL/MOL
REMARK 927      BINDING AFFINITY PREDICTED BY RF-SCORE:    0.00 PKD
ROOT
HETATM    1  C   UNL     1     -12.938  11.130  71.554  1.00  0.00    -0.437 C  
HETATM    2  O   UNL     1     -11.758  10.781  70.831  1.00  0.00    -0.320 OA 
ENDROOT
BRANCH   2   3
HETATM    3  C   UNL     1     -11.124   9.654  71.275  1.00  0.00    -0.355 A  
HETATM    4  C   UNL     1      -9.837   9.275  70.908  1.00  0.00    -0.363 A  
HETATM    5  C   UNL     1      -9.287   8.088  71.401  1.00  0.00    -0.182 A  
HETATM    6  C   UNL     1     -10.009   7.244  72.262  1.00  0.00    -0.199 A  
HETATM    7  C   UNL     1     -11.833   8.865  72.181  1.00  0.00    -0.417 A  
HETATM    8  C   UNL     1     -11.288   7.666  72.660  1.00  0.00    -0.423 A  
BRANCH   6   9
HETATM    9  C   UNL     1      -9.445   5.947  72.709  1.00  0.00    -0.148 C  
HETATM   10  C   UNL     1      -8.189   5.795  73.150  1.00  0.00    -0.117 C  
HETATM   11  C   UNL     1      -7.777   4.431  73.552  1.00  0.00    -0.083 C  
HETATM   12  S   UNL     1      -6.276   4.029  74.166  1.00  0.00    -0.034 S  
HETATM   13  S   UNL     1      -9.044   3.248  73.288  1.00  0.00    -0.089 SA 
HETATM   14  S   UNL     1     -10.487   4.556  72.694  1.00  0.00    -0.180 SA 
ENDBRANCH   6   9
ENDBRANCH   2   3
TORSDOF 2
ENDMDL
MODEL      130
REMARK 921   NORMALIZED FREE ENERGY PREDICTED BY IDOCK:   -2.96 KCAL/MOL
REMARK 922        TOTAL FREE ENERGY PREDICTED BY IDOCK:   -3.50 KCAL/MOL
REMARK 923 INTER-LIGAND FREE ENERGY PREDICTED BY IDOCK:   -3.29 KCAL/MOL
REMARK 924 INTRA-LIGAND FREE ENERGY PREDICTED BY IDOCK:   -0.21 KCAL/MOL
REMARK 927      BINDING AFFINITY PREDICTED BY RF-SCORE:    0.00 PKD
ROOT
HETATM    1  C   UNL     1      -7.246   4.023  73.370  1.00  0.00    -0.069 C  
HETATM    2  O   UNL     1      -8.137   4.713  74.246  1.00  0.00    -0.098 OA 
ENDROOT
BRANCH   2   3
HETATM    3  C   UNL     1      -8.855   5.718  73.660  1.00  0.00    -0.121 A  
HETATM    4  C   UNL     1      -9.973   6.322  74.225  1.00  0.00    -0.324 A  
HETATM    5  C   UNL     1     -10.652   7.329  73.532  1.00  0.00    -0.408 A  
HETATM    6  C   UNL     1     -10.241   7.750  72.256  1.00  0.00    -0.285 A  
HETATM    7  C   UNL     1      -8.390   6.167  72.424  1.00  0.00    -0.115 A  
HETATM    8  C   UNL     1      -9.082   7.164  71.723  1.00  0.00    -0.146 A  
BRANCH   6   9
HETATM    9  C   UNL     1     -11.021   8.759  71.498  1.00  0.00    -0.307 C  
HETATM   10  C   UNL     1     -10.663   9.225  70.295  1.00  0.00    -0.284 C  
HETATM   11  C   UNL     1     -11.547  10.237  69.674  1.00  0.00    -0.201 C  
HETATM   12  S   UNL     1     -11.309  10.917  68.166  1.00  0.00    -0.299 S  
HETATM   13  S   UNL     1     -12.886  10.681  70.716  1.00  0.00    -0.314 SA 
HETATM   14  S   UNL     1     -12.502   9.339  72.199  1.00  0.00    -0.320 SA 
ENDBRANCH   6   9
ENDBRANCH   2   3
TORSDOF 2
ENDMDL
MODEL      131
REMARK 921   NORMALIZED FREE ENERGY PREDICTED BY IDOCK:   -2.95 KCAL/MOL
REMARK 922        TOTAL FREE ENERGY PREDICTED BY IDOCK:   -3.49 KCAL/MOL
REMARK 923 INTER-LIGAND FREE ENERGY PREDICTED BY IDOCK:   -3.28 KCAL/MOL
REMARK 924 INTRA-LIGAND FREE ENERGY PREDICTED BY IDOCK:   -0.21 KCAL/MOL
REMARK 927      BINDING AFFINITY PREDICTED BY RF-SCORE:    0.00 PKD
ROOT
HETATM    1  C   UNL     1      -7.796   9.551  62.929  1.00  0.00    -0.124 C  
HETATM    2  O   UNL     1      -8.600  10.411  63.736  1.00  0.00    -0.169 OA 
ENDROOT
BRANCH   2   3
HETATM    3  C   UNL     1      -9.087   9.839  64.878  1.00  0.00    -0.229 A  
HETATM    4  C   UNL     1      -9.919  10.479  65.790  1.00  0.00    -0.318 A  
HETATM    5  C   UNL     1     -10.345   9.811  66.941  1.00  0.00    -0.301 A  
HETATM    6  C   UNL     1      -9.942   8.494  67.220  1.00  0.00    -0.289 A  
HETATM    7  C   UNL     1      -8.729   8.509  65.100  1.00  0.00    -0.156 A  
HETATM    8  C   UNL     1      -9.142   7.846  66.265  1.00  0.00    -0.224 A  
BRANCH   6   9
HETATM    9  C   UNL     1     -10.332   7.828  68.486  1.00  0.00    -0.197 C  
HETATM   10  C   UNL     1     -10.897   8.467  69.519  1.00  0.00    -0.134 C  
HETATM   11  C   UNL     1     -11.219   7.659  70.716  1.00  0.00    -0.268 C  
HETATM   12  S   UNL     1     -11.960   8.246  72.094  1.00  0.00    -0.392 S  
HETATM   13  S   UNL     1     -10.709   5.989  70.550  1.00  0.00    -0.302 SA 
HETATM   14  S   UNL     1     -10.075   6.114  68.619  1.00  0.00    -0.178 SA 
ENDBRANCH   6   9
ENDBRANCH   2   3
TORSDOF 2
ENDMDL
MODEL      132
REMARK 921   NORMALIZED FREE ENERGY PREDICTED BY IDOCK:   -2.90 KCAL/MOL
REMARK 922        TOTAL FREE ENERGY PREDICTED BY IDOCK:   -3.44 KCAL/MOL
REMARK 923 INTER-LIGAND FREE ENERGY PREDICTED BY IDOCK:   -3.26 KCAL/MOL
REMARK 924 INTRA-LIGAND FREE ENERGY PREDICTED BY IDOCK:   -0.19 KCAL/MOL
REMARK 927      BINDING AFFINITY PREDICTED BY RF-SCORE:    0.00 PKD
ROOT
HETATM    1  C   UNL     1     -12.477  11.784  70.624  1.00  0.00    -0.274 C  
HETATM    2  O   UNL     1     -12.852  10.527  71.187  1.00  0.00    -0.357 OA 
ENDROOT
BRANCH   2   3
HETATM    3  C   UNL     1     -11.827   9.636  71.340  1.00  0.00    -0.406 A  
HETATM    4  C   UNL     1     -10.602   9.722  70.687  1.00  0.00    -0.382 A  
HETATM    5  C   UNL     1      -9.625   8.745  70.896  1.00  0.00    -0.275 A  
HETATM    6  C   UNL     1      -9.848   7.651  71.749  1.00  0.00    -0.200 A  
HETATM    7  C   UNL     1     -12.045   8.595  72.243  1.00  0.00    -0.443 A  
HETATM    8  C   UNL     1     -11.072   7.606  72.437  1.00  0.00    -0.362 A  
BRANCH   6   9
HETATM    9  C   UNL     1      -8.835   6.577  71.895  1.00  0.00    -0.134 C  
HETATM   10  C   UNL     1      -8.464   5.765  70.896  1.00  0.00    -0.126 C  
HETATM   11  C   UNL     1      -7.445   4.738  71.208  1.00  0.00    -0.076 C  
HETATM   12  S   UNL     1      -6.813   3.653  70.104  1.00  0.00    -0.034 S  
HETATM   13  S   UNL     1      -6.976   4.755  72.897  1.00  0.00    -0.079 SA 
HETATM   14  S   UNL     1      -8.062   6.390  73.440  1.00  0.00    -0.109 SA 
ENDBRANCH   6   9
ENDBRANCH   2   3
TORSDOF 2
ENDMDL
MODEL      133
REMARK 921   NORMALIZED FREE ENERGY PREDICTED BY IDOCK:   -2.90 KCAL/MOL
REMARK 922        TOTAL FREE ENERGY PREDICTED BY IDOCK:   -3.44 KCAL/MOL
REMARK 923 INTER-LIGAND FREE ENERGY PREDICTED BY IDOCK:   -3.24 KCAL/MOL
REMARK 924 INTRA-LIGAND FREE ENERGY PREDICTED BY IDOCK:   -0.20 KCAL/MOL
REMARK 927      BINDING AFFINITY PREDICTED BY RF-SCORE:    0.00 PKD
ROOT
HETATM    1  C   UNL     1     -12.242  14.068  70.984  1.00  0.00    -0.353 C  
HETATM    2  O   UNL     1     -12.600  13.663  69.663  1.00  0.00    -0.185 OA 
ENDROOT
BRANCH   2   3
HETATM    3  C   UNL     1     -11.914  12.580  69.188  1.00  0.00    -0.236 A  
HETATM    4  C   UNL     1     -11.231  12.547  67.977  1.00  0.00    -0.316 A  
HETATM    5  C   UNL     1     -10.578  11.379  67.571  1.00  0.00    -0.252 A  
HETATM    6  C   UNL     1     -10.601  10.213  68.354  1.00  0.00    -0.249 A  
HETATM    7  C   UNL     1     -11.893  11.455  70.012  1.00  0.00    -0.440 A  
HETATM    8  C   UNL     1     -11.254  10.279  69.595  1.00  0.00    -0.322 A  
BRANCH   6   9
HETATM    9  C   UNL     1      -9.976   8.957  67.871  1.00  0.00    -0.179 C  
HETATM   10  C   UNL     1     -10.377   7.735  68.246  1.00  0.00    -0.239 C  
HETATM   11  C   UNL     1      -9.643   6.582  67.678  1.00  0.00    -0.122 C  
HETATM   12  S   UNL     1     -10.003   4.979  67.979  1.00  0.00    -0.102 S  
HETATM   13  S   UNL     1      -8.309   7.080  66.654  1.00  0.00    -0.122 SA 
HETATM   14  S   UNL     1      -8.676   9.082  66.725  1.00  0.00    -0.125 SA 
ENDBRANCH   6   9
ENDBRANCH   2   3
TORSDOF 2
ENDMDL
MODEL      134
REMARK 921   NORMALIZED FREE ENERGY PREDICTED BY IDOCK:   -2.90 KCAL/MOL
REMARK 922        TOTAL FREE ENERGY PREDICTED BY IDOCK:   -3.44 KCAL/MOL
REMARK 923 INTER-LIGAND FREE ENERGY PREDICTED BY IDOCK:   -3.25 KCAL/MOL
REMARK 924 INTRA-LIGAND FREE ENERGY PREDICTED BY IDOCK:   -0.19 KCAL/MOL
REMARK 927      BINDING AFFINITY PREDICTED BY RF-SCORE:    0.00 PKD
ROOT
HETATM    1  C   UNL     1      -7.273   9.215  71.351  1.00  0.00     0.010 C  
HETATM    2  O   UNL     1      -6.720  10.221  70.502  1.00  0.00    -0.225 OA 
ENDROOT
BRANCH   2   3
HETATM    3  C   UNL     1      -7.594  10.754  69.597  1.00  0.00    -0.042 A  
HETATM    4  C   UNL     1      -7.329  11.865  68.804  1.00  0.00    -0.105 A  
HETATM    5  C   UNL     1      -8.302  12.347  67.922  1.00  0.00    -0.165 A  
HETATM    6  C   UNL     1      -9.565  11.741  67.819  1.00  0.00    -0.184 A  
HETATM    7  C   UNL     1      -8.817  10.097  69.462  1.00  0.00    -0.198 A  
HETATM    8  C   UNL     1      -9.798  10.592  68.592  1.00  0.00    -0.183 A  
BRANCH   6   9
HETATM    9  C   UNL     1     -10.616  12.314  66.943  1.00  0.00    -0.224 C  
HETATM   10  C   UNL     1     -10.957  11.798  65.754  1.00  0.00    -0.353 C  
HETATM   11  C   UNL     1     -12.021  12.495  64.998  1.00  0.00    -0.427 C  
HETATM   12  S   UNL     1     -12.624  11.999  63.520  1.00  0.00    -0.358 S  
HETATM   13  S   UNL     1     -12.582  13.942  65.815  1.00  0.00    -0.443 SA 
HETATM   14  S   UNL     1     -11.478  13.713  67.511  1.00  0.00    -0.349 SA 
ENDBRANCH   6   9
ENDBRANCH   2   3
TORSDOF 2
ENDMDL
MODEL      135
REMARK 921   NORMALIZED FREE ENERGY PREDICTED BY IDOCK:   -2.85 KCAL/MOL
REMARK 922        TOTAL FREE ENERGY PREDICTED BY IDOCK:   -3.38 KCAL/MOL
REMARK 923 INTER-LIGAND FREE ENERGY PREDICTED BY IDOCK:   -3.20 KCAL/MOL
REMARK 924 INTRA-LIGAND FREE ENERGY PREDICTED BY IDOCK:   -0.18 KCAL/MOL
REMARK 927      BINDING AFFINITY PREDICTED BY RF-SCORE:    0.00 PKD
ROOT
HETATM    1  C   UNL     1     -12.814  14.140  65.301  1.00  0.00    -0.344 C  
HETATM    2  O   UNL     1     -11.652  13.436  64.863  1.00  0.00    -0.313 OA 
ENDROOT
BRANCH   2   3
HETATM    3  C   UNL     1     -11.116  12.582  65.785  1.00  0.00    -0.308 A  
HETATM    4  C   UNL     1     -10.704  11.282  65.513  1.00  0.00    -0.283 A  
HETATM    5  C   UNL     1     -10.189  10.479  66.534  1.00  0.00    -0.288 A  
HETATM    6  C   UNL     1     -10.082  10.947  67.855  1.00  0.00    -0.199 A  
HETATM    7  C   UNL     1     -10.956  13.089  67.075  1.00  0.00    -0.289 A  
HETATM    8  C   UNL     1     -10.457  12.278  68.103  1.00  0.00    -0.228 A  
BRANCH   6   9
HETATM    9  C   UNL     1      -9.613  10.056  68.945  1.00  0.00    -0.181 C  
HETATM   10  C   UNL     1      -8.359  10.055  69.416  1.00  0.00    -0.169 C  
HETATM   11  C   UNL     1      -8.049   9.098  70.502  1.00  0.00    -0.162 C  
HETATM   12  S   UNL     1      -6.566   8.959  71.258  1.00  0.00    -0.082 S  
HETATM   13  S   UNL     1      -9.420   8.082  70.906  1.00  0.00    -0.163 SA 
HETATM   14  S   UNL     1     -10.769   8.982  69.674  1.00  0.00    -0.190 SA 
ENDBRANCH   6   9
ENDBRANCH   2   3
TORSDOF 2
ENDMDL
MODEL      136
REMARK 921   NORMALIZED FREE ENERGY PREDICTED BY IDOCK:   -2.83 KCAL/MOL
REMARK 922        TOTAL FREE ENERGY PREDICTED BY IDOCK:   -3.36 KCAL/MOL
REMARK 923 INTER-LIGAND FREE ENERGY PREDICTED BY IDOCK:   -3.16 KCAL/MOL
REMARK 924 INTRA-LIGAND FREE ENERGY PREDICTED BY IDOCK:   -0.20 KCAL/MOL
REMARK 927      BINDING AFFINITY PREDICTED BY RF-SCORE:    0.00 PKD
ROOT
HETATM    1  C   UNL     1      -5.688  12.238  67.137  1.00  0.00    -0.103 C  
HETATM    2  O   UNL     1      -6.880  11.684  66.581  1.00  0.00    -0.120 OA 
ENDROOT
BRANCH   2   3
HETATM    3  C   UNL     1      -7.690  11.044  67.477  1.00  0.00    -0.114 A  
HETATM    4  C   UNL     1      -8.995  10.641  67.216  1.00  0.00    -0.141 A  
HETATM    5  C   UNL     1      -9.748  10.013  68.211  1.00  0.00    -0.155 A  
HETATM    6  C   UNL     1      -9.226   9.782  69.495  1.00  0.00    -0.226 A  
HETATM    7  C   UNL     1      -7.128  10.765  68.723  1.00  0.00    -0.079 A  
HETATM    8  C   UNL     1      -7.891  10.152  69.727  1.00  0.00    -0.175 A  
BRANCH   6   9
HETATM    9  C   UNL     1     -10.065   9.191  70.566  1.00  0.00    -0.235 C  
HETATM   10  C   UNL     1     -11.344   9.527  70.779  1.00  0.00    -0.387 C  
HETATM   11  C   UNL     1     -12.041   8.851  71.895  1.00  0.00    -0.373 C  
HETATM   12  S   UNL     1     -13.643   9.090  72.307  1.00  0.00    -0.489 S  
HETATM   13  S   UNL     1     -10.985   7.766  72.781  1.00  0.00    -0.400 SA 
HETATM   14  S   UNL     1      -9.356   7.968  71.577  1.00  0.00    -0.163 SA 
ENDBRANCH   6   9
ENDBRANCH   2   3
TORSDOF 2
ENDMDL
MODEL      137
REMARK 921   NORMALIZED FREE ENERGY PREDICTED BY IDOCK:   -2.83 KCAL/MOL
REMARK 922        TOTAL FREE ENERGY PREDICTED BY IDOCK:   -3.36 KCAL/MOL
REMARK 923 INTER-LIGAND FREE ENERGY PREDICTED BY IDOCK:   -3.17 KCAL/MOL
REMARK 924 INTRA-LIGAND FREE ENERGY PREDICTED BY IDOCK:   -0.20 KCAL/MOL
REMARK 927      BINDING AFFINITY PREDICTED BY RF-SCORE:    0.00 PKD
ROOT
HETATM    1  C   UNL     1      -8.471  11.148  68.311  1.00  0.00    -0.145 C  
HETATM    2  O   UNL     1      -8.669  11.938  67.139  1.00  0.00    -0.163 OA 
ENDROOT
BRANCH   2   3
HETATM    3  C   UNL     1      -8.536  13.286  67.324  1.00  0.00    -0.210 A  
HETATM    4  C   UNL     1      -9.517  14.225  67.024  1.00  0.00    -0.259 A  
HETATM    5  C   UNL     1      -9.272  15.586  67.230  1.00  0.00    -0.219 A  
HETATM    6  C   UNL     1      -8.041  16.046  67.729  1.00  0.00    -0.154 A  
HETATM    7  C   UNL     1      -7.332  13.714  67.883  1.00  0.00    -0.148 A  
HETATM    8  C   UNL     1      -7.081  15.080  68.072  1.00  0.00    -0.142 A  
BRANCH   6   9
HETATM    9  C   UNL     1      -7.766  17.497  67.862  1.00  0.00    -0.213 C  
HETATM   10  C   UNL     1      -6.971  18.020  68.805  1.00  0.00    -0.264 C  
HETATM   11  C   UNL     1      -6.806  19.491  68.807  1.00  0.00    -0.322 C  
HETATM   12  S   UNL     1      -5.833  20.341  69.866  1.00  0.00    -0.354 S  
HETATM   13  S   UNL     1      -7.779  20.272  67.574  1.00  0.00    -0.293 SA 
HETATM   14  S   UNL     1      -8.488  18.573  66.703  1.00  0.00    -0.281 SA 
ENDBRANCH   6   9
ENDBRANCH   2   3
TORSDOF 2
ENDMDL
MODEL      138
REMARK 921   NORMALIZED FREE ENERGY PREDICTED BY IDOCK:   -2.81 KCAL/MOL
REMARK 922        TOTAL FREE ENERGY PREDICTED BY IDOCK:   -3.34 KCAL/MOL
REMARK 923 INTER-LIGAND FREE ENERGY PREDICTED BY IDOCK:   -3.14 KCAL/MOL
REMARK 924 INTRA-LIGAND FREE ENERGY PREDICTED BY IDOCK:   -0.21 KCAL/MOL
REMARK 927      BINDING AFFINITY PREDICTED BY RF-SCORE:    0.00 PKD
ROOT
HETATM    1  C   UNL     1      -8.359   8.820  63.930  1.00  0.00    -0.141 C  
HETATM    2  O   UNL     1      -8.509   9.954  64.785  1.00  0.00    -0.150 OA 
ENDROOT
BRANCH   2   3
HETATM    3  C   UNL     1      -9.192   9.714  65.944  1.00  0.00    -0.194 A  
HETATM    4  C   UNL     1     -10.017  10.635  66.580  1.00  0.00    -0.265 A  
HETATM    5  C   UNL     1     -10.655  10.297  67.777  1.00  0.00    -0.296 A  
HETATM    6  C   UNL     1     -10.477   9.039  68.377  1.00  0.00    -0.234 A  
HETATM    7  C   UNL     1      -9.054   8.436  66.486  1.00  0.00    -0.217 A  
HETATM    8  C   UNL     1      -9.679   8.105  67.696  1.00  0.00    -0.200 A  
BRANCH   6   9
HETATM    9  C   UNL     1     -11.092   8.725  69.690  1.00  0.00    -0.028 C  
HETATM   10  C   UNL     1     -10.975   7.539  70.302  1.00  0.00    -0.264 C  
HETATM   11  C   UNL     1     -11.657   7.385  71.606  1.00  0.00    -0.270 C  
HETATM   12  S   UNL     1     -11.606   6.009  72.553  1.00  0.00    -0.216 S  
HETATM   13  S   UNL     1     -12.566   8.815  72.056  1.00  0.00    -0.409 SA 
HETATM   14  S   UNL     1     -11.983   9.983  70.494  1.00  0.00    -0.254 SA 
ENDBRANCH   6   9
ENDBRANCH   2   3
TORSDOF 2
ENDMDL
MODEL      139
REMARK 921   NORMALIZED FREE ENERGY PREDICTED BY IDOCK:   -2.80 KCAL/MOL
REMARK 922        TOTAL FREE ENERGY PREDICTED BY IDOCK:   -3.32 KCAL/MOL
REMARK 923 INTER-LIGAND FREE ENERGY PREDICTED BY IDOCK:   -3.13 KCAL/MOL
REMARK 924 INTRA-LIGAND FREE ENERGY PREDICTED BY IDOCK:   -0.20 KCAL/MOL
REMARK 927      BINDING AFFINITY PREDICTED BY RF-SCORE:    0.00 PKD
ROOT
HETATM    1  C   UNL     1      -9.987   7.242  73.748  1.00  0.00    -0.322 C  
HETATM    2  O   UNL     1     -11.096   7.493  72.885  1.00  0.00    -0.337 OA 
ENDROOT
BRANCH   2   3
HETATM    3  C   UNL     1     -10.779   8.112  71.708  1.00  0.00    -0.251 A  
HETATM    4  C   UNL     1     -11.330   9.313  71.273  1.00  0.00    -0.423 A  
HETATM    5  C   UNL     1     -10.955   9.852  70.040  1.00  0.00    -0.338 A  
HETATM    6  C   UNL     1     -10.032   9.203  69.203  1.00  0.00    -0.189 A  
HETATM    7  C   UNL     1      -9.811   7.485  70.923  1.00  0.00    -0.177 A  
HETATM    8  C   UNL     1      -9.450   8.017  69.678  1.00  0.00    -0.163 A  
BRANCH   6   9
HETATM    9  C   UNL     1      -9.708   9.744  67.860  1.00  0.00    -0.144 C  
HETATM   10  C   UNL     1      -8.538   9.543  67.240  1.00  0.00    -0.128 C  
HETATM   11  C   UNL     1      -8.369  10.158  65.904  1.00  0.00    -0.136 C  
HETATM   12  S   UNL     1      -7.011  10.001  64.944  1.00  0.00    -0.134 S  
HETATM   13  S   UNL     1      -9.761  11.114  65.430  1.00  0.00    -0.243 SA 
HETATM   14  S   UNL     1     -10.934  10.657  67.031  1.00  0.00    -0.142 SA 
ENDBRANCH   6   9
ENDBRANCH   2   3
TORSDOF 2
ENDMDL
MODEL      140
REMARK 921   NORMALIZED FREE ENERGY PREDICTED BY IDOCK:   -2.79 KCAL/MOL
REMARK 922        TOTAL FREE ENERGY PREDICTED BY IDOCK:   -3.32 KCAL/MOL
REMARK 923 INTER-LIGAND FREE ENERGY PREDICTED BY IDOCK:   -3.12 KCAL/MOL
REMARK 924 INTRA-LIGAND FREE ENERGY PREDICTED BY IDOCK:   -0.20 KCAL/MOL
REMARK 927      BINDING AFFINITY PREDICTED BY RF-SCORE:    0.00 PKD
ROOT
HETATM    1  C   UNL     1     -10.292  18.736  68.256  1.00  0.00    -0.338 C  
HETATM    2  O   UNL     1     -11.058  17.750  67.565  1.00  0.00    -0.188 OA 
ENDROOT
BRANCH   2   3
HETATM    3  C   UNL     1     -10.725  16.456  67.856  1.00  0.00    -0.332 A  
HETATM    4  C   UNL     1      -9.445  15.926  67.743  1.00  0.00    -0.216 A  
HETATM    5  C   UNL     1      -9.213  14.581  68.044  1.00  0.00    -0.190 A  
HETATM    6  C   UNL     1     -10.252  13.728  68.452  1.00  0.00    -0.248 A  
HETATM    7  C   UNL     1     -11.759  15.645  68.324  1.00  0.00    -0.253 A  
HETATM    8  C   UNL     1     -11.529  14.291  68.607  1.00  0.00    -0.328 A  
BRANCH   6   9
HETATM    9  C   UNL     1     -10.007  12.283  68.685  1.00  0.00    -0.118 C  
HETATM   10  C   UNL     1      -8.841  11.676  68.428  1.00  0.00    -0.161 C  
HETATM   11  C   UNL     1      -8.762  10.225  68.709  1.00  0.00    -0.144 C  
HETATM   12  S   UNL     1      -7.396   9.285  68.500  1.00  0.00    -0.077 S  
HETATM   13  S   UNL     1     -10.289   9.571  69.271  1.00  0.00    -0.217 SA 
HETATM   14  S   UNL     1     -11.297  11.337  69.365  1.00  0.00    -0.316 SA 
ENDBRANCH   6   9
ENDBRANCH   2   3
TORSDOF 2
ENDMDL
MODEL      141
REMARK 921   NORMALIZED FREE ENERGY PREDICTED BY IDOCK:   -2.79 KCAL/MOL
REMARK 922        TOTAL FREE ENERGY PREDICTED BY IDOCK:   -3.32 KCAL/MOL
REMARK 923 INTER-LIGAND FREE ENERGY PREDICTED BY IDOCK:   -3.12 KCAL/MOL
REMARK 924 INTRA-LIGAND FREE ENERGY PREDICTED BY IDOCK:   -0.20 KCAL/MOL
REMARK 927      BINDING AFFINITY PREDICTED BY RF-SCORE:    0.00 PKD
ROOT
HETATM    1  C   UNL     1      -8.034   2.040  68.848  1.00  0.00    -0.048 C  
HETATM    2  O   UNL     1      -8.056   3.258  68.104  1.00  0.00    -0.072 OA 
ENDROOT
BRANCH   2   3
HETATM    3  C   UNL     1      -8.755   4.277  68.689  1.00  0.00    -0.096 A  
HETATM    4  C   UNL     1      -9.669   4.115  69.725  1.00  0.00    -0.278 A  
HETATM    5  C   UNL     1     -10.350   5.221  70.240  1.00  0.00    -0.350 A  
HETATM    6  C   UNL     1     -10.147   6.514  69.728  1.00  0.00    -0.207 A  
HETATM    7  C   UNL     1      -8.489   5.560  68.211  1.00  0.00    -0.097 A  
HETATM    8  C   UNL     1      -9.186   6.666  68.716  1.00  0.00    -0.129 A  
BRANCH   6   9
HETATM    9  C   UNL     1     -10.939   7.665  70.227  1.00  0.00    -0.252 C  
HETATM   10  C   UNL     1     -12.052   7.540  70.962  1.00  0.00    -0.305 C  
HETATM   11  C   UNL     1     -12.731   8.789  71.374  1.00  0.00    -0.283 C  
HETATM   12  S   UNL     1     -14.104   8.861  72.324  1.00  0.00    -0.372 S  
HETATM   13  S   UNL     1     -11.947  10.218  70.728  1.00  0.00    -0.389 SA 
HETATM   14  S   UNL     1     -10.367   9.266  69.865  1.00  0.00    -0.235 SA 
ENDBRANCH   6   9
ENDBRANCH   2   3
TORSDOF 2
ENDMDL
MODEL      142
REMARK 921   NORMALIZED FREE ENERGY PREDICTED BY IDOCK:   -2.76 KCAL/MOL
REMARK 922        TOTAL FREE ENERGY PREDICTED BY IDOCK:   -3.28 KCAL/MOL
REMARK 923 INTER-LIGAND FREE ENERGY PREDICTED BY IDOCK:   -3.09 KCAL/MOL
REMARK 924 INTRA-LIGAND FREE ENERGY PREDICTED BY IDOCK:   -0.19 KCAL/MOL
REMARK 927      BINDING AFFINITY PREDICTED BY RF-SCORE:    0.00 PKD
ROOT
HETATM    1  C   UNL     1     -11.838  14.727  67.687  1.00  0.00    -0.292 C  
HETATM    2  O   UNL     1     -11.364  14.295  66.412  1.00  0.00    -0.325 OA 
ENDROOT
BRANCH   2   3
HETATM    3  C   UNL     1     -10.955  12.992  66.361  1.00  0.00    -0.281 A  
HETATM    4  C   UNL     1     -10.897  12.227  65.201  1.00  0.00    -0.340 A  
HETATM    5  C   UNL     1     -10.485  10.892  65.260  1.00  0.00    -0.299 A  
HETATM    6  C   UNL     1     -10.133  10.284  66.477  1.00  0.00    -0.290 A  
HETATM    7  C   UNL     1     -10.546  12.428  67.570  1.00  0.00    -0.240 A  
HETATM    8  C   UNL     1     -10.151  11.084  67.630  1.00  0.00    -0.208 A  
BRANCH   6   9
HETATM    9  C   UNL     1      -9.780   8.844  66.536  1.00  0.00    -0.254 C  
HETATM   10  C   UNL     1      -8.633   8.339  66.061  1.00  0.00    -0.167 C  
HETATM   11  C   UNL     1      -8.436   6.879  66.190  1.00  0.00    -0.136 C  
HETATM   12  S   UNL     1      -7.068   6.052  65.703  1.00  0.00    -0.074 S  
HETATM   13  S   UNL     1      -9.827   6.078  66.898  1.00  0.00    -0.171 SA 
HETATM   14  S   UNL     1     -10.904   7.760  67.299  1.00  0.00    -0.014 SA 
ENDBRANCH   6   9
ENDBRANCH   2   3
TORSDOF 2
ENDMDL
MODEL      143
REMARK 921   NORMALIZED FREE ENERGY PREDICTED BY IDOCK:   -2.75 KCAL/MOL
REMARK 922        TOTAL FREE ENERGY PREDICTED BY IDOCK:   -3.28 KCAL/MOL
REMARK 923 INTER-LIGAND FREE ENERGY PREDICTED BY IDOCK:   -3.10 KCAL/MOL
REMARK 924 INTRA-LIGAND FREE ENERGY PREDICTED BY IDOCK:   -0.18 KCAL/MOL
REMARK 927      BINDING AFFINITY PREDICTED BY RF-SCORE:    0.00 PKD
ROOT
HETATM    1  C   UNL     1      -8.655   4.220  64.800  1.00  0.00    -0.127 C  
HETATM    2  O   UNL     1      -8.529   5.618  65.058  1.00  0.00    -0.144 OA 
ENDROOT
BRANCH   2   3
HETATM    3  C   UNL     1      -9.140   6.049  66.203  1.00  0.00    -0.147 A  
HETATM    4  C   UNL     1     -10.376   5.601  66.654  1.00  0.00    -0.311 A  
HETATM    5  C   UNL     1     -10.926   6.123  67.829  1.00  0.00    -0.400 A  
HETATM    6  C   UNL     1     -10.265   7.113  68.575  1.00  0.00    -0.189 A  
HETATM    7  C   UNL     1      -8.435   6.982  66.963  1.00  0.00    -0.121 A  
HETATM    8  C   UNL     1      -8.996   7.518  68.130  1.00  0.00    -0.129 A  
BRANCH   6   9
HETATM    9  C   UNL     1     -10.899   7.718  69.771  1.00  0.00    -0.209 C  
HETATM   10  C   UNL     1     -11.316   8.989  69.829  1.00  0.00     0.047 C  
HETATM   11  C   UNL     1     -11.921   9.442  71.101  1.00  0.00    -0.337 C  
HETATM   12  S   UNL     1     -12.541  10.970  71.374  1.00  0.00    -0.367 S  
HETATM   13  S   UNL     1     -11.899   8.193  72.332  1.00  0.00    -0.367 SA 
HETATM   14  S   UNL     1     -11.147   6.705  71.162  1.00  0.00    -0.295 SA 
ENDBRANCH   6   9
ENDBRANCH   2   3
TORSDOF 2
ENDMDL
MODEL      144
REMARK 921   NORMALIZED FREE ENERGY PREDICTED BY IDOCK:   -2.73 KCAL/MOL
REMARK 922        TOTAL FREE ENERGY PREDICTED BY IDOCK:   -3.26 KCAL/MOL
REMARK 923 INTER-LIGAND FREE ENERGY PREDICTED BY IDOCK:   -3.05 KCAL/MOL
REMARK 924 INTRA-LIGAND FREE ENERGY PREDICTED BY IDOCK:   -0.20 KCAL/MOL
REMARK 927      BINDING AFFINITY PREDICTED BY RF-SCORE:    0.00 PKD
ROOT
HETATM    1  C   UNL     1     -10.468  19.392  67.044  1.00  0.00    -0.463 C  
HETATM    2  O   UNL     1     -10.855  18.233  66.307  1.00  0.00    -0.214 OA 
ENDROOT
BRANCH   2   3
HETATM    3  C   UNL     1     -10.119  17.112  66.571  1.00  0.00    -0.310 A  
HETATM    4  C   UNL     1     -10.658  15.869  66.885  1.00  0.00    -0.309 A  
HETATM    5  C   UNL     1      -9.816  14.788  67.161  1.00  0.00    -0.232 A  
HETATM    6  C   UNL     1      -8.417  14.921  67.143  1.00  0.00    -0.244 A  
HETATM    7  C   UNL     1      -8.734  17.250  66.481  1.00  0.00    -0.293 A  
HETATM    8  C   UNL     1      -7.890  16.170  66.777  1.00  0.00    -0.296 A  
BRANCH   6   9
HETATM    9  C   UNL     1      -7.538  13.787  67.521  1.00  0.00    -0.173 C  
HETATM   10  C   UNL     1      -7.927  12.506  67.504  1.00  0.00    -0.175 C  
HETATM   11  C   UNL     1      -6.930  11.494  67.918  1.00  0.00    -0.075 C  
HETATM   12  S   UNL     1      -7.193   9.843  67.931  1.00  0.00    -0.088 S  
HETATM   13  S   UNL     1      -5.418  12.218  68.431  1.00  0.00    -0.058 SA 
HETATM   14  S   UNL     1      -5.898  14.144  67.976  1.00  0.00    -0.124 SA 
ENDBRANCH   6   9
ENDBRANCH   2   3
TORSDOF 2
ENDMDL
MODEL      145
REMARK 921   NORMALIZED FREE ENERGY PREDICTED BY IDOCK:   -2.73 KCAL/MOL
REMARK 922        TOTAL FREE ENERGY PREDICTED BY IDOCK:   -3.25 KCAL/MOL
REMARK 923 INTER-LIGAND FREE ENERGY PREDICTED BY IDOCK:   -3.07 KCAL/MOL
REMARK 924 INTRA-LIGAND FREE ENERGY PREDICTED BY IDOCK:   -0.18 KCAL/MOL
REMARK 927      BINDING AFFINITY PREDICTED BY RF-SCORE:    0.00 PKD
ROOT
HETATM    1  C   UNL     1      -5.576  10.102  64.239  1.00  0.00    -0.122 C  
HETATM    2  O   UNL     1      -6.962  10.322  63.978  1.00  0.00    -0.121 OA 
ENDROOT
BRANCH   2   3
HETATM    3  C   UNL     1      -7.778  10.209  65.069  1.00  0.00    -0.141 A  
HETATM    4  C   UNL     1      -8.896   9.384  65.137  1.00  0.00    -0.233 A  
HETATM    5  C   UNL     1      -9.679   9.357  66.294  1.00  0.00    -0.330 A  
HETATM    6  C   UNL     1      -9.376  10.160  67.407  1.00  0.00    -0.167 A  
HETATM    7  C   UNL     1      -7.420  10.963  66.187  1.00  0.00    -0.107 A  
HETATM    8  C   UNL     1      -8.217  10.949  67.340  1.00  0.00    -0.117 A  
BRANCH   6   9
HETATM    9  C   UNL     1     -10.264  10.184  68.595  1.00  0.00    -0.176 C  
HETATM   10  C   UNL     1     -10.260   9.241  69.547  1.00  0.00    -0.214 C  
HETATM   11  C   UNL     1     -11.215   9.408  70.664  1.00  0.00    -0.284 C  
HETATM   12  S   UNL     1     -11.347   8.375  71.971  1.00  0.00    -0.368 S  
HETATM   13  S   UNL     1     -12.238  10.818  70.462  1.00  0.00    -0.396 SA 
HETATM   14  S   UNL     1     -11.344  11.534  68.778  1.00  0.00    -0.296 SA 
ENDBRANCH   6   9
ENDBRANCH   2   3
TORSDOF 2
ENDMDL
MODEL      146
REMARK 921   NORMALIZED FREE ENERGY PREDICTED BY IDOCK:   -2.71 KCAL/MOL
REMARK 922        TOTAL FREE ENERGY PREDICTED BY IDOCK:   -3.22 KCAL/MOL
REMARK 923 INTER-LIGAND FREE ENERGY PREDICTED BY IDOCK:   -3.02 KCAL/MOL
REMARK 924 INTRA-LIGAND FREE ENERGY PREDICTED BY IDOCK:   -0.20 KCAL/MOL
REMARK 927      BINDING AFFINITY PREDICTED BY RF-SCORE:    0.00 PKD
ROOT
HETATM    1  C   UNL     1     -12.672  12.533  70.897  1.00  0.00    -0.182 C  
HETATM    2  O   UNL     1     -12.100  13.052  69.697  1.00  0.00    -0.297 OA 
ENDROOT
BRANCH   2   3
HETATM    3  C   UNL     1     -11.469  12.127  68.913  1.00  0.00    -0.297 A  
HETATM    4  C   UNL     1     -11.675  10.754  68.991  1.00  0.00    -0.357 A  
HETATM    5  C   UNL     1     -10.961   9.888  68.157  1.00  0.00    -0.261 A  
HETATM    6  C   UNL     1     -10.016  10.368  67.235  1.00  0.00    -0.229 A  
HETATM    7  C   UNL     1     -10.584  12.629  67.958  1.00  0.00    -0.233 A  
HETATM    8  C   UNL     1      -9.855  11.759  67.136  1.00  0.00    -0.207 A  
BRANCH   6   9
HETATM    9  C   UNL     1      -9.205   9.433  66.418  1.00  0.00    -0.169 C  
HETATM   10  C   UNL     1      -9.319   8.099  66.479  1.00  0.00    -0.262 C  
HETATM   11  C   UNL     1      -8.429   7.306  65.603  1.00  0.00    -0.131 C  
HETATM   12  S   UNL     1      -8.436   5.638  65.493  1.00  0.00    -0.148 S  
HETATM   13  S   UNL     1      -7.323   8.313  64.688  1.00  0.00    -0.095 SA 
HETATM   14  S   UNL     1      -8.068  10.110  65.290  1.00  0.00    -0.154 SA 
ENDBRANCH   6   9
ENDBRANCH   2   3
TORSDOF 2
ENDMDL
MODEL      147
REMARK 921   NORMALIZED FREE ENERGY PREDICTED BY IDOCK:   -2.70 KCAL/MOL
REMARK 922        TOTAL FREE ENERGY PREDICTED BY IDOCK:   -3.21 KCAL/MOL
REMARK 923 INTER-LIGAND FREE ENERGY PREDICTED BY IDOCK:   -3.02 KCAL/MOL
REMARK 924 INTRA-LIGAND FREE ENERGY PREDICTED BY IDOCK:   -0.19 KCAL/MOL
REMARK 927      BINDING AFFINITY PREDICTED BY RF-SCORE:    0.00 PKD
ROOT
HETATM    1  C   UNL     1      -8.534   5.671  74.407  1.00  0.00    -0.108 C  
HETATM    2  O   UNL     1      -9.800   5.717  73.749  1.00  0.00    -0.155 OA 
ENDROOT
BRANCH   2   3
HETATM    3  C   UNL     1      -9.886   6.628  72.733  1.00  0.00    -0.169 A  
HETATM    4  C   UNL     1     -10.520   7.862  72.830  1.00  0.00    -0.422 A  
HETATM    5  C   UNL     1     -10.573   8.713  71.723  1.00  0.00    -0.395 A  
HETATM    6  C   UNL     1     -10.006   8.352  70.489  1.00  0.00    -0.205 A  
HETATM    7  C   UNL     1      -9.259   6.277  71.537  1.00  0.00    -0.149 A  
HETATM    8  C   UNL     1      -9.329   7.124  70.422  1.00  0.00    -0.159 A  
BRANCH   6   9
HETATM    9  C   UNL     1     -10.144   9.228  69.300  1.00  0.00    -0.200 C  
HETATM   10  C   UNL     1     -10.155  10.566  69.360  1.00  0.00    -0.233 C  
HETATM   11  C   UNL     1     -10.309  11.296  68.082  1.00  0.00    -0.186 C  
HETATM   12  S   UNL     1     -10.308  12.960  67.925  1.00  0.00    -0.236 S  
HETATM   13  S   UNL     1     -10.524  10.215  66.718  1.00  0.00    -0.173 SA 
HETATM   14  S   UNL     1     -10.260   8.472  67.739  1.00  0.00    -0.234 SA 
ENDBRANCH   6   9
ENDBRANCH   2   3
TORSDOF 2
ENDMDL
MODEL      148
REMARK 921   NORMALIZED FREE ENERGY PREDICTED BY IDOCK:   -2.69 KCAL/MOL
REMARK 922        TOTAL FREE ENERGY PREDICTED BY IDOCK:   -3.20 KCAL/MOL
REMARK 923 INTER-LIGAND FREE ENERGY PREDICTED BY IDOCK:   -3.00 KCAL/MOL
REMARK 924 INTRA-LIGAND FREE ENERGY PREDICTED BY IDOCK:   -0.20 KCAL/MOL
REMARK 927      BINDING AFFINITY PREDICTED BY RF-SCORE:    0.00 PKD
ROOT
HETATM    1  C   UNL     1     -12.351  15.533  64.425  1.00  0.00    -0.001 C  
HETATM    2  O   UNL     1     -12.523  14.136  64.187  1.00  0.00    -0.668 OA 
ENDROOT
BRANCH   2   3
HETATM    3  C   UNL     1     -11.831  13.319  65.036  1.00  0.00    -0.352 A  
HETATM    4  C   UNL     1     -11.211  13.739  66.208  1.00  0.00    -0.310 A  
HETATM    5  C   UNL     1     -10.507  12.826  66.997  1.00  0.00    -0.245 A  
HETATM    6  C   UNL     1     -10.391  11.474  66.632  1.00  0.00    -0.262 A  
HETATM    7  C   UNL     1     -11.785  11.968  64.690  1.00  0.00    -0.358 A  
HETATM    8  C   UNL     1     -11.063  11.057  65.472  1.00  0.00     0.001 A  
BRANCH   6   9
HETATM    9  C   UNL     1      -9.569  10.535  67.434  1.00  0.00    -0.158 C  
HETATM   10  C   UNL     1      -8.474  10.899  68.115  1.00  0.00    -0.131 C  
HETATM   11  C   UNL     1      -7.761   9.838  68.860  1.00  0.00    -0.082 C  
HETATM   12  S   UNL     1      -6.403  10.081  69.803  1.00  0.00    -0.069 S  
HETATM   13  S   UNL     1      -8.484   8.258  68.626  1.00  0.00    -0.126 SA 
HETATM   14  S   UNL     1     -10.080   8.876  67.522  1.00  0.00    -0.245 SA 
ENDBRANCH   6   9
ENDBRANCH   2   3
TORSDOF 2
ENDMDL
MODEL      149
REMARK 921   NORMALIZED FREE ENERGY PREDICTED BY IDOCK:   -2.66 KCAL/MOL
REMARK 922        TOTAL FREE ENERGY PREDICTED BY IDOCK:   -3.17 KCAL/MOL
REMARK 923 INTER-LIGAND FREE ENERGY PREDICTED BY IDOCK:   -2.98 KCAL/MOL
REMARK 924 INTRA-LIGAND FREE ENERGY PREDICTED BY IDOCK:   -0.19 KCAL/MOL
REMARK 927      BINDING AFFINITY PREDICTED BY RF-SCORE:    0.00 PKD
ROOT
HETATM    1  C   UNL     1      -9.096   9.975  66.186  1.00  0.00    -0.156 C  
HETATM    2  O   UNL     1      -9.901  10.531  67.225  1.00  0.00    -0.169 OA 
ENDROOT
BRANCH   2   3
HETATM    3  C   UNL     1     -10.001   9.761  68.350  1.00  0.00    -0.156 A  
HETATM    4  C   UNL     1     -10.962   9.931  69.341  1.00  0.00    -0.263 A  
HETATM    5  C   UNL     1     -10.964   9.102  70.466  1.00  0.00    -0.307 A  
HETATM    6  C   UNL     1     -10.002   8.093  70.640  1.00  0.00    -0.204 A  
HETATM    7  C   UNL     1      -9.077   8.723  68.469  1.00  0.00    -0.138 A  
HETATM    8  C   UNL     1      -9.069   7.905  69.607  1.00  0.00    -0.153 A  
BRANCH   6   9
HETATM    9  C   UNL     1      -9.965   7.278  71.878  1.00  0.00    -0.166 C  
HETATM   10  C   UNL     1     -10.594   6.103  72.015  1.00  0.00    -0.259 C  
HETATM   11  C   UNL     1     -10.465   5.418  73.320  1.00  0.00    -0.226 C  
HETATM   12  S   UNL     1     -11.132   3.931  73.689  1.00  0.00    -0.202 S  
HETATM   13  S   UNL     1      -9.541   6.358  74.478  1.00  0.00    -0.301 SA 
HETATM   14  S   UNL     1      -9.021   7.867  73.214  1.00  0.00    -0.280 SA 
ENDBRANCH   6   9
ENDBRANCH   2   3
TORSDOF 2
ENDMDL
MODEL      150
REMARK 921   NORMALIZED FREE ENERGY PREDICTED BY IDOCK:   -2.65 KCAL/MOL
REMARK 922        TOTAL FREE ENERGY PREDICTED BY IDOCK:   -3.16 KCAL/MOL
REMARK 923 INTER-LIGAND FREE ENERGY PREDICTED BY IDOCK:   -2.97 KCAL/MOL
REMARK 924 INTRA-LIGAND FREE ENERGY PREDICTED BY IDOCK:   -0.19 KCAL/MOL
REMARK 927      BINDING AFFINITY PREDICTED BY RF-SCORE:    0.00 PKD
ROOT
HETATM    1  C   UNL     1      -9.560   3.482  64.682  1.00  0.00    -0.168 C  
HETATM    2  O   UNL     1      -8.889   4.673  65.091  1.00  0.00    -0.136 OA 
ENDROOT
BRANCH   2   3
HETATM    3  C   UNL     1      -9.245   5.139  66.326  1.00  0.00    -0.146 A  
HETATM    4  C   UNL     1     -10.540   5.486  66.695  1.00  0.00    -0.365 A  
HETATM    5  C   UNL     1     -10.797   5.976  67.979  1.00  0.00    -0.374 A  
HETATM    6  C   UNL     1      -9.769   6.143  68.922  1.00  0.00    -0.151 A  
HETATM    7  C   UNL     1      -8.221   5.234  67.268  1.00  0.00    -0.104 A  
HETATM    8  C   UNL     1      -8.476   5.743  68.549  1.00  0.00    -0.110 A  
BRANCH   6   9
HETATM    9  C   UNL     1     -10.043   6.743  70.251  1.00  0.00    -0.179 C  
HETATM   10  C   UNL     1      -9.087   7.073  71.130  1.00  0.00    -0.153 C  
HETATM   11  C   UNL     1      -9.528   7.655  72.417  1.00  0.00    -0.165 C  
HETATM   12  S   UNL     1      -8.503   8.171  73.632  1.00  0.00    -0.205 S  
HETATM   13  S   UNL     1     -11.275   7.727  72.553  1.00  0.00    -0.389 SA 
HETATM   14  S   UNL     1     -11.698   7.071  70.672  1.00  0.00    -0.321 SA 
ENDBRANCH   6   9
ENDBRANCH   2   3
TORSDOF 2
ENDMDL
MODEL      151
REMARK 921   NORMALIZED FREE ENERGY PREDICTED BY IDOCK:   -2.63 KCAL/MOL
REMARK 922        TOTAL FREE ENERGY PREDICTED BY IDOCK:   -3.14 KCAL/MOL
REMARK 923 INTER-LIGAND FREE ENERGY PREDICTED BY IDOCK:   -2.93 KCAL/MOL
REMARK 924 INTRA-LIGAND FREE ENERGY PREDICTED BY IDOCK:   -0.21 KCAL/MOL
REMARK 927      BINDING AFFINITY PREDICTED BY RF-SCORE:    0.00 PKD
ROOT
HETATM    1  C   UNL     1      -8.864  10.553  68.136  1.00  0.00    -0.134 C  
HETATM    2  O   UNL     1      -7.837  11.351  68.724  1.00  0.00    -0.136 OA 
ENDROOT
BRANCH   2   3
HETATM    3  C   UNL     1      -7.833  12.661  68.335  1.00  0.00    -0.136 A  
HETATM    4  C   UNL     1      -6.805  13.560  68.598  1.00  0.00    -0.098 A  
HETATM    5  C   UNL     1      -6.908  14.889  68.175  1.00  0.00    -0.136 A  
HETATM    6  C   UNL     1      -8.042  15.357  67.491  1.00  0.00    -0.187 A  
HETATM    7  C   UNL     1      -8.937  13.088  67.598  1.00  0.00    -0.192 A  
HETATM    8  C   UNL     1      -9.048  14.425  67.191  1.00  0.00    -0.238 A  
BRANCH   6   9
HETATM    9  C   UNL     1      -8.175  16.788  67.123  1.00  0.00    -0.184 C  
HETATM   10  C   UNL     1      -9.349  17.395  66.907  1.00  0.00    -0.271 C  
HETATM   11  C   UNL     1      -9.310  18.828  66.540  1.00  0.00    -0.336 C  
HETATM   12  S   UNL     1     -10.654  19.782  66.267  1.00  0.00    -0.405 S  
HETATM   13  S   UNL     1      -7.670  19.432  66.390  1.00  0.00    -0.298 SA 
HETATM   14  S   UNL     1      -6.723  17.737  67.005  1.00  0.00    -0.181 SA 
ENDBRANCH   6   9
ENDBRANCH   2   3
TORSDOF 2
ENDMDL
MODEL      152
REMARK 921   NORMALIZED FREE ENERGY PREDICTED BY IDOCK:   -2.61 KCAL/MOL
REMARK 922        TOTAL FREE ENERGY PREDICTED BY IDOCK:   -3.12 KCAL/MOL
REMARK 923 INTER-LIGAND FREE ENERGY PREDICTED BY IDOCK:   -2.92 KCAL/MOL
REMARK 924 INTRA-LIGAND FREE ENERGY PREDICTED BY IDOCK:   -0.20 KCAL/MOL
REMARK 927      BINDING AFFINITY PREDICTED BY RF-SCORE:    0.00 PKD
ROOT
HETATM    1  C   UNL     1     -10.364  20.152  67.964  1.00  0.00    -0.309 C  
HETATM    2  O   UNL     1     -10.765  19.092  67.097  1.00  0.00    -0.450 OA 
ENDROOT
BRANCH   2   3
HETATM    3  C   UNL     1     -10.207  17.876  67.379  1.00  0.00    -0.360 A  
HETATM    4  C   UNL     1      -9.052  17.693  68.131  1.00  0.00    -0.276 A  
HETATM    5  C   UNL     1      -8.550  16.406  68.343  1.00  0.00    -0.209 A  
HETATM    6  C   UNL     1      -9.178  15.272  67.802  1.00  0.00    -0.187 A  
HETATM    7  C   UNL     1     -10.884  16.760  66.888  1.00  0.00    -0.033 A  
HETATM    8  C   UNL     1     -10.369  15.471  67.086  1.00  0.00    -0.272 A  
BRANCH   6   9
HETATM    9  C   UNL     1      -8.586  13.921  67.964  1.00  0.00    -0.178 C  
HETATM   10  C   UNL     1      -7.590  13.642  68.815  1.00  0.00    -0.079 C  
HETATM   11  C   UNL     1      -7.106  12.245  68.851  1.00  0.00    -0.088 C  
HETATM   12  S   UNL     1      -5.906  11.675  69.864  1.00  0.00    -0.140 S  
HETATM   13  S   UNL     1      -7.920  11.227  67.677  1.00  0.00    -0.123 SA 
HETATM   14  S   UNL     1      -9.251  12.621  67.020  1.00  0.00    -0.216 SA 
ENDBRANCH   6   9
ENDBRANCH   2   3
TORSDOF 2
ENDMDL
MODEL      153
REMARK 921   NORMALIZED FREE ENERGY PREDICTED BY IDOCK:   -2.60 KCAL/MOL
REMARK 922        TOTAL FREE ENERGY PREDICTED BY IDOCK:   -3.10 KCAL/MOL
REMARK 923 INTER-LIGAND FREE ENERGY PREDICTED BY IDOCK:   -2.91 KCAL/MOL
REMARK 924 INTRA-LIGAND FREE ENERGY PREDICTED BY IDOCK:   -0.19 KCAL/MOL
REMARK 927      BINDING AFFINITY PREDICTED BY RF-SCORE:    0.00 PKD
ROOT
HETATM    1  C   UNL     1     -11.756  10.206  71.196  1.00  0.00    -0.366 C  
HETATM    2  O   UNL     1     -12.143   8.844  71.374  1.00  0.00    -0.297 OA 
ENDROOT
BRANCH   2   3
HETATM    3  C   UNL     1     -11.478   7.949  70.583  1.00  0.00    -0.238 A  
HETATM    4  C   UNL     1     -11.627   6.569  70.654  1.00  0.00    -0.442 A  
HETATM    5  C   UNL     1     -10.882   5.737  69.813  1.00  0.00    -0.419 A  
HETATM    6  C   UNL     1      -9.961   6.260  68.889  1.00  0.00    -0.179 A  
HETATM    7  C   UNL     1     -10.620   8.492  69.627  1.00  0.00    -0.221 A  
HETATM    8  C   UNL     1      -9.859   7.657  68.797  1.00  0.00    -0.165 A  
BRANCH   6   9
HETATM    9  C   UNL     1      -9.116   5.363  68.063  1.00  0.00    -0.109 C  
HETATM   10  C   UNL     1      -7.804   5.186  68.263  1.00  0.00    -0.087 C  
HETATM   11  C   UNL     1      -7.102   4.262  67.345  1.00  0.00    -0.067 C  
HETATM   12  S   UNL     1      -5.480   3.868  67.441  1.00  0.00    -0.021 S  
HETATM   13  S   UNL     1      -8.161   3.626  66.101  1.00  0.00    -0.102 SA 
HETATM   14  S   UNL     1      -9.885   4.463  66.790  1.00  0.00    -0.194 SA 
ENDBRANCH   6   9
ENDBRANCH   2   3
TORSDOF 2
ENDMDL
MODEL      154
REMARK 921   NORMALIZED FREE ENERGY PREDICTED BY IDOCK:   -2.59 KCAL/MOL
REMARK 922        TOTAL FREE ENERGY PREDICTED BY IDOCK:   -3.10 KCAL/MOL
REMARK 923 INTER-LIGAND FREE ENERGY PREDICTED BY IDOCK:   -2.91 KCAL/MOL
REMARK 924 INTRA-LIGAND FREE ENERGY PREDICTED BY IDOCK:   -0.18 KCAL/MOL
REMARK 927      BINDING AFFINITY PREDICTED BY RF-SCORE:    0.00 PKD
ROOT
HETATM    1  C   UNL     1     -11.637  11.737  67.949  1.00  0.00    -0.307 C  
HETATM    2  O   UNL     1     -10.432  11.602  68.701  1.00  0.00    -0.203 OA 
ENDROOT
BRANCH   2   3
HETATM    3  C   UNL     1     -10.216  10.357  69.223  1.00  0.00    -0.230 A  
HETATM    4  C   UNL     1      -9.351   9.412  68.681  1.00  0.00    -0.142 A  
HETATM    5  C   UNL     1      -9.219   8.156  69.279  1.00  0.00    -0.151 A  
HETATM    6  C   UNL     1      -9.953   7.805  70.425  1.00  0.00    -0.188 A  
HETATM    7  C   UNL     1     -10.904  10.054  70.398  1.00  0.00    -0.380 A  
HETATM    8  C   UNL     1     -10.784   8.788  70.987  1.00  0.00    -0.290 A  
BRANCH   6   9
HETATM    9  C   UNL     1      -9.866   6.440  70.999  1.00  0.00    -0.180 C  
HETATM   10  C   UNL     1      -9.751   6.191  72.310  1.00  0.00    -0.168 C  
HETATM   11  C   UNL     1      -9.667   4.772  72.720  1.00  0.00    -0.138 C  
HETATM   12  S   UNL     1      -9.560   4.239  74.301  1.00  0.00    -0.117 S  
HETATM   13  S   UNL     1      -9.664   3.680  71.348  1.00  0.00    -0.150 SA 
HETATM   14  S   UNL     1      -9.957   5.090  69.908  1.00  0.00    -0.267 SA 
ENDBRANCH   6   9
ENDBRANCH   2   3
TORSDOF 2
ENDMDL
MODEL      155
REMARK 921   NORMALIZED FREE ENERGY PREDICTED BY IDOCK:   -2.59 KCAL/MOL
REMARK 922        TOTAL FREE ENERGY PREDICTED BY IDOCK:   -3.09 KCAL/MOL
REMARK 923 INTER-LIGAND FREE ENERGY PREDICTED BY IDOCK:   -2.91 KCAL/MOL
REMARK 924 INTRA-LIGAND FREE ENERGY PREDICTED BY IDOCK:   -0.18 KCAL/MOL
REMARK 927      BINDING AFFINITY PREDICTED BY RF-SCORE:    0.00 PKD
ROOT
HETATM    1  C   UNL     1     -11.797  12.977  66.890  1.00  0.00    -0.380 C  
HETATM    2  O   UNL     1     -11.006  12.504  67.979  1.00  0.00    -0.214 OA 
ENDROOT
BRANCH   2   3
HETATM    3  C   UNL     1     -10.598  11.204  67.871  1.00  0.00    -0.198 A  
HETATM    4  C   UNL     1      -9.991  10.657  66.746  1.00  0.00    -0.254 A  
HETATM    5  C   UNL     1      -9.631   9.307  66.728  1.00  0.00    -0.240 A  
HETATM    6  C   UNL     1      -9.878   8.465  67.825  1.00  0.00    -0.218 A  
HETATM    7  C   UNL     1     -10.791  10.402  68.997  1.00  0.00    -0.273 A  
HETATM    8  C   UNL     1     -10.447   9.044  68.971  1.00  0.00    -0.235 A  
BRANCH   6   9
HETATM    9  C   UNL     1      -9.568   7.015  67.760  1.00  0.00    -0.123 C  
HETATM   10  C   UNL     1      -8.461   6.467  68.280  1.00  0.00    -0.116 C  
HETATM   11  C   UNL     1      -8.297   5.005  68.122  1.00  0.00    -0.096 C  
HETATM   12  S   UNL     1      -7.017   4.117  68.727  1.00  0.00    -0.048 S  
HETATM   13  S   UNL     1      -9.598   4.284  67.193  1.00  0.00    -0.186 SA 
HETATM   14  S   UNL     1     -10.727   5.968  66.998  1.00  0.00    -0.335 SA 
ENDBRANCH   6   9
ENDBRANCH   2   3
TORSDOF 2
ENDMDL
MODEL      156
REMARK 921   NORMALIZED FREE ENERGY PREDICTED BY IDOCK:   -2.57 KCAL/MOL
REMARK 922        TOTAL FREE ENERGY PREDICTED BY IDOCK:   -3.07 KCAL/MOL
REMARK 923 INTER-LIGAND FREE ENERGY PREDICTED BY IDOCK:   -2.88 KCAL/MOL
REMARK 924 INTRA-LIGAND FREE ENERGY PREDICTED BY IDOCK:   -0.19 KCAL/MOL
REMARK 927      BINDING AFFINITY PREDICTED BY RF-SCORE:    0.00 PKD
ROOT
HETATM    1  C   UNL     1      -5.485  14.681  71.373  1.00  0.00    -0.113 C  
HETATM    2  O   UNL     1      -5.921  15.397  70.218  1.00  0.00    -0.148 OA 
ENDROOT
BRANCH   2   3
HETATM    3  C   UNL     1      -6.665  14.664  69.335  1.00  0.00    -0.147 A  
HETATM    4  C   UNL     1      -6.242  13.482  68.737  1.00  0.00    -0.090 A  
HETATM    5  C   UNL     1      -7.072  12.819  67.828  1.00  0.00    -0.132 A  
HETATM    6  C   UNL     1      -8.336  13.324  67.482  1.00  0.00    -0.186 A  
HETATM    7  C   UNL     1      -7.943  15.148  69.057  1.00  0.00    -0.188 A  
HETATM    8  C   UNL     1      -8.766  14.493  68.131  1.00  0.00    -0.171 A  
BRANCH   6   9
HETATM    9  C   UNL     1      -9.169  12.656  66.452  1.00  0.00    -0.160 C  
HETATM   10  C   UNL     1     -10.140  13.273  65.766  1.00  0.00    -0.293 C  
HETATM   11  C   UNL     1     -10.886  12.462  64.778  1.00  0.00    -0.304 C  
HETATM   12  S   UNL     1     -12.103  13.041  63.790  1.00  0.00    -0.500 S  
HETATM   13  S   UNL     1     -10.369  10.787  64.764  1.00  0.00    -0.258 SA 
HETATM   14  S   UNL     1      -8.837  10.989  66.091  1.00  0.00    -0.192 SA 
ENDBRANCH   6   9
ENDBRANCH   2   3
TORSDOF 2
ENDMDL
MODEL      157
REMARK 921   NORMALIZED FREE ENERGY PREDICTED BY IDOCK:   -2.57 KCAL/MOL
REMARK 922        TOTAL FREE ENERGY PREDICTED BY IDOCK:   -3.07 KCAL/MOL
REMARK 923 INTER-LIGAND FREE ENERGY PREDICTED BY IDOCK:   -2.89 KCAL/MOL
REMARK 924 INTRA-LIGAND FREE ENERGY PREDICTED BY IDOCK:   -0.18 KCAL/MOL
REMARK 927      BINDING AFFINITY PREDICTED BY RF-SCORE:    0.00 PKD
ROOT
HETATM    1  C   UNL     1      -6.504   9.435  71.065  1.00  0.00    -0.086 C  
HETATM    2  O   UNL     1      -6.046  10.358  70.077  1.00  0.00    -0.059 OA 
ENDROOT
BRANCH   2   3
HETATM    3  C   UNL     1      -6.976  10.702  69.137  1.00  0.00    -0.085 A  
HETATM    4  C   UNL     1      -8.243  10.137  69.035  1.00  0.00    -0.132 A  
HETATM    5  C   UNL     1      -9.114  10.545  68.020  1.00  0.00    -0.138 A  
HETATM    6  C   UNL     1      -8.741  11.516  67.075  1.00  0.00    -0.169 A  
HETATM    7  C   UNL     1      -6.610  11.716  68.251  1.00  0.00    -0.059 A  
HETATM    8  C   UNL     1      -7.477  12.110  67.223  1.00  0.00    -0.152 A  
BRANCH   6   9
HETATM    9  C   UNL     1      -9.643  11.876  65.955  1.00  0.00    -0.231 C  
HETATM   10  C   UNL     1     -10.311  13.035  65.880  1.00  0.00    -0.296 C  
HETATM   11  C   UNL     1     -11.178  13.238  64.699  1.00  0.00    -0.348 C  
HETATM   12  S   UNL     1     -12.063  14.621  64.390  1.00  0.00    -0.385 S  
HETATM   13  S   UNL     1     -11.204  11.838  63.643  1.00  0.00    -0.415 SA 
HETATM   14  S   UNL     1      -9.811  10.743  64.647  1.00  0.00    -0.335 SA 
ENDBRANCH   6   9
ENDBRANCH   2   3
TORSDOF 2
ENDMDL
MODEL      158
REMARK 921   NORMALIZED FREE ENERGY PREDICTED BY IDOCK:   -2.56 KCAL/MOL
REMARK 922        TOTAL FREE ENERGY PREDICTED BY IDOCK:   -3.06 KCAL/MOL
REMARK 923 INTER-LIGAND FREE ENERGY PREDICTED BY IDOCK:   -2.87 KCAL/MOL
REMARK 924 INTRA-LIGAND FREE ENERGY PREDICTED BY IDOCK:   -0.20 KCAL/MOL
REMARK 927      BINDING AFFINITY PREDICTED BY RF-SCORE:    0.00 PKD
ROOT
HETATM    1  C   UNL     1      -6.646  11.198  69.061  1.00  0.00    -0.075 C  
HETATM    2  O   UNL     1      -6.138  12.320  69.782  1.00  0.00    -0.120 OA 
ENDROOT
BRANCH   2   3
HETATM    3  C   UNL     1      -6.560  13.536  69.324  1.00  0.00    -0.103 A  
HETATM    4  C   UNL     1      -7.354  13.725  68.198  1.00  0.00    -0.124 A  
HETATM    5  C   UNL     1      -7.713  15.015  67.800  1.00  0.00    -0.168 A  
HETATM    6  C   UNL     1      -7.280  16.151  68.505  1.00  0.00    -0.144 A  
HETATM    7  C   UNL     1      -6.174  14.645  70.078  1.00  0.00    -0.159 A  
HETATM    8  C   UNL     1      -6.519  15.940  69.667  1.00  0.00    -0.186 A  
BRANCH   6   9
HETATM    9  C   UNL     1      -7.598  17.517  68.022  1.00  0.00    -0.220 C  
HETATM   10  C   UNL     1      -8.701  17.822  67.326  1.00  0.00    -0.241 C  
HETATM   11  C   UNL     1      -8.866  19.232  66.910  1.00  0.00    -0.303 C  
HETATM   12  S   UNL     1     -10.182  19.833  66.073  1.00  0.00    -0.471 S  
HETATM   13  S   UNL     1      -7.498  20.228  67.371  1.00  0.00    -0.320 SA 
HETATM   14  S   UNL     1      -6.492  18.799  68.416  1.00  0.00    -0.232 SA 
ENDBRANCH   6   9
ENDBRANCH   2   3
TORSDOF 2
ENDMDL
MODEL      159
REMARK 921   NORMALIZED FREE ENERGY PREDICTED BY IDOCK:   -2.56 KCAL/MOL
REMARK 922        TOTAL FREE ENERGY PREDICTED BY IDOCK:   -3.06 KCAL/MOL
REMARK 923 INTER-LIGAND FREE ENERGY PREDICTED BY IDOCK:   -2.86 KCAL/MOL
REMARK 924 INTRA-LIGAND FREE ENERGY PREDICTED BY IDOCK:   -0.20 KCAL/MOL
REMARK 927      BINDING AFFINITY PREDICTED BY RF-SCORE:    0.00 PKD
ROOT
HETATM    1  C   UNL     1     -11.022  11.599  64.910  1.00  0.00    -0.284 C  
HETATM    2  O   UNL     1     -11.565  12.208  66.081  1.00  0.00    -0.364 OA 
ENDROOT
BRANCH   2   3
HETATM    3  C   UNL     1     -11.133  13.483  66.320  1.00  0.00    -0.300 A  
HETATM    4  C   UNL     1     -10.092  14.104  65.638  1.00  0.00    -0.350 A  
HETATM    5  C   UNL     1      -9.712  15.407  65.975  1.00  0.00    -0.370 A  
HETATM    6  C   UNL     1     -10.350  16.117  67.005  1.00  0.00    -0.290 A  
HETATM    7  C   UNL     1     -11.824  14.194  67.301  1.00  0.00    -0.452 A  
HETATM    8  C   UNL     1     -11.430  15.493  67.650  1.00  0.00    -0.211 A  
BRANCH   6   9
HETATM    9  C   UNL     1      -9.879  17.465  67.408  1.00  0.00    -0.281 C  
HETATM   10  C   UNL     1     -10.115  18.007  68.610  1.00  0.00    -0.401 C  
HETATM   11  C   UNL     1      -9.583  19.367  68.851  1.00  0.00    -0.415 C  
HETATM   12  S   UNL     1      -9.728  20.208  70.288  1.00  0.00     1.331 S  
HETATM   13  S   UNL     1      -8.790  20.033  67.436  1.00  0.00    -0.354 SA 
HETATM   14  S   UNL     1      -8.937  18.374  66.264  1.00  0.00    -0.118 SA 
ENDBRANCH   6   9
ENDBRANCH   2   3
TORSDOF 2
ENDMDL
MODEL      160
REMARK 921   NORMALIZED FREE ENERGY PREDICTED BY IDOCK:   -2.53 KCAL/MOL
REMARK 922        TOTAL FREE ENERGY PREDICTED BY IDOCK:   -3.03 KCAL/MOL
REMARK 923 INTER-LIGAND FREE ENERGY PREDICTED BY IDOCK:   -2.83 KCAL/MOL
REMARK 924 INTRA-LIGAND FREE ENERGY PREDICTED BY IDOCK:   -0.20 KCAL/MOL
REMARK 927      BINDING AFFINITY PREDICTED BY RF-SCORE:    0.00 PKD
ROOT
HETATM    1  C   UNL     1     -11.524  10.449  70.334  1.00  0.00    -0.337 C  
HETATM    2  O   UNL     1     -11.140  10.760  68.994  1.00  0.00    -0.216 OA 
ENDROOT
BRANCH   2   3
HETATM    3  C   UNL     1     -10.653   9.703  68.277  1.00  0.00    -0.225 A  
HETATM    4  C   UNL     1     -10.366   9.738  66.916  1.00  0.00    -0.301 A  
HETATM    5  C   UNL     1      -9.891   8.593  66.269  1.00  0.00    -0.320 A  
HETATM    6  C   UNL     1      -9.703   7.383  66.958  1.00  0.00    -0.248 A  
HETATM    7  C   UNL     1     -10.409   8.532  68.994  1.00  0.00    -0.229 A  
HETATM    8  C   UNL     1      -9.952   7.379  68.340  1.00  0.00    -0.177 A  
BRANCH   6   9
HETATM    9  C   UNL     1      -9.281   6.155  66.242  1.00  0.00    -0.147 C  
HETATM   10  C   UNL     1      -8.417   6.150  65.218  1.00  0.00    -0.121 C  
HETATM   11  C   UNL     1      -8.105   4.840  64.605  1.00  0.00    -0.107 C  
HETATM   12  S   UNL     1      -7.029   4.605  63.349  1.00  0.00    -0.044 S  
HETATM   13  S   UNL     1      -9.021   3.531  65.329  1.00  0.00    -0.143 SA 
HETATM   14  S   UNL     1      -9.916   4.632  66.789  1.00  0.00    -0.214 SA 
ENDBRANCH   6   9
ENDBRANCH   2   3
TORSDOF 2
ENDMDL
MODEL      161
REMARK 921   NORMALIZED FREE ENERGY PREDICTED BY IDOCK:   -2.51 KCAL/MOL
REMARK 922        TOTAL FREE ENERGY PREDICTED BY IDOCK:   -3.01 KCAL/MOL
REMARK 923 INTER-LIGAND FREE ENERGY PREDICTED BY IDOCK:   -2.80 KCAL/MOL
REMARK 924 INTRA-LIGAND FREE ENERGY PREDICTED BY IDOCK:   -0.21 KCAL/MOL
REMARK 927      BINDING AFFINITY PREDICTED BY RF-SCORE:    0.00 PKD
ROOT
HETATM    1  C   UNL     1      -7.131   9.931  69.452  1.00  0.00    -0.067 C  
HETATM    2  O   UNL     1      -6.463  11.192  69.430  1.00  0.00    -0.076 OA 
ENDROOT
BRANCH   2   3
HETATM    3  C   UNL     1      -7.112  12.175  68.736  1.00  0.00    -0.110 A  
HETATM    4  C   UNL     1      -6.839  13.534  68.849  1.00  0.00    -0.111 A  
HETATM    5  C   UNL     1      -7.577  14.462  68.109  1.00  0.00    -0.128 A  
HETATM    6  C   UNL     1      -8.613  14.061  67.249  1.00  0.00    -0.228 A  
HETATM    7  C   UNL     1      -8.091  11.750  67.837  1.00  0.00    -0.144 A  
HETATM    8  C   UNL     1      -8.843  12.683  67.110  1.00  0.00    -0.204 A  
BRANCH   6   9
HETATM    9  C   UNL     1      -9.444  15.062  66.536  1.00  0.00    -0.282 C  
HETATM   10  C   UNL     1      -9.392  16.379  66.777  1.00  0.00    -0.265 C  
HETATM   11  C   UNL     1     -10.293  17.244  65.984  1.00  0.00    -0.305 C  
HETATM   12  S   UNL     1     -10.360  18.910  66.095  1.00  0.00    -0.428 S  
HETATM   13  S   UNL     1     -11.327  16.322  64.908  1.00  0.00    -0.036 SA 
HETATM   14  S   UNL     1     -10.517  14.494  65.292  1.00  0.00    -0.414 SA 
ENDBRANCH   6   9
ENDBRANCH   2   3
TORSDOF 2
ENDMDL
MODEL      162
REMARK 921   NORMALIZED FREE ENERGY PREDICTED BY IDOCK:   -2.50 KCAL/MOL
REMARK 922        TOTAL FREE ENERGY PREDICTED BY IDOCK:   -2.99 KCAL/MOL
REMARK 923 INTER-LIGAND FREE ENERGY PREDICTED BY IDOCK:   -2.80 KCAL/MOL
REMARK 924 INTRA-LIGAND FREE ENERGY PREDICTED BY IDOCK:   -0.20 KCAL/MOL
REMARK 927      BINDING AFFINITY PREDICTED BY RF-SCORE:    0.00 PKD
ROOT
HETATM    1  C   UNL     1     -11.334  13.140  68.127  1.00  0.00    -0.292 C  
HETATM    2  O   UNL     1     -10.042  12.565  68.321  1.00  0.00    -0.219 OA 
ENDROOT
BRANCH   2   3
HETATM    3  C   UNL     1     -10.011  11.199  68.295  1.00  0.00    -0.187 A  
HETATM    4  C   UNL     1      -9.884  10.390  69.420  1.00  0.00    -0.235 A  
HETATM    5  C   UNL     1      -9.840   9.000  69.284  1.00  0.00    -0.179 A  
HETATM    6  C   UNL     1      -9.908   8.381  68.025  1.00  0.00    -0.202 A  
HETATM    7  C   UNL     1     -10.147  10.603  67.041  1.00  0.00    -0.255 A  
HETATM    8  C   UNL     1     -10.084   9.210  66.905  1.00  0.00    -0.328 A  
BRANCH   6   9
HETATM    9  C   UNL     1      -9.774   6.910  67.889  1.00  0.00    -0.122 C  
HETATM   10  C   UNL     1      -9.669   6.278  66.713  1.00  0.00    -0.193 C  
HETATM   11  C   UNL     1      -9.551   4.803  66.749  1.00  0.00    -0.173 C  
HETATM   12  S   UNL     1      -9.368   3.826  65.406  1.00  0.00    -0.167 S  
HETATM   13  S   UNL     1      -9.650   4.166  68.380  1.00  0.00    -0.087 SA 
HETATM   14  S   UNL     1      -9.715   5.959  69.343  1.00  0.00    -0.159 SA 
ENDBRANCH   6   9
ENDBRANCH   2   3
TORSDOF 2
ENDMDL
MODEL      163
REMARK 921   NORMALIZED FREE ENERGY PREDICTED BY IDOCK:   -2.50 KCAL/MOL
REMARK 922        TOTAL FREE ENERGY PREDICTED BY IDOCK:   -2.99 KCAL/MOL
REMARK 923 INTER-LIGAND FREE ENERGY PREDICTED BY IDOCK:   -2.79 KCAL/MOL
REMARK 924 INTRA-LIGAND FREE ENERGY PREDICTED BY IDOCK:   -0.19 KCAL/MOL
REMARK 927      BINDING AFFINITY PREDICTED BY RF-SCORE:    0.00 PKD
ROOT
HETATM    1  C   UNL     1      -8.131   4.473  66.049  1.00  0.00    -0.103 C  
HETATM    2  O   UNL     1      -8.622   5.303  67.102  1.00  0.00    -0.107 OA 
ENDROOT
BRANCH   2   3
HETATM    3  C   UNL     1      -8.849   6.604  66.750  1.00  0.00    -0.130 A  
HETATM    4  C   UNL     1      -8.378   7.201  65.585  1.00  0.00    -0.138 A  
HETATM    5  C   UNL     1      -8.647   8.548  65.328  1.00  0.00    -0.192 A  
HETATM    6  C   UNL     1      -9.379   9.338  66.230  1.00  0.00    -0.257 A  
HETATM    7  C   UNL     1      -9.635   7.351  67.627  1.00  0.00    -0.164 A  
HETATM    8  C   UNL     1      -9.888   8.707  67.377  1.00  0.00    -0.249 A  
BRANCH   6   9
HETATM    9  C   UNL     1      -9.584  10.786  65.985  1.00  0.00    -0.201 C  
HETATM   10  C   UNL     1      -9.473  11.724  66.935  1.00  0.00    -0.200 C  
HETATM   11  C   UNL     1      -9.716  13.126  66.529  1.00  0.00    -0.268 C  
HETATM   12  S   UNL     1      -9.592  14.450  67.542  1.00  0.00    -0.219 S  
HETATM   13  S   UNL     1     -10.185  13.260  64.844  1.00  0.00    -0.255 SA 
HETATM   14  S   UNL     1      -9.950  11.295  64.364  1.00  0.00    -0.312 SA 
ENDBRANCH   6   9
ENDBRANCH   2   3
TORSDOF 2
ENDMDL
MODEL      164
REMARK 921   NORMALIZED FREE ENERGY PREDICTED BY IDOCK:   -2.47 KCAL/MOL
REMARK 922        TOTAL FREE ENERGY PREDICTED BY IDOCK:   -2.96 KCAL/MOL
REMARK 923 INTER-LIGAND FREE ENERGY PREDICTED BY IDOCK:   -2.78 KCAL/MOL
REMARK 924 INTRA-LIGAND FREE ENERGY PREDICTED BY IDOCK:   -0.18 KCAL/MOL
REMARK 927      BINDING AFFINITY PREDICTED BY RF-SCORE:    0.00 PKD
ROOT
HETATM    1  C   UNL     1      -9.798   7.815  73.138  1.00  0.00    -0.298 C  
HETATM    2  O   UNL     1     -10.796   7.669  72.128  1.00  0.00    -0.224 OA 
ENDROOT
BRANCH   2   3
HETATM    3  C   UNL     1     -10.346   7.152  70.945  1.00  0.00    -0.201 A  
HETATM    4  C   UNL     1      -9.006   7.032  70.594  1.00  0.00    -0.154 A  
HETATM    5  C   UNL     1      -8.650   6.509  69.348  1.00  0.00    -0.134 A  
HETATM    6  C   UNL     1      -9.620   6.105  68.415  1.00  0.00    -0.123 A  
HETATM    7  C   UNL     1     -11.324   6.694  70.062  1.00  0.00    -0.440 A  
HETATM    8  C   UNL     1     -10.967   6.188  68.805  1.00  0.00    -0.421 A  
BRANCH   6   9
HETATM    9  C   UNL     1      -9.230   5.632  67.064  1.00  0.00    -0.117 C  
HETATM   10  C   UNL     1      -8.753   6.435  66.104  1.00  0.00    -0.151 C  
HETATM   11  C   UNL     1      -8.418   5.808  64.807  1.00  0.00    -0.079 C  
HETATM   12  S   UNL     1      -7.774   6.616  63.493  1.00  0.00    -0.104 S  
HETATM   13  S   UNL     1      -8.797   4.096  64.776  1.00  0.00    -0.141 SA 
HETATM   14  S   UNL     1      -9.366   3.933  66.725  1.00  0.00    -0.194 SA 
ENDBRANCH   6   9
ENDBRANCH   2   3
TORSDOF 2
ENDMDL
MODEL      165
REMARK 921   NORMALIZED FREE ENERGY PREDICTED BY IDOCK:   -2.44 KCAL/MOL
REMARK 922        TOTAL FREE ENERGY PREDICTED BY IDOCK:   -2.92 KCAL/MOL
REMARK 923 INTER-LIGAND FREE ENERGY PREDICTED BY IDOCK:   -2.71 KCAL/MOL
REMARK 924 INTRA-LIGAND FREE ENERGY PREDICTED BY IDOCK:   -0.21 KCAL/MOL
REMARK 927      BINDING AFFINITY PREDICTED BY RF-SCORE:    0.00 PKD
ROOT
HETATM    1  C   UNL     1      -6.724   8.460  70.801  1.00  0.00    -0.040 C  
HETATM    2  O   UNL     1      -6.243   8.966  69.556  1.00  0.00    -0.042 OA 
ENDROOT
BRANCH   2   3
HETATM    3  C   UNL     1      -7.070   9.865  68.943  1.00  0.00    -0.071 A  
HETATM    4  C   UNL     1      -6.652  10.832  68.035  1.00  0.00    -0.063 A  
HETATM    5  C   UNL     1      -7.577  11.721  67.480  1.00  0.00    -0.135 A  
HETATM    6  C   UNL     1      -8.938  11.678  67.825  1.00  0.00    -0.170 A  
HETATM    7  C   UNL     1      -8.428   9.761  69.248  1.00  0.00    -0.152 A  
HETATM    8  C   UNL     1      -9.351  10.665  68.706  1.00  0.00    -0.183 A  
BRANCH   6   9
HETATM    9  C   UNL     1      -9.892  12.682  67.294  1.00  0.00    -0.206 C  
HETATM   10  C   UNL     1      -9.529  13.893  66.851  1.00  0.00    -0.263 C  
HETATM   11  C   UNL     1     -10.605  14.781  66.359  1.00  0.00    -0.300 C  
HETATM   12  S   UNL     1     -10.368  16.311  65.729  1.00  0.00    -0.355 S  
HETATM   13  S   UNL     1     -12.195  14.062  66.533  1.00  0.00    -0.398 SA 
HETATM   14  S   UNL     1     -11.572  12.244  67.207  1.00  0.00    -0.338 SA 
ENDBRANCH   6   9
ENDBRANCH   2   3
TORSDOF 2
ENDMDL
MODEL      166
REMARK 921   NORMALIZED FREE ENERGY PREDICTED BY IDOCK:   -2.43 KCAL/MOL
REMARK 922        TOTAL FREE ENERGY PREDICTED BY IDOCK:   -2.91 KCAL/MOL
REMARK 923 INTER-LIGAND FREE ENERGY PREDICTED BY IDOCK:   -2.72 KCAL/MOL
REMARK 924 INTRA-LIGAND FREE ENERGY PREDICTED BY IDOCK:   -0.19 KCAL/MOL
REMARK 927      BINDING AFFINITY PREDICTED BY RF-SCORE:    0.00 PKD
ROOT
HETATM    1  C   UNL     1     -10.089   2.480  72.865  1.00  0.00    -0.137 C  
HETATM    2  O   UNL     1      -9.574   3.629  73.536  1.00  0.00    -0.106 OA 
ENDROOT
BRANCH   2   3
HETATM    3  C   UNL     1      -9.556   4.773  72.788  1.00  0.00    -0.133 A  
HETATM    4  C   UNL     1      -8.460   5.621  72.667  1.00  0.00    -0.120 A  
HETATM    5  C   UNL     1      -8.552   6.781  71.893  1.00  0.00    -0.120 A  
HETATM    6  C   UNL     1      -9.741   7.132  71.230  1.00  0.00    -0.170 A  
HETATM    7  C   UNL     1     -10.724   5.067  72.085  1.00  0.00    -0.227 A  
HETATM    8  C   UNL     1     -10.821   6.240  71.324  1.00  0.00    -0.317 A  
BRANCH   6   9
HETATM    9  C   UNL     1      -9.850   8.408  70.483  1.00  0.00    -0.184 C  
HETATM   10  C   UNL     1     -10.808   9.319  70.701  1.00  0.00    -0.339 C  
HETATM   11  C   UNL     1     -10.781  10.538  69.863  1.00  0.00    -0.247 C  
HETATM   12  S   UNL     1     -11.853  11.813  69.997  1.00  0.00    -0.310 S  
HETATM   13  S   UNL     1      -9.497  10.499  68.669  1.00  0.00    -0.179 SA 
HETATM   14  S   UNL     1      -8.642   8.755  69.282  1.00  0.00    -0.132 SA 
ENDBRANCH   6   9
ENDBRANCH   2   3
TORSDOF 2
ENDMDL
MODEL      167
REMARK 921   NORMALIZED FREE ENERGY PREDICTED BY IDOCK:   -2.42 KCAL/MOL
REMARK 922        TOTAL FREE ENERGY PREDICTED BY IDOCK:   -2.91 KCAL/MOL
REMARK 923 INTER-LIGAND FREE ENERGY PREDICTED BY IDOCK:   -2.70 KCAL/MOL
REMARK 924 INTRA-LIGAND FREE ENERGY PREDICTED BY IDOCK:   -0.20 KCAL/MOL
REMARK 927      BINDING AFFINITY PREDICTED BY RF-SCORE:    0.00 PKD
ROOT
HETATM    1  C   UNL     1      -9.216   2.893  72.991  1.00  0.00    -0.089 C  
HETATM    2  O   UNL     1     -10.462   3.516  72.679  1.00  0.00    -0.162 OA 
ENDROOT
BRANCH   2   3
HETATM    3  C   UNL     1     -10.359   4.743  72.087  1.00  0.00    -0.190 A  
HETATM    4  C   UNL     1     -11.072   5.872  72.478  1.00  0.00    -0.328 A  
HETATM    5  C   UNL     1     -10.911   7.078  71.790  1.00  0.00    -0.250 A  
HETATM    6  C   UNL     1     -10.045   7.187  70.688  1.00  0.00    -0.198 A  
HETATM    7  C   UNL     1      -9.444   4.846  71.039  1.00  0.00    -0.225 A  
HETATM    8  C   UNL     1      -9.297   6.051  70.338  1.00  0.00    -0.177 A  
BRANCH   6   9
HETATM    9  C   UNL     1      -9.948   8.449  69.916  1.00  0.00    -0.190 C  
HETATM   10  C   UNL     1      -9.110   8.630  68.887  1.00  0.00    -0.145 C  
HETATM   11  C   UNL     1      -9.130   9.953  68.226  1.00  0.00    -0.122 C  
HETATM   12  S   UNL     1      -8.198  10.375  66.904  1.00  0.00    -0.126 S  
HETATM   13  S   UNL     1     -10.236  11.070  69.003  1.00  0.00    -0.168 SA 
HETATM   14  S   UNL     1     -11.012   9.754  70.350  1.00  0.00    -0.334 SA 
ENDBRANCH   6   9
ENDBRANCH   2   3
TORSDOF 2
ENDMDL
MODEL      168
REMARK 921   NORMALIZED FREE ENERGY PREDICTED BY IDOCK:   -2.41 KCAL/MOL
REMARK 922        TOTAL FREE ENERGY PREDICTED BY IDOCK:   -2.90 KCAL/MOL
REMARK 923 INTER-LIGAND FREE ENERGY PREDICTED BY IDOCK:   -2.72 KCAL/MOL
REMARK 924 INTRA-LIGAND FREE ENERGY PREDICTED BY IDOCK:   -0.18 KCAL/MOL
REMARK 927      BINDING AFFINITY PREDICTED BY RF-SCORE:    0.00 PKD
ROOT
HETATM    1  C   UNL     1      -7.129   6.830  66.075  1.00  0.00    -0.069 C  
HETATM    2  O   UNL     1      -6.566   7.968  66.727  1.00  0.00    -0.054 OA 
ENDROOT
BRANCH   2   3
HETATM    3  C   UNL     1      -7.349   9.089  66.705  1.00  0.00    -0.086 A  
HETATM    4  C   UNL     1      -8.082   9.561  67.788  1.00  0.00    -0.106 A  
HETATM    5  C   UNL     1      -8.872  10.707  67.655  1.00  0.00    -0.131 A  
HETATM    6  C   UNL     1      -8.962  11.402  66.438  1.00  0.00    -0.196 A  
HETATM    7  C   UNL     1      -7.371   9.801  65.506  1.00  0.00    -0.112 A  
HETATM    8  C   UNL     1      -8.178  10.939  65.369  1.00  0.00    -0.016 A  
BRANCH   6   9
HETATM    9  C   UNL     1      -9.869  12.566  66.288  1.00  0.00    -0.252 C  
HETATM   10  C   UNL     1      -9.484  13.837  66.460  1.00  0.00    -0.282 C  
HETATM   11  C   UNL     1     -10.515  14.884  66.282  1.00  0.00    -0.302 C  
HETATM   12  S   UNL     1     -10.240  16.527  66.409  1.00  0.00    -0.321 S  
HETATM   13  S   UNL     1     -12.097  14.209  65.942  1.00  0.00    -0.426 SA 
HETATM   14  S   UNL     1     -11.517  12.260  65.827  1.00  0.00    -0.368 SA 
ENDBRANCH   6   9
ENDBRANCH   2   3
TORSDOF 2
ENDMDL
MODEL      169
REMARK 921   NORMALIZED FREE ENERGY PREDICTED BY IDOCK:   -2.37 KCAL/MOL
REMARK 922        TOTAL FREE ENERGY PREDICTED BY IDOCK:   -2.85 KCAL/MOL
REMARK 923 INTER-LIGAND FREE ENERGY PREDICTED BY IDOCK:   -2.68 KCAL/MOL
REMARK 924 INTRA-LIGAND FREE ENERGY PREDICTED BY IDOCK:   -0.17 KCAL/MOL
REMARK 927      BINDING AFFINITY PREDICTED BY RF-SCORE:    0.00 PKD
ROOT
HETATM    1  C   UNL     1      -9.152   6.197  73.029  1.00  0.00    -0.130 C  
HETATM    2  O   UNL     1     -10.186   6.174  72.045  1.00  0.00    -0.191 OA 
ENDROOT
BRANCH   2   3
HETATM    3  C   UNL     1     -10.001   7.031  70.996  1.00  0.00    -0.188 A  
HETATM    4  C   UNL     1      -8.862   7.070  70.199  1.00  0.00    -0.145 A  
HETATM    5  C   UNL     1      -8.763   8.002  69.162  1.00  0.00    -0.137 A  
HETATM    6  C   UNL     1      -9.789   8.926  68.902  1.00  0.00    -0.182 A  
HETATM    7  C   UNL     1     -11.060   7.894  70.713  1.00  0.00    -0.264 A  
HETATM    8  C   UNL     1     -10.951   8.840  69.685  1.00  0.00    -0.114 A  
BRANCH   6   9
HETATM    9  C   UNL     1      -9.633   9.964  67.854  1.00  0.00    -0.138 C  
HETATM   10  C   UNL     1      -9.913   9.763  66.560  1.00  0.00    -0.304 C  
HETATM   11  C   UNL     1      -9.695  10.901  65.639  1.00  0.00    -0.232 C  
HETATM   12  S   UNL     1     -10.018  10.878  63.999  1.00  0.00    -0.371 S  
HETATM   13  S   UNL     1      -9.024  12.300  66.455  1.00  0.00    -0.112 SA 
HETATM   14  S   UNL     1      -9.091  11.542  68.344  1.00  0.00    -0.169 SA 
ENDBRANCH   6   9
ENDBRANCH   2   3
TORSDOF 2
ENDMDL
MODEL      170
REMARK 921   NORMALIZED FREE ENERGY PREDICTED BY IDOCK:   -2.37 KCAL/MOL
REMARK 922        TOTAL FREE ENERGY PREDICTED BY IDOCK:   -2.85 KCAL/MOL
REMARK 923 INTER-LIGAND FREE ENERGY PREDICTED BY IDOCK:   -2.66 KCAL/MOL
REMARK 924 INTRA-LIGAND FREE ENERGY PREDICTED BY IDOCK:   -0.19 KCAL/MOL
REMARK 927      BINDING AFFINITY PREDICTED BY RF-SCORE:    0.00 PKD
ROOT
HETATM    1  C   UNL     1     -11.524  10.459  70.341  1.00  0.00    -0.337 C  
HETATM    2  O   UNL     1     -11.208  10.670  68.965  1.00  0.00    -0.230 OA 
ENDROOT
BRANCH   2   3
HETATM    3  C   UNL     1     -10.732   9.569  68.309  1.00  0.00    -0.194 A  
HETATM    4  C   UNL     1     -10.721   8.281  68.833  1.00  0.00    -0.089 A  
HETATM    5  C   UNL     1     -10.190   7.225  68.087  1.00  0.00    -0.222 A  
HETATM    6  C   UNL     1      -9.644   7.427  66.808  1.00  0.00    -0.249 A  
HETATM    7  C   UNL     1     -10.257   9.782  67.015  1.00  0.00    -0.292 A  
HETATM    8  C   UNL     1      -9.707   8.725  66.276  1.00  0.00    -0.342 A  
BRANCH   6   9
HETATM    9  C   UNL     1      -9.007   6.313  66.065  1.00  0.00    -0.137 C  
HETATM   10  C   UNL     1      -9.438   5.045  66.112  1.00  0.00    -0.166 C  
HETATM   11  C   UNL     1      -8.686   4.049  65.317  1.00  0.00    -0.120 C  
HETATM   12  S   UNL     1      -9.076   2.428  65.202  1.00  0.00    -0.104 S  
HETATM   13  S   UNL     1      -7.296   4.751  64.511  1.00  0.00    -0.068 SA 
HETATM   14  S   UNL     1      -7.647   6.684  65.048  1.00  0.00    -0.107 SA 
ENDBRANCH   6   9
ENDBRANCH   2   3
TORSDOF 2
ENDMDL
MODEL      171
REMARK 921   NORMALIZED FREE ENERGY PREDICTED BY IDOCK:   -2.37 KCAL/MOL
REMARK 922        TOTAL FREE ENERGY PREDICTED BY IDOCK:   -2.85 KCAL/MOL
REMARK 923 INTER-LIGAND FREE ENERGY PREDICTED BY IDOCK:   -2.65 KCAL/MOL
REMARK 924 INTRA-LIGAND FREE ENERGY PREDICTED BY IDOCK:   -0.20 KCAL/MOL
REMARK 927      BINDING AFFINITY PREDICTED BY RF-SCORE:    0.00 PKD
ROOT
HETATM    1  C   UNL     1      -5.942   9.659  70.621  1.00  0.00    -0.072 C  
HETATM    2  O   UNL     1      -5.245  10.735  69.995  1.00  0.00    -0.041 OA 
ENDROOT
BRANCH   2   3
HETATM    3  C   UNL     1      -6.038  11.610  69.306  1.00  0.00    -0.078 A  
HETATM    4  C   UNL     1      -6.158  12.965  69.597  1.00  0.00    -0.124 A  
HETATM    5  C   UNL     1      -7.016  13.772  68.844  1.00  0.00    -0.111 A  
HETATM    6  C   UNL     1      -7.785  13.247  67.792  1.00  0.00    -0.159 A  
HETATM    7  C   UNL     1      -6.742  11.082  68.223  1.00  0.00    -0.059 A  
HETATM    8  C   UNL     1      -7.616  11.888  67.481  1.00  0.00    -0.140 A  
BRANCH   6   9
HETATM    9  C   UNL     1      -8.755  14.097  67.058  1.00  0.00    -0.204 C  
HETATM   10  C   UNL     1      -9.827  13.617  66.416  1.00  0.00    -0.302 C  
HETATM   11  C   UNL     1     -10.693  14.598  65.724  1.00  0.00    -0.315 C  
HETATM   12  S   UNL     1     -12.097  14.220  64.900  1.00  0.00    -0.450 S  
HETATM   13  S   UNL     1     -10.068  16.233  65.835  1.00  0.00    -0.352 SA 
HETATM   14  S   UNL     1      -8.500  15.817  67.066  1.00  0.00    -0.243 SA 
ENDBRANCH   6   9
ENDBRANCH   2   3
TORSDOF 2
ENDMDL
MODEL      172
REMARK 921   NORMALIZED FREE ENERGY PREDICTED BY IDOCK:   -2.37 KCAL/MOL
REMARK 922        TOTAL FREE ENERGY PREDICTED BY IDOCK:   -2.85 KCAL/MOL
REMARK 923 INTER-LIGAND FREE ENERGY PREDICTED BY IDOCK:   -2.65 KCAL/MOL
REMARK 924 INTRA-LIGAND FREE ENERGY PREDICTED BY IDOCK:   -0.19 KCAL/MOL
REMARK 927      BINDING AFFINITY PREDICTED BY RF-SCORE:    0.00 PKD
ROOT
HETATM    1  C   UNL     1     -10.237   5.700  68.409  1.00  0.00    -0.191 C  
HETATM    2  O   UNL     1     -11.059   6.765  67.930  1.00  0.00    -0.238 OA 
ENDROOT
BRANCH   2   3
HETATM    3  C   UNL     1     -10.455   7.991  67.905  1.00  0.00    -0.197 A  
HETATM    4  C   UNL     1     -10.246   8.746  66.756  1.00  0.00    -0.354 A  
HETATM    5  C   UNL     1      -9.597   9.981  66.836  1.00  0.00    -0.219 A  
HETATM    6  C   UNL     1      -9.128  10.488  68.059  1.00  0.00    -0.138 A  
HETATM    7  C   UNL     1     -10.057   8.505  69.139  1.00  0.00    -0.207 A  
HETATM    8  C   UNL     1      -9.389   9.735  69.216  1.00  0.00    -0.198 A  
BRANCH   6   9
HETATM    9  C   UNL     1      -8.365  11.760  68.116  1.00  0.00    -0.156 C  
HETATM   10  C   UNL     1      -8.702  12.860  67.431  1.00  0.00    -0.197 C  
HETATM   11  C   UNL     1      -7.831  14.046  67.591  1.00  0.00    -0.176 C  
HETATM   12  S   UNL     1      -8.090  15.527  66.862  1.00  0.00    -0.223 S  
HETATM   13  S   UNL     1      -6.452  13.725  68.626  1.00  0.00    -0.103 SA 
HETATM   14  S   UNL     1      -6.979  11.832  69.162  1.00  0.00    -0.059 SA 
ENDBRANCH   6   9
ENDBRANCH   2   3
TORSDOF 2
ENDMDL
MODEL      173
REMARK 921   NORMALIZED FREE ENERGY PREDICTED BY IDOCK:   -2.34 KCAL/MOL
REMARK 922        TOTAL FREE ENERGY PREDICTED BY IDOCK:   -2.81 KCAL/MOL
REMARK 923 INTER-LIGAND FREE ENERGY PREDICTED BY IDOCK:   -2.62 KCAL/MOL
REMARK 924 INTRA-LIGAND FREE ENERGY PREDICTED BY IDOCK:   -0.19 KCAL/MOL
REMARK 927      BINDING AFFINITY PREDICTED BY RF-SCORE:    0.00 PKD
ROOT
HETATM    1  C   UNL     1      -5.224  13.331  67.902  1.00  0.00    -0.103 C  
HETATM    2  O   UNL     1      -6.410  13.251  67.113  1.00  0.00    -0.250 OA 
ENDROOT
BRANCH   2   3
HETATM    3  C   UNL     1      -7.247  12.219  67.434  1.00  0.00    -0.147 A  
HETATM    4  C   UNL     1      -8.367  12.336  68.250  1.00  0.00    -0.174 A  
HETATM    5  C   UNL     1      -9.147  11.211  68.537  1.00  0.00    -0.175 A  
HETATM    6  C   UNL     1      -8.824   9.942  68.028  1.00  0.00    -0.125 A  
HETATM    7  C   UNL     1      -6.946  10.982  66.864  1.00  0.00    -0.125 A  
HETATM    8  C   UNL     1      -7.718   9.852  67.167  1.00  0.00    -0.092 A  
BRANCH   6   9
HETATM    9  C   UNL     1      -9.611   8.744  68.410  1.00  0.00    -0.147 C  
HETATM   10  C   UNL     1      -9.999   8.477  69.664  1.00  0.00    -0.192 C  
HETATM   11  C   UNL     1     -10.772   7.234  69.879  1.00  0.00    -0.242 C  
HETATM   12  S   UNL     1     -11.386   6.734  71.351  1.00  0.00    -0.296 S  
HETATM   13  S   UNL     1     -10.962   6.304  68.405  1.00  0.00    -0.273 SA 
HETATM   14  S   UNL     1     -10.086   7.646  67.149  1.00  0.00    -0.282 SA 
ENDBRANCH   6   9
ENDBRANCH   2   3
TORSDOF 2
ENDMDL
MODEL      174
REMARK 921   NORMALIZED FREE ENERGY PREDICTED BY IDOCK:   -2.30 KCAL/MOL
REMARK 922        TOTAL FREE ENERGY PREDICTED BY IDOCK:   -2.76 KCAL/MOL
REMARK 923 INTER-LIGAND FREE ENERGY PREDICTED BY IDOCK:   -2.56 KCAL/MOL
REMARK 924 INTRA-LIGAND FREE ENERGY PREDICTED BY IDOCK:   -0.20 KCAL/MOL
REMARK 927      BINDING AFFINITY PREDICTED BY RF-SCORE:    0.00 PKD
ROOT
HETATM    1  C   UNL     1      -8.268   1.736  66.461  1.00  0.00    -0.084 C  
HETATM    2  O   UNL     1      -9.194   2.477  67.255  1.00  0.00    -0.161 OA 
ENDROOT
BRANCH   2   3
HETATM    3  C   UNL     1      -9.232   3.818  66.994  1.00  0.00    -0.181 A  
HETATM    4  C   UNL     1      -8.393   4.472  66.099  1.00  0.00    -0.113 A  
HETATM    5  C   UNL     1      -8.497   5.855  65.920  1.00  0.00    -0.141 A  
HETATM    6  C   UNL     1      -9.430   6.621  66.638  1.00  0.00    -0.201 A  
HETATM    7  C   UNL     1     -10.211   4.549  67.667  1.00  0.00    -0.001 A  
HETATM    8  C   UNL     1     -10.302   5.938  67.502  1.00  0.00    -0.269 A  
BRANCH   6   9
HETATM    9  C   UNL     1      -9.472   8.098  66.502  1.00  0.00    -0.221 C  
HETATM   10  C   UNL     1     -10.403   8.872  67.074  1.00  0.00    -0.340 C  
HETATM   11  C   UNL     1     -10.309  10.329  66.833  1.00  0.00    -0.239 C  
HETATM   12  S   UNL     1     -11.339  11.473  67.482  1.00  0.00    -0.285 S  
HETATM   13  S   UNL     1      -8.992  10.741  65.751  1.00  0.00    -0.191 SA 
HETATM   14  S   UNL     1      -8.217   8.866  65.576  1.00  0.00    -0.137 SA 
ENDBRANCH   6   9
ENDBRANCH   2   3
TORSDOF 2
ENDMDL
MODEL      175
REMARK 921   NORMALIZED FREE ENERGY PREDICTED BY IDOCK:   -2.24 KCAL/MOL
REMARK 922        TOTAL FREE ENERGY PREDICTED BY IDOCK:   -2.71 KCAL/MOL
REMARK 923 INTER-LIGAND FREE ENERGY PREDICTED BY IDOCK:   -2.51 KCAL/MOL
REMARK 924 INTRA-LIGAND FREE ENERGY PREDICTED BY IDOCK:   -0.20 KCAL/MOL
REMARK 927      BINDING AFFINITY PREDICTED BY RF-SCORE:    0.00 PKD
ROOT
HETATM    1  C   UNL     1     -11.768   6.812  72.133  1.00  0.00    -0.297 C  
HETATM    2  O   UNL     1     -11.363   8.062  71.575  1.00  0.00    -0.248 OA 
ENDROOT
BRANCH   2   3
HETATM    3  C   UNL     1     -10.777   7.978  70.343  1.00  0.00    -0.233 A  
HETATM    4  C   UNL     1     -10.495   6.788  69.681  1.00  0.00    -0.243 A  
HETATM    5  C   UNL     1      -9.872   6.809  68.431  1.00  0.00    -0.136 A  
HETATM    6  C   UNL     1      -9.502   8.016  67.813  1.00  0.00    -0.166 A  
HETATM    7  C   UNL     1     -10.480   9.190  69.718  1.00  0.00    -0.234 A  
HETATM    8  C   UNL     1      -9.838   9.210  68.473  1.00  0.00    -0.178 A  
BRANCH   6   9
HETATM    9  C   UNL     1      -8.765   8.021  66.526  1.00  0.00    -0.146 C  
HETATM   10  C   UNL     1      -8.625   9.105  65.752  1.00  0.00    -0.171 C  
HETATM   11  C   UNL     1      -7.866   8.941  64.493  1.00  0.00    -0.126 C  
HETATM   12  S   UNL     1      -7.541  10.168  63.406  1.00  0.00    -0.119 S  
HETATM   13  S   UNL     1      -7.353   7.284  64.235  1.00  0.00    -0.093 SA 
HETATM   14  S   UNL     1      -8.009   6.541  66.015  1.00  0.00    -0.118 SA 
ENDBRANCH   6   9
ENDBRANCH   2   3
TORSDOF 2
ENDMDL
MODEL      176
REMARK 921   NORMALIZED FREE ENERGY PREDICTED BY IDOCK:   -2.22 KCAL/MOL
REMARK 922        TOTAL FREE ENERGY PREDICTED BY IDOCK:   -2.68 KCAL/MOL
REMARK 923 INTER-LIGAND FREE ENERGY PREDICTED BY IDOCK:   -2.50 KCAL/MOL
REMARK 924 INTRA-LIGAND FREE ENERGY PREDICTED BY IDOCK:   -0.18 KCAL/MOL
REMARK 927      BINDING AFFINITY PREDICTED BY RF-SCORE:    0.00 PKD
ROOT
HETATM    1  C   UNL     1     -12.622  12.241  63.827  1.00  0.00    -0.470 C  
HETATM    2  O   UNL     1     -12.535  11.729  65.156  1.00  0.00    -0.172 OA 
ENDROOT
BRANCH   2   3
HETATM    3  C   UNL     1     -11.374  12.029  65.813  1.00  0.00    -0.331 A  
HETATM    4  C   UNL     1     -10.290  12.687  65.240  1.00  0.00    -0.309 A  
HETATM    5  C   UNL     1      -9.137  12.927  65.993  1.00  0.00     0.150 A  
HETATM    6  C   UNL     1      -9.029  12.507  67.330  1.00  0.00    -0.192 A  
HETATM    7  C   UNL     1     -11.314  11.664  67.158  1.00  0.00    -0.373 A  
HETATM    8  C   UNL     1     -10.151  11.888  67.906  1.00  0.00    -0.199 A  
BRANCH   6   9
HETATM    9  C   UNL     1      -7.769  12.692  68.089  1.00  0.00    -0.142 C  
HETATM   10  C   UNL     1      -7.494  13.781  68.819  1.00  0.00    -0.098 C  
HETATM   11  C   UNL     1      -6.186  13.815  69.511  1.00  0.00    -0.116 C  
HETATM   12  S   UNL     1      -5.661  15.054  70.502  1.00  0.00    -0.118 S  
HETATM   13  S   UNL     1      -5.208  12.403  69.157  1.00  0.00    -0.068 SA 
HETATM   14  S   UNL     1      -6.601  11.405  68.056  1.00  0.00    -0.060 SA 
ENDBRANCH   6   9
ENDBRANCH   2   3
TORSDOF 2
ENDMDL
MODEL      177
REMARK 921   NORMALIZED FREE ENERGY PREDICTED BY IDOCK:   -2.16 KCAL/MOL
REMARK 922        TOTAL FREE ENERGY PREDICTED BY IDOCK:   -2.62 KCAL/MOL
REMARK 923 INTER-LIGAND FREE ENERGY PREDICTED BY IDOCK:   -2.43 KCAL/MOL
REMARK 924 INTRA-LIGAND FREE ENERGY PREDICTED BY IDOCK:   -0.19 KCAL/MOL
REMARK 927      BINDING AFFINITY PREDICTED BY RF-SCORE:    0.00 PKD
ROOT
HETATM    1  C   UNL     1      -8.982   2.677  72.347  1.00  0.00    -0.081 C  
HETATM    2  O   UNL     1     -10.158   3.384  71.953  1.00  0.00    -0.160 OA 
ENDROOT
BRANCH   2   3
HETATM    3  C   UNL     1      -9.936   4.460  71.140  1.00  0.00    -0.173 A  
HETATM    4  C   UNL     1      -9.056   4.470  70.063  1.00  0.00    -0.161 A  
HETATM    5  C   UNL     1      -8.885   5.632  69.307  1.00  0.00    -0.112 A  
HETATM    6  C   UNL     1      -9.575   6.818  69.612  1.00  0.00    -0.150 A  
HETATM    7  C   UNL     1     -10.682   5.606  71.419  1.00  0.00    -0.310 A  
HETATM    8  C   UNL     1     -10.495   6.776  70.672  1.00  0.00    -0.243 A  
BRANCH   6   9
HETATM    9  C   UNL     1      -9.319   8.066  68.853  1.00  0.00    -0.150 C  
HETATM   10  C   UNL     1     -10.282   8.918  68.475  1.00  0.00    -0.223 C  
HETATM   11  C   UNL     1      -9.861  10.116  67.716  1.00  0.00    -0.163 C  
HETATM   12  S   UNL     1     -10.890  11.321  67.185  1.00  0.00    -0.283 S  
HETATM   13  S   UNL     1      -8.136  10.132  67.399  1.00  0.00    -0.114 SA 
HETATM   14  S   UNL     1      -7.671   8.463  68.468  1.00  0.00    -0.105 SA 
ENDBRANCH   6   9
ENDBRANCH   2   3
TORSDOF 2
ENDMDL
MODEL      178
REMARK 921   NORMALIZED FREE ENERGY PREDICTED BY IDOCK:   -2.09 KCAL/MOL
REMARK 922        TOTAL FREE ENERGY PREDICTED BY IDOCK:   -2.53 KCAL/MOL
REMARK 923 INTER-LIGAND FREE ENERGY PREDICTED BY IDOCK:   -2.33 KCAL/MOL
REMARK 924 INTRA-LIGAND FREE ENERGY PREDICTED BY IDOCK:   -0.21 KCAL/MOL
REMARK 927      BINDING AFFINITY PREDICTED BY RF-SCORE:    0.00 PKD
ROOT
HETATM    1  C   UNL     1      -9.722   9.992  66.591  1.00  0.00    -0.194 C  
HETATM    2  O   UNL     1      -8.967   8.782  66.623  1.00  0.00    -0.128 OA 
ENDROOT
BRANCH   2   3
HETATM    3  C   UNL     1      -9.057   8.079  67.792  1.00  0.00    -0.131 A  
HETATM    4  C   UNL     1      -8.356   6.909  68.067  1.00  0.00    -0.121 A  
HETATM    5  C   UNL     1      -8.537   6.253  69.287  1.00  0.00    -0.124 A  
HETATM    6  C   UNL     1      -9.429   6.737  70.259  1.00  0.00    -0.164 A  
HETATM    7  C   UNL     1      -9.897   8.614  68.769  1.00  0.00    -0.180 A  
HETATM    8  C   UNL     1     -10.091   7.945  69.985  1.00  0.00    -0.199 A  
BRANCH   6   9
HETATM    9  C   UNL     1      -9.673   5.984  71.513  1.00  0.00    -0.163 C  
HETATM   10  C   UNL     1      -8.769   5.179  72.086  1.00  0.00    -0.132 C  
HETATM   11  C   UNL     1      -9.173   4.492  73.333  1.00  0.00    -0.113 C  
HETATM   12  S   UNL     1      -8.190   3.480  74.228  1.00  0.00    -0.078 S  
HETATM   13  S   UNL     1     -10.835   4.834  73.774  1.00  0.00    -0.298 SA 
HETATM   14  S   UNL     1     -11.209   6.190  72.301  1.00  0.00    -0.302 SA 
ENDBRANCH   6   9
ENDBRANCH   2   3
TORSDOF 2
ENDMDL
MODEL      179
REMARK 921   NORMALIZED FREE ENERGY PREDICTED BY IDOCK:   -2.00 KCAL/MOL
REMARK 922        TOTAL FREE ENERGY PREDICTED BY IDOCK:   -2.43 KCAL/MOL
REMARK 923 INTER-LIGAND FREE ENERGY PREDICTED BY IDOCK:   -2.23 KCAL/MOL
REMARK 924 INTRA-LIGAND FREE ENERGY PREDICTED BY IDOCK:   -0.20 KCAL/MOL
REMARK 927      BINDING AFFINITY PREDICTED BY RF-SCORE:    0.00 PKD
ROOT
HETATM    1  C   UNL     1      -5.869  13.476  70.543  1.00  0.00    -0.164 C  
HETATM    2  O   UNL     1      -6.443  13.246  69.257  1.00  0.00    -0.103 OA 
ENDROOT
BRANCH   2   3
HETATM    3  C   UNL     1      -7.090  12.050  69.122  1.00  0.00    -0.032 A  
HETATM    4  C   UNL     1      -6.760  10.890  69.815  1.00  0.00    -0.144 A  
HETATM    5  C   UNL     1      -7.472   9.709  69.587  1.00  0.00    -0.102 A  
HETATM    6  C   UNL     1      -8.521   9.650  68.654  1.00  0.00    -0.119 A  
HETATM    7  C   UNL     1      -8.171  12.031  68.241  1.00  0.00    -0.161 A  
HETATM    8  C   UNL     1      -8.872  10.841  67.999  1.00  0.00    -0.132 A  
BRANCH   6   9
HETATM    9  C   UNL     1      -9.210   8.369  68.361  1.00  0.00    -0.135 C  
HETATM   10  C   UNL     1      -9.014   7.242  69.058  1.00  0.00    -0.134 C  
HETATM   11  C   UNL     1      -9.774   6.046  68.632  1.00  0.00    -0.127 C  
HETATM   12  S   UNL     1      -9.710   4.556  69.384  1.00  0.00    -0.189 S  
HETATM   13  S   UNL     1     -10.753   6.351  67.209  1.00  0.00    -0.394 SA 
HETATM   14  S   UNL     1     -10.365   8.345  67.063  1.00  0.00    -0.301 SA 
ENDBRANCH   6   9
ENDBRANCH   2   3
TORSDOF 2
ENDMDL
MODEL      180
REMARK 921   NORMALIZED FREE ENERGY PREDICTED BY IDOCK:   -1.99 KCAL/MOL
REMARK 922        TOTAL FREE ENERGY PREDICTED BY IDOCK:   -2.42 KCAL/MOL
REMARK 923 INTER-LIGAND FREE ENERGY PREDICTED BY IDOCK:   -2.22 KCAL/MOL
REMARK 924 INTRA-LIGAND FREE ENERGY PREDICTED BY IDOCK:   -0.20 KCAL/MOL
REMARK 927      BINDING AFFINITY PREDICTED BY RF-SCORE:    0.00 PKD
ROOT
HETATM    1  C   UNL     1      -8.607   8.977  62.924  1.00  0.00    -0.177 C  
HETATM    2  O   UNL     1      -9.068   9.911  63.899  1.00  0.00    -0.236 OA 
ENDROOT
BRANCH   2   3
HETATM    3  C   UNL     1      -9.055   9.452  65.187  1.00  0.00    -0.225 A  
HETATM    4  C   UNL     1      -9.283   8.130  65.556  1.00  0.00     0.045 A  
HETATM    5  C   UNL     1      -9.271   7.766  66.905  1.00  0.00    -0.187 A  
HETATM    6  C   UNL     1      -9.044   8.711  67.921  1.00  0.00    -0.145 A  
HETATM    7  C   UNL     1      -8.762  10.393  66.174  1.00  0.00    -0.163 A  
HETATM    8  C   UNL     1      -8.768  10.030  67.527  1.00  0.00    -0.125 A  
BRANCH   6   9
HETATM    9  C   UNL     1      -9.118   8.326  69.351  1.00  0.00    -0.154 C  
HETATM   10  C   UNL     1      -9.284   7.066  69.775  1.00  0.00    -0.147 C  
HETATM   11  C   UNL     1      -9.346   6.850  71.238  1.00  0.00    -0.164 C  
HETATM   12  S   UNL     1      -9.507   5.361  71.978  1.00  0.00    -0.148 S  
HETATM   13  S   UNL     1      -9.258   8.353  72.138  1.00  0.00    -0.261 SA 
HETATM   14  S   UNL     1      -8.942   9.579  70.543  1.00  0.00    -0.137 SA 
ENDBRANCH   6   9
ENDBRANCH   2   3
TORSDOF 2
ENDMDL
MODEL      181
REMARK 921   NORMALIZED FREE ENERGY PREDICTED BY IDOCK:   -1.95 KCAL/MOL
REMARK 922        TOTAL FREE ENERGY PREDICTED BY IDOCK:   -2.38 KCAL/MOL
REMARK 923 INTER-LIGAND FREE ENERGY PREDICTED BY IDOCK:   -2.19 KCAL/MOL
REMARK 924 INTRA-LIGAND FREE ENERGY PREDICTED BY IDOCK:   -0.20 KCAL/MOL
REMARK 927      BINDING AFFINITY PREDICTED BY RF-SCORE:    0.00 PKD
ROOT
HETATM    1  C   UNL     1      -9.719   9.982  66.584  1.00  0.00    -0.194 C  
HETATM    2  O   UNL     1      -8.958   8.777  66.506  1.00  0.00    -0.133 OA 
ENDROOT
BRANCH   2   3
HETATM    3  C   UNL     1      -9.061   7.961  67.598  1.00  0.00    -0.133 A  
HETATM    4  C   UNL     1     -10.172   7.893  68.431  1.00  0.00    -0.232 A  
HETATM    5  C   UNL     1     -10.169   7.039  69.538  1.00  0.00    -0.208 A  
HETATM    6  C   UNL     1      -9.055   6.242  69.849  1.00  0.00    -0.145 A  
HETATM    7  C   UNL     1      -7.970   7.128  67.849  1.00  0.00    -0.115 A  
HETATM    8  C   UNL     1      -7.960   6.287  68.970  1.00  0.00    -0.110 A  
BRANCH   6   9
HETATM    9  C   UNL     1      -9.033   5.405  71.074  1.00  0.00    -0.139 C  
HETATM   10  C   UNL     1     -10.130   4.877  71.634  1.00  0.00    -0.266 C  
HETATM   11  C   UNL     1      -9.938   4.072  72.860  1.00  0.00    -0.148 C  
HETATM   12  S   UNL     1     -11.161   3.293  73.692  1.00  0.00    -0.175 S  
HETATM   13  S   UNL     1      -8.264   4.038  73.381  1.00  0.00    -0.090 SA 
HETATM   14  S   UNL     1      -7.491   5.062  71.800  1.00  0.00    -0.098 SA 
ENDBRANCH   6   9
ENDBRANCH   2   3
TORSDOF 2
ENDMDL
MODEL      182
REMARK 921   NORMALIZED FREE ENERGY PREDICTED BY IDOCK:   -1.93 KCAL/MOL
REMARK 922        TOTAL FREE ENERGY PREDICTED BY IDOCK:   -2.36 KCAL/MOL
REMARK 923 INTER-LIGAND FREE ENERGY PREDICTED BY IDOCK:   -2.16 KCAL/MOL
REMARK 924 INTRA-LIGAND FREE ENERGY PREDICTED BY IDOCK:   -0.20 KCAL/MOL
REMARK 927      BINDING AFFINITY PREDICTED BY RF-SCORE:    0.00 PKD
ROOT
HETATM    1  C   UNL     1      -8.680   1.685  66.975  1.00  0.00    -0.110 C  
HETATM    2  O   UNL     1      -9.380   2.418  67.980  1.00  0.00    -0.193 OA 
ENDROOT
BRANCH   2   3
HETATM    3  C   UNL     1      -9.294   3.777  67.865  1.00  0.00    -0.186 A  
HETATM    4  C   UNL     1     -10.006   4.682  68.645  1.00  0.00    -0.140 A  
HETATM    5  C   UNL     1      -9.863   6.057  68.433  1.00  0.00    -0.152 A  
HETATM    6  C   UNL     1      -9.019   6.563  67.430  1.00  0.00    -0.110 A  
HETATM    7  C   UNL     1      -8.400   4.259  66.909  1.00  0.00    -0.101 A  
HETATM    8  C   UNL     1      -8.272   5.637  66.684  1.00  0.00    -0.105 A  
BRANCH   6   9
HETATM    9  C   UNL     1      -8.943   8.019  67.160  1.00  0.00    -0.135 C  
HETATM   10  C   UNL     1      -9.229   8.572  65.974  1.00  0.00    -0.262 C  
HETATM   11  C   UNL     1      -9.095  10.042  65.866  1.00  0.00    -0.159 C  
HETATM   12  S   UNL     1      -9.439  10.934  64.495  1.00  0.00    -0.256 S  
HETATM   13  S   UNL     1      -8.501  10.768  67.347  1.00  0.00    -0.120 SA 
HETATM   14  S   UNL     1      -8.494   9.069  68.471  1.00  0.00    -0.129 SA 
ENDBRANCH   6   9
ENDBRANCH   2   3
TORSDOF 2
ENDMDL
MODEL      183
REMARK 921   NORMALIZED FREE ENERGY PREDICTED BY IDOCK:   -1.93 KCAL/MOL
REMARK 922        TOTAL FREE ENERGY PREDICTED BY IDOCK:   -2.35 KCAL/MOL
REMARK 923 INTER-LIGAND FREE ENERGY PREDICTED BY IDOCK:   -2.16 KCAL/MOL
REMARK 924 INTRA-LIGAND FREE ENERGY PREDICTED BY IDOCK:   -0.19 KCAL/MOL
REMARK 927      BINDING AFFINITY PREDICTED BY RF-SCORE:    0.00 PKD
ROOT
HETATM    1  C   UNL     1      -9.847   7.638  72.777  1.00  0.00    -0.226 C  
HETATM    2  O   UNL     1     -10.453   8.634  71.954  1.00  0.00    -0.284 OA 
ENDROOT
BRANCH   2   3
HETATM    3  C   UNL     1      -9.960   8.704  70.680  1.00  0.00    -0.192 A  
HETATM    4  C   UNL     1     -10.701   8.450  69.531  1.00  0.00    -0.181 A  
HETATM    5  C   UNL     1     -10.096   8.528  68.274  1.00  0.00    -0.225 A  
HETATM    6  C   UNL     1      -8.736   8.847  68.130  1.00  0.00    -0.134 A  
HETATM    7  C   UNL     1      -8.625   9.089  70.557  1.00  0.00    -0.229 A  
HETATM    8  C   UNL     1      -8.014   9.148  69.297  1.00  0.00    -0.097 A  
BRANCH   6   9
HETATM    9  C   UNL     1      -8.087   8.842  66.796  1.00  0.00    -0.111 C  
HETATM   10  C   UNL     1      -8.018   7.762  66.007  1.00  0.00    -0.108 C  
HETATM   11  C   UNL     1      -7.329   7.921  64.707  1.00  0.00    -0.082 C  
HETATM   12  S   UNL     1      -7.165   6.718  63.559  1.00  0.00    -0.072 S  
HETATM   13  S   UNL     1      -6.662   9.530  64.498  1.00  0.00    -0.101 SA 
HETATM   14  S   UNL     1      -7.414  10.334  66.211  1.00  0.00    -0.124 SA 
ENDBRANCH   6   9
ENDBRANCH   2   3
TORSDOF 2
ENDMDL
MODEL      184
REMARK 921   NORMALIZED FREE ENERGY PREDICTED BY IDOCK:   -1.86 KCAL/MOL
REMARK 922        TOTAL FREE ENERGY PREDICTED BY IDOCK:   -2.28 KCAL/MOL
REMARK 923 INTER-LIGAND FREE ENERGY PREDICTED BY IDOCK:   -2.07 KCAL/MOL
REMARK 924 INTRA-LIGAND FREE ENERGY PREDICTED BY IDOCK:   -0.21 KCAL/MOL
REMARK 927      BINDING AFFINITY PREDICTED BY RF-SCORE:    0.00 PKD
ROOT
HETATM    1  C   UNL     1      -7.478   8.618  62.726  1.00  0.00    -0.103 C  
HETATM    2  O   UNL     1      -8.689   8.824  63.452  1.00  0.00    -0.116 OA 
ENDROOT
BRANCH   2   3
HETATM    3  C   UNL     1      -8.608   9.747  64.457  1.00  0.00    -0.184 A  
HETATM    4  C   UNL     1      -9.583  10.697  64.738  1.00  0.00    -0.334 A  
HETATM    5  C   UNL     1      -9.393  11.613  65.776  1.00  0.00    -0.220 A  
HETATM    6  C   UNL     1      -8.221  11.614  66.552  1.00  0.00    -0.101 A  
HETATM    7  C   UNL     1      -7.466   9.687  65.257  1.00  0.00    -0.113 A  
HETATM    8  C   UNL     1      -7.268  10.618  66.286  1.00  0.00    -0.137 A  
BRANCH   6   9
HETATM    9  C   UNL     1      -7.996  12.646  67.594  1.00  0.00    -0.169 C  
HETATM   10  C   UNL     1      -8.901  13.575  67.929  1.00  0.00    -0.190 C  
HETATM   11  C   UNL     1      -8.518  14.539  68.984  1.00  0.00    -0.048 C  
HETATM   12  S   UNL     1      -9.507  15.747  69.579  1.00  0.00    -0.191 S  
HETATM   13  S   UNL     1      -6.874  14.297  69.542  1.00  0.00    -0.075 SA 
HETATM   14  S   UNL     1      -6.485  12.621  68.452  1.00  0.00    -0.088 SA 
ENDBRANCH   6   9
ENDBRANCH   2   3
TORSDOF 2
ENDMDL
MODEL      185
REMARK 921   NORMALIZED FREE ENERGY PREDICTED BY IDOCK:   -1.80 KCAL/MOL
REMARK 922        TOTAL FREE ENERGY PREDICTED BY IDOCK:   -2.21 KCAL/MOL
REMARK 923 INTER-LIGAND FREE ENERGY PREDICTED BY IDOCK:   -2.04 KCAL/MOL
REMARK 924 INTRA-LIGAND FREE ENERGY PREDICTED BY IDOCK:   -0.18 KCAL/MOL
REMARK 927      BINDING AFFINITY PREDICTED BY RF-SCORE:    0.00 PKD
ROOT
HETATM    1  C   UNL     1      -8.349   5.533  74.560  1.00  0.00    -0.105 C  
HETATM    2  O   UNL     1      -9.497   6.089  73.919  1.00  0.00    -0.134 OA 
ENDROOT
BRANCH   2   3
HETATM    3  C   UNL     1      -9.270   6.594  72.670  1.00  0.00    -0.139 A  
HETATM    4  C   UNL     1      -9.506   5.907  71.484  1.00  0.00    -0.171 A  
HETATM    5  C   UNL     1      -9.219   6.507  70.255  1.00  0.00    -0.156 A  
HETATM    6  C   UNL     1      -8.677   7.801  70.177  1.00  0.00    -0.140 A  
HETATM    7  C   UNL     1      -8.796   7.905  72.613  1.00  0.00    -0.235 A  
HETATM    8  C   UNL     1      -8.491   8.499  71.381  1.00  0.00    -0.218 A  
BRANCH   6   9
HETATM    9  C   UNL     1      -8.298   8.392  68.870  1.00  0.00    -0.119 C  
HETATM   10  C   UNL     1      -8.934   9.429  68.309  1.00  0.00    -0.128 C  
HETATM   11  C   UNL     1      -8.436   9.894  66.996  1.00  0.00    -0.121 C  
HETATM   12  S   UNL     1      -9.055  11.192  66.145  1.00  0.00    -0.205 S  
HETATM   13  S   UNL     1      -7.116   8.908  66.396  1.00  0.00    -0.084 SA 
HETATM   14  S   UNL     1      -6.926   7.720  68.040  1.00  0.00    -0.082 SA 
ENDBRANCH   6   9
ENDBRANCH   2   3
TORSDOF 2
ENDMDL
MODEL      186
REMARK 921   NORMALIZED FREE ENERGY PREDICTED BY IDOCK:   -1.63 KCAL/MOL
REMARK 922        TOTAL FREE ENERGY PREDICTED BY IDOCK:   -2.02 KCAL/MOL
REMARK 923 INTER-LIGAND FREE ENERGY PREDICTED BY IDOCK:   -1.81 KCAL/MOL
REMARK 924 INTRA-LIGAND FREE ENERGY PREDICTED BY IDOCK:   -0.21 KCAL/MOL
REMARK 927      BINDING AFFINITY PREDICTED BY RF-SCORE:    0.00 PKD
ROOT
HETATM    1  C   UNL     1      -8.352   9.808  64.901  1.00  0.00    -0.148 C  
HETATM    2  O   UNL     1      -7.583   8.618  65.068  1.00  0.00    -0.091 OA 
ENDROOT
BRANCH   2   3
HETATM    3  C   UNL     1      -7.745   7.993  66.273  1.00  0.00    -0.091 A  
HETATM    4  C   UNL     1      -7.127   6.801  66.635  1.00  0.00    -0.072 A  
HETATM    5  C   UNL     1      -7.378   6.231  67.886  1.00  0.00    -0.088 A  
HETATM    6  C   UNL     1      -8.261   6.828  68.803  1.00  0.00    -0.121 A  
HETATM    7  C   UNL     1      -8.573   8.637  67.194  1.00  0.00    -0.123 A  
HETATM    8  C   UNL     1      -8.838   8.055  68.441  1.00  0.00    -0.134 A  
BRANCH   6   9
HETATM    9  C   UNL     1      -8.583   6.168  70.092  1.00  0.00    -0.133 C  
HETATM   10  C   UNL     1      -9.254   6.764  71.086  1.00  0.00    -0.159 C  
HETATM   11  C   UNL     1      -9.487   5.970  72.313  1.00  0.00    -0.150 C  
HETATM   12  S   UNL     1     -10.333   6.505  73.651  1.00  0.00    -0.327 S  
HETATM   13  S   UNL     1      -8.746   4.383  72.230  1.00  0.00    -0.114 SA 
HETATM   14  S   UNL     1      -8.092   4.514  70.306  1.00  0.00    -0.063 SA 
ENDBRANCH   6   9
ENDBRANCH   2   3
TORSDOF 2
ENDMDL
MODEL      187
REMARK 921   NORMALIZED FREE ENERGY PREDICTED BY IDOCK:   -1.45 KCAL/MOL
REMARK 922        TOTAL FREE ENERGY PREDICTED BY IDOCK:   -1.82 KCAL/MOL
REMARK 923 INTER-LIGAND FREE ENERGY PREDICTED BY IDOCK:   -1.61 KCAL/MOL
REMARK 924 INTRA-LIGAND FREE ENERGY PREDICTED BY IDOCK:   -0.20 KCAL/MOL
REMARK 927      BINDING AFFINITY PREDICTED BY RF-SCORE:    0.00 PKD
ROOT
HETATM    1  C   UNL     1      -8.062   5.839  74.110  1.00  0.00    -0.104 C  
HETATM    2  O   UNL     1      -9.023   6.605  73.384  1.00  0.00    -0.123 OA 
ENDROOT
BRANCH   2   3
HETATM    3  C   UNL     1      -9.030   6.389  72.034  1.00  0.00    -0.137 A  
HETATM    4  C   UNL     1     -10.085   6.712  71.187  1.00  0.00    -0.202 A  
HETATM    5  C   UNL     1     -10.001   6.428  69.821  1.00  0.00    -0.196 A  
HETATM    6  C   UNL     1      -8.871   5.805  69.267  1.00  0.00    -0.116 A  
HETATM    7  C   UNL     1      -7.871   5.831  71.494  1.00  0.00    -0.112 A  
HETATM    8  C   UNL     1      -7.796   5.530  70.128  1.00  0.00    -0.089 A  
BRANCH   6   9
HETATM    9  C   UNL     1      -8.831   5.433  67.831  1.00  0.00    -0.105 C  
HETATM   10  C   UNL     1      -7.720   5.464  67.085  1.00  0.00    -0.096 C  
HETATM   11  C   UNL     1      -7.851   5.070  65.665  1.00  0.00    -0.091 C  
HETATM   12  S   UNL     1      -6.588   4.999  64.572  1.00  0.00    -0.044 S  
HETATM   13  S   UNL     1      -9.508   4.700  65.226  1.00  0.00    -0.136 SA 
HETATM   14  S   UNL     1     -10.307   4.890  67.089  1.00  0.00    -0.061 SA 
ENDBRANCH   6   9
ENDBRANCH   2   3
TORSDOF 2
ENDMDL
MODEL      188
REMARK 921   NORMALIZED FREE ENERGY PREDICTED BY IDOCK:   -1.37 KCAL/MOL
REMARK 922        TOTAL FREE ENERGY PREDICTED BY IDOCK:   -1.73 KCAL/MOL
REMARK 923 INTER-LIGAND FREE ENERGY PREDICTED BY IDOCK:   -1.55 KCAL/MOL
REMARK 924 INTRA-LIGAND FREE ENERGY PREDICTED BY IDOCK:   -0.19 KCAL/MOL
REMARK 927      BINDING AFFINITY PREDICTED BY RF-SCORE:    0.00 PKD
ROOT
HETATM    1  C   UNL     1      -5.246  11.100  62.546  1.00  0.00    -0.142 C  
HETATM    2  O   UNL     1      -5.872   9.817  62.578  1.00  0.00    -0.089 OA 
ENDROOT
BRANCH   2   3
HETATM    3  C   UNL     1      -6.363   9.447  63.799  1.00  0.00    -0.094 A  
HETATM    4  C   UNL     1      -7.657   9.699  64.240  1.00  0.00    -0.128 A  
HETATM    5  C   UNL     1      -8.055   9.298  65.518  1.00  0.00    -0.113 A  
HETATM    6  C   UNL     1      -7.169   8.647  66.394  1.00  0.00    -0.080 A  
HETATM    7  C   UNL     1      -5.488   8.743  64.626  1.00  0.00    -0.054 A  
HETATM    8  C   UNL     1      -5.881   8.358  65.915  1.00  0.00    -0.044 A  
BRANCH   6   9
HETATM    9  C   UNL     1      -7.579   8.304  67.777  1.00  0.00    -0.102 C  
HETATM   10  C   UNL     1      -8.426   9.041  68.507  1.00  0.00    -0.128 C  
HETATM   11  C   UNL     1      -8.727   8.565  69.876  1.00  0.00    -0.132 C  
HETATM   12  S   UNL     1      -9.782   9.309  70.936  1.00  0.00    -0.255 S  
HETATM   13  S   UNL     1      -7.822   7.122  70.293  1.00  0.00    -0.105 SA 
HETATM   14  S   UNL     1      -6.952   6.839  68.474  1.00  0.00    -0.079 SA 
ENDBRANCH   6   9
ENDBRANCH   2   3
TORSDOF 2
ENDMDL
