MODEL        1
REMARK 921   NORMALIZED FREE ENERGY PREDICTED BY IDOCK:   -5.93 KCAL/MOL
REMARK 922        TOTAL FREE ENERGY PREDICTED BY IDOCK:   -7.87 KCAL/MOL
REMARK 923 INTER-LIGAND FREE ENERGY PREDICTED BY IDOCK:   -7.31 KCAL/MOL
REMARK 924 INTRA-LIGAND FREE ENERGY PREDICTED BY IDOCK:   -0.56 KCAL/MOL
REMARK 927      BINDING AFFINITY PREDICTED BY RF-SCORE:    0.00 PKD
ROOT
HETATM    1 BR   UNL     1     -13.760   9.114  72.138  1.00  0.00    -0.542 Br 
HETATM    2  C   UNL     2      -6.993  20.048  68.282  1.00  0.00    -0.330 C  
HETATM    3  C   UNL     2      -8.124  19.282  68.954  1.00  0.00    -0.347 C  
ENDROOT
BRANCH   3   4
HETATM    4  C   UNL     2      -8.320  17.892  68.335  1.00  0.00    -0.307 C  
HETATM    5  C   UNL     2      -9.791  17.407  68.314  1.00  0.00    -0.310 C  
HETATM    6  C   UNL     2     -10.745  18.377  67.583  1.00  0.00    -0.390 C  
HETATM    7  C   UNL     2      -9.860  15.964  67.782  1.00  0.00    -0.222 C  
HETATM    8  O   UNL     2      -8.909  15.195  67.770  1.00  0.00    -0.165 OA 
BRANCH   6   9
HETATM    9  C   UNL     2     -10.387  18.612  66.113  1.00  0.00    -0.481 C  
HETATM   10  C   UNL     2     -10.139  20.083  65.819  1.00  0.00    -0.422 C  
ENDBRANCH   6   9
BRANCH   7  11
HETATM   11  O   UNL     2     -11.122  15.612  67.415  1.00  0.00    -0.316 OA 
BRANCH  11  12
HETATM   12  C   UNL     2     -11.358  14.640  66.362  1.00  0.00    -0.348 C  
HETATM   13  C   UNL     2     -10.277  14.591  65.229  1.00  0.00    -0.431 C  
HETATM   14  C   UNL     2     -10.594  13.430  64.157  1.00  0.00    -0.236 C  
HETATM   15  C   UNL     2     -11.880  12.825  63.466  1.00  0.00    -0.618 C  
HETATM   16  C   UNL     2     -12.765  12.358  64.653  1.00  0.00    -0.372 C  
HETATM   17  C   UNL     2     -11.810  12.136  65.854  1.00  0.00    -0.272 C  
HETATM   18  C   UNL     2     -11.787  13.264  66.904  1.00  0.00    -0.446 C  
HETATM   19  N   UNL     2     -10.449  12.099  65.157  1.00  0.00    -0.272 N  
HETATM   20  C   UNL     2      -9.186  12.090  66.027  1.00  0.00    -0.149 C  
HETATM   21  C   UNL     2     -10.312  10.727  64.413  1.00  0.00    -0.335 C  
ENDBRANCH  11  12
ENDBRANCH   7  11
ENDBRANCH   3   4
TORSDOF 4
ENDMDL
MODEL        2
REMARK 921   NORMALIZED FREE ENERGY PREDICTED BY IDOCK:   -5.81 KCAL/MOL
REMARK 922        TOTAL FREE ENERGY PREDICTED BY IDOCK:   -7.73 KCAL/MOL
REMARK 923 INTER-LIGAND FREE ENERGY PREDICTED BY IDOCK:   -6.93 KCAL/MOL
REMARK 924 INTRA-LIGAND FREE ENERGY PREDICTED BY IDOCK:   -0.80 KCAL/MOL
REMARK 927      BINDING AFFINITY PREDICTED BY RF-SCORE:    0.00 PKD
ROOT
HETATM    1 BR   UNL     1     -13.362   9.350  71.934  1.00  0.00    -0.546 Br 
HETATM    2  C   UNL     2      -6.559  20.340  68.305  1.00  0.00    -0.335 C  
HETATM    3  C   UNL     2      -7.759  19.559  68.823  1.00  0.00    -0.375 C  
ENDROOT
BRANCH   3   4
HETATM    4  C   UNL     2      -7.751  18.106  68.332  1.00  0.00    -0.303 C  
HETATM    5  C   UNL     2      -9.071  17.338  68.594  1.00  0.00    -0.260 C  
HETATM    6  C   UNL     2     -10.310  18.026  67.982  1.00  0.00    -0.397 C  
HETATM    7  C   UNL     2      -8.915  15.867  68.171  1.00  0.00    -0.181 C  
HETATM    8  O   UNL     2      -7.836  15.304  68.042  1.00  0.00    -0.123 OA 
BRANCH   6   9
HETATM    9  C   UNL     2     -10.244  18.186  66.460  1.00  0.00    -0.398 C  
HETATM   10  C   UNL     2     -10.423  19.634  66.036  1.00  0.00    -0.622 C  
ENDBRANCH   6   9
BRANCH   7  11
HETATM   11  O   UNL     2     -10.115  15.237  68.049  1.00  0.00    -0.226 OA 
BRANCH  11  12
HETATM   12  C   UNL     2     -10.283  14.099  67.163  1.00  0.00    -0.258 C  
HETATM   13  C   UNL     2     -11.496  13.161  67.485  1.00  0.00    -0.371 C  
HETATM   14  C   UNL     2     -11.635  11.977  66.401  1.00  0.00    -0.313 C  
HETATM   15  C   UNL     2     -10.654  11.043  65.589  1.00  0.00    -0.263 C  
HETATM   16  C   UNL     2      -9.747  12.032  64.807  1.00  0.00    -0.108 C  
HETATM   17  C   UNL     2     -10.540  13.359  64.690  1.00  0.00    -0.415 C  
HETATM   18  C   UNL     2     -10.131  14.470  65.676  1.00  0.00    -0.384 C  
HETATM   19  N   UNL     2     -11.956  12.899  65.044  1.00  0.00    -0.378 N  
HETATM   20  C   UNL     2     -13.041  13.964  65.238  1.00  0.00    -0.158 C  
HETATM   21  C   UNL     2     -12.534  12.099  63.826  1.00  0.00    -0.514 C  
ENDBRANCH  11  12
ENDBRANCH   7  11
ENDBRANCH   3   4
TORSDOF 4
ENDMDL
MODEL        3
REMARK 921   NORMALIZED FREE ENERGY PREDICTED BY IDOCK:   -5.81 KCAL/MOL
REMARK 922        TOTAL FREE ENERGY PREDICTED BY IDOCK:   -7.72 KCAL/MOL
REMARK 923 INTER-LIGAND FREE ENERGY PREDICTED BY IDOCK:   -6.92 KCAL/MOL
REMARK 924 INTRA-LIGAND FREE ENERGY PREDICTED BY IDOCK:   -0.80 KCAL/MOL
REMARK 927      BINDING AFFINITY PREDICTED BY RF-SCORE:    0.00 PKD
ROOT
HETATM    1 BR   UNL     1     -10.207  19.770  68.100  1.00  0.00    -0.564 Br 
HETATM    2  C   UNL     2     -11.630   7.068  72.204  1.00  0.00    -0.320 C  
HETATM    3  C   UNL     2     -11.643   8.583  72.351  1.00  0.00    -0.425 C  
ENDROOT
BRANCH   3   4
HETATM    4  C   UNL     2     -10.715   9.264  71.337  1.00  0.00    -0.432 C  
HETATM    5  C   UNL     2     -11.394   9.617  69.990  1.00  0.00    -0.239 C  
HETATM    6  C   UNL     2     -12.642  10.513  70.151  1.00  0.00    -0.246 C  
HETATM    7  C   UNL     2     -10.353  10.186  69.011  1.00  0.00    -0.212 C  
HETATM    8  O   UNL     2      -9.147  10.010  69.119  1.00  0.00    -0.161 OA 
BRANCH   6   9
HETATM    9  C   UNL     2     -12.356  11.864  70.812  1.00  0.00    -0.416 C  
HETATM   10  C   UNL     2     -13.252  12.104  72.017  1.00  0.00    -0.496 C  
ENDBRANCH   6   9
BRANCH   7  11
HETATM   11  O   UNL     2     -10.932  10.828  67.960  1.00  0.00    -0.237 OA 
BRANCH  11  12
HETATM   12  C   UNL     2     -10.725  12.248  67.737  1.00  0.00    -0.217 C  
HETATM   13  C   UNL     2      -9.447  12.626  66.914  1.00  0.00    -0.229 C  
HETATM   14  C   UNL     2      -9.354  14.215  66.659  1.00  0.00    -0.282 C  
HETATM   15  C   UNL     2      -9.667  15.529  67.477  1.00  0.00    -0.215 C  
HETATM   16  C   UNL     2     -11.168  15.394  67.854  1.00  0.00    -0.329 C  
HETATM   17  C   UNL     2     -11.796  14.425  66.819  1.00  0.00    -0.410 C  
HETATM   18  C   UNL     2     -12.010  12.979  67.304  1.00  0.00    -0.379 C  
HETATM   19  N   UNL     2     -10.726  14.413  65.725  1.00  0.00    -0.296 N  
HETATM   20  C   UNL     2     -10.869  13.405  64.579  1.00  0.00    -0.406 C  
HETATM   21  C   UNL     2     -10.802  15.770  64.945  1.00  0.00    -0.413 C  
ENDBRANCH  11  12
ENDBRANCH   7  11
ENDBRANCH   3   4
TORSDOF 4
ENDMDL
MODEL        4
REMARK 921   NORMALIZED FREE ENERGY PREDICTED BY IDOCK:   -5.65 KCAL/MOL
REMARK 922        TOTAL FREE ENERGY PREDICTED BY IDOCK:   -7.53 KCAL/MOL
REMARK 923 INTER-LIGAND FREE ENERGY PREDICTED BY IDOCK:   -6.71 KCAL/MOL
REMARK 924 INTRA-LIGAND FREE ENERGY PREDICTED BY IDOCK:   -0.82 KCAL/MOL
REMARK 927      BINDING AFFINITY PREDICTED BY RF-SCORE:    0.00 PKD
ROOT
HETATM    1 BR   UNL     1     -10.532  19.327  67.511  1.00  0.00    -0.588 Br 
HETATM    2  C   UNL     2     -10.655   7.133  73.123  1.00  0.00    -0.377 C  
HETATM    3  C   UNL     2     -10.026   8.338  72.439  1.00  0.00    -0.379 C  
ENDROOT
BRANCH   3   4
HETATM    4  C   UNL     2     -11.053   9.131  71.620  1.00  0.00    -0.445 C  
HETATM    5  C   UNL     2     -10.464   9.838  70.374  1.00  0.00    -0.358 C  
HETATM    6  C   UNL     2      -9.745   8.873  69.405  1.00  0.00    -0.169 C  
HETATM    7  C   UNL     2     -11.548  10.693  69.694  1.00  0.00    -0.296 C  
HETATM    8  O   UNL     2     -12.565  11.078  70.255  1.00  0.00    -0.297 OA 
BRANCH   6   9
HETATM    9  C   UNL     2     -10.648   7.772  68.843  1.00  0.00    -0.168 C  
HETATM   10  C   UNL     2     -10.545   7.675  67.329  1.00  0.00    -0.388 C  
ENDBRANCH   6   9
BRANCH   7  11
HETATM   11  O   UNL     2     -11.201  11.051  68.428  1.00  0.00    -0.229 OA 
BRANCH  11  12
HETATM   12  C   UNL     2     -10.808  12.412  68.109  1.00  0.00    -0.221 C  
HETATM   13  C   UNL     2      -9.598  12.556  67.124  1.00  0.00    -0.208 C  
HETATM   14  C   UNL     2      -9.295  14.101  66.780  1.00  0.00    -0.282 C  
HETATM   15  C   UNL     2      -9.298  15.474  67.561  1.00  0.00    -0.207 C  
HETATM   16  C   UNL     2     -10.744  15.591  68.117  1.00  0.00    -0.282 C  
HETATM   17  C   UNL     2     -11.637  14.702  67.214  1.00  0.00    -0.387 C  
HETATM   18  C   UNL     2     -12.009  13.324  67.794  1.00  0.00    -0.356 C  
HETATM   19  N   UNL     2     -10.725  14.484  66.005  1.00  0.00    -0.297 N  
HETATM   20  C   UNL     2     -11.162  13.476  64.935  1.00  0.00    -0.342 C  
HETATM   21  C   UNL     2     -10.687  15.811  65.170  1.00  0.00    -0.435 C  
ENDBRANCH  11  12
ENDBRANCH   7  11
ENDBRANCH   3   4
TORSDOF 4
ENDMDL
MODEL        5
REMARK 921   NORMALIZED FREE ENERGY PREDICTED BY IDOCK:   -5.64 KCAL/MOL
REMARK 922        TOTAL FREE ENERGY PREDICTED BY IDOCK:   -7.52 KCAL/MOL
REMARK 923 INTER-LIGAND FREE ENERGY PREDICTED BY IDOCK:   -6.77 KCAL/MOL
REMARK 924 INTRA-LIGAND FREE ENERGY PREDICTED BY IDOCK:   -0.76 KCAL/MOL
REMARK 927      BINDING AFFINITY PREDICTED BY RF-SCORE:    0.00 PKD
ROOT
HETATM    1 BR   UNL     1     -12.503  10.860  70.920  1.00  0.00    -0.529 Br 
HETATM    2  C   UNL     2      -5.786  20.485  64.404  1.00  0.00    -0.301 C  
HETATM    3  C   UNL     2      -6.015  19.448  65.495  1.00  0.00    -0.226 C  
ENDROOT
BRANCH   3   4
HETATM    4  C   UNL     2      -7.507  19.173  65.719  1.00  0.00    -0.205 C  
HETATM    5  C   UNL     2      -7.800  17.940  66.611  1.00  0.00    -0.272 C  
HETATM    6  C   UNL     2      -7.130  18.018  68.000  1.00  0.00    -0.220 C  
HETATM    7  C   UNL     2      -9.316  17.688  66.675  1.00  0.00    -0.278 C  
HETATM    8  O   UNL     2     -10.115  18.115  65.853  1.00  0.00    -0.546 OA 
BRANCH   6   9
HETATM    9  C   UNL     2      -7.571  19.222  68.837  1.00  0.00    -0.384 C  
HETATM   10  C   UNL     2      -6.410  20.156  69.140  1.00  0.00    -0.358 C  
ENDBRANCH   6   9
BRANCH   7  11
HETATM   11  O   UNL     2      -9.656  16.857  67.699  1.00  0.00    -0.243 OA 
BRANCH  11  12
HETATM   12  C   UNL     2     -10.123  15.505  67.450  1.00  0.00    -0.246 C  
HETATM   13  C   UNL     2     -11.676  15.304  67.500  1.00  0.00    -0.153 C  
HETATM   14  C   UNL     2     -12.090  13.789  67.137  1.00  0.00    -0.378 C  
HETATM   15  C   UNL     2     -11.522  12.343  67.424  1.00  0.00    -0.418 C  
HETATM   16  C   UNL     2     -10.078  12.383  66.854  1.00  0.00    -0.230 C  
HETATM   17  C   UNL     2     -10.053  13.512  65.791  1.00  0.00    -0.287 C  
HETATM   18  C   UNL     2      -9.426  14.843  66.247  1.00  0.00    -0.339 C  
HETATM   19  N   UNL     2     -11.548  13.740  65.556  1.00  0.00    -0.318 N  
HETATM   20  C   UNL     2     -11.975  14.936  64.697  1.00  0.00    -0.401 C  
HETATM   21  C   UNL     2     -12.102  12.545  64.706  1.00  0.00    -0.434 C  
ENDBRANCH  11  12
ENDBRANCH   7  11
ENDBRANCH   3   4
TORSDOF 4
ENDMDL
MODEL        6
REMARK 921   NORMALIZED FREE ENERGY PREDICTED BY IDOCK:   -5.58 KCAL/MOL
REMARK 922        TOTAL FREE ENERGY PREDICTED BY IDOCK:   -7.45 KCAL/MOL
REMARK 923 INTER-LIGAND FREE ENERGY PREDICTED BY IDOCK:   -6.79 KCAL/MOL
REMARK 924 INTRA-LIGAND FREE ENERGY PREDICTED BY IDOCK:   -0.66 KCAL/MOL
REMARK 927      BINDING AFFINITY PREDICTED BY RF-SCORE:    0.00 PKD
ROOT
HETATM    1 BR   UNL     1     -12.709  11.147  71.234  1.00  0.00    -0.501 Br 
HETATM    2  C   UNL     2      -6.320  20.924  64.616  1.00  0.00    -0.283 C  
HETATM    3  C   UNL     2      -6.469  19.816  65.649  1.00  0.00    -0.268 C  
ENDROOT
BRANCH   3   4
HETATM    4  C   UNL     2      -7.934  19.596  66.045  1.00  0.00    -0.337 C  
HETATM    5  C   UNL     2      -8.295  18.121  66.353  1.00  0.00    -0.272 C  
HETATM    6  C   UNL     2      -7.419  17.495  67.460  1.00  0.00    -0.202 C  
HETATM    7  C   UNL     2      -9.805  17.997  66.625  1.00  0.00    -0.352 C  
HETATM    8  O   UNL     2     -10.634  18.820  66.261  1.00  0.00    -0.419 OA 
BRANCH   6   9
HETATM    9  C   UNL     2      -7.513  18.214  68.809  1.00  0.00    -0.285 C  
HETATM   10  C   UNL     2      -6.193  18.861  69.198  1.00  0.00    -0.284 C  
ENDBRANCH   6   9
BRANCH   7  11
HETATM   11  O   UNL     2     -10.123  16.822  67.233  1.00  0.00    -0.267 OA 
BRANCH  11  12
HETATM   12  C   UNL     2     -10.718  15.725  66.491  1.00  0.00    -0.283 C  
HETATM   13  C   UNL     2      -9.845  15.138  65.330  1.00  0.00    -0.309 C  
HETATM   14  C   UNL     2     -10.564  13.880  64.624  1.00  0.00    -0.412 C  
HETATM   15  C   UNL     2     -12.037  13.482  64.214  1.00  0.00    -0.482 C  
HETATM   16  C   UNL     2     -12.833  13.547  65.546  1.00  0.00    -0.406 C  
HETATM   17  C   UNL     2     -11.797  13.374  66.687  1.00  0.00    -0.395 C  
HETATM   18  C   UNL     2     -11.372  14.670  67.403  1.00  0.00    -0.368 C  
HETATM   19  N   UNL     2     -10.590  12.828  65.922  1.00  0.00    -0.270 N  
HETATM   20  C   UNL     2      -9.255  12.698  66.665  1.00  0.00    -0.218 C  
HETATM   21  C   UNL     2     -10.875  11.332  65.552  1.00  0.00    -0.179 C  
ENDBRANCH  11  12
ENDBRANCH   7  11
ENDBRANCH   3   4
TORSDOF 4
ENDMDL
MODEL        7
REMARK 921   NORMALIZED FREE ENERGY PREDICTED BY IDOCK:   -5.54 KCAL/MOL
REMARK 922        TOTAL FREE ENERGY PREDICTED BY IDOCK:   -7.39 KCAL/MOL
REMARK 923 INTER-LIGAND FREE ENERGY PREDICTED BY IDOCK:   -7.13 KCAL/MOL
REMARK 924 INTRA-LIGAND FREE ENERGY PREDICTED BY IDOCK:   -0.26 KCAL/MOL
REMARK 927      BINDING AFFINITY PREDICTED BY RF-SCORE:    0.00 PKD
ROOT
HETATM    1 BR   UNL     1     -10.355  19.048  67.292  1.00  0.00    -0.542 Br 
HETATM    2  C   UNL     2     -10.831   7.097  73.387  1.00  0.00    -0.360 C  
HETATM    3  C   UNL     2     -10.156   8.299  72.742  1.00  0.00    -0.333 C  
ENDROOT
BRANCH   3   4
HETATM    4  C   UNL     2     -11.084   9.014  71.752  1.00  0.00    -0.444 C  
HETATM    5  C   UNL     2     -10.422   9.360  70.395  1.00  0.00    -0.311 C  
HETATM    6  C   UNL     2      -9.833   8.131  69.671  1.00  0.00    -0.184 C  
HETATM    7  C   UNL     2     -11.399  10.173  69.527  1.00  0.00    -0.206 C  
HETATM    8  O   UNL     2     -12.358  10.788  69.973  1.00  0.00    -0.320 OA 
BRANCH   6   9
HETATM    9  C   UNL     2     -10.866   7.050  69.340  1.00  0.00    -0.253 C  
HETATM   10  C   UNL     2     -10.403   5.671  69.781  1.00  0.00    -0.352 C  
ENDBRANCH   6   9
BRANCH   7  11
HETATM   11  O   UNL     2     -11.021  10.206  68.220  1.00  0.00    -0.245 OA 
BRANCH  11  12
HETATM   12  C   UNL     2     -11.410  11.300  67.349  1.00  0.00    -0.276 C  
HETATM   13  C   UNL     2     -11.544  12.701  68.037  1.00  0.00    -0.394 C  
HETATM   14  C   UNL     2     -11.905  13.854  66.970  1.00  0.00    -0.415 C  
HETATM   15  C   UNL     2     -12.816  13.986  65.687  1.00  0.00    -0.442 C  
HETATM   16  C   UNL     2     -12.293  12.877  64.733  1.00  0.00    -0.516 C  
HETATM   17  C   UNL     2     -10.834  12.577  65.166  1.00  0.00    -0.288 C  
HETATM   18  C   UNL     2     -10.639  11.307  66.016  1.00  0.00    -0.314 C  
HETATM   19  N   UNL     2     -10.519  13.793  66.038  1.00  0.00    -0.291 N  
HETATM   20  C   UNL     2      -9.211  13.796  66.838  1.00  0.00    -0.255 C  
HETATM   21  C   UNL     2     -10.301  15.030  65.100  1.00  0.00    -0.392 C  
ENDBRANCH  11  12
ENDBRANCH   7  11
ENDBRANCH   3   4
TORSDOF 4
ENDMDL
MODEL        8
REMARK 921   NORMALIZED FREE ENERGY PREDICTED BY IDOCK:   -5.30 KCAL/MOL
REMARK 922        TOTAL FREE ENERGY PREDICTED BY IDOCK:   -7.10 KCAL/MOL
REMARK 923 INTER-LIGAND FREE ENERGY PREDICTED BY IDOCK:   -6.46 KCAL/MOL
REMARK 924 INTRA-LIGAND FREE ENERGY PREDICTED BY IDOCK:   -0.64 KCAL/MOL
REMARK 927      BINDING AFFINITY PREDICTED BY RF-SCORE:    0.00 PKD
ROOT
HETATM    1 BR   UNL     1      -6.463   8.874  62.667  1.00  0.00    -0.094 Br 
HETATM    2  C   UNL     2      -6.352  20.158  69.938  1.00  0.00    -0.360 C  
HETATM    3  C   UNL     2      -5.739  18.956  69.233  1.00  0.00    -0.230 C  
ENDROOT
BRANCH   3   4
HETATM    4  C   UNL     2      -6.740  17.802  69.095  1.00  0.00    -0.239 C  
HETATM    5  C   UNL     2      -8.091  18.204  68.452  1.00  0.00    -0.313 C  
HETATM    6  C   UNL     2      -7.936  18.851  67.058  1.00  0.00    -0.262 C  
HETATM    7  C   UNL     2      -9.057  17.006  68.468  1.00  0.00    -0.259 C  
HETATM    8  O   UNL     2      -8.939  16.044  69.215  1.00  0.00    -0.244 OA 
BRANCH   6   9
HETATM    9  C   UNL     2      -7.263  17.944  66.024  1.00  0.00    -0.325 C  
HETATM   10  C   UNL     2      -6.056  18.613  65.386  1.00  0.00    -0.300 C  
ENDBRANCH   6   9
BRANCH   7  11
HETATM   11  O   UNL     2     -10.109  17.183  67.622  1.00  0.00    -0.284 OA 
BRANCH  11  12
HETATM   12  C   UNL     2     -10.645  16.080  66.845  1.00  0.00    -0.300 C  
HETATM   13  C   UNL     2      -9.636  15.379  65.874  1.00  0.00    -0.386 C  
HETATM   14  C   UNL     2     -10.311  14.125  65.120  1.00  0.00    -0.405 C  
HETATM   15  C   UNL     2     -11.721  13.787  64.492  1.00  0.00    -0.432 C  
HETATM   16  C   UNL     2     -12.716  13.974  65.669  1.00  0.00    -0.515 C  
HETATM   17  C   UNL     2     -11.892  13.809  66.973  1.00  0.00    -0.410 C  
HETATM   18  C   UNL     2     -11.505  15.118  67.687  1.00  0.00    -0.319 C  
HETATM   19  N   UNL     2     -10.615  13.153  66.445  1.00  0.00    -0.283 N  
HETATM   20  C   UNL     2      -9.430  12.991  67.404  1.00  0.00    -0.210 C  
HETATM   21  C   UNL     2     -10.933  11.656  66.105  1.00  0.00    -0.288 C  
ENDBRANCH  11  12
ENDBRANCH   7  11
ENDBRANCH   3   4
TORSDOF 4
ENDMDL
MODEL        9
REMARK 921   NORMALIZED FREE ENERGY PREDICTED BY IDOCK:   -5.27 KCAL/MOL
REMARK 922        TOTAL FREE ENERGY PREDICTED BY IDOCK:   -7.06 KCAL/MOL
REMARK 923 INTER-LIGAND FREE ENERGY PREDICTED BY IDOCK:   -6.32 KCAL/MOL
REMARK 924 INTRA-LIGAND FREE ENERGY PREDICTED BY IDOCK:   -0.74 KCAL/MOL
REMARK 927      BINDING AFFINITY PREDICTED BY RF-SCORE:    0.00 PKD
ROOT
HETATM    1 BR   UNL     1      -8.479  19.891  66.452  1.00  0.00    -0.365 Br 
HETATM    2  C   UNL     2     -10.360   6.622  67.239  1.00  0.00    -0.296 C  
HETATM    3  C   UNL     2      -9.671   7.901  66.784  1.00  0.00    -0.303 C  
ENDROOT
BRANCH   3   4
HETATM    4  C   UNL     2     -10.624   9.103  66.803  1.00  0.00    -0.207 C  
HETATM    5  C   UNL     2      -9.925  10.473  66.621  1.00  0.00    -0.260 C  
HETATM    6  C   UNL     2      -9.090  10.566  65.326  1.00  0.00    -0.220 C  
HETATM    7  C   UNL     2     -10.951  11.610  66.772  1.00  0.00    -0.290 C  
HETATM    8  O   UNL     2     -12.029  11.486  67.338  1.00  0.00    -0.623 OA 
BRANCH   6   9
HETATM    9  C   UNL     2      -9.905  10.368  64.045  1.00  0.00    -0.355 C  
HETATM   10  C   UNL     2      -9.713  11.518  63.069  1.00  0.00    -0.382 C  
ENDBRANCH   6   9
BRANCH   7  11
HETATM   11  O   UNL     2     -10.483  12.792  66.287  1.00  0.00    -0.251 OA 
BRANCH  11  12
HETATM   12  C   UNL     2     -10.424  13.979  67.120  1.00  0.00    -0.270 C  
HETATM   13  C   UNL     2     -11.781  14.734  67.324  1.00  0.00    -0.366 C  
HETATM   14  C   UNL     2     -11.618  15.989  68.323  1.00  0.00    -0.232 C  
HETATM   15  C   UNL     2     -10.533  17.102  68.601  1.00  0.00    -0.366 C  
HETATM   16  C   UNL     2      -9.247  16.302  68.945  1.00  0.00    -0.249 C  
HETATM   17  C   UNL     2      -9.714  14.908  69.437  1.00  0.00    -0.091 C  
HETATM   18  C   UNL     2      -9.604  13.767  68.407  1.00  0.00    -0.206 C  
HETATM   19  N   UNL     2     -11.197  15.164  69.714  1.00  0.00    -0.262 N  
HETATM   20  C   UNL     2     -12.094  13.965  70.043  1.00  0.00    -0.345 C  
HETATM   21  C   UNL     2     -11.314  15.999  71.036  1.00  0.00    -0.379 C  
ENDBRANCH  11  12
ENDBRANCH   7  11
ENDBRANCH   3   4
TORSDOF 4
ENDMDL
MODEL       10
REMARK 921   NORMALIZED FREE ENERGY PREDICTED BY IDOCK:   -5.27 KCAL/MOL
REMARK 922        TOTAL FREE ENERGY PREDICTED BY IDOCK:   -7.06 KCAL/MOL
REMARK 923 INTER-LIGAND FREE ENERGY PREDICTED BY IDOCK:   -6.21 KCAL/MOL
REMARK 924 INTRA-LIGAND FREE ENERGY PREDICTED BY IDOCK:   -0.85 KCAL/MOL
REMARK 927      BINDING AFFINITY PREDICTED BY RF-SCORE:    0.00 PKD
ROOT
HETATM    1 BR   UNL     1     -12.435  15.805  73.897  1.00  0.00    -0.812 Br 
HETATM    2  C   UNL     2      -7.530   8.833  63.526  1.00  0.00    -0.108 C  
HETATM    3  C   UNL     2      -7.810  10.083  64.349  1.00  0.00    -0.144 C  
ENDROOT
BRANCH   3   4
HETATM    4  C   UNL     2      -9.049   9.917  65.238  1.00  0.00    -0.256 C  
HETATM    5  C   UNL     2      -9.746  11.248  65.614  1.00  0.00    -0.267 C  
HETATM    6  C   UNL     2     -10.167  12.086  64.387  1.00  0.00    -0.332 C  
HETATM    7  C   UNL     2     -10.900  10.977  66.595  1.00  0.00    -0.225 C  
HETATM    8  O   UNL     2     -10.993   9.965  67.277  1.00  0.00    -0.251 OA 
BRANCH   6   9
HETATM    9  C   UNL     2     -11.154  11.374  63.457  1.00  0.00    -0.373 C  
HETATM   10  C   UNL     2     -12.464  12.135  63.334  1.00  0.00    -0.625 C  
ENDBRANCH   6   9
BRANCH   7  11
HETATM   11  O   UNL     2     -11.755  12.032  66.688  1.00  0.00    -0.522 OA 
BRANCH  11  12
HETATM   12  C   UNL     2     -11.509  13.122  67.615  1.00  0.00    -0.324 C  
HETATM   13  C   UNL     2     -10.304  12.922  68.595  1.00  0.00    -0.202 C  
HETATM   14  C   UNL     2     -10.074  14.218  69.526  1.00  0.00     0.238 C  
HETATM   15  C   UNL     2     -10.983  15.272  70.272  1.00  0.00    -0.313 C  
HETATM   16  C   UNL     2     -11.854  15.889  69.144  1.00  0.00    -0.340 C  
HETATM   17  C   UNL     2     -11.077  15.672  67.819  1.00  0.00    -0.311 C  
HETATM   18  C   UNL     2     -11.569  14.506  66.941  1.00  0.00    -0.399 C  
HETATM   19  N   UNL     2      -9.680  15.327  68.339  1.00  0.00    -0.209 N  
HETATM   20  C   UNL     2      -8.629  14.842  67.334  1.00  0.00    -0.196 C  
HETATM   21  C   UNL     2      -9.010  16.643  68.864  1.00  0.00    -0.239 C  
ENDBRANCH  11  12
ENDBRANCH   7  11
ENDBRANCH   3   4
TORSDOF 4
ENDMDL
MODEL       11
REMARK 921   NORMALIZED FREE ENERGY PREDICTED BY IDOCK:   -5.26 KCAL/MOL
REMARK 922        TOTAL FREE ENERGY PREDICTED BY IDOCK:   -7.05 KCAL/MOL
REMARK 923 INTER-LIGAND FREE ENERGY PREDICTED BY IDOCK:   -6.29 KCAL/MOL
REMARK 924 INTRA-LIGAND FREE ENERGY PREDICTED BY IDOCK:   -0.76 KCAL/MOL
REMARK 927      BINDING AFFINITY PREDICTED BY RF-SCORE:    0.00 PKD
ROOT
HETATM    1 BR   UNL     1      -6.371  17.315  66.843  1.00  0.00    -0.245 Br 
HETATM    2  C   UNL     2     -11.863   6.177  71.942  1.00  0.00    -0.316 C  
HETATM    3  C   UNL     2     -10.884   6.979  71.097  1.00  0.00    -0.263 C  
ENDROOT
BRANCH   3   4
HETATM    4  C   UNL     2     -11.451   8.351  70.711  1.00  0.00    -0.277 C  
HETATM    5  C   UNL     2     -10.411   9.318  70.092  1.00  0.00    -0.258 C  
HETATM    6  C   UNL     2      -9.705   8.742  68.845  1.00  0.00    -0.174 C  
HETATM    7  C   UNL     2     -11.054  10.695  69.851  1.00  0.00    -0.298 C  
HETATM    8  O   UNL     2     -12.066  11.085  70.417  1.00  0.00    -0.311 OA 
BRANCH   6   9
HETATM    9  C   UNL     2     -10.657   8.400  67.695  1.00  0.00    -0.265 C  
HETATM   10  C   UNL     2     -10.413   7.000  67.157  1.00  0.00    -0.383 C  
ENDBRANCH   6   9
BRANCH   7  11
HETATM   11  O   UNL     2     -10.316  11.466  69.006  1.00  0.00    -0.201 OA 
BRANCH  11  12
HETATM   12  C   UNL     2     -10.918  12.110  67.853  1.00  0.00    -0.229 C  
HETATM   13  C   UNL     2     -11.661  13.459  68.139  1.00  0.00    -0.397 C  
HETATM   14  C   UNL     2     -12.225  14.126  66.784  1.00  0.00    -0.394 C  
HETATM   15  C   UNL     2     -12.889  13.617  65.444  1.00  0.00    -0.440 C  
HETATM   16  C   UNL     2     -11.848  12.626  64.856  1.00  0.00    -0.436 C  
HETATM   17  C   UNL     2     -10.475  13.017  65.463  1.00  0.00    -0.285 C  
HETATM   18  C   UNL     2      -9.985  12.135  66.627  1.00  0.00    -0.222 C  
HETATM   19  N   UNL     2     -10.772  14.415  66.009  1.00  0.00    -0.295 N  
HETATM   20  C   UNL     2      -9.710  15.097  66.878  1.00  0.00    -0.239 C  
HETATM   21  C   UNL     2     -10.857  15.410  64.801  1.00  0.00    -0.364 C  
ENDBRANCH  11  12
ENDBRANCH   7  11
ENDBRANCH   3   4
TORSDOF 4
ENDMDL
MODEL       12
REMARK 921   NORMALIZED FREE ENERGY PREDICTED BY IDOCK:   -5.24 KCAL/MOL
REMARK 922        TOTAL FREE ENERGY PREDICTED BY IDOCK:   -7.03 KCAL/MOL
REMARK 923 INTER-LIGAND FREE ENERGY PREDICTED BY IDOCK:   -6.37 KCAL/MOL
REMARK 924 INTRA-LIGAND FREE ENERGY PREDICTED BY IDOCK:   -0.65 KCAL/MOL
REMARK 927      BINDING AFFINITY PREDICTED BY RF-SCORE:    0.00 PKD
ROOT
HETATM    1 BR   UNL     1      -7.493   6.664  74.542  1.00  0.00    -0.108 Br 
HETATM    2  C   UNL     2     -12.359  13.907  64.340  1.00  0.00    -0.400 C  
HETATM    3  C   UNL     2     -12.175  12.659  65.192  1.00  0.00    -0.539 C  
ENDROOT
BRANCH   3   4
HETATM    4  C   UNL     2     -10.847  12.679  65.958  1.00  0.00    -0.306 C  
HETATM    5  C   UNL     2     -10.617  13.958  66.801  1.00  0.00    -0.277 C  
HETATM    6  C   UNL     2     -11.743  14.228  67.822  1.00  0.00    -0.408 C  
HETATM    7  C   UNL     2      -9.213  13.926  67.431  1.00  0.00    -0.224 C  
HETATM    8  O   UNL     2      -8.295  13.232  67.017  1.00  0.00    -0.167 OA 
BRANCH   6   9
HETATM    9  C   UNL     2     -11.931  13.108  68.850  1.00  0.00    -0.317 C  
HETATM   10  C   UNL     2     -12.278  13.655  70.225  1.00  0.00    -0.423 C  
ENDBRANCH   6   9
BRANCH   7  11
HETATM   11  O   UNL     2      -9.083  14.827  68.443  1.00  0.00    -0.176 OA 
BRANCH  11  12
HETATM   12  C   UNL     2      -8.822  16.230  68.174  1.00  0.00    -0.183 C  
HETATM   13  C   UNL     2      -8.267  16.556  66.746  1.00  0.00    -0.279 C  
HETATM   14  C   UNL     2      -8.084  18.143  66.528  1.00  0.00    -0.269 C  
HETATM   15  C   UNL     2      -7.609  19.373  67.397  1.00  0.00    -0.269 C  
HETATM   16  C   UNL     2      -8.567  19.368  68.620  1.00  0.00    -0.394 C  
HETATM   17  C   UNL     2      -9.846  18.613  68.174  1.00  0.00    -0.354 C  
HETATM   18  C   UNL     2      -9.959  17.153  68.651  1.00  0.00    -0.313 C  
HETATM   19  N   UNL     2      -9.683  18.612  66.653  1.00  0.00    -0.326 N  
HETATM   20  C   UNL     2     -10.661  17.777  65.817  1.00  0.00    -0.175 C  
HETATM   21  C   UNL     2      -9.990  20.054  66.122  1.00  0.00    -0.468 C  
ENDBRANCH  11  12
ENDBRANCH   7  11
ENDBRANCH   3   4
TORSDOF 4
ENDMDL
MODEL       13
REMARK 921   NORMALIZED FREE ENERGY PREDICTED BY IDOCK:   -5.24 KCAL/MOL
REMARK 922        TOTAL FREE ENERGY PREDICTED BY IDOCK:   -7.02 KCAL/MOL
REMARK 923 INTER-LIGAND FREE ENERGY PREDICTED BY IDOCK:   -6.46 KCAL/MOL
REMARK 924 INTRA-LIGAND FREE ENERGY PREDICTED BY IDOCK:   -0.56 KCAL/MOL
REMARK 927      BINDING AFFINITY PREDICTED BY RF-SCORE:    0.00 PKD
ROOT
HETATM    1 BR   UNL     1      -6.513  19.701  70.163  1.00  0.00    -0.171 Br 
HETATM    2  C   UNL     2     -12.317   7.678  71.570  1.00  0.00    -0.356 C  
HETATM    3  C   UNL     2     -11.545   8.908  72.028  1.00  0.00    -0.435 C  
ENDROOT
BRANCH   3   4
HETATM    4  C   UNL     2     -10.833   9.603  70.861  1.00  0.00    -0.409 C  
HETATM    5  C   UNL     2     -11.781  10.095  69.738  1.00  0.00    -0.205 C  
HETATM    6  C   UNL     2     -12.882  11.052  70.244  1.00  0.00    -0.178 C  
HETATM    7  C   UNL     2     -10.958  10.669  68.571  1.00  0.00    -0.248 C  
HETATM    8  O   UNL     2      -9.778  10.411  68.376  1.00  0.00    -0.150 OA 
BRANCH   6   9
HETATM    9  C   UNL     2     -12.344  12.331  70.893  1.00  0.00    -0.363 C  
HETATM   10  C   UNL     2     -13.316  12.898  71.915  1.00  0.00    -0.530 C  
ENDBRANCH   6   9
BRANCH   7  11
HETATM   11  O   UNL     2     -11.718  11.421  67.729  1.00  0.00    -0.533 OA 
BRANCH  11  12
HETATM   12  C   UNL     2     -11.243  12.695  67.219  1.00  0.00    -0.298 C  
HETATM   13  C   UNL     2     -12.355  13.718  66.807  1.00  0.00    -0.365 C  
HETATM   14  C   UNL     2     -11.722  15.121  66.329  1.00  0.00    -0.002 C  
HETATM   15  C   UNL     2     -10.465  15.589  65.495  1.00  0.00    -0.407 C  
HETATM   16  C   UNL     2      -9.256  14.983  66.258  1.00  0.00    -0.324 C  
HETATM   17  C   UNL     2      -9.730  14.743  67.715  1.00  0.00    -0.213 C  
HETATM   18  C   UNL     2     -10.101  13.289  68.064  1.00  0.00    -0.235 C  
HETATM   19  N   UNL     2     -11.004  15.589  67.763  1.00  0.00    -0.309 N  
HETATM   20  C   UNL     2     -11.907  15.475  68.997  1.00  0.00    -0.354 C  
HETATM   21  C   UNL     2     -10.591  17.100  67.832  1.00  0.00    -0.376 C  
ENDBRANCH  11  12
ENDBRANCH   7  11
ENDBRANCH   3   4
TORSDOF 4
ENDMDL
MODEL       14
REMARK 921   NORMALIZED FREE ENERGY PREDICTED BY IDOCK:   -5.20 KCAL/MOL
REMARK 922        TOTAL FREE ENERGY PREDICTED BY IDOCK:   -6.97 KCAL/MOL
REMARK 923 INTER-LIGAND FREE ENERGY PREDICTED BY IDOCK:   -6.10 KCAL/MOL
REMARK 924 INTRA-LIGAND FREE ENERGY PREDICTED BY IDOCK:   -0.88 KCAL/MOL
REMARK 927      BINDING AFFINITY PREDICTED BY RF-SCORE:    0.00 PKD
ROOT
HETATM    1 BR   UNL     1     -14.379   8.315  71.657  1.00  0.00    -0.561 Br 
HETATM    2  C   UNL     2      -9.898  20.142  67.156  1.00  0.00    -0.586 C  
HETATM    3  C   UNL     2     -10.621  18.805  67.062  1.00  0.00    -0.483 C  
ENDROOT
BRANCH   3   4
HETATM    4  C   UNL     2     -10.075  17.787  68.071  1.00  0.00    -0.355 C  
HETATM    5  C   UNL     2      -9.826  16.377  67.481  1.00  0.00    -0.239 C  
HETATM    6  C   UNL     2      -8.873  16.381  66.266  1.00  0.00    -0.367 C  
HETATM    7  C   UNL     2      -9.393  15.410  68.597  1.00  0.00    -0.202 C  
HETATM    8  O   UNL     2      -9.603  15.603  69.786  1.00  0.00    -0.281 OA 
BRANCH   6   9
HETATM    9  C   UNL     2      -7.477  16.930  66.574  1.00  0.00    -0.328 C  
HETATM   10  C   UNL     2      -7.157  18.161  65.742  1.00  0.00    -0.256 C  
ENDBRANCH   6   9
BRANCH   7  11
HETATM   11  O   UNL     2      -8.832  14.273  68.102  1.00  0.00    -0.169 OA 
BRANCH  11  12
HETATM   12  C   UNL     2      -9.366  12.963  68.433  1.00  0.00    -0.147 C  
HETATM   13  C   UNL     2     -10.822  12.677  67.932  1.00  0.00    -0.244 C  
HETATM   14  C   UNL     2     -11.286  11.175  68.285  1.00  0.00    -0.297 C  
HETATM   15  C   UNL     2     -11.109  10.172  69.492  1.00  0.00    -0.295 C  
HETATM   16  C   UNL     2      -9.570  10.032  69.648  1.00  0.00    -0.251 C  
HETATM   17  C   UNL     2      -8.953  10.407  68.275  1.00  0.00    -0.135 C  
HETATM   18  C   UNL     2      -8.360  11.825  68.176  1.00  0.00    -0.156 C  
HETATM   19  N   UNL     2     -10.177  10.332  67.361  1.00  0.00    -0.205 N  
HETATM   20  C   UNL     2     -10.039  10.830  65.917  1.00  0.00    -0.256 C  
HETATM   21  C   UNL     2     -10.527   8.822  67.126  1.00  0.00    -0.283 C  
ENDBRANCH  11  12
ENDBRANCH   7  11
ENDBRANCH   3   4
TORSDOF 4
ENDMDL
MODEL       15
REMARK 921   NORMALIZED FREE ENERGY PREDICTED BY IDOCK:   -5.17 KCAL/MOL
REMARK 922        TOTAL FREE ENERGY PREDICTED BY IDOCK:   -6.94 KCAL/MOL
REMARK 923 INTER-LIGAND FREE ENERGY PREDICTED BY IDOCK:   -6.52 KCAL/MOL
REMARK 924 INTRA-LIGAND FREE ENERGY PREDICTED BY IDOCK:   -0.42 KCAL/MOL
REMARK 927      BINDING AFFINITY PREDICTED BY RF-SCORE:    0.00 PKD
ROOT
HETATM    1 BR   UNL     1     -10.615  19.370  67.560  1.00  0.00    -0.575 Br 
HETATM    2  C   UNL     2      -9.317   6.913  72.393  1.00  0.00    -0.149 C  
HETATM    3  C   UNL     2      -9.277   8.434  72.448  1.00  0.00    -0.345 C  
ENDROOT
BRANCH   3   4
HETATM    4  C   UNL     2      -9.068   9.052  71.060  1.00  0.00    -0.322 C  
HETATM    5  C   UNL     2     -10.170   8.694  70.032  1.00  0.00    -0.201 C  
HETATM    6  C   UNL     2     -11.590   9.079  70.500  1.00  0.00    -0.209 C  
HETATM    7  C   UNL     2      -9.804   9.266  68.651  1.00  0.00    -0.162 C  
HETATM    8  O   UNL     2      -8.669   9.583  68.322  1.00  0.00    -0.120 OA 
BRANCH   6   9
HETATM    9  C   UNL     2     -11.773  10.575  70.768  1.00  0.00    -0.454 C  
HETATM   10  C   UNL     2     -12.918  10.841  71.731  1.00  0.00    -0.568 C  
ENDBRANCH   6   9
BRANCH   7  11
HETATM   11  O   UNL     2     -10.871   9.291  67.806  1.00  0.00    -0.237 OA 
BRANCH  11  12
HETATM   12  C   UNL     2     -11.202  10.482  67.044  1.00  0.00     0.011 C  
HETATM   13  C   UNL     2     -11.493  11.769  67.889  1.00  0.00    -0.387 C  
HETATM   14  C   UNL     2     -11.774  13.046  66.947  1.00  0.00    -0.383 C  
HETATM   15  C   UNL     2     -12.521  13.325  65.583  1.00  0.00    -0.510 C  
HETATM   16  C   UNL     2     -11.826  12.377  64.568  1.00  0.00    -0.452 C  
HETATM   17  C   UNL     2     -10.420  12.068  65.146  1.00  0.00    -0.289 C  
HETATM   18  C   UNL     2     -10.270  10.699  65.838  1.00  0.00    -0.314 C  
HETATM   19  N   UNL     2     -10.280  13.162  66.207  1.00  0.00    -0.287 N  
HETATM   20  C   UNL     2      -9.086  13.097  67.165  1.00  0.00    -0.230 C  
HETATM   21  C   UNL     2     -10.008  14.523  65.479  1.00  0.00    -0.342 C  
ENDBRANCH  11  12
ENDBRANCH   7  11
ENDBRANCH   3   4
TORSDOF 4
ENDMDL
MODEL       16
REMARK 921   NORMALIZED FREE ENERGY PREDICTED BY IDOCK:   -5.15 KCAL/MOL
REMARK 922        TOTAL FREE ENERGY PREDICTED BY IDOCK:   -6.91 KCAL/MOL
REMARK 923 INTER-LIGAND FREE ENERGY PREDICTED BY IDOCK:   -6.10 KCAL/MOL
REMARK 924 INTRA-LIGAND FREE ENERGY PREDICTED BY IDOCK:   -0.81 KCAL/MOL
REMARK 927      BINDING AFFINITY PREDICTED BY RF-SCORE:    0.00 PKD
ROOT
HETATM    1 BR   UNL     1     -10.646   5.631  69.816  1.00  0.00    -0.388 Br 
HETATM    2  C   UNL     2     -10.351  18.873  67.633  1.00  0.00    -0.496 C  
HETATM    3  C   UNL     2     -10.175  17.597  68.443  1.00  0.00    -0.381 C  
ENDROOT
BRANCH   3   4
HETATM    4  C   UNL     2     -11.073  16.465  67.930  1.00  0.00    -0.249 C  
HETATM    5  C   UNL     2     -10.718  15.065  68.492  1.00  0.00    -0.244 C  
HETATM    6  C   UNL     2     -10.734  15.004  70.035  1.00  0.00    -0.216 C  
HETATM    7  C   UNL     2     -11.601  13.994  67.827  1.00  0.00    -0.345 C  
HETATM    8  O   UNL     2     -12.181  14.152  66.762  1.00  0.00    -0.447 OA 
BRANCH   6   9
HETATM    9  C   UNL     2     -12.091  15.345  70.657  1.00  0.00    -0.412 C  
HETATM   10  C   UNL     2     -11.942  15.923  72.055  1.00  0.00    -0.602 C  
ENDBRANCH   6   9
BRANCH   7  11
HETATM   11  O   UNL     2     -11.586  12.818  68.513  1.00  0.00    -0.277 OA 
BRANCH  11  12
HETATM   12  C   UNL     2     -10.985  11.623  67.949  1.00  0.00    -0.225 C  
HETATM   13  C   UNL     2      -9.554  11.807  67.337  1.00  0.00    -0.173 C  
HETATM   14  C   UNL     2      -8.950  10.409  66.810  1.00  0.00    -0.140 C  
HETATM   15  C   UNL     2      -9.503   9.124  66.074  1.00  0.00    -0.321 C  
HETATM   16  C   UNL     2     -10.630   8.607  67.008  1.00  0.00    -0.293 C  
HETATM   17  C   UNL     2     -10.320   9.161  68.423  1.00  0.00    -0.206 C  
HETATM   18  C   UNL     2     -11.146  10.388  68.854  1.00  0.00    -0.296 C  
HETATM   19  N   UNL     2      -8.860   9.594  68.266  1.00  0.00    -0.120 N  
HETATM   20  C   UNL     2      -8.211  10.389  69.404  1.00  0.00    -0.151 C  
HETATM   21  C   UNL     2      -7.964   8.308  68.248  1.00  0.00    -0.119 C  
ENDBRANCH  11  12
ENDBRANCH   7  11
ENDBRANCH   3   4
TORSDOF 4
ENDMDL
MODEL       17
REMARK 921   NORMALIZED FREE ENERGY PREDICTED BY IDOCK:   -5.14 KCAL/MOL
REMARK 922        TOTAL FREE ENERGY PREDICTED BY IDOCK:   -6.90 KCAL/MOL
REMARK 923 INTER-LIGAND FREE ENERGY PREDICTED BY IDOCK:   -6.21 KCAL/MOL
REMARK 924 INTRA-LIGAND FREE ENERGY PREDICTED BY IDOCK:   -0.69 KCAL/MOL
REMARK 927      BINDING AFFINITY PREDICTED BY RF-SCORE:    0.00 PKD
ROOT
HETATM    1 BR   UNL     1     -12.752  11.832  63.384  1.00  0.00    -0.095 Br 
HETATM    2  C   UNL     2      -5.179  20.760  69.952  1.00  0.00    -0.398 C  
HETATM    3  C   UNL     2      -6.468  20.040  69.583  1.00  0.00    -0.374 C  
ENDROOT
BRANCH   3   4
HETATM    4  C   UNL     2      -6.404  19.441  68.173  1.00  0.00    -0.253 C  
HETATM    5  C   UNL     2      -7.578  18.488  67.832  1.00  0.00    -0.252 C  
HETATM    6  C   UNL     2      -8.966  19.146  67.994  1.00  0.00    -0.356 C  
HETATM    7  C   UNL     2      -7.356  17.857  66.446  1.00  0.00    -0.265 C  
HETATM    8  O   UNL     2      -6.267  17.790  65.893  1.00  0.00    -0.219 OA 
BRANCH   6   9
HETATM    9  C   UNL     2      -9.181  20.370  67.099  1.00  0.00    -0.511 C  
HETATM   10  C   UNL     2     -10.279  20.135  66.074  1.00  0.00    -0.497 C  
ENDBRANCH   6   9
BRANCH   7  11
HETATM   11  O   UNL     2      -8.493  17.298  65.948  1.00  0.00    -0.533 OA 
BRANCH  11  12
HETATM   12  C   UNL     2      -8.802  15.896  66.166  1.00  0.00    -0.328 C  
HETATM   13  C   UNL     2      -7.921  15.164  67.234  1.00  0.00    -0.234 C  
HETATM   14  C   UNL     2      -8.396  13.640  67.452  1.00  0.00    -0.192 C  
HETATM   15  C   UNL     2      -8.927  12.461  66.543  1.00  0.00    -0.145 C  
HETATM   16  C   UNL     2     -10.187  13.051  65.853  1.00  0.00    -0.298 C  
HETATM   17  C   UNL     2     -10.683  14.210  66.758  1.00  0.00    -0.286 C  
HETATM   18  C   UNL     2     -10.315  15.629  66.284  1.00  0.00    -0.316 C  
HETATM   19  N   UNL     2      -9.927  13.925  68.057  1.00  0.00    -0.234 N  
HETATM   20  C   UNL     2      -9.987  14.970  69.178  1.00  0.00    -0.237 C  
HETATM   21  C   UNL     2     -10.599  12.694  68.759  1.00  0.00    -0.186 C  
ENDBRANCH  11  12
ENDBRANCH   7  11
ENDBRANCH   3   4
TORSDOF 4
ENDMDL
MODEL       18
REMARK 921   NORMALIZED FREE ENERGY PREDICTED BY IDOCK:   -5.14 KCAL/MOL
REMARK 922        TOTAL FREE ENERGY PREDICTED BY IDOCK:   -6.90 KCAL/MOL
REMARK 923 INTER-LIGAND FREE ENERGY PREDICTED BY IDOCK:   -6.37 KCAL/MOL
REMARK 924 INTRA-LIGAND FREE ENERGY PREDICTED BY IDOCK:   -0.53 KCAL/MOL
REMARK 927      BINDING AFFINITY PREDICTED BY RF-SCORE:    0.00 PKD
ROOT
HETATM    1 BR   UNL     1      -5.576   8.923  74.555  1.00  0.00    -0.134 Br 
HETATM    2  C   UNL     2     -12.160  12.704  63.483  1.00  0.00    -0.648 C  
HETATM    3  C   UNL     2     -10.973  12.629  64.434  1.00  0.00    -0.386 C  
ENDROOT
BRANCH   3   4
HETATM    4  C   UNL     2     -11.413  12.348  65.877  1.00  0.00    -0.422 C  
HETATM    5  C   UNL     2     -10.648  11.188  66.561  1.00  0.00    -0.314 C  
HETATM    6  C   UNL     2      -9.118  11.389  66.575  1.00  0.00    -0.193 C  
HETATM    7  C   UNL     2     -11.244  10.916  67.954  1.00  0.00    -0.321 C  
HETATM    8  O   UNL     2     -12.367  11.262  68.295  1.00  0.00    -0.542 OA 
BRANCH   6   9
HETATM    9  C   UNL     2      -8.663  12.650  67.316  1.00  0.00    -0.198 C  
HETATM   10  C   UNL     2      -7.670  12.329  68.421  1.00  0.00    -0.141 C  
ENDBRANCH   6   9
BRANCH   7  11
HETATM   11  O   UNL     2     -10.415  10.166  68.730  1.00  0.00    -0.184 OA 
BRANCH  11  12
HETATM   12  C   UNL     2     -10.939   9.219  69.697  1.00  0.00    -0.175 C  
HETATM   13  C   UNL     2     -10.192   7.843  69.773  1.00  0.00    -0.212 C  
HETATM   14  C   UNL     2     -10.805   6.899  70.926  1.00  0.00    -0.244 C  
HETATM   15  C   UNL     2     -12.239   6.571  71.500  1.00  0.00    -0.328 C  
HETATM   16  C   UNL     2     -12.795   7.951  71.945  1.00  0.00    -0.331 C  
HETATM   17  C   UNL     2     -11.565   8.864  72.189  1.00  0.00    -0.330 C  
HETATM   18  C   UNL     2     -11.243   9.864  71.062  1.00  0.00    -0.435 C  
HETATM   19  N   UNL     2     -10.434   7.836  72.259  1.00  0.00    -0.228 N  
HETATM   20  C   UNL     2      -8.989   8.347  72.299  1.00  0.00    -0.233 C  
HETATM   21  C   UNL     2     -10.528   7.092  73.635  1.00  0.00    -0.376 C  
ENDBRANCH  11  12
ENDBRANCH   7  11
ENDBRANCH   3   4
TORSDOF 4
ENDMDL
MODEL       19
REMARK 921   NORMALIZED FREE ENERGY PREDICTED BY IDOCK:   -5.11 KCAL/MOL
REMARK 922        TOTAL FREE ENERGY PREDICTED BY IDOCK:   -6.86 KCAL/MOL
REMARK 923 INTER-LIGAND FREE ENERGY PREDICTED BY IDOCK:   -6.11 KCAL/MOL
REMARK 924 INTRA-LIGAND FREE ENERGY PREDICTED BY IDOCK:   -0.75 KCAL/MOL
REMARK 927      BINDING AFFINITY PREDICTED BY RF-SCORE:    0.00 PKD
ROOT
HETATM    1 BR   UNL     1     -10.559   3.471  63.804  1.00  0.00    -0.261 Br 
HETATM    2  C   UNL     2      -9.195  16.574  66.386  1.00  0.00    -0.327 C  
HETATM    3  C   UNL     2      -8.830  15.098  66.470  1.00  0.00    -0.312 C  
ENDROOT
BRANCH   3   4
HETATM    4  C   UNL     2     -10.045  14.194  66.226  1.00  0.00    -0.308 C  
HETATM    5  C   UNL     2     -10.399  13.270  67.417  1.00  0.00    -0.243 C  
HETATM    6  C   UNL     2     -10.651  14.037  68.733  1.00  0.00    -0.260 C  
HETATM    7  C   UNL     2     -11.553  12.329  67.026  1.00  0.00    -0.349 C  
HETATM    8  O   UNL     2     -11.858  12.067  65.871  1.00  0.00    -0.499 OA 
BRANCH   6   9
HETATM    9  C   UNL     2     -11.806  15.040  68.656  1.00  0.00    -0.325 C  
HETATM   10  C   UNL     2     -12.289  15.452  70.038  1.00  0.00    -0.368 C  
ENDBRANCH   6   9
BRANCH   7  11
HETATM   11  O   UNL     2     -12.134  11.749  68.112  1.00  0.00    -0.556 OA 
BRANCH  11  12
HETATM   12  C   UNL     2     -11.603  10.527  68.689  1.00  0.00    -0.171 C  
HETATM   13  C   UNL     2     -10.576   9.747  67.800  1.00  0.00    -0.320 C  
HETATM   14  C   UNL     2      -9.994   8.452  68.563  1.00  0.00    -0.187 C  
HETATM   15  C   UNL     2     -10.559   7.341  69.534  1.00  0.00    -0.244 C  
HETATM   16  C   UNL     2     -11.129   8.142  70.737  1.00  0.00    -0.275 C  
HETATM   17  C   UNL     2     -10.394   9.507  70.745  1.00  0.00    -0.306 C  
HETATM   18  C   UNL     2     -11.185  10.694  70.162  1.00  0.00    -0.378 C  
HETATM   19  N   UNL     2      -9.208   9.220  69.822  1.00  0.00    -0.168 N  
HETATM   20  C   UNL     2      -8.315  10.391  69.398  1.00  0.00    -0.142 C  
HETATM   21  C   UNL     2      -8.182   8.326  70.601  1.00  0.00    -0.112 C  
ENDBRANCH  11  12
ENDBRANCH   7  11
ENDBRANCH   3   4
TORSDOF 4
ENDMDL
MODEL       20
REMARK 921   NORMALIZED FREE ENERGY PREDICTED BY IDOCK:   -5.09 KCAL/MOL
REMARK 922        TOTAL FREE ENERGY PREDICTED BY IDOCK:   -6.84 KCAL/MOL
REMARK 923 INTER-LIGAND FREE ENERGY PREDICTED BY IDOCK:   -6.11 KCAL/MOL
REMARK 924 INTRA-LIGAND FREE ENERGY PREDICTED BY IDOCK:   -0.74 KCAL/MOL
REMARK 927      BINDING AFFINITY PREDICTED BY RF-SCORE:    0.00 PKD
ROOT
HETATM    1 BR   UNL     1      -9.401   2.796  70.906  1.00  0.00    -0.225 Br 
HETATM    2  C   UNL     2     -12.154  14.195  64.373  1.00  0.00    -0.486 C  
HETATM    3  C   UNL     2     -11.360  12.937  64.692  1.00  0.00    -0.361 C  
ENDROOT
BRANCH   3   4
HETATM    4  C   UNL     2     -11.583  12.471  66.136  1.00  0.00    -0.448 C  
HETATM    5  C   UNL     2     -10.874  11.140  66.492  1.00  0.00    -0.302 C  
HETATM    6  C   UNL     2      -9.350  11.174  66.248  1.00  0.00    -0.216 C  
HETATM    7  C   UNL     2     -11.256  10.707  67.919  1.00  0.00    -0.308 C  
HETATM    8  O   UNL     2     -12.249  11.108  68.511  1.00  0.00    -0.600 OA 
BRANCH   6   9
HETATM    9  C   UNL     2      -8.613  12.242  67.062  1.00  0.00    -0.191 C  
HETATM   10  C   UNL     2      -7.423  11.661  67.809  1.00  0.00    -0.111 C  
ENDBRANCH   6   9
BRANCH   7  11
HETATM   11  O   UNL     2     -10.414   9.757  68.411  1.00  0.00    -0.199 OA 
BRANCH  11  12
HETATM   12  C   UNL     2     -10.783   8.941  69.553  1.00  0.00    -0.199 C  
HETATM   13  C   UNL     2     -10.737   7.392  69.324  1.00  0.00    -0.197 C  
HETATM   14  C   UNL     2     -11.090   6.582  70.672  1.00  0.00    -0.309 C  
HETATM   15  C   UNL     2     -12.094   6.745  71.880  1.00  0.00    -0.375 C  
HETATM   16  C   UNL     2     -11.752   8.139  72.473  1.00  0.00    -0.457 C  
HETATM   17  C   UNL     2     -10.292   8.450  72.053  1.00  0.00    -0.304 C  
HETATM   18  C   UNL     2     -10.133   9.419  70.865  1.00  0.00    -0.366 C  
HETATM   19  N   UNL     2      -9.800   7.069  71.617  1.00  0.00    -0.164 N  
HETATM   20  C   UNL     2      -8.432   6.966  70.932  1.00  0.00    -0.135 C  
HETATM   21  C   UNL     2      -9.560   6.202  72.901  1.00  0.00    -0.154 C  
ENDBRANCH  11  12
ENDBRANCH   7  11
ENDBRANCH   3   4
TORSDOF 4
ENDMDL
MODEL       21
REMARK 921   NORMALIZED FREE ENERGY PREDICTED BY IDOCK:   -5.08 KCAL/MOL
REMARK 922        TOTAL FREE ENERGY PREDICTED BY IDOCK:   -6.83 KCAL/MOL
REMARK 923 INTER-LIGAND FREE ENERGY PREDICTED BY IDOCK:   -5.86 KCAL/MOL
REMARK 924 INTRA-LIGAND FREE ENERGY PREDICTED BY IDOCK:   -0.97 KCAL/MOL
REMARK 927      BINDING AFFINITY PREDICTED BY RF-SCORE:    0.00 PKD
ROOT
HETATM    1 BR   UNL     1      -9.999  18.674  67.461  1.00  0.00    -0.400 Br 
HETATM    2  C   UNL     2      -7.309   5.597  68.865  1.00  0.00    -0.082 C  
HETATM    3  C   UNL     2      -7.424   6.917  68.115  1.00  0.00    -0.099 C  
ENDROOT
BRANCH   3   4
HETATM    4  C   UNL     2      -8.445   7.858  68.767  1.00  0.00    -0.128 C  
HETATM    5  C   UNL     2      -9.192   8.778  67.769  1.00  0.00    -0.146 C  
HETATM    6  C   UNL     2      -9.924   8.002  66.653  1.00  0.00    -0.326 C  
HETATM    7  C   UNL     2     -10.101   9.755  68.534  1.00  0.00    -0.166 C  
HETATM    8  O   UNL     2      -9.956  10.039  69.715  1.00  0.00    -0.225 OA 
BRANCH   6   9
HETATM    9  C   UNL     2     -10.992   7.033  67.168  1.00  0.00    -0.393 C  
HETATM   10  C   UNL     2     -10.672   5.592  66.803  1.00  0.00    -0.358 C  
ENDBRANCH   6   9
BRANCH   7  11
HETATM   11  O   UNL     2     -11.026  10.338  67.724  1.00  0.00    -0.278 OA 
BRANCH  11  12
HETATM   12  C   UNL     2     -10.818  11.665  67.174  1.00  0.00    -0.261 C  
HETATM   13  C   UNL     2     -10.215  11.715  65.729  1.00  0.00    -0.281 C  
HETATM   14  C   UNL     2     -10.097  13.228  65.188  1.00  0.00    -0.231 C  
HETATM   15  C   UNL     2      -9.720  14.638  65.792  1.00  0.00    -0.331 C  
HETATM   16  C   UNL     2     -10.731  14.836  66.954  1.00  0.00    -0.308 C  
HETATM   17  C   UNL     2     -11.952  13.935  66.634  1.00  0.00    -0.442 C  
HETATM   18  C   UNL     2     -12.018  12.603  67.405  1.00  0.00    -0.309 C  
HETATM   19  N   UNL     2     -11.721  13.624  65.154  1.00  0.00    -0.320 N  
HETATM   20  C   UNL     2     -12.619  12.580  64.481  1.00  0.00    -0.421 C  
HETATM   21  C   UNL     2     -12.070  14.904  64.320  1.00  0.00    -0.353 C  
ENDBRANCH  11  12
ENDBRANCH   7  11
ENDBRANCH   3   4
TORSDOF 4
ENDMDL
MODEL       22
REMARK 921   NORMALIZED FREE ENERGY PREDICTED BY IDOCK:   -5.07 KCAL/MOL
REMARK 922        TOTAL FREE ENERGY PREDICTED BY IDOCK:   -6.82 KCAL/MOL
REMARK 923 INTER-LIGAND FREE ENERGY PREDICTED BY IDOCK:   -6.10 KCAL/MOL
REMARK 924 INTRA-LIGAND FREE ENERGY PREDICTED BY IDOCK:   -0.72 KCAL/MOL
REMARK 927      BINDING AFFINITY PREDICTED BY RF-SCORE:    0.00 PKD
ROOT
HETATM    1 BR   UNL     1      -8.144  20.038  66.255  1.00  0.00    -0.286 Br 
HETATM    2  C   UNL     2     -10.591   6.865  67.095  1.00  0.00    -0.408 C  
HETATM    3  C   UNL     2      -9.836   8.111  66.651  1.00  0.00    -0.331 C  
ENDROOT
BRANCH   3   4
HETATM    4  C   UNL     2     -10.739   9.350  66.629  1.00  0.00    -0.076 C  
HETATM    5  C   UNL     2      -9.979  10.689  66.459  1.00  0.00    -0.265 C  
HETATM    6  C   UNL     2      -9.099  10.735  65.191  1.00  0.00    -0.225 C  
HETATM    7  C   UNL     2     -10.962  11.868  66.566  1.00  0.00    -0.292 C  
HETATM    8  O   UNL     2     -12.062  11.794  67.097  1.00  0.00    -0.592 OA 
BRANCH   6   9
HETATM    9  C   UNL     2      -9.880  10.558  63.886  1.00  0.00    -0.373 C  
HETATM   10  C   UNL     2      -9.152  11.176  62.703  1.00  0.00    -0.366 C  
ENDBRANCH   6   9
BRANCH   7  11
HETATM   11  O   UNL     2     -10.431  13.025  66.086  1.00  0.00    -0.270 OA 
BRANCH  11  12
HETATM   12  C   UNL     2     -10.321  14.208  66.921  1.00  0.00    -0.269 C  
HETATM   13  C   UNL     2      -9.713  13.978  68.347  1.00  0.00    -0.223 C  
HETATM   14  C   UNL     2      -9.565  15.363  69.159  1.00  0.00    -0.253 C  
HETATM   15  C   UNL     2     -10.404  16.691  69.327  1.00  0.00    -0.318 C  
HETATM   16  C   UNL     2     -10.553  17.231  67.878  1.00  0.00    -0.384 C  
HETATM   17  C   UNL     2      -9.385  16.624  67.059  1.00  0.00    -0.224 C  
HETATM   18  C   UNL     2      -9.751  15.423  66.165  1.00  0.00    -0.347 C  
HETATM   19  N   UNL     2      -8.457  16.131  68.171  1.00  0.00    -0.172 N  
HETATM   20  C   UNL     2      -7.246  15.275  67.783  1.00  0.00    -0.165 C  
HETATM   21  C   UNL     2      -7.753  17.375  68.814  1.00  0.00    -0.258 C  
ENDBRANCH  11  12
ENDBRANCH   7  11
ENDBRANCH   3   4
TORSDOF 4
ENDMDL
MODEL       23
REMARK 921   NORMALIZED FREE ENERGY PREDICTED BY IDOCK:   -5.07 KCAL/MOL
REMARK 922        TOTAL FREE ENERGY PREDICTED BY IDOCK:   -6.81 KCAL/MOL
REMARK 923 INTER-LIGAND FREE ENERGY PREDICTED BY IDOCK:   -6.31 KCAL/MOL
REMARK 924 INTRA-LIGAND FREE ENERGY PREDICTED BY IDOCK:   -0.50 KCAL/MOL
REMARK 927      BINDING AFFINITY PREDICTED BY RF-SCORE:    0.00 PKD
ROOT
HETATM    1 BR   UNL     1      -7.842   3.517  66.076  1.00  0.00    -0.089 Br 
HETATM    2  C   UNL     2     -11.742  16.076  68.774  1.00  0.00    -0.302 C  
HETATM    3  C   UNL     2     -10.798  14.882  68.794  1.00  0.00    -0.254 C  
ENDROOT
BRANCH   3   4
HETATM    4  C   UNL     2     -11.552  13.554  68.647  1.00  0.00    -0.365 C  
HETATM    5  C   UNL     2     -11.576  12.690  69.932  1.00  0.00    -0.248 C  
HETATM    6  C   UNL     2     -12.171  13.426  71.153  1.00  0.00    -0.243 C  
HETATM    7  C   UNL     2     -12.252  11.338  69.643  1.00  0.00    -0.271 C  
HETATM    8  O   UNL     2     -12.375  10.862  68.522  1.00  0.00    -0.490 OA 
BRANCH   6   9
HETATM    9  C   UNL     2     -13.620  13.882  70.958  1.00  0.00    -0.067 C  
HETATM   10  C   UNL     2     -13.912  15.170  71.710  1.00  0.00    -0.627 C  
ENDBRANCH   6   9
BRANCH   7  11
HETATM   11  O   UNL     2     -12.614  10.690  70.783  1.00  0.00    -0.334 OA 
BRANCH  11  12
HETATM   12  C   UNL     2     -11.740   9.711  71.405  1.00  0.00    -0.404 C  
HETATM   13  C   UNL     2     -12.429   8.384  71.870  1.00  0.00    -0.390 C  
HETATM   14  C   UNL     2     -11.359   7.340  72.474  1.00  0.00    -0.296 C  
HETATM   15  C   UNL     2     -10.062   7.416  73.373  1.00  0.00    -0.389 C  
HETATM   16  C   UNL     2      -9.114   8.367  72.593  1.00  0.00    -0.311 C  
HETATM   17  C   UNL     2      -9.568   8.323  71.110  1.00  0.00    -0.163 C  
HETATM   18  C   UNL     2     -10.418   9.517  70.637  1.00  0.00    -0.374 C  
HETATM   19  N   UNL     2     -10.448   7.071  71.100  1.00  0.00    -0.211 N  
HETATM   20  C   UNL     2     -11.267   6.769  69.840  1.00  0.00    -0.326 C  
HETATM   21  C   UNL     2      -9.516   5.812  71.162  1.00  0.00    -0.158 C  
ENDBRANCH  11  12
ENDBRANCH   7  11
ENDBRANCH   3   4
TORSDOF 4
ENDMDL
MODEL       24
REMARK 921   NORMALIZED FREE ENERGY PREDICTED BY IDOCK:   -5.05 KCAL/MOL
REMARK 922        TOTAL FREE ENERGY PREDICTED BY IDOCK:   -6.79 KCAL/MOL
REMARK 923 INTER-LIGAND FREE ENERGY PREDICTED BY IDOCK:   -6.08 KCAL/MOL
REMARK 924 INTRA-LIGAND FREE ENERGY PREDICTED BY IDOCK:   -0.71 KCAL/MOL
REMARK 927      BINDING AFFINITY PREDICTED BY RF-SCORE:    0.00 PKD
ROOT
HETATM    1 BR   UNL     1      -5.332   9.319  73.065  1.00  0.00    -0.034 Br 
HETATM    2  C   UNL     2     -10.013  20.448  67.196  1.00  0.00    -0.568 C  
HETATM    3  C   UNL     2      -9.124  19.643  68.133  1.00  0.00    -0.392 C  
ENDROOT
BRANCH   3   4
HETATM    4  C   UNL     2      -9.772  18.312  68.534  1.00  0.00    -0.379 C  
HETATM    5  C   UNL     2     -10.146  17.401  67.339  1.00  0.00    -0.321 C  
HETATM    6  C   UNL     2      -8.949  17.073  66.420  1.00  0.00    -0.308 C  
HETATM    7  C   UNL     2     -10.890  16.152  67.844  1.00  0.00    -0.332 C  
HETATM    8  O   UNL     2     -11.449  16.083  68.930  1.00  0.00    -0.348 OA 
BRANCH   6   9
HETATM    9  C   UNL     2      -7.804  16.343  67.128  1.00  0.00    -0.223 C  
HETATM   10  C   UNL     2      -6.459  16.994  66.849  1.00  0.00    -0.248 C  
ENDBRANCH   6   9
BRANCH   7  11
HETATM   11  O   UNL     2     -10.934  15.166  66.907  1.00  0.00    -0.317 OA 
BRANCH  11  12
HETATM   12  C   UNL     2     -10.630  13.787  67.247  1.00  0.00    -0.275 C  
HETATM   13  C   UNL     2     -11.808  12.770  67.076  1.00  0.00    -0.428 C  
HETATM   14  C   UNL     2     -11.343  11.262  67.407  1.00  0.00    -0.276 C  
HETATM   15  C   UNL     2     -10.397  10.556  68.457  1.00  0.00    -0.199 C  
HETATM   16  C   UNL     2      -9.016  11.234  68.239  1.00  0.00    -0.172 C  
HETATM   17  C   UNL     2      -9.025  11.799  66.795  1.00  0.00    -0.196 C  
HETATM   18  C   UNL     2      -9.281  13.314  66.675  1.00  0.00    -0.222 C  
HETATM   19  N   UNL     2     -10.219  11.060  66.187  1.00  0.00    -0.240 N  
HETATM   20  C   UNL     2     -10.704  11.482  64.795  1.00  0.00    -0.306 C  
HETATM   21  C   UNL     2      -9.795   9.575  65.920  1.00  0.00    -0.290 C  
ENDBRANCH  11  12
ENDBRANCH   7  11
ENDBRANCH   3   4
TORSDOF 4
ENDMDL
MODEL       25
REMARK 921   NORMALIZED FREE ENERGY PREDICTED BY IDOCK:   -5.04 KCAL/MOL
REMARK 922        TOTAL FREE ENERGY PREDICTED BY IDOCK:   -6.77 KCAL/MOL
REMARK 923 INTER-LIGAND FREE ENERGY PREDICTED BY IDOCK:   -6.03 KCAL/MOL
REMARK 924 INTRA-LIGAND FREE ENERGY PREDICTED BY IDOCK:   -0.74 KCAL/MOL
REMARK 927      BINDING AFFINITY PREDICTED BY RF-SCORE:    0.00 PKD
ROOT
HETATM    1 BR   UNL     1     -11.289   8.168  72.438  1.00  0.00    -0.469 Br 
HETATM    2  C   UNL     2     -10.030  20.051  66.322  1.00  0.00    -0.597 C  
HETATM    3  C   UNL     2     -10.665  19.034  67.260  1.00  0.00    -0.556 C  
ENDROOT
BRANCH   3   4
HETATM    4  C   UNL     2     -10.357  17.593  66.834  1.00  0.00    -0.329 C  
HETATM    5  C   UNL     2      -9.593  16.765  67.897  1.00  0.00    -0.236 C  
HETATM    6  C   UNL     2     -10.317  16.700  69.259  1.00  0.00    -0.318 C  
HETATM    7  C   UNL     2      -9.235  15.381  67.326  1.00  0.00    -0.207 C  
HETATM    8  O   UNL     2      -9.190  15.127  66.131  1.00  0.00    -0.295 OA 
BRANCH   6   9
HETATM    9  C   UNL     2     -11.709  16.065  69.193  1.00  0.00    -0.310 C  
HETATM   10  C   UNL     2     -12.072  15.362  70.491  1.00  0.00    -0.411 C  
ENDBRANCH   6   9
BRANCH   7  11
HETATM   11  O   UNL     2      -8.883  14.499  68.301  1.00  0.00    -0.166 OA 
BRANCH  11  12
HETATM   12  C   UNL     2      -9.400  13.142  68.313  1.00  0.00    -0.201 C  
HETATM   13  C   UNL     2     -10.734  12.917  67.524  1.00  0.00    -0.241 C  
HETATM   14  C   UNL     2     -11.177  11.367  67.537  1.00  0.00    -0.292 C  
HETATM   15  C   UNL     2     -11.158  10.177  68.575  1.00  0.00    -0.266 C  
HETATM   16  C   UNL     2      -9.663  10.043  68.973  1.00  0.00    -0.204 C  
HETATM   17  C   UNL     2      -8.841  10.659  67.811  1.00  0.00    -0.133 C  
HETATM   18  C   UNL     2      -8.310  12.085  68.052  1.00  0.00    -0.162 C  
HETATM   19  N   UNL     2      -9.887  10.717  66.696  1.00  0.00    -0.193 N  
HETATM   20  C   UNL     2      -9.531  11.457  65.401  1.00  0.00    -0.216 C  
HETATM   21  C   UNL     2     -10.117   9.263  66.158  1.00  0.00    -0.233 C  
ENDBRANCH  11  12
ENDBRANCH   7  11
ENDBRANCH   3   4
TORSDOF 4
ENDMDL
MODEL       26
REMARK 921   NORMALIZED FREE ENERGY PREDICTED BY IDOCK:   -5.04 KCAL/MOL
REMARK 922        TOTAL FREE ENERGY PREDICTED BY IDOCK:   -6.77 KCAL/MOL
REMARK 923 INTER-LIGAND FREE ENERGY PREDICTED BY IDOCK:   -6.15 KCAL/MOL
REMARK 924 INTRA-LIGAND FREE ENERGY PREDICTED BY IDOCK:   -0.62 KCAL/MOL
REMARK 927      BINDING AFFINITY PREDICTED BY RF-SCORE:    0.00 PKD
ROOT
HETATM    1 BR   UNL     1     -11.838  15.736  71.518  1.00  0.00    -0.567 Br 
HETATM    2  C   UNL     2      -9.093   4.371  64.921  1.00  0.00    -0.151 C  
HETATM    3  C   UNL     2      -9.772   5.233  65.975  1.00  0.00    -0.159 C  
ENDROOT
BRANCH   3   4
HETATM    4  C   UNL     2      -8.945   6.479  66.315  1.00  0.00    -0.168 C  
HETATM    5  C   UNL     2      -9.780   7.774  66.473  1.00  0.00    -0.265 C  
HETATM    6  C   UNL     2     -10.897   7.657  67.533  1.00  0.00    -0.205 C  
HETATM    7  C   UNL     2      -8.847   8.977  66.697  1.00  0.00    -0.132 C  
HETATM    8  O   UNL     2      -7.661   8.986  66.396  1.00  0.00    -0.091 OA 
BRANCH   6   9
HETATM    9  C   UNL     2     -10.385   7.345  68.943  1.00  0.00    -0.214 C  
HETATM   10  C   UNL     2     -11.040   6.100  69.519  1.00  0.00    -0.490 C  
ENDBRANCH   6   9
BRANCH   7  11
HETATM   11  O   UNL     2      -9.512  10.060  67.183  1.00  0.00    -0.150 OA 
BRANCH  11  12
HETATM   12  C   UNL     2     -10.336  10.888  66.321  1.00  0.00    -0.250 C  
HETATM   13  C   UNL     2     -11.264  11.917  67.052  1.00  0.00    -0.379 C  
HETATM   14  C   UNL     2     -12.076  12.833  66.004  1.00  0.00    -0.395 C  
HETATM   15  C   UNL     2     -12.785  12.627  64.608  1.00  0.00    -0.458 C  
HETATM   16  C   UNL     2     -11.660  12.081  63.687  1.00  0.00    -0.578 C  
HETATM   17  C   UNL     2     -10.317  12.535  64.316  1.00  0.00    -0.370 C  
HETATM   18  C   UNL     2      -9.560  11.460  65.120  1.00  0.00    -0.258 C  
HETATM   19  N   UNL     2     -10.787  13.619  65.287  1.00  0.00    -0.309 N  
HETATM   20  C   UNL     2      -9.769  14.206  66.272  1.00  0.00    -0.297 C  
HETATM   21  C   UNL     2     -11.171  14.892  64.457  1.00  0.00    -0.264 C  
ENDBRANCH  11  12
ENDBRANCH   7  11
ENDBRANCH   3   4
TORSDOF 4
ENDMDL
MODEL       27
REMARK 921   NORMALIZED FREE ENERGY PREDICTED BY IDOCK:   -5.03 KCAL/MOL
REMARK 922        TOTAL FREE ENERGY PREDICTED BY IDOCK:   -6.77 KCAL/MOL
REMARK 923 INTER-LIGAND FREE ENERGY PREDICTED BY IDOCK:   -6.36 KCAL/MOL
REMARK 924 INTRA-LIGAND FREE ENERGY PREDICTED BY IDOCK:   -0.41 KCAL/MOL
REMARK 927      BINDING AFFINITY PREDICTED BY RF-SCORE:    0.00 PKD
ROOT
HETATM    1 BR   UNL     1      -9.922  19.311  66.232  1.00  0.00    -0.503 Br 
HETATM    2  C   UNL     2     -10.508   7.575  72.724  1.00  0.00    -0.348 C  
HETATM    3  C   UNL     2      -9.837   8.697  71.944  1.00  0.00    -0.384 C  
ENDROOT
BRANCH   3   4
HETATM    4  C   UNL     2     -10.840   9.476  71.084  1.00  0.00    -0.425 C  
HETATM    5  C   UNL     2     -10.239  10.069  69.786  1.00  0.00    -0.286 C  
HETATM    6  C   UNL     2      -9.576   9.010  68.878  1.00  0.00    -0.156 C  
HETATM    7  C   UNL     2     -11.295  10.923  69.061  1.00  0.00    -0.281 C  
HETATM    8  O   UNL     2     -12.287  11.388  69.605  1.00  0.00    -0.259 OA 
BRANCH   6   9
HETATM    9  C   UNL     2     -10.532   7.913  68.403  1.00  0.00    -0.207 C  
HETATM   10  C   UNL     2     -10.074   6.533  68.845  1.00  0.00    -0.183 C  
ENDBRANCH   6   9
BRANCH   7  11
HETATM   11  O   UNL     2     -10.951  11.177  67.769  1.00  0.00    -0.222 OA 
BRANCH  11  12
HETATM   12  C   UNL     2     -10.680  12.529  67.313  1.00  0.00    -0.233 C  
HETATM   13  C   UNL     2     -11.935  13.370  66.899  1.00  0.00    -0.437 C  
HETATM   14  C   UNL     2     -11.531  14.874  66.483  1.00  0.00    -0.286 C  
HETATM   15  C   UNL     2     -10.347  15.571  65.702  1.00  0.00    -0.407 C  
HETATM   16  C   UNL     2      -9.074  15.145  66.483  1.00  0.00    -0.328 C  
HETATM   17  C   UNL     2      -9.538  14.779  67.917  1.00  0.00    -0.210 C  
HETATM   18  C   UNL     2      -9.672  13.272  68.210  1.00  0.00    -0.225 C  
HETATM   19  N   UNL     2     -10.935  15.403  67.952  1.00  0.00    -0.300 N  
HETATM   20  C   UNL     2     -11.837  15.099  69.154  1.00  0.00    -0.313 C  
HETATM   21  C   UNL     2     -10.778  16.957  68.079  1.00  0.00    -0.364 C  
ENDBRANCH  11  12
ENDBRANCH   7  11
ENDBRANCH   3   4
TORSDOF 4
ENDMDL
MODEL       28
REMARK 921   NORMALIZED FREE ENERGY PREDICTED BY IDOCK:   -5.03 KCAL/MOL
REMARK 922        TOTAL FREE ENERGY PREDICTED BY IDOCK:   -6.76 KCAL/MOL
REMARK 923 INTER-LIGAND FREE ENERGY PREDICTED BY IDOCK:   -6.06 KCAL/MOL
REMARK 924 INTRA-LIGAND FREE ENERGY PREDICTED BY IDOCK:   -0.70 KCAL/MOL
REMARK 927      BINDING AFFINITY PREDICTED BY RF-SCORE:    0.00 PKD
ROOT
HETATM    1 BR   UNL     1     -10.171  19.428  68.058  1.00  0.00    -0.547 Br 
HETATM    2  C   UNL     2      -6.975   6.390  68.154  1.00  0.00    -0.080 C  
HETATM    3  C   UNL     2      -7.162   7.767  67.534  1.00  0.00    -0.091 C  
ENDROOT
BRANCH   3   4
HETATM    4  C   UNL     2      -8.194   8.604  68.301  1.00  0.00    -0.122 C  
HETATM    5  C   UNL     2      -9.329   9.181  67.419  1.00  0.00    -0.161 C  
HETATM    6  C   UNL     2     -10.103   8.099  66.635  1.00  0.00    -0.344 C  
HETATM    7  C   UNL     2     -10.237  10.093  68.262  1.00  0.00    -0.166 C  
HETATM    8  O   UNL     2      -9.898  10.603  69.322  1.00  0.00    -0.218 OA 
BRANCH   6   9
HETATM    9  C   UNL     2     -10.787   7.056  67.524  1.00  0.00    -0.338 C  
HETATM   10  C   UNL     2     -10.475   5.638  67.073  1.00  0.00    -0.344 C  
ENDBRANCH   6   9
BRANCH   7  11
HETATM   11  O   UNL     2     -11.426  10.344  67.649  1.00  0.00    -0.401 OA 
BRANCH  11  12
HETATM   12  C   UNL     2     -11.622  11.535  66.842  1.00  0.00    -0.085 C  
HETATM   13  C   UNL     2     -11.887  12.859  67.638  1.00  0.00    -0.400 C  
HETATM   14  C   UNL     2     -12.014  14.128  66.652  1.00  0.00    -0.444 C  
HETATM   15  C   UNL     2     -12.640  14.421  65.232  1.00  0.00    -0.333 C  
HETATM   16  C   UNL     2     -11.938  13.405  64.290  1.00  0.00    -0.481 C  
HETATM   17  C   UNL     2     -10.601  13.020  64.976  1.00  0.00    -0.319 C  
HETATM   18  C   UNL     2     -10.592  11.662  65.703  1.00  0.00    -0.324 C  
HETATM   19  N   UNL     2     -10.466  14.128  66.022  1.00  0.00    -0.295 N  
HETATM   20  C   UNL     2      -9.351  14.010  67.067  1.00  0.00    -0.250 C  
HETATM   21  C   UNL     2     -10.053  15.451  65.290  1.00  0.00    -0.319 C  
ENDBRANCH  11  12
ENDBRANCH   7  11
ENDBRANCH   3   4
TORSDOF 4
ENDMDL
MODEL       29
REMARK 921   NORMALIZED FREE ENERGY PREDICTED BY IDOCK:   -5.02 KCAL/MOL
REMARK 922        TOTAL FREE ENERGY PREDICTED BY IDOCK:   -6.75 KCAL/MOL
REMARK 923 INTER-LIGAND FREE ENERGY PREDICTED BY IDOCK:   -5.97 KCAL/MOL
REMARK 924 INTRA-LIGAND FREE ENERGY PREDICTED BY IDOCK:   -0.78 KCAL/MOL
REMARK 927      BINDING AFFINITY PREDICTED BY RF-SCORE:    0.00 PKD
ROOT
HETATM    1 BR   UNL     1     -11.921  15.948  72.078  1.00  0.00    -0.652 Br 
HETATM    2  C   UNL     2      -8.767   4.882  65.164  1.00  0.00    -0.148 C  
HETATM    3  C   UNL     2      -8.951   5.731  66.414  1.00  0.00    -0.139 C  
ENDROOT
BRANCH   3   4
HETATM    4  C   UNL     2      -8.844   7.230  66.107  1.00  0.00    -0.181 C  
HETATM    5  C   UNL     2     -10.045   8.070  66.612  1.00  0.00    -0.329 C  
HETATM    6  C   UNL     2     -10.297   7.925  68.128  1.00  0.00    -0.249 C  
HETATM    7  C   UNL     2      -9.893   9.531  66.153  1.00  0.00    -0.272 C  
HETATM    8  O   UNL     2      -9.183   9.883  65.220  1.00  0.00    -0.190 OA 
BRANCH   6   9
HETATM    9  C   UNL     2      -9.117   8.363  69.000  1.00  0.00    -0.147 C  
HETATM   10  C   UNL     2      -9.522   9.428  70.006  1.00  0.00    -0.257 C  
ENDBRANCH   6   9
BRANCH   7  11
HETATM   11  O   UNL     2     -10.709  10.374  66.842  1.00  0.00    -0.252 OA 
BRANCH  11  12
HETATM   12  C   UNL     2     -10.640  11.812  66.655  1.00  0.00    -0.240 C  
HETATM   13  C   UNL     2     -12.013  12.536  66.442  1.00  0.00    -0.386 C  
HETATM   14  C   UNL     2     -11.829  14.133  66.322  1.00  0.00    -0.411 C  
HETATM   15  C   UNL     2     -10.786  15.122  65.668  1.00  0.00    -0.374 C  
HETATM   16  C   UNL     2      -9.432  14.734  66.323  1.00  0.00    -0.332 C  
HETATM   17  C   UNL     2      -9.775  14.039  67.666  1.00  0.00    -0.228 C  
HETATM   18  C   UNL     2      -9.697  12.501  67.660  1.00  0.00    -0.196 C  
HETATM   19  N   UNL     2     -11.238  14.446  67.853  1.00  0.00    -0.274 N  
HETATM   20  C   UNL     2     -12.035  13.795  68.990  1.00  0.00    -0.360 C  
HETATM   21  C   UNL     2     -11.281  15.954  68.280  1.00  0.00    -0.354 C  
ENDBRANCH  11  12
ENDBRANCH   7  11
ENDBRANCH   3   4
TORSDOF 4
ENDMDL
MODEL       30
REMARK 921   NORMALIZED FREE ENERGY PREDICTED BY IDOCK:   -5.01 KCAL/MOL
REMARK 922        TOTAL FREE ENERGY PREDICTED BY IDOCK:   -6.74 KCAL/MOL
REMARK 923 INTER-LIGAND FREE ENERGY PREDICTED BY IDOCK:   -6.27 KCAL/MOL
REMARK 924 INTRA-LIGAND FREE ENERGY PREDICTED BY IDOCK:   -0.47 KCAL/MOL
REMARK 927      BINDING AFFINITY PREDICTED BY RF-SCORE:    0.00 PKD
ROOT
HETATM    1 BR   UNL     1      -9.823  20.384  67.154  1.00  0.00    -0.551 Br 
HETATM    2  C   UNL     2      -9.940   6.960  67.052  1.00  0.00    -0.257 C  
HETATM    3  C   UNL     2      -9.486   8.347  66.619  1.00  0.00    -0.267 C  
ENDROOT
BRANCH   3   4
HETATM    4  C   UNL     2     -10.565   9.408  66.869  1.00  0.00    -0.238 C  
HETATM    5  C   UNL     2     -10.088  10.865  66.650  1.00  0.00    -0.264 C  
HETATM    6  C   UNL     2      -9.514  11.115  65.239  1.00  0.00    -0.257 C  
HETATM    7  C   UNL     2     -11.208  11.847  67.038  1.00  0.00    -0.323 C  
HETATM    8  O   UNL     2     -12.144  11.560  67.772  1.00  0.00    -0.626 OA 
BRANCH   6   9
HETATM    9  C   UNL     2     -10.511  10.853  64.106  1.00  0.00    -0.397 C  
HETATM   10  C   UNL     2     -10.881  12.131  63.372  1.00  0.00    -0.474 C  
ENDBRANCH   6   9
BRANCH   7  11
HETATM   11  O   UNL     2     -10.987  13.098  66.549  1.00  0.00    -0.281 OA 
BRANCH  11  12
HETATM   12  C   UNL     2      -9.823  13.869  66.947  1.00  0.00    -0.268 C  
HETATM   13  C   UNL     2      -9.519  15.137  66.079  1.00  0.00    -0.358 C  
HETATM   14  C   UNL     2      -8.256  15.959  66.650  1.00  0.00    -0.282 C  
HETATM   15  C   UNL     2      -6.857  15.612  67.295  1.00  0.00    -0.197 C  
HETATM   16  C   UNL     2      -7.214  14.750  68.537  1.00  0.00    -0.115 C  
HETATM   17  C   UNL     2      -8.675  15.108  68.916  1.00  0.00    -0.205 C  
HETATM   18  C   UNL     2      -9.746  14.095  68.468  1.00  0.00    -0.219 C  
HETATM   19  N   UNL     2      -8.882  16.406  68.134  1.00  0.00    -0.188 N  
HETATM   20  C   UNL     2     -10.293  17.004  68.078  1.00  0.00    -0.341 C  
HETATM   21  C   UNL     2      -8.098  17.552  68.862  1.00  0.00    -0.168 C  
ENDBRANCH  11  12
ENDBRANCH   7  11
ENDBRANCH   3   4
TORSDOF 4
ENDMDL
MODEL       31
REMARK 921   NORMALIZED FREE ENERGY PREDICTED BY IDOCK:   -5.00 KCAL/MOL
REMARK 922        TOTAL FREE ENERGY PREDICTED BY IDOCK:   -6.72 KCAL/MOL
REMARK 923 INTER-LIGAND FREE ENERGY PREDICTED BY IDOCK:   -6.31 KCAL/MOL
REMARK 924 INTRA-LIGAND FREE ENERGY PREDICTED BY IDOCK:   -0.42 KCAL/MOL
REMARK 927      BINDING AFFINITY PREDICTED BY RF-SCORE:    0.00 PKD
ROOT
HETATM    1 BR   UNL     1      -9.259   8.565  71.379  1.00  0.00    -0.301 Br 
HETATM    2  C   UNL     2      -5.729  21.168  68.394  1.00  0.00    -0.355 C  
HETATM    3  C   UNL     2      -6.334  20.062  69.247  1.00  0.00    -0.365 C  
ENDROOT
BRANCH   3   4
HETATM    4  C   UNL     2      -6.780  18.865  68.398  1.00  0.00    -0.270 C  
HETATM    5  C   UNL     2      -8.238  18.408  68.657  1.00  0.00    -0.316 C  
HETATM    6  C   UNL     2      -9.276  19.532  68.452  1.00  0.00    -0.412 C  
HETATM    7  C   UNL     2      -8.542  17.137  67.845  1.00  0.00    -0.214 C  
HETATM    8  O   UNL     2      -7.682  16.388  67.402  1.00  0.00    -0.137 OA 
BRANCH   6   9
HETATM    9  C   UNL     2      -9.292  20.112  67.035  1.00  0.00    -0.523 C  
HETATM   10  C   UNL     2     -10.655  19.963  66.378  1.00  0.00    -0.532 C  
ENDBRANCH   6   9
BRANCH   7  11
HETATM   11  O   UNL     2      -9.877  16.892  67.755  1.00  0.00    -0.242 OA 
BRANCH  11  12
HETATM   12  C   UNL     2     -10.386  15.546  67.562  1.00  0.00    -0.271 C  
HETATM   13  C   UNL     2     -10.110  14.910  66.157  1.00  0.00    -0.316 C  
HETATM   14  C   UNL     2     -10.647  13.393  66.076  1.00  0.00    -0.287 C  
HETATM   15  C   UNL     2     -11.901  12.589  66.604  1.00  0.00    -0.422 C  
HETATM   16  C   UNL     2     -11.860  12.789  68.143  1.00  0.00    -0.372 C  
HETATM   17  C   UNL     2     -10.391  13.129  68.505  1.00  0.00    -0.238 C  
HETATM   18  C   UNL     2     -10.094  14.619  68.758  1.00  0.00    -0.235 C  
HETATM   19  N   UNL     2      -9.658  12.701  67.232  1.00  0.00    -0.198 N  
HETATM   20  C   UNL     2      -8.172  13.053  67.094  1.00  0.00    -0.127 C  
HETATM   21  C   UNL     2      -9.600  11.135  67.198  1.00  0.00    -0.173 C  
ENDBRANCH  11  12
ENDBRANCH   7  11
ENDBRANCH   3   4
TORSDOF 4
ENDMDL
MODEL       32
REMARK 921   NORMALIZED FREE ENERGY PREDICTED BY IDOCK:   -4.97 KCAL/MOL
REMARK 922        TOTAL FREE ENERGY PREDICTED BY IDOCK:   -6.69 KCAL/MOL
REMARK 923 INTER-LIGAND FREE ENERGY PREDICTED BY IDOCK:   -6.02 KCAL/MOL
REMARK 924 INTRA-LIGAND FREE ENERGY PREDICTED BY IDOCK:   -0.68 KCAL/MOL
REMARK 927      BINDING AFFINITY PREDICTED BY RF-SCORE:    0.00 PKD
ROOT
HETATM    1 BR   UNL     1      -7.949   8.216  62.565  1.00  0.00    -0.161 Br 
HETATM    2  C   UNL     2     -11.899  16.316  72.515  1.00  0.00    -0.608 C  
HETATM    3  C   UNL     2     -12.042  15.562  71.201  1.00  0.00    -0.433 C  
ENDROOT
BRANCH   3   4
HETATM    4  C   UNL     2     -10.681  15.273  70.555  1.00  0.00    -0.247 C  
HETATM    5  C   UNL     2     -10.730  15.099  69.017  1.00  0.00    -0.239 C  
HETATM    6  C   UNL     2     -11.341  16.313  68.283  1.00  0.00    -0.280 C  
HETATM    7  C   UNL     2      -9.340  14.701  68.490  1.00  0.00    -0.201 C  
HETATM    8  O   UNL     2      -8.462  14.208  69.185  1.00  0.00     0.025 OA 
BRANCH   6   9
HETATM    9  C   UNL     2     -10.579  17.622  68.507  1.00  0.00    -0.281 C  
HETATM   10  C   UNL     2     -10.757  18.584  67.343  1.00  0.00    -0.424 C  
ENDBRANCH   6   9
BRANCH   7  11
HETATM   11  O   UNL     2      -9.232  14.872  67.144  1.00  0.00    -0.202 OA 
BRANCH  11  12
HETATM   12  C   UNL     2      -9.685  13.853  66.215  1.00  0.00    -0.289 C  
HETATM   13  C   UNL     2     -10.578  12.722  66.830  1.00  0.00    -0.266 C  
HETATM   14  C   UNL     2     -11.088  11.689  65.703  1.00  0.00    -0.249 C  
HETATM   15  C   UNL     2     -10.488  11.018  64.404  1.00  0.00    -0.422 C  
HETATM   16  C   UNL     2     -10.071  12.220  63.514  1.00  0.00    -0.344 C  
HETATM   17  C   UNL     2     -10.926  13.429  63.976  1.00  0.00    -0.217 C  
HETATM   18  C   UNL     2     -10.210  14.441  64.891  1.00  0.00    -0.357 C  
HETATM   19  N   UNL     2     -12.020  12.734  64.789  1.00  0.00    -0.377 N  
HETATM   20  C   UNL     2     -12.986  13.603  65.602  1.00  0.00    -0.238 C  
HETATM   21  C   UNL     2     -13.008  12.036  63.793  1.00  0.00    -0.206 C  
ENDBRANCH  11  12
ENDBRANCH   7  11
ENDBRANCH   3   4
TORSDOF 4
ENDMDL
MODEL       33
REMARK 921   NORMALIZED FREE ENERGY PREDICTED BY IDOCK:   -4.96 KCAL/MOL
REMARK 922        TOTAL FREE ENERGY PREDICTED BY IDOCK:   -6.68 KCAL/MOL
REMARK 923 INTER-LIGAND FREE ENERGY PREDICTED BY IDOCK:   -6.38 KCAL/MOL
REMARK 924 INTRA-LIGAND FREE ENERGY PREDICTED BY IDOCK:   -0.30 KCAL/MOL
REMARK 927      BINDING AFFINITY PREDICTED BY RF-SCORE:    0.00 PKD
ROOT
HETATM    1 BR   UNL     1     -10.341   3.457  63.751  1.00  0.00    -0.250 Br 
HETATM    2  C   UNL     2     -10.596  16.644  66.254  1.00  0.00    -0.205 C  
HETATM    3  C   UNL     2     -10.399  15.397  65.403  1.00  0.00    -0.422 C  
ENDROOT
BRANCH   3   4
HETATM    4  C   UNL     2     -10.058  14.169  66.258  1.00  0.00    -0.308 C  
HETATM    5  C   UNL     2     -11.292  13.450  66.858  1.00  0.00    -0.351 C  
HETATM    6  C   UNL     2     -12.317  13.002  65.794  1.00  0.00    -0.477 C  
HETATM    7  C   UNL     2     -10.834  12.310  67.786  1.00  0.00    -0.221 C  
HETATM    8  O   UNL     2      -9.719  12.243  68.285  1.00  0.00    -0.214 OA 
BRANCH   6   9
HETATM    9  C   UNL     2     -11.753  12.021  64.762  1.00  0.00    -0.342 C  
HETATM   10  C   UNL     2     -12.142  12.407  63.344  1.00  0.00    -0.620 C  
ENDBRANCH   6   9
BRANCH   7  11
HETATM   11  O   UNL     2     -11.840  11.436  68.061  1.00  0.00    -0.570 OA 
BRANCH  11  12
HETATM   12  C   UNL     2     -11.615  10.261  68.883  1.00  0.00    -0.065 C  
HETATM   13  C   UNL     2     -10.585   9.224  68.317  1.00  0.00    -0.237 C  
HETATM   14  C   UNL     2     -10.354   8.000  69.339  1.00  0.00    -0.217 C  
HETATM   15  C   UNL     2     -11.244   7.137  70.319  1.00  0.00    -0.309 C  
HETATM   16  C   UNL     2     -11.879   8.183  71.275  1.00  0.00    -0.317 C  
HETATM   17  C   UNL     2     -10.952   9.426  71.248  1.00  0.00    -0.370 C  
HETATM   18  C   UNL     2     -11.435  10.599  70.375  1.00  0.00    -0.422 C  
HETATM   19  N   UNL     2      -9.685   8.845  70.616  1.00  0.00    -0.196 N  
HETATM   20  C   UNL     2      -8.560   9.810  70.224  1.00  0.00    -0.129 C  
HETATM   21  C   UNL     2      -8.961   7.959  71.687  1.00  0.00    -0.138 C  
ENDBRANCH  11  12
ENDBRANCH   7  11
ENDBRANCH   3   4
TORSDOF 4
ENDMDL
MODEL       34
REMARK 921   NORMALIZED FREE ENERGY PREDICTED BY IDOCK:   -4.95 KCAL/MOL
REMARK 922        TOTAL FREE ENERGY PREDICTED BY IDOCK:   -6.67 KCAL/MOL
REMARK 923 INTER-LIGAND FREE ENERGY PREDICTED BY IDOCK:   -5.84 KCAL/MOL
REMARK 924 INTRA-LIGAND FREE ENERGY PREDICTED BY IDOCK:   -0.83 KCAL/MOL
REMARK 927      BINDING AFFINITY PREDICTED BY RF-SCORE:    0.00 PKD
ROOT
HETATM    1 BR   UNL     1     -12.514  12.218  63.640  1.00  0.00    -0.604 Br 
HETATM    2  C   UNL     2     -10.784   3.719  73.886  1.00  0.00    -0.305 C  
HETATM    3  C   UNL     2     -11.496   4.800  73.086  1.00  0.00    -0.348 C  
ENDROOT
BRANCH   3   4
HETATM    4  C   UNL     2     -10.526   5.584  72.192  1.00  0.00    -0.272 C  
HETATM    5  C   UNL     2     -11.184   6.217  70.941  1.00  0.00    -0.386 C  
HETATM    6  C   UNL     2     -12.362   7.157  71.279  1.00  0.00    -0.418 C  
HETATM    7  C   UNL     2     -10.109   6.876  70.060  1.00  0.00    -0.182 C  
HETATM    8  O   UNL     2      -8.918   6.599  70.113  1.00  0.00    -0.150 OA 
BRANCH   6   9
HETATM    9  C   UNL     2     -11.975   8.345  72.165  1.00  0.00    -0.438 C  
HETATM   10  C   UNL     2     -12.506   9.658  71.612  1.00  0.00    -0.494 C  
ENDBRANCH   6   9
BRANCH   7  11
HETATM   11  O   UNL     2     -10.645   7.734  69.149  1.00  0.00    -0.222 OA 
BRANCH  11  12
HETATM   12  C   UNL     2      -9.825   8.719  68.466  1.00  0.00    -0.168 C  
HETATM   13  C   UNL     2     -10.142   8.929  66.946  1.00  0.00    -0.343 C  
HETATM   14  C   UNL     2      -9.229  10.093  66.306  1.00  0.00    -0.157 C  
HETATM   15  C   UNL     2      -7.734  10.586  66.441  1.00  0.00    -0.135 C  
HETATM   16  C   UNL     2      -7.576  10.907  67.952  1.00  0.00    -0.095 C  
HETATM   17  C   UNL     2      -9.002  11.179  68.497  1.00  0.00    -0.168 C  
HETATM   18  C   UNL     2      -9.651  10.018  69.275  1.00  0.00    -0.227 C  
HETATM   19  N   UNL     2      -9.788  11.389  67.201  1.00  0.00    -0.189 N  
HETATM   20  C   UNL     2     -11.314  11.497  67.285  1.00  0.00    -0.290 C  
HETATM   21  C   UNL     2      -9.418  12.798  66.623  1.00  0.00    -0.249 C  
ENDBRANCH  11  12
ENDBRANCH   7  11
ENDBRANCH   3   4
TORSDOF 4
ENDMDL
MODEL       35
REMARK 921   NORMALIZED FREE ENERGY PREDICTED BY IDOCK:   -4.93 KCAL/MOL
REMARK 922        TOTAL FREE ENERGY PREDICTED BY IDOCK:   -6.65 KCAL/MOL
REMARK 923 INTER-LIGAND FREE ENERGY PREDICTED BY IDOCK:   -6.22 KCAL/MOL
REMARK 924 INTRA-LIGAND FREE ENERGY PREDICTED BY IDOCK:   -0.42 KCAL/MOL
REMARK 927      BINDING AFFINITY PREDICTED BY RF-SCORE:    0.00 PKD
ROOT
HETATM    1 BR   UNL     1      -9.049   3.624  64.572  1.00  0.00    -0.139 Br 
HETATM    2  C   UNL     2     -10.973  16.554  67.628  1.00  0.00    -0.207 C  
HETATM    3  C   UNL     2     -10.166  15.275  67.452  1.00  0.00    -0.243 C  
ENDROOT
BRANCH   3   4
HETATM    4  C   UNL     2     -11.044  14.023  67.571  1.00  0.00    -0.313 C  
HETATM    5  C   UNL     2     -10.873  13.250  68.902  1.00  0.00    -0.245 C  
HETATM    6  C   UNL     2     -11.135  14.118  70.152  1.00  0.00     0.044 C  
HETATM    7  C   UNL     2     -11.708  11.957  68.868  1.00  0.00    -0.323 C  
HETATM    8  O   UNL     2     -12.102  11.426  67.839  1.00  0.00    -0.646 OA 
BRANCH   6   9
HETATM    9  C   UNL     2     -12.548  14.704  70.217  1.00  0.00    -0.370 C  
HETATM   10  C   UNL     2     -12.850  15.301  71.582  1.00  0.00    -0.469 C  
ENDBRANCH   6   9
BRANCH   7  11
HETATM   11  O   UNL     2     -11.877  11.422  70.108  1.00  0.00    -0.312 OA 
BRANCH  11  12
HETATM   12  C   UNL     2     -11.855   9.986  70.320  1.00  0.00    -0.216 C  
HETATM   13  C   UNL     2     -10.594   9.238  69.767  1.00  0.00    -0.244 C  
HETATM   14  C   UNL     2     -10.634   7.666  70.121  1.00  0.00    -0.236 C  
HETATM   15  C   UNL     2     -11.733   6.533  70.192  1.00  0.00    -0.419 C  
HETATM   16  C   UNL     2     -12.772   7.075  71.211  1.00  0.00    -0.400 C  
HETATM   17  C   UNL     2     -12.025   8.105  72.098  1.00  0.00    -0.359 C  
HETATM   18  C   UNL     2     -12.267   9.586  71.749  1.00  0.00    -0.465 C  
HETATM   19  N   UNL     2     -10.564   7.769  71.787  1.00  0.00    -0.213 N  
HETATM   20  C   UNL     2      -9.473   8.703  72.324  1.00  0.00    -0.265 C  
HETATM   21  C   UNL     2     -10.199   6.430  72.516  1.00  0.00    -0.183 C  
ENDBRANCH  11  12
ENDBRANCH   7  11
ENDBRANCH   3   4
TORSDOF 4
ENDMDL
MODEL       36
REMARK 921   NORMALIZED FREE ENERGY PREDICTED BY IDOCK:   -4.92 KCAL/MOL
REMARK 922        TOTAL FREE ENERGY PREDICTED BY IDOCK:   -6.63 KCAL/MOL
REMARK 923 INTER-LIGAND FREE ENERGY PREDICTED BY IDOCK:   -5.90 KCAL/MOL
REMARK 924 INTRA-LIGAND FREE ENERGY PREDICTED BY IDOCK:   -0.73 KCAL/MOL
REMARK 927      BINDING AFFINITY PREDICTED BY RF-SCORE:    0.00 PKD
ROOT
HETATM    1 BR   UNL     1      -5.186   8.222  63.785  1.00  0.00    -0.049 Br 
HETATM    2  C   UNL     2      -6.687  20.143  69.774  1.00  0.00    -0.225 C  
HETATM    3  C   UNL     2      -5.909  18.970  69.193  1.00  0.00    -0.242 C  
ENDROOT
BRANCH   3   4
HETATM    4  C   UNL     2      -6.734  17.676  69.201  1.00  0.00    -0.243 C  
HETATM    5  C   UNL     2      -8.110  17.795  68.501  1.00  0.00    -0.297 C  
HETATM    6  C   UNL     2      -8.012  18.271  67.035  1.00  0.00    -0.237 C  
HETATM    7  C   UNL     2      -8.898  16.483  68.667  1.00  0.00    -0.237 C  
HETATM    8  O   UNL     2      -8.665  15.652  69.535  1.00  0.00    -0.260 OA 
BRANCH   6   9
HETATM    9  C   UNL     2      -7.191  17.344  66.134  1.00  0.00    -0.327 C  
HETATM   10  C   UNL     2      -6.184  18.117  65.297  1.00  0.00    -0.131 C  
ENDBRANCH   6   9
BRANCH   7  11
HETATM   11  O   UNL     2      -9.942  16.396  67.798  1.00  0.00    -0.240 OA 
BRANCH  11  12
HETATM   12  C   UNL     2     -10.308  15.134  67.183  1.00  0.00    -0.263 C  
HETATM   13  C   UNL     2     -11.833  14.776  67.224  1.00  0.00    -0.316 C  
HETATM   14  C   UNL     2     -12.140  13.396  66.450  1.00  0.00    -0.409 C  
HETATM   15  C   UNL     2     -11.436  11.991  66.285  1.00  0.00    -0.408 C  
HETATM   16  C   UNL     2     -10.037  12.332  65.703  1.00  0.00    -0.275 C  
HETATM   17  C   UNL     2     -10.172  13.715  65.014  1.00  0.00    -0.334 C  
HETATM   18  C   UNL     2      -9.631  14.915  65.817  1.00  0.00    -0.311 C  
HETATM   19  N   UNL     2     -11.692  13.854  64.906  1.00  0.00    -0.350 N  
HETATM   20  C   UNL     2     -12.269  15.198  64.447  1.00  0.00    -0.275 C  
HETATM   21  C   UNL     2     -12.195  12.905  63.765  1.00  0.00    -0.476 C  
ENDBRANCH  11  12
ENDBRANCH   7  11
ENDBRANCH   3   4
TORSDOF 4
ENDMDL
MODEL       37
REMARK 921   NORMALIZED FREE ENERGY PREDICTED BY IDOCK:   -4.91 KCAL/MOL
REMARK 922        TOTAL FREE ENERGY PREDICTED BY IDOCK:   -6.62 KCAL/MOL
REMARK 923 INTER-LIGAND FREE ENERGY PREDICTED BY IDOCK:   -6.02 KCAL/MOL
REMARK 924 INTRA-LIGAND FREE ENERGY PREDICTED BY IDOCK:   -0.60 KCAL/MOL
REMARK 927      BINDING AFFINITY PREDICTED BY RF-SCORE:    0.00 PKD
ROOT
HETATM    1 BR   UNL     1     -13.875  15.211  72.105  1.00  0.00    -0.671 Br 
HETATM    2  C   UNL     2      -7.962   8.106  62.370  1.00  0.00    -0.156 C  
HETATM    3  C   UNL     2      -8.280   8.493  63.807  1.00  0.00    -0.126 C  
ENDROOT
BRANCH   3   4
HETATM    4  C   UNL     2      -8.724   9.956  63.921  1.00  0.00    -0.230 C  
HETATM    5  C   UNL     2      -9.972  10.175  64.812  1.00  0.00    -0.334 C  
HETATM    6  C   UNL     2      -9.802   9.631  66.247  1.00  0.00    -0.323 C  
HETATM    7  C   UNL     2     -10.399  11.653  64.764  1.00  0.00    -0.282 C  
HETATM    8  O   UNL     2     -10.077  12.428  63.874  1.00  0.00    -0.376 OA 
BRANCH   6   9
HETATM    9  C   UNL     2      -8.648  10.273  67.022  1.00  0.00    -0.129 C  
HETATM   10  C   UNL     2      -8.931  10.327  68.515  1.00  0.00    -0.134 C  
ENDBRANCH   6   9
BRANCH   7  11
HETATM   11  O   UNL     2     -11.252  11.975  65.775  1.00  0.00    -0.318 OA 
BRANCH  11  12
HETATM   12  C   UNL     2     -10.943  13.040  66.712  1.00  0.00    -0.276 C  
HETATM   13  C   UNL     2      -9.521  13.681  66.566  1.00  0.00    -0.270 C  
HETATM   14  C   UNL     2      -9.312  14.900  67.600  1.00  0.00    -0.191 C  
HETATM   15  C   UNL     2      -9.707  15.217  69.096  1.00  0.00    -0.243 C  
HETATM   16  C   UNL     2     -11.256  15.101  69.113  1.00  0.00    -0.288 C  
HETATM   17  C   UNL     2     -11.730  15.326  67.654  1.00  0.00    -0.167 C  
HETATM   18  C   UNL     2     -12.094  14.052  66.867  1.00  0.00    -0.465 C  
HETATM   19  N   UNL     2     -10.482  15.942  67.020  1.00  0.00    -0.303 N  
HETATM   20  C   UNL     2     -10.461  16.144  65.500  1.00  0.00    -0.386 C  
HETATM   21  C   UNL     2     -10.353  17.422  67.521  1.00  0.00    -0.351 C  
ENDBRANCH  11  12
ENDBRANCH   7  11
ENDBRANCH   3   4
TORSDOF 4
ENDMDL
MODEL       38
REMARK 921   NORMALIZED FREE ENERGY PREDICTED BY IDOCK:   -4.90 KCAL/MOL
REMARK 922        TOTAL FREE ENERGY PREDICTED BY IDOCK:   -6.61 KCAL/MOL
REMARK 923 INTER-LIGAND FREE ENERGY PREDICTED BY IDOCK:   -5.77 KCAL/MOL
REMARK 924 INTRA-LIGAND FREE ENERGY PREDICTED BY IDOCK:   -0.84 KCAL/MOL
REMARK 927      BINDING AFFINITY PREDICTED BY RF-SCORE:    0.00 PKD
ROOT
HETATM    1 BR   UNL     1     -14.281   8.502  71.624  1.00  0.00    -0.466 Br 
HETATM    2  C   UNL     2      -9.975  20.526  67.490  1.00  0.00    -0.497 C  
HETATM    3  C   UNL     2     -10.731  19.210  67.378  1.00  0.00    -0.578 C  
ENDROOT
BRANCH   3   4
HETATM    4  C   UNL     2     -10.118  18.121  68.268  1.00  0.00    -0.398 C  
HETATM    5  C   UNL     2      -9.756  16.815  67.518  1.00  0.00    -0.252 C  
HETATM    6  C   UNL     2      -8.793  17.037  66.332  1.00  0.00    -0.313 C  
HETATM    7  C   UNL     2      -9.261  15.755  68.519  1.00  0.00    -0.198 C  
HETATM    8  O   UNL     2      -9.498  15.787  69.719  1.00  0.00    -0.254 OA 
BRANCH   6   9
HETATM    9  C   UNL     2      -7.447  17.648  66.731  1.00  0.00    -0.249 C  
HETATM   10  C   UNL     2      -7.100  18.858  65.878  1.00  0.00    -0.294 C  
ENDBRANCH   6   9
BRANCH   7  11
HETATM   11  O   UNL     2      -8.609  14.731  67.903  1.00  0.00    -0.155 OA 
BRANCH  11  12
HETATM   12  C   UNL     2      -9.335  13.613  67.327  1.00  0.00    -0.233 C  
HETATM   13  C   UNL     2     -10.779  13.380  67.888  1.00  0.00    -0.259 C  
HETATM   14  C   UNL     2     -11.521  12.167  67.130  1.00  0.00    -0.346 C  
HETATM   15  C   UNL     2     -11.116  10.751  66.558  1.00  0.00    -0.061 C  
HETATM   16  C   UNL     2      -9.982  11.062  65.544  1.00  0.00    -0.308 C  
HETATM   17  C   UNL     2     -10.166  12.541  65.116  1.00  0.00    -0.279 C  
HETATM   18  C   UNL     2      -9.222  13.553  65.792  1.00  0.00     0.286 C  
HETATM   19  N   UNL     2     -11.593  12.820  65.594  1.00  0.00    -0.349 N  
HETATM   20  C   UNL     2     -12.111  14.262  65.536  1.00  0.00    -0.394 C  
HETATM   21  C   UNL     2     -12.589  12.103  64.619  1.00  0.00    -0.175 C  
ENDBRANCH  11  12
ENDBRANCH   7  11
ENDBRANCH   3   4
TORSDOF 4
ENDMDL
MODEL       39
REMARK 921   NORMALIZED FREE ENERGY PREDICTED BY IDOCK:   -4.90 KCAL/MOL
REMARK 922        TOTAL FREE ENERGY PREDICTED BY IDOCK:   -6.60 KCAL/MOL
REMARK 923 INTER-LIGAND FREE ENERGY PREDICTED BY IDOCK:   -5.81 KCAL/MOL
REMARK 924 INTRA-LIGAND FREE ENERGY PREDICTED BY IDOCK:   -0.80 KCAL/MOL
REMARK 927      BINDING AFFINITY PREDICTED BY RF-SCORE:    0.00 PKD
ROOT
HETATM    1 BR   UNL     1      -5.687   2.914  62.696  1.00  0.00    -0.009 Br 
HETATM    2  C   UNL     2     -12.237  14.141  66.056  1.00  0.00    -0.464 C  
HETATM    3  C   UNL     2     -11.032  13.311  65.635  1.00  0.00    -0.292 C  
ENDROOT
BRANCH   3   4
HETATM    4  C   UNL     2     -11.172  11.843  66.059  1.00  0.00    -0.377 C  
HETATM    5  C   UNL     2     -10.167  11.397  67.150  1.00  0.00    -0.234 C  
HETATM    6  C   UNL     2     -10.233  12.257  68.431  1.00  0.00    -0.220 C  
HETATM    7  C   UNL     2     -10.316   9.889  67.415  1.00  0.00    -0.246 C  
HETATM    8  O   UNL     2     -10.833   9.105  66.630  1.00  0.00    -0.071 OA 
BRANCH   6   9
HETATM    9  C   UNL     2     -11.599  12.236  69.123  1.00  0.00    -0.373 C  
HETATM   10  C   UNL     2     -11.975  13.603  69.673  1.00  0.00    -0.402 C  
ENDBRANCH   6   9
BRANCH   7  11
HETATM   11  O   UNL     2      -9.724   9.511  68.581  1.00  0.00    -0.151 OA 
BRANCH  11  12
HETATM   12  C   UNL     2     -10.481   8.860  69.635  1.00  0.00    -0.216 C  
HETATM   13  C   UNL     2     -10.542   7.296  69.561  1.00  0.00    -0.244 C  
HETATM   14  C   UNL     2     -11.339   6.673  70.815  1.00  0.00    -0.336 C  
HETATM   15  C   UNL     2     -12.615   7.051  71.668  1.00  0.00    -0.419 C  
HETATM   16  C   UNL     2     -12.300   8.470  72.214  1.00  0.00    -0.450 C  
HETATM   17  C   UNL     2     -10.755   8.614  72.203  1.00  0.00    -0.347 C  
HETATM   18  C   UNL     2     -10.170   9.427  71.033  1.00  0.00    -0.369 C  
HETATM   19  N   UNL     2     -10.316   7.157  72.045  1.00  0.00    -0.191 N  
HETATM   20  C   UNL     2      -8.832   6.868  71.791  1.00  0.00    -0.131 C  
HETATM   21  C   UNL     2     -10.535   6.423  73.412  1.00  0.00    -0.263 C  
ENDBRANCH  11  12
ENDBRANCH   7  11
ENDBRANCH   3   4
TORSDOF 4
ENDMDL
MODEL       40
REMARK 921   NORMALIZED FREE ENERGY PREDICTED BY IDOCK:   -4.89 KCAL/MOL
REMARK 922        TOTAL FREE ENERGY PREDICTED BY IDOCK:   -6.60 KCAL/MOL
REMARK 923 INTER-LIGAND FREE ENERGY PREDICTED BY IDOCK:   -5.74 KCAL/MOL
REMARK 924 INTRA-LIGAND FREE ENERGY PREDICTED BY IDOCK:   -0.85 KCAL/MOL
REMARK 927      BINDING AFFINITY PREDICTED BY RF-SCORE:    0.00 PKD
ROOT
HETATM    1 BR   UNL     1     -11.972   9.296  71.343  1.00  0.00    -0.452 Br 
HETATM    2  C   UNL     2      -6.933  20.892  66.832  1.00  0.00    -0.354 C  
HETATM    3  C   UNL     2      -7.323  19.866  67.886  1.00  0.00    -0.326 C  
ENDROOT
BRANCH   3   4
HETATM    4  C   UNL     2      -8.456  18.952  67.404  1.00  0.00    -0.295 C  
HETATM    5  C   UNL     2      -7.976  17.624  66.767  1.00  0.00    -0.268 C  
HETATM    6  C   UNL     2      -7.075  16.788  67.702  1.00  0.00    -0.154 C  
HETATM    7  C   UNL     2      -9.181  16.840  66.217  1.00  0.00    -0.279 C  
HETATM    8  O   UNL     2     -10.263  17.348  65.955  1.00  0.00    -0.499 OA 
BRANCH   6   9
HETATM    9  C   UNL     2      -7.751  16.374  69.011  1.00  0.00    -0.235 C  
HETATM   10  C   UNL     2      -7.004  15.244  69.701  1.00  0.00    -0.188 C  
ENDBRANCH   6   9
BRANCH   7  11
HETATM   11  O   UNL     2      -8.876  15.538  65.967  1.00  0.00    -0.308 OA 
BRANCH  11  12
HETATM   12  C   UNL     2      -9.570  14.457  66.645  1.00  0.00    -0.281 C  
HETATM   13  C   UNL     2     -10.958  14.056  66.039  1.00  0.00    -0.298 C  
HETATM   14  C   UNL     2     -11.605  12.802  66.817  1.00  0.00    -0.370 C  
HETATM   15  C   UNL     2     -11.698  12.303  68.313  1.00  0.00    -0.392 C  
HETATM   16  C   UNL     2     -10.217  12.179  68.765  1.00  0.00    -0.133 C  
HETATM   17  C   UNL     2      -9.375  12.007  67.474  1.00  0.00    -0.179 C  
HETATM   18  C   UNL     2      -8.646  13.272  66.981  1.00  0.00    -0.169 C  
HETATM   19  N   UNL     2     -10.455  11.645  66.453  1.00  0.00    -0.236 N  
HETATM   20  C   UNL     2     -10.064  11.578  64.972  1.00  0.00    -0.270 C  
HETATM   21  C   UNL     2     -10.904  10.165  66.713  1.00  0.00    -0.059 C  
ENDBRANCH  11  12
ENDBRANCH   7  11
ENDBRANCH   3   4
TORSDOF 4
ENDMDL
MODEL       41
REMARK 921   NORMALIZED FREE ENERGY PREDICTED BY IDOCK:   -4.88 KCAL/MOL
REMARK 922        TOTAL FREE ENERGY PREDICTED BY IDOCK:   -6.58 KCAL/MOL
REMARK 923 INTER-LIGAND FREE ENERGY PREDICTED BY IDOCK:   -6.18 KCAL/MOL
REMARK 924 INTRA-LIGAND FREE ENERGY PREDICTED BY IDOCK:   -0.41 KCAL/MOL
REMARK 927      BINDING AFFINITY PREDICTED BY RF-SCORE:    0.00 PKD
ROOT
HETATM    1 BR   UNL     1      -9.533   6.362  74.560  1.00  0.00    -0.297 Br 
HETATM    2  C   UNL     2     -10.858  15.902  65.208  1.00  0.00    -0.401 C  
HETATM    3  C   UNL     2     -10.545  15.349  66.592  1.00  0.00    -0.306 C  
ENDROOT
BRANCH   3   4
HETATM    4  C   UNL     2     -11.277  14.028  66.859  1.00  0.00    -0.323 C  
HETATM    5  C   UNL     2     -10.768  13.259  68.104  1.00  0.00    -0.264 C  
HETATM    6  C   UNL     2     -10.827  14.092  69.403  1.00  0.00    -0.141 C  
HETATM    7  C   UNL     2     -11.487  11.903  68.212  1.00  0.00    -0.311 C  
HETATM    8  O   UNL     2     -12.046  11.350  67.275  1.00  0.00    -0.464 OA 
BRANCH   6   9
HETATM    9  C   UNL     2     -12.237  14.559  69.779  1.00  0.00    -0.360 C  
HETATM   10  C   UNL     2     -12.647  14.065  71.157  1.00  0.00    -0.445 C  
ENDBRANCH   6   9
BRANCH   7  11
HETATM   11  O   UNL     2     -11.347  11.345  69.446  1.00  0.00    -0.253 OA 
BRANCH  11  12
HETATM   12  C   UNL     2     -11.258   9.906  69.617  1.00  0.00    -0.208 C  
HETATM   13  C   UNL     2     -10.231   9.174  68.687  1.00  0.00    -0.225 C  
HETATM   14  C   UNL     2     -10.156   7.597  69.011  1.00  0.00    -0.198 C  
HETATM   15  C   UNL     2     -11.176   6.456  69.403  1.00  0.00    -0.459 C  
HETATM   16  C   UNL     2     -11.848   6.976  70.703  1.00  0.00    -0.377 C  
HETATM   17  C   UNL     2     -10.863   7.997  71.329  1.00  0.00    -0.232 C  
HETATM   18  C   UNL     2     -11.204   9.481  71.097  1.00  0.00    -0.446 C  
HETATM   19  N   UNL     2      -9.571   7.676  70.575  1.00  0.00    -0.168 N  
HETATM   20  C   UNL     2      -8.369   8.609  70.760  1.00  0.00    -0.152 C  
HETATM   21  C   UNL     2      -8.996   6.329  71.132  1.00  0.00    -0.146 C  
ENDBRANCH  11  12
ENDBRANCH   7  11
ENDBRANCH   3   4
TORSDOF 4
ENDMDL
MODEL       42
REMARK 921   NORMALIZED FREE ENERGY PREDICTED BY IDOCK:   -4.88 KCAL/MOL
REMARK 922        TOTAL FREE ENERGY PREDICTED BY IDOCK:   -6.58 KCAL/MOL
REMARK 923 INTER-LIGAND FREE ENERGY PREDICTED BY IDOCK:   -5.81 KCAL/MOL
REMARK 924 INTRA-LIGAND FREE ENERGY PREDICTED BY IDOCK:   -0.77 KCAL/MOL
REMARK 927      BINDING AFFINITY PREDICTED BY RF-SCORE:    0.00 PKD
ROOT
HETATM    1 BR   UNL     1      -9.957  19.062  68.422  1.00  0.00    -0.501 Br 
HETATM    2  C   UNL     2     -10.522   5.745  66.827  1.00  0.00    -0.350 C  
HETATM    3  C   UNL     2     -11.028   7.112  67.264  1.00  0.00    -0.333 C  
ENDROOT
BRANCH   3   4
HETATM    4  C   UNL     2      -9.878   8.095  67.515  1.00  0.00    -0.230 C  
HETATM    5  C   UNL     2     -10.334   9.525  67.897  1.00  0.00    -0.276 C  
HETATM    6  C   UNL     2     -11.253   9.563  69.138  1.00  0.00    -0.004 C  
HETATM    7  C   UNL     2      -9.111  10.452  68.012  1.00  0.00    -0.136 C  
HETATM    8  O   UNL     2      -8.026  10.218  67.497  1.00  0.00    -0.106 OA 
BRANCH   6   9
HETATM    9  C   UNL     2     -10.606   9.004  70.408  1.00  0.00    -0.258 C  
HETATM   10  C   UNL     2     -11.363   9.421  71.658  1.00  0.00    -0.452 C  
ENDBRANCH   6   9
BRANCH   7  11
HETATM   11  O   UNL     2      -9.401  11.606  68.673  1.00  0.00    -0.183 OA 
BRANCH  11  12
HETATM   12  C   UNL     2      -9.870  12.784  67.964  1.00  0.00    -0.226 C  
HETATM   13  C   UNL     2      -9.416  12.902  66.469  1.00  0.00    -0.251 C  
HETATM   14  C   UNL     2     -10.051  14.201  65.757  1.00  0.00    -0.333 C  
HETATM   15  C   UNL     2     -10.368  15.694  66.164  1.00  0.00    -0.329 C  
HETATM   16  C   UNL     2     -11.309  15.561  67.393  1.00  0.00    -0.203 C  
HETATM   17  C   UNL     2     -11.966  14.159  67.296  1.00  0.00    -0.414 C  
HETATM   18  C   UNL     2     -11.362  13.076  68.210  1.00  0.00    -0.323 C  
HETATM   19  N   UNL     2     -11.667  13.784  65.842  1.00  0.00    -0.338 N  
HETATM   20  C   UNL     2     -11.984  12.357  65.379  1.00  0.00    -0.398 C  
HETATM   21  C   UNL     2     -12.613  14.619  64.913  1.00  0.00    -0.165 C  
ENDBRANCH  11  12
ENDBRANCH   7  11
ENDBRANCH   3   4
TORSDOF 4
ENDMDL
MODEL       43
REMARK 921   NORMALIZED FREE ENERGY PREDICTED BY IDOCK:   -4.88 KCAL/MOL
REMARK 922        TOTAL FREE ENERGY PREDICTED BY IDOCK:   -6.58 KCAL/MOL
REMARK 923 INTER-LIGAND FREE ENERGY PREDICTED BY IDOCK:   -5.93 KCAL/MOL
REMARK 924 INTRA-LIGAND FREE ENERGY PREDICTED BY IDOCK:   -0.64 KCAL/MOL
REMARK 927      BINDING AFFINITY PREDICTED BY RF-SCORE:    0.00 PKD
ROOT
HETATM    1 BR   UNL     1     -10.358   3.573  63.997  1.00  0.00    -0.238 Br 
HETATM    2  C   UNL     2     -10.378  16.798  66.303  1.00  0.00    -0.316 C  
HETATM    3  C   UNL     2     -10.288  15.539  65.454  1.00  0.00    -0.422 C  
ENDROOT
BRANCH   3   4
HETATM    4  C   UNL     2      -9.824  14.328  66.273  1.00  0.00    -0.323 C  
HETATM    5  C   UNL     2     -10.974  13.532  66.940  1.00  0.00    -0.296 C  
HETATM    6  C   UNL     2     -12.035  13.032  65.936  1.00  0.00    -0.491 C  
HETATM    7  C   UNL     2     -10.394  12.416  67.826  1.00  0.00    -0.216 C  
HETATM    8  O   UNL     2      -9.248  12.411  68.256  1.00  0.00    -0.200 OA 
BRANCH   6   9
HETATM    9  C   UNL     2     -11.480  12.093  64.862  1.00  0.00    -0.379 C  
HETATM   10  C   UNL     2     -12.334  12.105  63.604  1.00  0.00    -0.673 C  
ENDBRANCH   6   9
BRANCH   7  11
HETATM   11  O   UNL     2     -11.328  11.482  68.154  1.00  0.00    -0.248 OA 
BRANCH  11  12
HETATM   12  C   UNL     2     -11.036  10.062  68.075  1.00  0.00    -0.240 C  
HETATM   13  C   UNL     2     -10.425   9.568  66.720  1.00  0.00    -0.263 C  
HETATM   14  C   UNL     2     -10.069   7.997  66.767  1.00  0.00    -0.287 C  
HETATM   15  C   UNL     2     -10.715   6.691  67.376  1.00  0.00    -0.409 C  
HETATM   16  C   UNL     2     -10.830   6.997  68.895  1.00  0.00    -0.203 C  
HETATM   17  C   UNL     2      -9.778   8.093  69.205  1.00  0.00    -0.163 C  
HETATM   18  C   UNL     2     -10.329   9.527  69.335  1.00  0.00    -0.225 C  
HETATM   19  N   UNL     2      -8.895   8.028  67.957  1.00  0.00    -0.128 N  
HETATM   20  C   UNL     2      -7.822   9.107  67.768  1.00  0.00    -0.100 C  
HETATM   21  C   UNL     2      -8.011   6.737  68.045  1.00  0.00    -0.114 C  
ENDBRANCH  11  12
ENDBRANCH   7  11
ENDBRANCH   3   4
TORSDOF 4
ENDMDL
MODEL       44
REMARK 921   NORMALIZED FREE ENERGY PREDICTED BY IDOCK:   -4.87 KCAL/MOL
REMARK 922        TOTAL FREE ENERGY PREDICTED BY IDOCK:   -6.56 KCAL/MOL
REMARK 923 INTER-LIGAND FREE ENERGY PREDICTED BY IDOCK:   -5.78 KCAL/MOL
REMARK 924 INTRA-LIGAND FREE ENERGY PREDICTED BY IDOCK:   -0.78 KCAL/MOL
REMARK 927      BINDING AFFINITY PREDICTED BY RF-SCORE:    0.00 PKD
ROOT
HETATM    1 BR   UNL     1     -10.644  15.239  65.215  1.00  0.00    -0.458 Br 
HETATM    2  C   UNL     2     -10.713   4.733  73.571  1.00  0.00    -0.338 C  
HETATM    3  C   UNL     2     -11.331   5.796  72.674  1.00  0.00    -0.349 C  
ENDROOT
BRANCH   3   4
HETATM    4  C   UNL     2     -10.427   7.027  72.538  1.00  0.00    -0.243 C  
HETATM    5  C   UNL     2     -10.665   7.852  71.249  1.00  0.00    -0.257 C  
HETATM    6  C   UNL     2     -12.124   8.331  71.090  1.00  0.00    -0.274 C  
HETATM    7  C   UNL     2      -9.633   8.991  71.156  1.00  0.00    -0.286 C  
HETATM    8  O   UNL     2      -8.570   8.998  71.761  1.00  0.00    -0.353 OA 
BRANCH   6   9
HETATM    9  C   UNL     2     -12.610   9.232  72.229  1.00  0.00    -0.402 C  
HETATM   10  C   UNL     2     -13.117  10.570  71.714  1.00  0.00    -0.570 C  
ENDBRANCH   6   9
BRANCH   7  11
HETATM   11  O   UNL     2      -9.997   9.942  70.254  1.00  0.00    -0.254 OA 
BRANCH  11  12
HETATM   12  C   UNL     2      -9.477   9.934  68.898  1.00  0.00    -0.170 C  
HETATM   13  C   UNL     2     -10.361   9.197  67.836  1.00  0.00    -0.285 C  
HETATM   14  C   UNL     2      -9.732   9.314  66.357  1.00  0.00    -0.258 C  
HETATM   15  C   UNL     2      -8.288   9.284  65.718  1.00  0.00    -0.128 C  
HETATM   16  C   UNL     2      -7.531  10.435  66.434  1.00  0.00    -0.120 C  
HETATM   17  C   UNL     2      -8.613  11.418  66.953  1.00  0.00    -0.154 C  
HETATM   18  C   UNL     2      -8.946  11.310  68.454  1.00  0.00    -0.167 C  
HETATM   19  N   UNL     2      -9.839  10.969  66.154  1.00  0.00    -0.217 N  
HETATM   20  C   UNL     2     -11.202  11.570  66.515  1.00  0.00    -0.259 C  
HETATM   21  C   UNL     2      -9.673  11.465  64.677  1.00  0.00    -0.240 C  
ENDBRANCH  11  12
ENDBRANCH   7  11
ENDBRANCH   3   4
TORSDOF 4
ENDMDL
MODEL       45
REMARK 921   NORMALIZED FREE ENERGY PREDICTED BY IDOCK:   -4.85 KCAL/MOL
REMARK 922        TOTAL FREE ENERGY PREDICTED BY IDOCK:   -6.55 KCAL/MOL
REMARK 923 INTER-LIGAND FREE ENERGY PREDICTED BY IDOCK:   -6.11 KCAL/MOL
REMARK 924 INTRA-LIGAND FREE ENERGY PREDICTED BY IDOCK:   -0.44 KCAL/MOL
REMARK 927      BINDING AFFINITY PREDICTED BY RF-SCORE:    0.00 PKD
ROOT
HETATM    1 BR   UNL     1      -8.041   8.065  73.763  1.00  0.00    -0.298 Br 
HETATM    2  C   UNL     2     -10.315  19.665  67.399  1.00  0.00    -0.581 C  
HETATM    3  C   UNL     2     -10.049  18.772  68.603  1.00  0.00    -0.432 C  
ENDROOT
BRANCH   3   4
HETATM    4  C   UNL     2     -10.507  17.329  68.358  1.00  0.00    -0.381 C  
HETATM    5  C   UNL     2     -10.391  16.867  66.884  1.00  0.00    -0.304 C  
HETATM    6  C   UNL     2      -8.964  17.003  66.311  1.00  0.00    -0.282 C  
HETATM    7  C   UNL     2     -10.982  15.454  66.729  1.00  0.00    -0.282 C  
HETATM    8  O   UNL     2     -11.768  14.952  67.521  1.00  0.00    -0.360 OA 
BRANCH   6   9
HETATM    9  C   UNL     2      -7.911  16.184  67.063  1.00  0.00    -0.254 C  
HETATM   10  C   UNL     2      -6.809  17.064  67.630  1.00  0.00    -0.158 C  
ENDBRANCH   6   9
BRANCH   7  11
HETATM   11  O   UNL     2     -10.602  14.863  65.563  1.00  0.00    -0.309 OA 
BRANCH  11  12
HETATM   12  C   UNL     2     -10.098  13.502  65.537  1.00  0.00    -0.268 C  
HETATM   13  C   UNL     2      -9.238  13.072  66.773  1.00  0.00    -0.229 C  
HETATM   14  C   UNL     2      -8.795  11.525  66.679  1.00  0.00    -0.187 C  
HETATM   15  C   UNL     2      -8.328  10.531  65.543  1.00  0.00    -0.170 C  
HETATM   16  C   UNL     2      -9.495  10.551  64.519  1.00  0.00    -0.329 C  
HETATM   17  C   UNL     2     -10.757  11.004  65.297  1.00  0.00    -0.164 C  
HETATM   18  C   UNL     2     -11.165  12.477  65.106  1.00  0.00    -0.342 C  
HETATM   19  N   UNL     2     -10.305  10.813  66.746  1.00  0.00    -0.234 N  
HETATM   20  C   UNL     2     -11.210  11.341  67.866  1.00  0.00    -0.290 C  
HETATM   21  C   UNL     2     -10.297   9.278  67.063  1.00  0.00    -0.255 C  
ENDBRANCH  11  12
ENDBRANCH   7  11
ENDBRANCH   3   4
TORSDOF 4
ENDMDL
MODEL       46
REMARK 921   NORMALIZED FREE ENERGY PREDICTED BY IDOCK:   -4.83 KCAL/MOL
REMARK 922        TOTAL FREE ENERGY PREDICTED BY IDOCK:   -6.52 KCAL/MOL
REMARK 923 INTER-LIGAND FREE ENERGY PREDICTED BY IDOCK:   -5.83 KCAL/MOL
REMARK 924 INTRA-LIGAND FREE ENERGY PREDICTED BY IDOCK:   -0.69 KCAL/MOL
REMARK 927      BINDING AFFINITY PREDICTED BY RF-SCORE:    0.00 PKD
ROOT
HETATM    1 BR   UNL     1     -11.770   9.304  71.631  1.00  0.00    -0.473 Br 
HETATM    2  C   UNL     2      -5.585  20.891  68.852  1.00  0.00    -0.393 C  
HETATM    3  C   UNL     2      -5.834  19.601  69.621  1.00  0.00    -0.299 C  
ENDROOT
BRANCH   3   4
HETATM    4  C   UNL     2      -7.284  19.121  69.480  1.00  0.00    -0.126 C  
HETATM    5  C   UNL     2      -7.650  18.608  68.064  1.00  0.00    -0.279 C  
HETATM    6  C   UNL     2      -6.734  17.465  67.573  1.00  0.00    -0.170 C  
HETATM    7  C   UNL     2      -9.148  18.262  68.002  1.00  0.00    -0.290 C  
HETATM    8  O   UNL     2      -9.982  18.697  68.785  1.00  0.00    -0.375 OA 
BRANCH   6   9
HETATM    9  C   UNL     2      -6.764  16.219  68.462  1.00  0.00    -0.135 C  
HETATM   10  C   UNL     2      -5.952  15.080  67.866  1.00  0.00    -0.163 C  
ENDBRANCH   6   9
BRANCH   7  11
HETATM   11  O   UNL     2      -9.454  17.494  66.922  1.00  0.00    -0.258 OA 
BRANCH  11  12
HETATM   12  C   UNL     2      -9.900  16.121  67.075  1.00  0.00    -0.245 C  
HETATM   13  C   UNL     2     -11.433  15.931  67.340  1.00  0.00     0.050 C  
HETATM   14  C   UNL     2     -11.832  14.371  67.419  1.00  0.00    -0.400 C  
HETATM   15  C   UNL     2     -11.192  13.049  68.000  1.00  0.00    -0.310 C  
HETATM   16  C   UNL     2      -9.815  12.949  67.288  1.00  0.00    -0.218 C  
HETATM   17  C   UNL     2      -9.936  13.770  65.978  1.00  0.00    -0.306 C  
HETATM   18  C   UNL     2      -9.308  15.177  66.012  1.00  0.00    -0.326 C  
HETATM   19  N   UNL     2     -11.453  13.923  65.854  1.00  0.00    -0.318 N  
HETATM   20  C   UNL     2     -12.004  14.858  64.771  1.00  0.00    -0.361 C  
HETATM   21  C   UNL     2     -12.053  12.548  65.398  1.00  0.00    -0.435 C  
ENDBRANCH  11  12
ENDBRANCH   7  11
ENDBRANCH   3   4
TORSDOF 4
ENDMDL
MODEL       47
REMARK 921   NORMALIZED FREE ENERGY PREDICTED BY IDOCK:   -4.83 KCAL/MOL
REMARK 922        TOTAL FREE ENERGY PREDICTED BY IDOCK:   -6.52 KCAL/MOL
REMARK 923 INTER-LIGAND FREE ENERGY PREDICTED BY IDOCK:   -5.75 KCAL/MOL
REMARK 924 INTRA-LIGAND FREE ENERGY PREDICTED BY IDOCK:   -0.77 KCAL/MOL
REMARK 927      BINDING AFFINITY PREDICTED BY RF-SCORE:    0.00 PKD
ROOT
HETATM    1 BR   UNL     1      -6.058   7.976  70.311  1.00  0.00    -0.032 Br 
HETATM    2  C   UNL     2      -9.842  20.448  67.094  1.00  0.00    -0.601 C  
HETATM    3  C   UNL     2      -8.944  19.388  67.716  1.00  0.00    -0.365 C  
ENDROOT
BRANCH   3   4
HETATM    4  C   UNL     2      -9.718  18.105  68.046  1.00  0.00    -0.316 C  
HETATM    5  C   UNL     2      -9.817  17.101  66.870  1.00  0.00    -0.285 C  
HETATM    6  C   UNL     2      -8.442  16.681  66.307  1.00  0.00    -0.355 C  
HETATM    7  C   UNL     2     -10.706  15.910  67.270  1.00  0.00    -0.306 C  
HETATM    8  O   UNL     2     -11.518  15.942  68.185  1.00  0.00    -0.350 OA 
BRANCH   6   9
HETATM    9  C   UNL     2      -7.534  15.996  67.333  1.00  0.00    -0.208 C  
HETATM   10  C   UNL     2      -6.216  16.733  67.502  1.00  0.00    -0.188 C  
ENDBRANCH   6   9
BRANCH   7  11
HETATM   11  O   UNL     2     -10.552  14.850  66.431  1.00  0.00    -0.293 OA 
BRANCH  11  12
HETATM   12  C   UNL     2     -10.408  13.499  66.943  1.00  0.00    -0.265 C  
HETATM   13  C   UNL     2      -9.564  13.356  68.255  1.00  0.00    -0.220 C  
HETATM   14  C   UNL     2      -9.531  11.831  68.776  1.00  0.00    -0.026 C  
HETATM   15  C   UNL     2      -9.439  10.396  68.122  1.00  0.00    -0.152 C  
HETATM   16  C   UNL     2     -10.659  10.337  67.162  1.00  0.00    -0.320 C  
HETATM   17  C   UNL     2     -11.687  11.370  67.692  1.00  0.00    -0.168 C  
HETATM   18  C   UNL     2     -11.732  12.712  66.938  1.00  0.00    -0.453 C  
HETATM   19  N   UNL     2     -11.157  11.629  69.104  1.00  0.00    -0.241 N  
HETATM   20  C   UNL     2     -11.789  12.761  69.922  1.00  0.00    -0.301 C  
HETATM   21  C   UNL     2     -11.500  10.386  69.996  1.00  0.00    -0.308 C  
ENDBRANCH  11  12
ENDBRANCH   7  11
ENDBRANCH   3   4
TORSDOF 4
ENDMDL
MODEL       48
REMARK 921   NORMALIZED FREE ENERGY PREDICTED BY IDOCK:   -4.83 KCAL/MOL
REMARK 922        TOTAL FREE ENERGY PREDICTED BY IDOCK:   -6.52 KCAL/MOL
REMARK 923 INTER-LIGAND FREE ENERGY PREDICTED BY IDOCK:   -5.69 KCAL/MOL
REMARK 924 INTRA-LIGAND FREE ENERGY PREDICTED BY IDOCK:   -0.83 KCAL/MOL
REMARK 927      BINDING AFFINITY PREDICTED BY RF-SCORE:    0.00 PKD
ROOT
HETATM    1 BR   UNL     1      -7.344   7.453  62.548  1.00  0.00    -0.099 Br 
HETATM    2  C   UNL     2     -10.158  19.846  66.875  1.00  0.00    -0.579 C  
HETATM    3  C   UNL     2      -9.441  18.503  66.883  1.00  0.00    -0.300 C  
ENDROOT
BRANCH   3   4
HETATM    4  C   UNL     2     -10.281  17.401  66.225  1.00  0.00    -0.344 C  
HETATM    5  C   UNL     2      -9.999  15.977  66.766  1.00  0.00    -0.265 C  
HETATM    6  C   UNL     2     -10.190  15.854  68.293  1.00  0.00    -0.227 C  
HETATM    7  C   UNL     2     -10.806  14.942  65.962  1.00  0.00    -0.328 C  
HETATM    8  O   UNL     2     -11.261  15.148  64.845  1.00  0.00    -0.391 OA 
BRANCH   6   9
HETATM    9  C   UNL     2     -11.608  16.183  68.771  1.00  0.00    -0.297 C  
HETATM   10  C   UNL     2     -11.929  15.508  70.094  1.00  0.00    -0.389 C  
ENDBRANCH   6   9
BRANCH   7  11
HETATM   11  O   UNL     2     -10.875  13.740  66.596  1.00  0.00    -0.285 OA 
BRANCH  11  12
HETATM   12  C   UNL     2     -10.038  12.624  66.192  1.00  0.00    -0.257 C  
HETATM   13  C   UNL     2      -9.162  11.988  67.324  1.00  0.00    -0.182 C  
HETATM   14  C   UNL     2      -8.333  10.714  66.787  1.00  0.00    -0.132 C  
HETATM   15  C   UNL     2      -7.568  10.317  65.464  1.00  0.00    -0.149 C  
HETATM   16  C   UNL     2      -8.645  10.438  64.352  1.00  0.00    -0.185 C  
HETATM   17  C   UNL     2     -10.021  10.293  65.053  1.00  0.00    -0.323 C  
HETATM   18  C   UNL     2     -10.782  11.609  65.304  1.00  0.00    -0.346 C  
HETATM   19  N   UNL     2      -9.612   9.708  66.406  1.00  0.00    -0.193 N  
HETATM   20  C   UNL     2     -10.679   9.589  67.501  1.00  0.00    -0.245 C  
HETATM   21  C   UNL     2      -9.227   8.203  66.197  1.00  0.00    -0.173 C  
ENDBRANCH  11  12
ENDBRANCH   7  11
ENDBRANCH   3   4
TORSDOF 4
ENDMDL
MODEL       49
REMARK 921   NORMALIZED FREE ENERGY PREDICTED BY IDOCK:   -4.83 KCAL/MOL
REMARK 922        TOTAL FREE ENERGY PREDICTED BY IDOCK:   -6.52 KCAL/MOL
REMARK 923 INTER-LIGAND FREE ENERGY PREDICTED BY IDOCK:   -5.81 KCAL/MOL
REMARK 924 INTRA-LIGAND FREE ENERGY PREDICTED BY IDOCK:   -0.71 KCAL/MOL
REMARK 927      BINDING AFFINITY PREDICTED BY RF-SCORE:    0.00 PKD
ROOT
HETATM    1 BR   UNL     1      -8.453   7.489  65.651  1.00  0.00    -0.123 Br 
HETATM    2  C   UNL     2      -9.667  20.779  67.109  1.00  0.00    -0.457 C  
HETATM    3  C   UNL     2      -8.918  19.465  66.939  1.00  0.00    -0.355 C  
ENDROOT
BRANCH   3   4
HETATM    4  C   UNL     2      -9.735  18.271  67.449  1.00  0.00    -0.300 C  
HETATM    5  C   UNL     2      -9.156  16.889  67.054  1.00  0.00    -0.240 C  
HETATM    6  C   UNL     2      -7.697  16.683  67.516  1.00  0.00    -0.186 C  
HETATM    7  C   UNL     2     -10.108  15.771  67.514  1.00  0.00    -0.245 C  
HETATM    8  O   UNL     2     -11.292  15.945  67.770  1.00  0.00    -0.299 OA 
BRANCH   6   9
HETATM    9  C   UNL     2      -7.507  16.770  69.033  1.00  0.00    -0.228 C  
HETATM   10  C   UNL     2      -6.502  15.746  69.537  1.00  0.00    -0.177 C  
ENDBRANCH   6   9
BRANCH   7  11
HETATM   11  O   UNL     2      -9.506  14.550  67.512  1.00  0.00    -0.197 OA 
BRANCH  11  12
HETATM   12  C   UNL     2      -9.808  13.561  66.494  1.00  0.00    -0.291 C  
HETATM   13  C   UNL     2     -10.877  12.486  66.887  1.00  0.00    -0.280 C  
HETATM   14  C   UNL     2     -11.192  11.486  65.663  1.00  0.00    -0.148 C  
HETATM   15  C   UNL     2     -10.368  10.782  64.514  1.00  0.00    -0.401 C  
HETATM   16  C   UNL     2      -9.700  11.958  63.750  1.00  0.00    -0.233 C  
HETATM   17  C   UNL     2     -10.562  13.215  64.035  1.00  0.00    -0.276 C  
HETATM   18  C   UNL     2     -10.001  14.181  65.097  1.00  0.00    -0.263 C  
HETATM   19  N   UNL     2     -11.844  12.586  64.586  1.00  0.00    -0.359 N  
HETATM   20  C   UNL     2     -12.909  13.512  65.184  1.00  0.00    -0.322 C  
HETATM   21  C   UNL     2     -12.634  11.950  63.391  1.00  0.00    -0.431 C  
ENDBRANCH  11  12
ENDBRANCH   7  11
ENDBRANCH   3   4
TORSDOF 4
ENDMDL
MODEL       50
REMARK 921   NORMALIZED FREE ENERGY PREDICTED BY IDOCK:   -4.83 KCAL/MOL
REMARK 922        TOTAL FREE ENERGY PREDICTED BY IDOCK:   -6.52 KCAL/MOL
REMARK 923 INTER-LIGAND FREE ENERGY PREDICTED BY IDOCK:   -6.38 KCAL/MOL
REMARK 924 INTRA-LIGAND FREE ENERGY PREDICTED BY IDOCK:   -0.14 KCAL/MOL
REMARK 927      BINDING AFFINITY PREDICTED BY RF-SCORE:    0.00 PKD
ROOT
HETATM    1 BR   UNL     1     -10.096   8.143  70.123  1.00  0.00    -0.198 Br 
HETATM    2  C   UNL     2      -6.963  20.944  67.569  1.00  0.00    -0.406 C  
HETATM    3  C   UNL     2      -6.889  19.621  68.318  1.00  0.00    -0.324 C  
ENDROOT
BRANCH   3   4
HETATM    4  C   UNL     2      -8.173  18.798  68.154  1.00  0.00    -0.332 C  
HETATM    5  C   UNL     2      -8.384  18.224  66.731  1.00  0.00    -0.269 C  
HETATM    6  C   UNL     2      -7.209  17.348  66.245  1.00  0.00    -0.346 C  
HETATM    7  C   UNL     2      -9.749  17.519  66.646  1.00  0.00    -0.299 C  
HETATM    8  O   UNL     2     -10.674  17.727  67.420  1.00  0.00    -0.357 OA 
BRANCH   6   9
HETATM    9  C   UNL     2      -6.939  16.125  67.126  1.00  0.00    -0.244 C  
HETATM   10  C   UNL     2      -5.544  16.160  67.729  1.00  0.00    -0.159 C  
ENDBRANCH   6   9
BRANCH   7  11
HETATM   11  O   UNL     2      -9.843  16.708  65.557  1.00  0.00    -0.549 OA 
BRANCH  11  12
HETATM   12  C   UNL     2     -10.104  15.287  65.695  1.00  0.00    -0.371 C  
HETATM   13  C   UNL     2      -9.316  14.559  66.837  1.00  0.00    -0.258 C  
HETATM   14  C   UNL     2      -9.736  13.007  66.952  1.00  0.00    -0.238 C  
HETATM   15  C   UNL     2     -10.097  11.839  65.952  1.00  0.00    -0.267 C  
HETATM   16  C   UNL     2     -11.298  12.393  65.138  1.00  0.00    -0.367 C  
HETATM   17  C   UNL     2     -11.952  13.494  66.012  1.00  0.00    -0.409 C  
HETATM   18  C   UNL     2     -11.604  14.945  65.628  1.00  0.00    -0.245 C  
HETATM   19  N   UNL     2     -11.339  13.199  67.382  1.00  0.00    -0.290 N  
HETATM   20  C   UNL     2     -11.580  14.200  68.518  1.00  0.00    -0.316 C  
HETATM   21  C   UNL     2     -12.023  11.914  67.963  1.00  0.00    -0.133 C  
ENDBRANCH  11  12
ENDBRANCH   7  11
ENDBRANCH   3   4
TORSDOF 4
ENDMDL
MODEL       51
REMARK 921   NORMALIZED FREE ENERGY PREDICTED BY IDOCK:   -4.80 KCAL/MOL
REMARK 922        TOTAL FREE ENERGY PREDICTED BY IDOCK:   -6.49 KCAL/MOL
REMARK 923 INTER-LIGAND FREE ENERGY PREDICTED BY IDOCK:   -5.66 KCAL/MOL
REMARK 924 INTRA-LIGAND FREE ENERGY PREDICTED BY IDOCK:   -0.82 KCAL/MOL
REMARK 927      BINDING AFFINITY PREDICTED BY RF-SCORE:    0.00 PKD
ROOT
HETATM    1 BR   UNL     1      -8.001  16.178  67.325  1.00  0.00    -0.225 Br 
HETATM    2  C   UNL     2      -9.795   3.706  71.955  1.00  0.00    -0.241 C  
HETATM    3  C   UNL     2      -9.919   4.844  70.952  1.00  0.00    -0.287 C  
ENDROOT
BRANCH   3   4
HETATM    4  C   UNL     2      -9.830   6.217  71.631  1.00  0.00    -0.191 C  
HETATM    5  C   UNL     2     -10.467   7.372  70.819  1.00  0.00    -0.221 C  
HETATM    6  C   UNL     2     -11.950   7.126  70.466  1.00  0.00    -0.258 C  
HETATM    7  C   UNL     2     -10.221   8.713  71.532  1.00  0.00    -0.274 C  
HETATM    8  O   UNL     2      -9.339   8.894  72.360  1.00  0.00    -0.342 OA 
BRANCH   6   9
HETATM    9  C   UNL     2     -12.859   6.956  71.687  1.00  0.00    -0.383 C  
HETATM   10  C   UNL     2     -14.167   7.714  71.527  1.00  0.00    -0.564 C  
ENDBRANCH   6   9
BRANCH   7  11
HETATM   11  O   UNL     2     -11.036   9.699  71.067  1.00  0.00    -0.314 OA 
BRANCH  11  12
HETATM   12  C   UNL     2     -10.662  10.511  69.923  1.00  0.00    -0.247 C  
HETATM   13  C   UNL     2      -9.312  10.123  69.228  1.00  0.00    -0.227 C  
HETATM   14  C   UNL     2      -9.030  11.035  67.929  1.00  0.00    -0.144 C  
HETATM   15  C   UNL     2      -9.232  12.548  67.523  1.00  0.00    -0.188 C  
HETATM   16  C   UNL     2     -10.754  12.793  67.711  1.00  0.00    -0.237 C  
HETATM   17  C   UNL     2     -11.439  11.404  67.615  1.00  0.00    -0.273 C  
HETATM   18  C   UNL     2     -11.835  10.762  68.958  1.00  0.00    -0.325 C  
HETATM   19  N   UNL     2     -10.327  10.560  66.988  1.00  0.00    -0.226 N  
HETATM   20  C   UNL     2     -10.528   9.043  66.897  1.00  0.00    -0.223 C  
HETATM   21  C   UNL     2     -10.214  10.941  65.471  1.00  0.00    -0.271 C  
ENDBRANCH  11  12
ENDBRANCH   7  11
ENDBRANCH   3   4
TORSDOF 4
ENDMDL
MODEL       52
REMARK 921   NORMALIZED FREE ENERGY PREDICTED BY IDOCK:   -4.80 KCAL/MOL
REMARK 922        TOTAL FREE ENERGY PREDICTED BY IDOCK:   -6.48 KCAL/MOL
REMARK 923 INTER-LIGAND FREE ENERGY PREDICTED BY IDOCK:   -5.60 KCAL/MOL
REMARK 924 INTRA-LIGAND FREE ENERGY PREDICTED BY IDOCK:   -0.88 KCAL/MOL
REMARK 927      BINDING AFFINITY PREDICTED BY RF-SCORE:    0.00 PKD
ROOT
HETATM    1 BR   UNL     1      -6.778   4.690  71.714  1.00  0.00    -0.039 Br 
HETATM    2  C   UNL     2     -11.490  15.168  64.770  1.00  0.00    -0.383 C  
HETATM    3  C   UNL     2     -10.497  14.068  65.118  1.00  0.00    -0.415 C  
ENDROOT
BRANCH   3   4
HETATM    4  C   UNL     2     -10.602  13.647  66.589  1.00  0.00    -0.277 C  
HETATM    5  C   UNL     2     -11.420  12.352  66.824  1.00  0.00    -0.423 C  
HETATM    6  C   UNL     2     -10.885  11.139  66.033  1.00  0.00    -0.230 C  
HETATM    7  C   UNL     2     -11.559  12.086  68.333  1.00  0.00    -0.311 C  
HETATM    8  O   UNL     2     -11.415  12.944  69.194  1.00  0.00    -0.274 OA 
BRANCH   6   9
HETATM    9  C   UNL     2      -9.441  10.760  66.377  1.00  0.00    -0.200 C  
HETATM   10  C   UNL     2      -9.122   9.329  65.977  1.00  0.00    -0.235 C  
ENDBRANCH   6   9
BRANCH   7  11
HETATM   11  O   UNL     2     -11.953  10.810  68.596  1.00  0.00    -0.449 OA 
BRANCH  11  12
HETATM   12  C   UNL     2     -11.217   9.970  69.523  1.00  0.00    -0.208 C  
HETATM   13  C   UNL     2     -11.699  10.017  71.013  1.00  0.00    -0.479 C  
HETATM   14  C   UNL     2     -10.867   8.993  71.939  1.00  0.00    -0.343 C  
HETATM   15  C   UNL     2      -9.369   8.507  72.054  1.00  0.00    -0.353 C  
HETATM   16  C   UNL     2      -9.046   7.936  70.646  1.00  0.00    -0.153 C  
HETATM   17  C   UNL     2     -10.405   7.553  70.004  1.00  0.00    -0.221 C  
HETATM   18  C   UNL     2     -10.960   8.554  68.973  1.00  0.00     0.082 C  
HETATM   19  N   UNL     2     -11.329   7.555  71.224  1.00  0.00    -0.255 N  
HETATM   20  C   UNL     2     -12.838   7.412  70.994  1.00  0.00    -0.180 C  
HETATM   21  C   UNL     2     -11.030   6.272  72.072  1.00  0.00    -0.256 C  
ENDBRANCH  11  12
ENDBRANCH   7  11
ENDBRANCH   3   4
TORSDOF 4
ENDMDL
MODEL       53
REMARK 921   NORMALIZED FREE ENERGY PREDICTED BY IDOCK:   -4.79 KCAL/MOL
REMARK 922        TOTAL FREE ENERGY PREDICTED BY IDOCK:   -6.47 KCAL/MOL
REMARK 923 INTER-LIGAND FREE ENERGY PREDICTED BY IDOCK:   -5.60 KCAL/MOL
REMARK 924 INTRA-LIGAND FREE ENERGY PREDICTED BY IDOCK:   -0.87 KCAL/MOL
REMARK 927      BINDING AFFINITY PREDICTED BY RF-SCORE:    0.00 PKD
ROOT
HETATM    1 BR   UNL     1     -11.061   4.458  73.396  1.00  0.00    -0.381 Br 
HETATM    2  C   UNL     2     -11.854  14.656  64.702  1.00  0.00    -0.459 C  
HETATM    3  C   UNL     2     -12.285  13.812  65.893  1.00  0.00    -0.501 C  
ENDROOT
BRANCH   3   4
HETATM    4  C   UNL     2     -11.795  12.363  65.775  1.00  0.00    -0.467 C  
HETATM    5  C   UNL     2     -10.586  12.024  66.682  1.00  0.00    -0.266 C  
HETATM    6  C   UNL     2     -10.846  12.303  68.178  1.00  0.00    -0.258 C  
HETATM    7  C   UNL     2     -10.106  10.589  66.401  1.00  0.00    -0.228 C  
HETATM    8  O   UNL     2     -10.356   9.974  65.373  1.00  0.00    -0.245 OA 
BRANCH   6   9
HETATM    9  C   UNL     2     -12.014  11.505  68.765  1.00  0.00    -0.335 C  
HETATM   10  C   UNL     2     -11.975  11.483  70.285  1.00  0.00    -0.455 C  
ENDBRANCH   6   9
BRANCH   7  11
HETATM   11  O   UNL     2      -9.293  10.117  67.385  1.00  0.00    -0.146 OA 
BRANCH  11  12
HETATM   12  C   UNL     2      -9.673   8.971  68.192  1.00  0.00    -0.152 C  
HETATM   13  C   UNL     2      -9.431   7.569  67.535  1.00  0.00    -0.165 C  
HETATM   14  C   UNL     2      -9.814   6.369  68.541  1.00  0.00    -0.138 C  
HETATM   15  C   UNL     2     -10.938   6.084  69.614  1.00  0.00    -0.470 C  
HETATM   16  C   UNL     2     -10.811   7.261  70.619  1.00  0.00    -0.261 C  
HETATM   17  C   UNL     2      -9.363   7.800  70.486  1.00  0.00    -0.163 C  
HETATM   18  C   UNL     2      -9.204   9.087  69.654  1.00  0.00    -0.160 C  
HETATM   19  N   UNL     2      -8.681   6.655  69.736  1.00  0.00    -0.139 N  
HETATM   20  C   UNL     2      -7.252   6.870  69.222  1.00  0.00    -0.090 C  
HETATM   21  C   UNL     2      -8.465   5.468  70.737  1.00  0.00    -0.122 C  
ENDBRANCH  11  12
ENDBRANCH   7  11
ENDBRANCH   3   4
TORSDOF 4
ENDMDL
MODEL       54
REMARK 921   NORMALIZED FREE ENERGY PREDICTED BY IDOCK:   -4.78 KCAL/MOL
REMARK 922        TOTAL FREE ENERGY PREDICTED BY IDOCK:   -6.45 KCAL/MOL
REMARK 923 INTER-LIGAND FREE ENERGY PREDICTED BY IDOCK:   -5.74 KCAL/MOL
REMARK 924 INTRA-LIGAND FREE ENERGY PREDICTED BY IDOCK:   -0.71 KCAL/MOL
REMARK 927      BINDING AFFINITY PREDICTED BY RF-SCORE:    0.00 PKD
ROOT
HETATM    1 BR   UNL     1      -5.406  18.099  70.364  1.00  0.00    -0.257 Br 
HETATM    2  C   UNL     2     -11.143   6.350  67.319  1.00  0.00    -0.416 C  
HETATM    3  C   UNL     2      -9.986   7.292  67.622  1.00  0.00    -0.207 C  
ENDROOT
BRANCH   3   4
HETATM    4  C   UNL     2     -10.334   8.749  67.295  1.00  0.00    -0.360 C  
HETATM    5  C   UNL     2     -10.750   9.595  68.525  1.00  0.00    -0.239 C  
HETATM    6  C   UNL     2      -9.685   9.613  69.643  1.00  0.00    -0.230 C  
HETATM    7  C   UNL     2     -11.187  10.999  68.072  1.00  0.00    -0.309 C  
HETATM    8  O   UNL     2     -11.539  11.270  66.932  1.00  0.00    -0.464 OA 
BRANCH   6   9
HETATM    9  C   UNL     2      -8.335  10.191  69.206  1.00  0.00    -0.160 C  
HETATM   10  C   UNL     2      -7.266   9.115  69.104  1.00  0.00    -0.067 C  
ENDBRANCH   6   9
BRANCH   7  11
HETATM   11  O   UNL     2     -11.226  11.884  69.106  1.00  0.00    -0.235 OA 
BRANCH  11  12
HETATM   12  C   UNL     2     -10.796  13.260  68.938  1.00  0.00    -0.210 C  
HETATM   13  C   UNL     2      -9.463  13.462  68.139  1.00  0.00    -0.218 C  
HETATM   14  C   UNL     2      -9.119  15.025  67.946  1.00  0.00    -0.180 C  
HETATM   15  C   UNL     2      -9.232  16.341  68.812  1.00  0.00    -0.240 C  
HETATM   16  C   UNL     2     -10.740  16.430  69.172  1.00  0.00    -0.317 C  
HETATM   17  C   UNL     2     -11.500  15.611  68.096  1.00  0.00    -0.322 C  
HETATM   18  C   UNL     2     -11.944  14.200  68.525  1.00  0.00    -0.367 C  
HETATM   19  N   UNL     2     -10.430  15.471  67.011  1.00  0.00    -0.298 N  
HETATM   20  C   UNL     2     -10.715  14.541  65.826  1.00  0.00    -0.315 C  
HETATM   21  C   UNL     2     -10.282  16.850  66.283  1.00  0.00    -0.329 C  
ENDBRANCH  11  12
ENDBRANCH   7  11
ENDBRANCH   3   4
TORSDOF 4
ENDMDL
MODEL       55
REMARK 921   NORMALIZED FREE ENERGY PREDICTED BY IDOCK:   -4.72 KCAL/MOL
REMARK 922        TOTAL FREE ENERGY PREDICTED BY IDOCK:   -6.38 KCAL/MOL
REMARK 923 INTER-LIGAND FREE ENERGY PREDICTED BY IDOCK:   -5.64 KCAL/MOL
REMARK 924 INTRA-LIGAND FREE ENERGY PREDICTED BY IDOCK:   -0.74 KCAL/MOL
REMARK 927      BINDING AFFINITY PREDICTED BY RF-SCORE:    0.00 PKD
ROOT
HETATM    1 BR   UNL     1      -6.319   6.845  73.791  1.00  0.00    -0.067 Br 
HETATM    2  C   UNL     2     -10.334  16.933  65.896  1.00  0.00    -0.327 C  
HETATM    3  C   UNL     2     -10.348  16.054  67.139  1.00  0.00    -0.295 C  
ENDROOT
BRANCH   3   4
HETATM    4  C   UNL     2      -9.788  14.655  66.856  1.00  0.00    -0.252 C  
HETATM    5  C   UNL     2     -10.747  13.497  67.231  1.00  0.00    -0.272 C  
HETATM    6  C   UNL     2     -12.123  13.594  66.536  1.00  0.00    -0.469 C  
HETATM    7  C   UNL     2     -10.046  12.144  67.016  1.00  0.00    -0.204 C  
HETATM    8  O   UNL     2      -8.832  12.006  66.960  1.00  0.00    -0.183 OA 
BRANCH   6   9
HETATM    9  C   UNL     2     -12.050  13.565  65.006  1.00  0.00    -0.428 C  
HETATM   10  C   UNL     2     -12.764  12.352  64.430  1.00  0.00    -0.434 C  
ENDBRANCH   6   9
BRANCH   7  11
HETATM   11  O   UNL     2     -10.927  11.107  66.990  1.00  0.00    -0.275 OA 
BRANCH  11  12
HETATM   12  C   UNL     2     -11.063  10.204  68.119  1.00  0.00    -0.230 C  
HETATM   13  C   UNL     2     -10.188   8.906  68.058  1.00  0.00    -0.262 C  
HETATM   14  C   UNL     2     -10.356   8.014  69.390  1.00  0.00    -0.217 C  
HETATM   15  C   UNL     2     -11.534   7.619  70.366  1.00  0.00    -0.192 C  
HETATM   16  C   UNL     2     -12.083   8.981  70.870  1.00  0.00    -0.247 C  
HETATM   17  C   UNL     2     -10.934  10.009  70.703  1.00  0.00    -0.322 C  
HETATM   18  C   UNL     2     -11.042  10.934  69.475  1.00  0.00    -0.326 C  
HETATM   19  N   UNL     2      -9.729   9.087  70.507  1.00  0.00    -0.198 N  
HETATM   20  C   UNL     2      -8.389   9.717  70.105  1.00  0.00    -0.198 C  
HETATM   21  C   UNL     2      -9.360   8.456  71.893  1.00  0.00    -0.244 C  
ENDBRANCH  11  12
ENDBRANCH   7  11
ENDBRANCH   3   4
TORSDOF 4
ENDMDL
MODEL       56
REMARK 921   NORMALIZED FREE ENERGY PREDICTED BY IDOCK:   -4.69 KCAL/MOL
REMARK 922        TOTAL FREE ENERGY PREDICTED BY IDOCK:   -6.35 KCAL/MOL
REMARK 923 INTER-LIGAND FREE ENERGY PREDICTED BY IDOCK:   -5.69 KCAL/MOL
REMARK 924 INTRA-LIGAND FREE ENERGY PREDICTED BY IDOCK:   -0.66 KCAL/MOL
REMARK 927      BINDING AFFINITY PREDICTED BY RF-SCORE:    0.00 PKD
ROOT
HETATM    1 BR   UNL     1      -9.228  19.319  67.215  1.00  0.00    -0.376 Br 
HETATM    2  C   UNL     2     -13.795   7.554  71.791  1.00  0.00    -0.438 C  
HETATM    3  C   UNL     2     -13.758   9.069  71.655  1.00  0.00    -0.442 C  
ENDROOT
BRANCH   3   4
HETATM    4  C   UNL     2     -12.367   9.574  71.253  1.00  0.00    -0.430 C  
HETATM    5  C   UNL     2     -12.383  10.741  70.233  1.00  0.00    -0.423 C  
HETATM    6  C   UNL     2     -13.197  11.962  70.715  1.00  0.00     0.375 C  
HETATM    7  C   UNL     2     -10.945  11.090  69.813  1.00  0.00    -0.193 C  
HETATM    8  O   UNL     2      -9.995  10.329  69.933  1.00  0.00    -0.222 OA 
BRANCH   6   9
HETATM    9  C   UNL     2     -12.676  12.582  72.015  1.00  0.00    -0.118 C  
HETATM   10  C   UNL     2     -13.576  13.705  72.505  1.00  0.00    -0.675 C  
ENDBRANCH   6   9
BRANCH   7  11
HETATM   11  O   UNL     2     -10.868  12.306  69.206  1.00  0.00    -0.154 OA 
BRANCH  11  12
HETATM   12  C   UNL     2     -11.212  12.473  67.805  1.00  0.00    -0.269 C  
HETATM   13  C   UNL     2     -12.398  13.454  67.510  1.00  0.00    -0.069 C  
HETATM   14  C   UNL     2     -12.646  13.625  65.927  1.00  0.00    -0.425 C  
HETATM   15  C   UNL     2     -12.614  12.692  64.652  1.00  0.00    -0.517 C  
HETATM   16  C   UNL     2     -11.176  12.104  64.647  1.00  0.00    -0.374 C  
HETATM   17  C   UNL     2     -10.295  13.089  65.458  1.00  0.00    -0.294 C  
HETATM   18  C   UNL     2      -9.977  12.664  66.905  1.00  0.00    -0.232 C  
HETATM   19  N   UNL     2     -11.190  14.329  65.506  1.00  0.00    -0.311 N  
HETATM   20  C   UNL     2     -10.765  15.500  66.400  1.00  0.00    -0.303 C  
HETATM   21  C   UNL     2     -11.170  15.008  64.093  1.00  0.00     0.199 C  
ENDBRANCH  11  12
ENDBRANCH   7  11
ENDBRANCH   3   4
TORSDOF 4
ENDMDL
MODEL       57
REMARK 921   NORMALIZED FREE ENERGY PREDICTED BY IDOCK:   -4.68 KCAL/MOL
REMARK 922        TOTAL FREE ENERGY PREDICTED BY IDOCK:   -6.34 KCAL/MOL
REMARK 923 INTER-LIGAND FREE ENERGY PREDICTED BY IDOCK:   -5.71 KCAL/MOL
REMARK 924 INTRA-LIGAND FREE ENERGY PREDICTED BY IDOCK:   -0.63 KCAL/MOL
REMARK 927      BINDING AFFINITY PREDICTED BY RF-SCORE:    0.00 PKD
ROOT
HETATM    1 BR   UNL     1      -8.962  18.539  67.720  1.00  0.00    -0.296 Br 
HETATM    2  C   UNL     2     -10.050   6.715  73.984  1.00  0.00    -0.373 C  
HETATM    3  C   UNL     2      -9.326   7.832  73.245  1.00  0.00    -0.331 C  
ENDROOT
BRANCH   3   4
HETATM    4  C   UNL     2     -10.282   8.651  72.368  1.00  0.00    -0.319 C  
HETATM    5  C   UNL     2      -9.785   8.869  70.917  1.00  0.00    -0.300 C  
HETATM    6  C   UNL     2      -9.486   7.551  70.169  1.00  0.00    -0.161 C  
HETATM    7  C   UNL     2     -10.757   9.794  70.163  1.00  0.00    -0.289 C  
HETATM    8  O   UNL     2     -11.545  10.550  70.714  1.00  0.00    -0.333 OA 
BRANCH   6   9
HETATM    9  C   UNL     2     -10.697   6.623  70.035  1.00  0.00    -0.287 C  
HETATM   10  C   UNL     2     -11.004   6.300  68.582  1.00  0.00    -0.423 C  
ENDBRANCH   6   9
BRANCH   7  11
HETATM   11  O   UNL     2     -10.574   9.743  68.815  1.00  0.00    -0.207 OA 
BRANCH  11  12
HETATM   12  C   UNL     2     -10.573  10.949  68.008  1.00  0.00    -0.202 C  
HETATM   13  C   UNL     2     -11.984  11.526  67.647  1.00  0.00    -0.054 C  
HETATM   14  C   UNL     2     -11.868  12.903  66.816  1.00  0.00    -0.385 C  
HETATM   15  C   UNL     2     -10.932  13.486  65.685  1.00  0.00    -0.296 C  
HETATM   16  C   UNL     2      -9.505  13.405  66.294  1.00  0.00    -0.196 C  
HETATM   17  C   UNL     2      -9.683  13.380  67.834  1.00  0.00    -0.226 C  
HETATM   18  C   UNL     2      -9.554  11.996  68.498  1.00  0.00    -0.146 C  
HETATM   19  N   UNL     2     -11.132  13.851  67.980  1.00  0.00    -0.251 N  
HETATM   20  C   UNL     2     -11.784  13.782  69.366  1.00  0.00    -0.325 C  
HETATM   21  C   UNL     2     -11.181  15.393  67.701  1.00  0.00    -0.311 C  
ENDBRANCH  11  12
ENDBRANCH   7  11
ENDBRANCH   3   4
TORSDOF 4
ENDMDL
MODEL       58
REMARK 921   NORMALIZED FREE ENERGY PREDICTED BY IDOCK:   -4.68 KCAL/MOL
REMARK 922        TOTAL FREE ENERGY PREDICTED BY IDOCK:   -6.33 KCAL/MOL
REMARK 923 INTER-LIGAND FREE ENERGY PREDICTED BY IDOCK:   -5.71 KCAL/MOL
REMARK 924 INTRA-LIGAND FREE ENERGY PREDICTED BY IDOCK:   -0.63 KCAL/MOL
REMARK 927      BINDING AFFINITY PREDICTED BY RF-SCORE:    0.00 PKD
ROOT
HETATM    1 BR   UNL     1      -6.213  18.996  68.403  1.00  0.00    -0.246 Br 
HETATM    2  C   UNL     2     -11.012   6.525  67.114  1.00  0.00    -0.480 C  
HETATM    3  C   UNL     2      -9.970   7.629  67.003  1.00  0.00    -0.310 C  
ENDROOT
BRANCH   3   4
HETATM    4  C   UNL     2     -10.614   9.019  66.922  1.00  0.00    -0.243 C  
HETATM    5  C   UNL     2     -10.078  10.030  67.966  1.00  0.00    -0.197 C  
HETATM    6  C   UNL     2      -8.548  10.226  67.898  1.00  0.00    -0.118 C  
HETATM    7  C   UNL     2     -10.869  11.347  67.874  1.00  0.00    -0.225 C  
HETATM    8  O   UNL     2     -11.978  11.444  67.367  1.00  0.00    -0.606 OA 
BRANCH   6   9
HETATM    9  C   UNL     2      -8.047  10.750  66.549  1.00  0.00    -0.146 C  
HETATM   10  C   UNL     2      -6.603  10.354  66.290  1.00  0.00    -0.107 C  
ENDBRANCH   6   9
BRANCH   7  11
HETATM   11  O   UNL     2     -10.233  12.373  68.504  1.00  0.00    -0.226 OA 
BRANCH  11  12
HETATM   12  C   UNL     2     -10.095  13.674  67.876  1.00  0.00    -0.244 C  
HETATM   13  C   UNL     2     -11.418  14.499  67.722  1.00  0.00    -0.362 C  
HETATM   14  C   UNL     2     -11.141  15.953  67.085  1.00  0.00    -0.148 C  
HETATM   15  C   UNL     2     -10.200  16.557  65.969  1.00  0.00    -0.372 C  
HETATM   16  C   UNL     2      -8.767  16.178  66.434  1.00  0.00    -0.360 C  
HETATM   17  C   UNL     2      -8.848  15.948  67.966  1.00  0.00    -0.178 C  
HETATM   18  C   UNL     2      -8.895  14.475  68.416  1.00  0.00    -0.180 C  
HETATM   19  N   UNL     2     -10.192  16.597  68.300  1.00  0.00    -0.267 N  
HETATM   20  C   UNL     2     -10.756  16.416  69.714  1.00  0.00    -0.324 C  
HETATM   21  C   UNL     2     -10.016  18.154  68.244  1.00  0.00    -0.369 C  
ENDBRANCH  11  12
ENDBRANCH   7  11
ENDBRANCH   3   4
TORSDOF 4
ENDMDL
MODEL       59
REMARK 921   NORMALIZED FREE ENERGY PREDICTED BY IDOCK:   -4.67 KCAL/MOL
REMARK 922        TOTAL FREE ENERGY PREDICTED BY IDOCK:   -6.32 KCAL/MOL
REMARK 923 INTER-LIGAND FREE ENERGY PREDICTED BY IDOCK:   -5.85 KCAL/MOL
REMARK 924 INTRA-LIGAND FREE ENERGY PREDICTED BY IDOCK:   -0.47 KCAL/MOL
REMARK 927      BINDING AFFINITY PREDICTED BY RF-SCORE:    0.00 PKD
ROOT
HETATM    1 BR   UNL     1     -12.535  11.983  63.473  1.00  0.00    -0.545 Br 
HETATM    2  C   UNL     2      -5.159  21.200  69.865  1.00  0.00    -0.335 C  
HETATM    3  C   UNL     2      -5.414  19.886  69.140  1.00  0.00    -0.239 C  
ENDROOT
BRANCH   3   4
HETATM    4  C   UNL     2      -6.877  19.441  69.259  1.00  0.00    -0.367 C  
HETATM    5  C   UNL     2      -7.541  19.072  67.909  1.00  0.00    -0.291 C  
HETATM    6  C   UNL     2      -6.784  17.971  67.136  1.00  0.00    -0.203 C  
HETATM    7  C   UNL     2      -9.031  18.754  68.127  1.00  0.00    -0.308 C  
HETATM    8  O   UNL     2      -9.672  19.122  69.102  1.00  0.00    -0.374 OA 
BRANCH   6   9
HETATM    9  C   UNL     2      -6.671  16.645  67.894  1.00  0.00    -0.155 C  
HETATM   10  C   UNL     2      -5.341  15.957  67.634  1.00  0.00    -0.135 C  
ENDBRANCH   6   9
BRANCH   7  11
HETATM   11  O   UNL     2      -9.577  18.097  67.068  1.00  0.00    -0.272 OA 
BRANCH  11  12
HETATM   12  C   UNL     2     -10.258  16.826  67.237  1.00  0.00    -0.292 C  
HETATM   13  C   UNL     2     -10.390  15.949  65.946  1.00  0.00    -0.383 C  
HETATM   14  C   UNL     2     -11.091  14.532  66.260  1.00  0.00    -0.332 C  
HETATM   15  C   UNL     2     -12.265  14.011  67.181  1.00  0.00    -0.356 C  
HETATM   16  C   UNL     2     -11.842  14.437  68.613  1.00  0.00    -0.366 C  
HETATM   17  C   UNL     2     -10.301  14.610  68.585  1.00  0.00    -0.246 C  
HETATM   18  C   UNL     2      -9.794  16.062  68.492  1.00  0.00    -0.216 C  
HETATM   19  N   UNL     2      -9.938  13.889  67.285  1.00  0.00    -0.240 N  
HETATM   20  C   UNL     2      -8.497  13.995  66.771  1.00  0.00     0.010 C  
HETATM   21  C   UNL     2     -10.059  12.345  67.526  1.00  0.00    -0.202 C  
ENDBRANCH  11  12
ENDBRANCH   7  11
ENDBRANCH   3   4
TORSDOF 4
ENDMDL
MODEL       60
REMARK 921   NORMALIZED FREE ENERGY PREDICTED BY IDOCK:   -4.66 KCAL/MOL
REMARK 922        TOTAL FREE ENERGY PREDICTED BY IDOCK:   -6.30 KCAL/MOL
REMARK 923 INTER-LIGAND FREE ENERGY PREDICTED BY IDOCK:   -5.61 KCAL/MOL
REMARK 924 INTRA-LIGAND FREE ENERGY PREDICTED BY IDOCK:   -0.69 KCAL/MOL
REMARK 927      BINDING AFFINITY PREDICTED BY RF-SCORE:    0.00 PKD
ROOT
HETATM    1 BR   UNL     1      -8.699   4.411  72.770  1.00  0.00    -0.115 Br 
HETATM    2  C   UNL     2     -12.530  14.321  64.565  1.00  0.00    -0.357 C  
HETATM    3  C   UNL     2     -12.236  12.880  64.956  1.00  0.00    -0.515 C  
ENDROOT
BRANCH   3   4
HETATM    4  C   UNL     2     -11.216  12.794  66.099  1.00  0.00    -0.336 C  
HETATM    5  C   UNL     2     -11.085  11.385  66.730  1.00  0.00    -0.343 C  
HETATM    6  C   UNL     2     -10.725  10.287  65.706  1.00  0.00     0.044 C  
HETATM    7  C   UNL     2     -10.128  11.437  67.935  1.00  0.00    -0.183 C  
HETATM    8  O   UNL     2      -9.848  12.463  68.539  1.00  0.00    -0.212 OA 
BRANCH   6   9
HETATM    9  C   UNL     2      -9.393  10.521  64.986  1.00  0.00    -0.268 C  
HETATM   10  C   UNL     2      -9.572  10.598  63.479  1.00  0.00    -0.366 C  
ENDBRANCH   6   9
BRANCH   7  11
HETATM   11  O   UNL     2      -9.705  10.199  68.308  1.00  0.00    -0.139 OA 
BRANCH  11  12
HETATM   12  C   UNL     2     -10.462   9.394  69.249  1.00  0.00    -0.218 C  
HETATM   13  C   UNL     2      -9.922   7.943  69.491  1.00  0.00    -0.189 C  
HETATM   14  C   UNL     2     -10.788   7.166  70.606  1.00  0.00    -0.245 C  
HETATM   15  C   UNL     2     -12.312   7.063  71.011  1.00  0.00    -0.402 C  
HETATM   16  C   UNL     2     -12.725   8.530  71.309  1.00  0.00    -0.221 C  
HETATM   17  C   UNL     2     -11.420   9.293  71.658  1.00  0.00    -0.398 C  
HETATM   18  C   UNL     2     -10.836  10.164  70.530  1.00  0.00    -0.340 C  
HETATM   19  N   UNL     2     -10.454   8.137  71.924  1.00  0.00    -0.229 N  
HETATM   20  C   UNL     2      -8.968   8.461  72.118  1.00  0.00    -0.223 C  
HETATM   21  C   UNL     2     -10.809   7.507  73.314  1.00  0.00    -0.355 C  
ENDBRANCH  11  12
ENDBRANCH   7  11
ENDBRANCH   3   4
TORSDOF 4
ENDMDL
MODEL       61
REMARK 921   NORMALIZED FREE ENERGY PREDICTED BY IDOCK:   -4.63 KCAL/MOL
REMARK 922        TOTAL FREE ENERGY PREDICTED BY IDOCK:   -6.27 KCAL/MOL
REMARK 923 INTER-LIGAND FREE ENERGY PREDICTED BY IDOCK:   -5.63 KCAL/MOL
REMARK 924 INTRA-LIGAND FREE ENERGY PREDICTED BY IDOCK:   -0.63 KCAL/MOL
REMARK 927      BINDING AFFINITY PREDICTED BY RF-SCORE:    0.00 PKD
ROOT
HETATM    1 BR   UNL     1     -13.180   8.324  71.832  1.00  0.00    -0.368 Br 
HETATM    2  C   UNL     2      -9.797  20.565  67.479  1.00  0.00    -0.534 C  
HETATM    3  C   UNL     2     -10.485  19.208  67.410  1.00  0.00    -0.552 C  
ENDROOT
BRANCH   3   4
HETATM    4  C   UNL     2      -9.761  18.155  68.257  1.00  0.00    -0.344 C  
HETATM    5  C   UNL     2      -9.384  16.866  67.485  1.00  0.00    -0.232 C  
HETATM    6  C   UNL     2      -8.514  17.133  66.238  1.00  0.00    -0.279 C  
HETATM    7  C   UNL     2      -8.771  15.837  68.451  1.00  0.00    -0.177 C  
HETATM    8  O   UNL     2      -8.929  15.860  69.664  1.00  0.00    -0.204 OA 
BRANCH   6   9
HETATM    9  C   UNL     2      -7.176  17.812  66.547  1.00  0.00    -0.278 C  
HETATM   10  C   UNL     2      -6.892  18.961  65.592  1.00  0.00    -0.292 C  
ENDBRANCH   6   9
BRANCH   7  11
HETATM   11  O   UNL     2      -8.110  14.845  67.794  1.00  0.00    -0.133 OA 
BRANCH  11  12
HETATM   12  C   UNL     2      -8.828  13.758  67.151  1.00  0.00    -0.231 C  
HETATM   13  C   UNL     2      -7.990  12.464  66.870  1.00  0.00    -0.041 C  
HETATM   14  C   UNL     2      -8.898  11.298  66.227  1.00  0.00    -0.191 C  
HETATM   15  C   UNL     2     -10.078  11.207  65.181  1.00  0.00    -0.335 C  
HETATM   16  C   UNL     2     -11.182  12.126  65.772  1.00  0.00    -0.384 C  
HETATM   17  C   UNL     2     -10.910  12.217  67.296  1.00  0.00    -0.245 C  
HETATM   18  C   UNL     2     -10.215  13.507  67.772  1.00  0.00    -0.242 C  
HETATM   19  N   UNL     2      -9.947  11.046  67.503  1.00  0.00    -0.172 N  
HETATM   20  C   UNL     2      -9.267  10.897  68.869  1.00  0.00    -0.160 C  
HETATM   21  C   UNL     2     -10.768   9.713  67.429  1.00  0.00    -0.241 C  
ENDBRANCH  11  12
ENDBRANCH   7  11
ENDBRANCH   3   4
TORSDOF 4
ENDMDL
MODEL       62
REMARK 921   NORMALIZED FREE ENERGY PREDICTED BY IDOCK:   -4.62 KCAL/MOL
REMARK 922        TOTAL FREE ENERGY PREDICTED BY IDOCK:   -6.26 KCAL/MOL
REMARK 923 INTER-LIGAND FREE ENERGY PREDICTED BY IDOCK:   -5.42 KCAL/MOL
REMARK 924 INTRA-LIGAND FREE ENERGY PREDICTED BY IDOCK:   -0.84 KCAL/MOL
REMARK 927      BINDING AFFINITY PREDICTED BY RF-SCORE:    0.00 PKD
ROOT
HETATM    1 BR   UNL     1      -9.820   6.334  74.526  1.00  0.00    -0.364 Br 
HETATM    2  C   UNL     2     -12.040  14.950  64.474  1.00  0.00    -0.420 C  
HETATM    3  C   UNL     2     -12.316  13.730  65.342  1.00  0.00    -0.504 C  
ENDROOT
BRANCH   3   4
HETATM    4  C   UNL     2     -11.043  13.214  66.025  1.00  0.00    -0.299 C  
HETATM    5  C   UNL     2     -10.934  11.670  66.086  1.00  0.00    -0.339 C  
HETATM    6  C   UNL     2     -11.020  10.995  64.700  1.00  0.00    -0.150 C  
HETATM    7  C   UNL     2      -9.685  11.264  66.889  1.00  0.00    -0.192 C  
HETATM    8  O   UNL     2      -9.114  12.000  67.681  1.00  0.00    -0.168 OA 
BRANCH   6   9
HETATM    9  C   UNL     2      -9.919  11.429  63.729  1.00  0.00    -0.381 C  
HETATM   10  C   UNL     2      -9.329  10.245  62.978  1.00  0.00    -0.338 C  
ENDBRANCH   6   9
BRANCH   7  11
HETATM   11  O   UNL     2      -9.346   9.962  66.687  1.00  0.00    -0.149 OA 
BRANCH  11  12
HETATM   12  C   UNL     2      -9.764   8.921  67.609  1.00  0.00    -0.161 C  
HETATM   13  C   UNL     2     -10.414   7.655  66.955  1.00  0.00    -0.419 C  
HETATM   14  C   UNL     2     -10.769   6.534  68.058  1.00  0.00    -0.283 C  
HETATM   15  C   UNL     2     -11.329   6.513  69.535  1.00  0.00    -0.419 C  
HETATM   16  C   UNL     2     -10.322   7.382  70.335  1.00  0.00    -0.215 C  
HETATM   17  C   UNL     2      -8.992   7.364  69.536  1.00  0.00    -0.144 C  
HETATM   18  C   UNL     2      -8.707   8.619  68.689  1.00  0.00    -0.138 C  
HETATM   19  N   UNL     2      -9.224   6.186  68.588  1.00  0.00    -0.124 N  
HETATM   20  C   UNL     2      -8.204   5.941  67.470  1.00  0.00    -0.105 C  
HETATM   21  C   UNL     2      -9.092   4.858  69.411  1.00  0.00    -0.105 C  
ENDBRANCH  11  12
ENDBRANCH   7  11
ENDBRANCH   3   4
TORSDOF 4
ENDMDL
MODEL       63
REMARK 921   NORMALIZED FREE ENERGY PREDICTED BY IDOCK:   -4.60 KCAL/MOL
REMARK 922        TOTAL FREE ENERGY PREDICTED BY IDOCK:   -6.24 KCAL/MOL
REMARK 923 INTER-LIGAND FREE ENERGY PREDICTED BY IDOCK:   -5.52 KCAL/MOL
REMARK 924 INTRA-LIGAND FREE ENERGY PREDICTED BY IDOCK:   -0.72 KCAL/MOL
REMARK 927      BINDING AFFINITY PREDICTED BY RF-SCORE:    0.00 PKD
ROOT
HETATM    1 BR   UNL     1     -14.136  14.841  72.021  1.00  0.00    -0.658 Br 
HETATM    2  C   UNL     2      -6.773   6.803  64.186  1.00  0.00    -0.045 C  
HETATM    3  C   UNL     2      -8.034   7.268  64.901  1.00  0.00    -0.127 C  
ENDROOT
BRANCH   3   4
HETATM    4  C   UNL     2      -7.711   8.118  66.136  1.00  0.00    -0.090 C  
HETATM    5  C   UNL     2      -8.844   9.088  66.554  1.00  0.00    -0.158 C  
HETATM    6  C   UNL     2     -10.189   8.379  66.820  1.00  0.00    -0.376 C  
HETATM    7  C   UNL     2      -8.374   9.969  67.725  1.00  0.00    -0.114 C  
HETATM    8  O   UNL     2      -7.199  10.163  68.005  1.00  0.00    -0.083 OA 
BRANCH   6   9
HETATM    9  C   UNL     2     -10.132   7.336  67.940  1.00  0.00    -0.217 C  
HETATM   10  C   UNL     2     -10.790   6.029  67.529  1.00  0.00    -0.393 C  
ENDBRANCH   6   9
BRANCH   7  11
HETATM   11  O   UNL     2      -9.412  10.583  68.356  1.00  0.00    -0.147 OA 
BRANCH  11  12
HETATM   12  C   UNL     2      -9.990  11.810  67.839  1.00  0.00    -0.181 C  
HETATM   13  C   UNL     2      -9.191  12.502  66.682  1.00  0.00    -0.223 C  
HETATM   14  C   UNL     2      -9.957  13.809  66.132  1.00  0.00    -0.308 C  
HETATM   15  C   UNL     2     -10.803  14.990  66.752  1.00  0.00    -0.318 C  
HETATM   16  C   UNL     2     -11.967  14.276  67.492  1.00  0.00    -0.411 C  
HETATM   17  C   UNL     2     -12.124  12.884  66.826  1.00  0.00    -0.265 C  
HETATM   18  C   UNL     2     -11.508  11.703  67.600  1.00  0.00    -0.373 C  
HETATM   19  N   UNL     2     -11.333  13.076  65.531  1.00  0.00    -0.295 N  
HETATM   20  C   UNL     2     -11.070  11.848  64.650  1.00  0.00    -0.317 C  
HETATM   21  C   UNL     2     -12.184  13.965  64.560  1.00  0.00    -0.417 C  
ENDBRANCH  11  12
ENDBRANCH   7  11
ENDBRANCH   3   4
TORSDOF 4
ENDMDL
MODEL       64
REMARK 921   NORMALIZED FREE ENERGY PREDICTED BY IDOCK:   -4.60 KCAL/MOL
REMARK 922        TOTAL FREE ENERGY PREDICTED BY IDOCK:   -6.24 KCAL/MOL
REMARK 923 INTER-LIGAND FREE ENERGY PREDICTED BY IDOCK:   -5.72 KCAL/MOL
REMARK 924 INTRA-LIGAND FREE ENERGY PREDICTED BY IDOCK:   -0.52 KCAL/MOL
REMARK 927      BINDING AFFINITY PREDICTED BY RF-SCORE:    0.00 PKD
ROOT
HETATM    1 BR   UNL     1     -11.107   6.325  72.343  1.00  0.00    -0.325 Br 
HETATM    2  C   UNL     2      -5.178  17.911  69.051  1.00  0.00    -0.174 C  
HETATM    3  C   UNL     2      -6.060  16.991  69.885  1.00  0.00    -0.185 C  
ENDROOT
BRANCH   3   4
HETATM    4  C   UNL     2      -6.594  15.811  69.063  1.00  0.00    -0.134 C  
HETATM    5  C   UNL     2      -8.036  15.381  69.430  1.00  0.00    -0.234 C  
HETATM    6  C   UNL     2      -9.064  16.527  69.315  1.00  0.00    -0.102 C  
HETATM    7  C   UNL     2      -8.427  14.124  68.633  1.00  0.00    -0.120 C  
HETATM    8  O   UNL     2      -7.619  13.362  68.119  1.00  0.00    -0.113 OA 
BRANCH   6   9
HETATM    9  C   UNL     2      -9.177  17.121  67.908  1.00  0.00    -0.241 C  
HETATM   10  C   UNL     2     -10.597  17.566  67.595  1.00  0.00    -0.355 C  
ENDBRANCH   6   9
BRANCH   7  11
HETATM   11  O   UNL     2      -9.771  13.906  68.645  1.00  0.00    -0.220 OA 
BRANCH  11  12
HETATM   12  C   UNL     2     -10.541  13.880  67.414  1.00  0.00    -0.267 C  
HETATM   13  C   UNL     2      -9.735  14.164  66.102  1.00  0.00    -0.310 C  
HETATM   14  C   UNL     2     -10.667  14.036  64.793  1.00  0.00    -0.427 C  
HETATM   15  C   UNL     2     -12.151  14.408  64.400  1.00  0.00    -0.491 C  
HETATM   16  C   UNL     2     -13.021  13.646  65.438  1.00  0.00    -0.331 C  
HETATM   17  C   UNL     2     -12.157  12.467  65.956  1.00  0.00    -0.321 C  
HETATM   18  C   UNL     2     -11.501  12.678  67.335  1.00  0.00    -0.397 C  
HETATM   19  N   UNL     2     -11.051  12.413  64.900  1.00  0.00    -0.294 N  
HETATM   20  C   UNL     2      -9.853  11.489  65.147  1.00  0.00    -0.257 C  
HETATM   21  C   UNL     2     -11.648  11.790  63.592  1.00  0.00    -0.424 C  
ENDBRANCH  11  12
ENDBRANCH   7  11
ENDBRANCH   3   4
TORSDOF 4
ENDMDL
MODEL       65
REMARK 921   NORMALIZED FREE ENERGY PREDICTED BY IDOCK:   -4.60 KCAL/MOL
REMARK 922        TOTAL FREE ENERGY PREDICTED BY IDOCK:   -6.23 KCAL/MOL
REMARK 923 INTER-LIGAND FREE ENERGY PREDICTED BY IDOCK:   -5.63 KCAL/MOL
REMARK 924 INTRA-LIGAND FREE ENERGY PREDICTED BY IDOCK:   -0.60 KCAL/MOL
REMARK 927      BINDING AFFINITY PREDICTED BY RF-SCORE:    0.00 PKD
ROOT
HETATM    1 BR   UNL     1      -9.258   2.807  68.057  1.00  0.00    -0.258 Br 
HETATM    2  C   UNL     2     -11.458  16.028  68.810  1.00  0.00    -0.375 C  
HETATM    3  C   UNL     2     -11.776  14.588  68.432  1.00  0.00    -0.367 C  
ENDROOT
BRANCH   3   4
HETATM    4  C   UNL     2     -10.507  13.738  68.298  1.00  0.00    -0.251 C  
HETATM    5  C   UNL     2     -10.755  12.210  68.352  1.00  0.00    -0.252 C  
HETATM    6  C   UNL     2     -11.758  11.715  67.287  1.00  0.00    -0.255 C  
HETATM    7  C   UNL     2      -9.412  11.459  68.325  1.00  0.00    -0.187 C  
HETATM    8  O   UNL     2      -8.340  11.967  68.623  1.00  0.00    -0.136 OA 
BRANCH   6   9
HETATM    9  C   UNL     2     -11.321  11.992  65.846  1.00  0.00    -0.391 C  
HETATM   10  C   UNL     2     -12.405  12.705  65.053  1.00  0.00    -0.561 C  
ENDBRANCH   6   9
BRANCH   7  11
HETATM   11  O   UNL     2      -9.567  10.141  68.021  1.00  0.00    -0.144 OA 
BRANCH  11  12
HETATM   12  C   UNL     2     -10.170   9.216  68.963  1.00  0.00    -0.207 C  
HETATM   13  C   UNL     2     -10.305   7.735  68.469  1.00  0.00    -0.226 C  
HETATM   14  C   UNL     2     -10.914   6.780  69.615  1.00  0.00    -0.288 C  
HETATM   15  C   UNL     2     -12.020   6.895  70.738  1.00  0.00    -0.424 C  
HETATM   16  C   UNL     2     -11.564   8.106  71.596  1.00  0.00    -0.325 C  
HETATM   17  C   UNL     2     -10.037   8.258  71.370  1.00  0.00    -0.200 C  
HETATM   18  C   UNL     2      -9.616   9.370  70.392  1.00  0.00    -0.319 C  
HETATM   19  N   UNL     2      -9.688   6.907  70.743  1.00  0.00    -0.172 N  
HETATM   20  C   UNL     2      -8.277   6.711  70.177  1.00  0.00    -0.133 C  
HETATM   21  C   UNL     2      -9.714   5.817  71.870  1.00  0.00    -0.159 C  
ENDBRANCH  11  12
ENDBRANCH   7  11
ENDBRANCH   3   4
TORSDOF 4
ENDMDL
MODEL       66
REMARK 921   NORMALIZED FREE ENERGY PREDICTED BY IDOCK:   -4.59 KCAL/MOL
REMARK 922        TOTAL FREE ENERGY PREDICTED BY IDOCK:   -6.22 KCAL/MOL
REMARK 923 INTER-LIGAND FREE ENERGY PREDICTED BY IDOCK:   -5.54 KCAL/MOL
REMARK 924 INTRA-LIGAND FREE ENERGY PREDICTED BY IDOCK:   -0.68 KCAL/MOL
REMARK 927      BINDING AFFINITY PREDICTED BY RF-SCORE:    0.00 PKD
ROOT
HETATM    1 BR   UNL     1     -13.978  14.337  72.080  1.00  0.00    -0.637 Br 
HETATM    2  C   UNL     2      -6.814   4.590  66.259  1.00  0.00    -0.058 C  
HETATM    3  C   UNL     2      -7.560   5.273  67.397  1.00  0.00    -0.088 C  
ENDROOT
BRANCH   3   4
HETATM    4  C   UNL     2      -7.607   6.795  67.218  1.00  0.00    -0.104 C  
HETATM    5  C   UNL     2      -8.831   7.305  66.418  1.00  0.00    -0.167 C  
HETATM    6  C   UNL     2     -10.183   6.870  67.025  1.00  0.00    -0.317 C  
HETATM    7  C   UNL     2      -8.719   8.824  66.199  1.00  0.00    -0.160 C  
HETATM    8  O   UNL     2      -7.670   9.449  66.274  1.00  0.00    -0.096 OA 
BRANCH   6   9
HETATM    9  C   UNL     2     -10.412   7.368  68.454  1.00  0.00    -0.220 C  
HETATM   10  C   UNL     2     -11.126   6.332  69.307  1.00  0.00    -0.461 C  
ENDBRANCH   6   9
BRANCH   7  11
HETATM   11  O   UNL     2      -9.904   9.378  65.820  1.00  0.00    -0.297 OA 
BRANCH  11  12
HETATM   12  C   UNL     2     -10.098  10.817  65.819  1.00  0.00    -0.261 C  
HETATM   13  C   UNL     2     -10.054  11.506  64.412  1.00  0.00    -0.328 C  
HETATM   14  C   UNL     2     -10.355  13.086  64.517  1.00  0.00    -0.364 C  
HETATM   15  C   UNL     2     -10.000  14.259  65.513  1.00  0.00    -0.341 C  
HETATM   16  C   UNL     2     -10.557  13.778  66.880  1.00  0.00    -0.276 C  
HETATM   17  C   UNL     2     -11.667  12.743  66.565  1.00  0.00    -0.400 C  
HETATM   18  C   UNL     2     -11.264  11.264  66.720  1.00  0.00    -0.265 C  
HETATM   19  N   UNL     2     -11.926  13.018  65.082  1.00  0.00    -0.375 N  
HETATM   20  C   UNL     2     -12.841  12.057  64.313  1.00  0.00    -0.105 C  
HETATM   21  C   UNL     2     -12.729  14.359  64.961  1.00  0.00    -0.220 C  
ENDBRANCH  11  12
ENDBRANCH   7  11
ENDBRANCH   3   4
TORSDOF 4
ENDMDL
MODEL       67
REMARK 921   NORMALIZED FREE ENERGY PREDICTED BY IDOCK:   -4.58 KCAL/MOL
REMARK 922        TOTAL FREE ENERGY PREDICTED BY IDOCK:   -6.21 KCAL/MOL
REMARK 923 INTER-LIGAND FREE ENERGY PREDICTED BY IDOCK:   -5.63 KCAL/MOL
REMARK 924 INTRA-LIGAND FREE ENERGY PREDICTED BY IDOCK:   -0.58 KCAL/MOL
REMARK 927      BINDING AFFINITY PREDICTED BY RF-SCORE:    0.00 PKD
ROOT
HETATM    1 BR   UNL     1      -8.101  17.993  67.219  1.00  0.00    -0.224 Br 
HETATM    2  C   UNL     2     -10.483   5.093  70.071  1.00  0.00    -0.305 C  
HETATM    3  C   UNL     2      -9.792   6.441  70.217  1.00  0.00    -0.192 C  
ENDROOT
BRANCH   3   4
HETATM    4  C   UNL     2      -9.864   7.265  68.925  1.00  0.00    -0.158 C  
HETATM    5  C   UNL     2     -10.248   8.750  69.138  1.00  0.00    -0.215 C  
HETATM    6  C   UNL     2      -9.303   9.494  70.107  1.00  0.00    -0.286 C  
HETATM    7  C   UNL     2     -10.404   9.452  67.777  1.00  0.00    -0.238 C  
HETATM    8  O   UNL     2     -10.599   8.861  66.723  1.00  0.00    -0.243 OA 
BRANCH   6   9
HETATM    9  C   UNL     2      -7.843   9.527  69.649  1.00  0.00    -0.116 C  
HETATM   10  C   UNL     2      -7.408  10.928  69.249  1.00  0.00    -0.125 C  
ENDBRANCH   6   9
BRANCH   7  11
HETATM   11  O   UNL     2     -10.394  10.808  67.893  1.00  0.00    -0.172 OA 
BRANCH  11  12
HETATM   12  C   UNL     2     -10.844  11.661  66.808  1.00  0.00    -0.277 C  
HETATM   13  C   UNL     2     -11.974  12.683  67.171  1.00  0.00    -0.326 C  
HETATM   14  C   UNL     2     -12.343  13.629  65.920  1.00  0.00    -0.471 C  
HETATM   15  C   UNL     2     -12.489  13.460  64.356  1.00  0.00    -0.338 C  
HETATM   16  C   UNL     2     -11.105  12.922  63.901  1.00  0.00    -0.454 C  
HETATM   17  C   UNL     2     -10.087  13.350  64.990  1.00  0.00    -0.239 C  
HETATM   18  C   UNL     2      -9.679  12.251  65.990  1.00  0.00    -0.254 C  
HETATM   19  N   UNL     2     -10.880  14.418  65.745  1.00  0.00    -0.298 N  
HETATM   20  C   UNL     2     -10.295  14.974  67.049  1.00  0.00    -0.269 C  
HETATM   21  C   UNL     2     -10.931  15.712  64.862  1.00  0.00    -0.431 C  
ENDBRANCH  11  12
ENDBRANCH   7  11
ENDBRANCH   3   4
TORSDOF 4
ENDMDL
MODEL       68
REMARK 921   NORMALIZED FREE ENERGY PREDICTED BY IDOCK:   -4.56 KCAL/MOL
REMARK 922        TOTAL FREE ENERGY PREDICTED BY IDOCK:   -6.18 KCAL/MOL
REMARK 923 INTER-LIGAND FREE ENERGY PREDICTED BY IDOCK:   -5.52 KCAL/MOL
REMARK 924 INTRA-LIGAND FREE ENERGY PREDICTED BY IDOCK:   -0.66 KCAL/MOL
REMARK 927      BINDING AFFINITY PREDICTED BY RF-SCORE:    0.00 PKD
ROOT
HETATM    1 BR   UNL     1     -13.514  15.390  72.617  1.00  0.00    -0.675 Br 
HETATM    2  C   UNL     2      -8.221   5.868  64.773  1.00  0.00    -0.129 C  
HETATM    3  C   UNL     2      -8.486   6.598  66.083  1.00  0.00    -0.135 C  
ENDROOT
BRANCH   3   4
HETATM    4  C   UNL     2      -8.843   8.072  65.854  1.00  0.00    -0.189 C  
HETATM    5  C   UNL     2     -10.069   8.563  66.665  1.00  0.00    -0.364 C  
HETATM    6  C   UNL     2      -9.918   8.354  68.187  1.00  0.00    -0.224 C  
HETATM    7  C   UNL     2     -10.409  10.012  66.276  1.00  0.00    -0.165 C  
HETATM    8  O   UNL     2     -10.050  10.541  65.232  1.00  0.00    -0.279 OA 
BRANCH   6   9
HETATM    9  C   UNL     2      -8.722   9.088  68.800  1.00  0.00    -0.136 C  
HETATM   10  C   UNL     2      -8.112   8.310  69.954  1.00  0.00    -0.117 C  
ENDBRANCH   6   9
BRANCH   7  11
HETATM   11  O   UNL     2     -11.233  10.608  67.181  1.00  0.00    -0.296 OA 
BRANCH  11  12
HETATM   12  C   UNL     2     -11.094  12.013  67.516  1.00  0.00    -0.275 C  
HETATM   13  C   UNL     2      -9.632  12.576  67.493  1.00  0.00    -0.187 C  
HETATM   14  C   UNL     2      -9.600  14.157  67.805  1.00  0.00    -0.219 C  
HETATM   15  C   UNL     2     -10.362  15.154  68.764  1.00  0.00    -0.236 C  
HETATM   16  C   UNL     2     -11.858  14.974  68.387  1.00  0.00    -0.298 C  
HETATM   17  C   UNL     2     -11.885  14.416  66.941  1.00  0.00    -0.410 C  
HETATM   18  C   UNL     2     -12.139  12.902  66.815  1.00  0.00    -0.335 C  
HETATM   19  N   UNL     2     -10.455  14.705  66.478  1.00  0.00    -0.284 N  
HETATM   20  C   UNL     2      -9.994  14.124  65.136  1.00  0.00    -0.229 C  
HETATM   21  C   UNL     2     -10.327  16.242  66.200  1.00  0.00    -0.341 C  
ENDBRANCH  11  12
ENDBRANCH   7  11
ENDBRANCH   3   4
TORSDOF 4
ENDMDL
MODEL       69
REMARK 921   NORMALIZED FREE ENERGY PREDICTED BY IDOCK:   -4.56 KCAL/MOL
REMARK 922        TOTAL FREE ENERGY PREDICTED BY IDOCK:   -6.18 KCAL/MOL
REMARK 923 INTER-LIGAND FREE ENERGY PREDICTED BY IDOCK:   -5.59 KCAL/MOL
REMARK 924 INTRA-LIGAND FREE ENERGY PREDICTED BY IDOCK:   -0.59 KCAL/MOL
REMARK 927      BINDING AFFINITY PREDICTED BY RF-SCORE:    0.00 PKD
ROOT
HETATM    1 BR   UNL     1      -8.587   7.817  73.696  1.00  0.00    -0.324 Br 
HETATM    2  C   UNL     2     -10.441  18.888  66.332  1.00  0.00    -0.505 C  
HETATM    3  C   UNL     2     -10.089  18.098  67.585  1.00  0.00    -0.367 C  
ENDROOT
BRANCH   3   4
HETATM    4  C   UNL     2     -10.758  16.718  67.598  1.00  0.00    -0.305 C  
HETATM    5  C   UNL     2     -10.358  15.804  66.413  1.00  0.00    -0.306 C  
HETATM    6  C   UNL     2      -8.834  15.578  66.302  1.00  0.00    -0.338 C  
HETATM    7  C   UNL     2     -11.170  14.498  66.460  1.00  0.00    -0.344 C  
HETATM    8  O   UNL     2     -12.224  14.371  67.067  1.00  0.00    -0.400 OA 
BRANCH   6   9
HETATM    9  C   UNL     2      -8.214  14.916  67.536  1.00  0.00    -0.199 C  
HETATM   10  C   UNL     2      -6.810  15.432  67.808  1.00  0.00    -0.188 C  
ENDBRANCH   6   9
BRANCH   7  11
HETATM   11  O   UNL     2     -10.629  13.528  65.672  1.00  0.00    -0.273 OA 
BRANCH  11  12
HETATM   12  C   UNL     2     -10.497  12.161  66.142  1.00  0.00    -0.248 C  
HETATM   13  C   UNL     2     -10.215  11.087  65.037  1.00  0.00    -0.360 C  
HETATM   14  C   UNL     2     -10.011   9.620  65.673  1.00  0.00    -0.251 C  
HETATM   15  C   UNL     2     -10.649   8.780  66.849  1.00  0.00    -0.263 C  
HETATM   16  C   UNL     2     -10.433   9.663  68.108  1.00  0.00    -0.266 C  
HETATM   17  C   UNL     2      -9.239  10.600  67.789  1.00  0.00    -0.146 C  
HETATM   18  C   UNL     2      -9.611  12.043  67.397  1.00  0.00    -0.176 C  
HETATM   19  N   UNL     2      -8.629   9.911  66.567  1.00  0.00    -0.124 N  
HETATM   20  C   UNL     2      -7.515  10.636  65.804  1.00  0.00    -0.114 C  
HETATM   21  C   UNL     2      -7.875   8.625  67.051  1.00  0.00    -0.096 C  
ENDBRANCH  11  12
ENDBRANCH   7  11
ENDBRANCH   3   4
TORSDOF 4
ENDMDL
MODEL       70
REMARK 921   NORMALIZED FREE ENERGY PREDICTED BY IDOCK:   -4.55 KCAL/MOL
REMARK 922        TOTAL FREE ENERGY PREDICTED BY IDOCK:   -6.18 KCAL/MOL
REMARK 923 INTER-LIGAND FREE ENERGY PREDICTED BY IDOCK:   -5.34 KCAL/MOL
REMARK 924 INTRA-LIGAND FREE ENERGY PREDICTED BY IDOCK:   -0.84 KCAL/MOL
REMARK 927      BINDING AFFINITY PREDICTED BY RF-SCORE:    0.00 PKD
ROOT
HETATM    1 BR   UNL     1      -8.410   5.684  74.164  1.00  0.00    -0.106 Br 
HETATM    2  C   UNL     2     -10.457  16.995  67.230  1.00  0.00    -0.301 C  
HETATM    3  C   UNL     2     -10.863  15.769  68.036  1.00  0.00    -0.309 C  
ENDROOT
BRANCH   3   4
HETATM    4  C   UNL     2      -9.819  14.650  67.939  1.00  0.00    -0.217 C  
HETATM    5  C   UNL     2     -10.372  13.236  68.248  1.00  0.00    -0.252 C  
HETATM    6  C   UNL     2     -11.563  12.835  67.350  1.00  0.00    -0.415 C  
HETATM    7  C   UNL     2      -9.225  12.210  68.237  1.00  0.00    -0.192 C  
HETATM    8  O   UNL     2      -8.045  12.504  68.372  1.00  0.00    -0.151 OA 
BRANCH   6   9
HETATM    9  C   UNL     2     -11.234  12.811  65.855  1.00  0.00    -0.334 C  
HETATM   10  C   UNL     2     -12.486  12.687  65.002  1.00  0.00    -0.556 C  
ENDBRANCH   6   9
BRANCH   7  11
HETATM   11  O   UNL     2      -9.680  10.930  68.153  1.00  0.00    -0.157 OA 
BRANCH  11  12
HETATM   12  C   UNL     2      -9.902  10.129  69.343  1.00  0.00    -0.229 C  
HETATM   13  C   UNL     2     -11.378   9.659  69.580  1.00  0.00    -0.113 C  
HETATM   14  C   UNL     2     -11.498   8.716  70.882  1.00  0.00    -0.275 C  
HETATM   15  C   UNL     2     -10.859   8.665  72.326  1.00  0.00    -0.392 C  
HETATM   16  C   UNL     2      -9.331   8.584  72.063  1.00  0.00    -0.353 C  
HETATM   17  C   UNL     2      -9.160   8.004  70.634  1.00  0.00    -0.153 C  
HETATM   18  C   UNL     2      -8.838   9.032  69.532  1.00  0.00    -0.146 C  
HETATM   19  N   UNL     2     -10.556   7.435  70.368  1.00  0.00    -0.223 N  
HETATM   20  C   UNL     2     -10.879   6.930  68.957  1.00  0.00    -0.212 C  
HETATM   21  C   UNL     2     -10.720   6.119  71.204  1.00  0.00    -0.256 C  
ENDBRANCH  11  12
ENDBRANCH   7  11
ENDBRANCH   3   4
TORSDOF 4
ENDMDL
MODEL       71
REMARK 921   NORMALIZED FREE ENERGY PREDICTED BY IDOCK:   -4.55 KCAL/MOL
REMARK 922        TOTAL FREE ENERGY PREDICTED BY IDOCK:   -6.17 KCAL/MOL
REMARK 923 INTER-LIGAND FREE ENERGY PREDICTED BY IDOCK:   -5.49 KCAL/MOL
REMARK 924 INTRA-LIGAND FREE ENERGY PREDICTED BY IDOCK:   -0.68 KCAL/MOL
REMARK 927      BINDING AFFINITY PREDICTED BY RF-SCORE:    0.00 PKD
ROOT
HETATM    1 BR   UNL     1     -12.652  15.684  73.947  1.00  0.00    -0.804 Br 
HETATM    2  C   UNL     2      -8.137   9.058  63.181  1.00  0.00    -0.169 C  
HETATM    3  C   UNL     2      -9.091   9.350  64.330  1.00  0.00    -0.180 C  
ENDROOT
BRANCH   3   4
HETATM    4  C   UNL     2      -8.395  10.097  65.475  1.00  0.00    -0.160 C  
HETATM    5  C   UNL     2      -9.151  11.357  65.965  1.00  0.00    -0.218 C  
HETATM    6  C   UNL     2     -10.599  11.065  66.416  1.00  0.00    -0.308 C  
HETATM    7  C   UNL     2      -8.314  12.091  67.028  1.00  0.00    -0.178 C  
HETATM    8  O   UNL     2      -7.107  11.948  67.165  1.00  0.00    -0.135 OA 
BRANCH   6   9
HETATM    9  C   UNL     2     -10.699  10.070  67.576  1.00  0.00    -0.339 C  
HETATM   10  C   UNL     2     -11.551  10.612  68.713  1.00  0.00    -0.309 C  
ENDBRANCH   6   9
BRANCH   7  11
HETATM   11  O   UNL     2      -9.055  12.986  67.737  1.00  0.00    -0.182 OA 
BRANCH  11  12
HETATM   12  C   UNL     2      -8.887  14.417  67.553  1.00  0.00    -0.193 C  
HETATM   13  C   UNL     2      -9.807  15.074  66.468  1.00  0.00    -0.276 C  
HETATM   14  C   UNL     2      -9.595  16.670  66.399  1.00  0.00    -0.285 C  
HETATM   15  C   UNL     2      -8.379  17.673  66.507  1.00  0.00    -0.300 C  
HETATM   16  C   UNL     2      -7.758  17.369  67.898  1.00  0.00    -0.201 C  
HETATM   17  C   UNL     2      -8.880  16.719  68.749  1.00  0.00    -0.258 C  
HETATM   18  C   UNL     2      -8.810  15.186  68.885  1.00  0.00    -0.205 C  
HETATM   19  N   UNL     2     -10.125  17.073  67.932  1.00  0.00    -0.293 N  
HETATM   20  C   UNL     2     -11.462  16.440  68.332  1.00  0.00    -0.181 C  
HETATM   21  C   UNL     2     -10.437  18.595  68.143  1.00  0.00    -0.315 C  
ENDBRANCH  11  12
ENDBRANCH   7  11
ENDBRANCH   3   4
TORSDOF 4
ENDMDL
MODEL       72
REMARK 921   NORMALIZED FREE ENERGY PREDICTED BY IDOCK:   -4.54 KCAL/MOL
REMARK 922        TOTAL FREE ENERGY PREDICTED BY IDOCK:   -6.16 KCAL/MOL
REMARK 923 INTER-LIGAND FREE ENERGY PREDICTED BY IDOCK:   -5.84 KCAL/MOL
REMARK 924 INTRA-LIGAND FREE ENERGY PREDICTED BY IDOCK:   -0.32 KCAL/MOL
REMARK 927      BINDING AFFINITY PREDICTED BY RF-SCORE:    0.00 PKD
ROOT
HETATM    1 BR   UNL     1     -10.834   7.199  67.558  1.00  0.00    -0.278 Br 
HETATM    2  C   UNL     2      -7.052  19.918  65.522  1.00  0.00    -0.327 C  
HETATM    3  C   UNL     2      -7.186  18.619  66.305  1.00  0.00    -0.281 C  
ENDROOT
BRANCH   3   4
HETATM    4  C   UNL     2      -8.388  17.790  65.835  1.00  0.00     0.041 C  
HETATM    5  C   UNL     2      -8.869  16.730  66.858  1.00  0.00    -0.241 C  
HETATM    6  C   UNL     2      -9.230  17.329  68.234  1.00  0.00    -0.265 C  
HETATM    7  C   UNL     2      -9.997  15.882  66.243  1.00  0.00    -0.298 C  
HETATM    8  O   UNL     2     -10.197  15.781  65.041  1.00  0.00    -0.456 OA 
BRANCH   6   9
HETATM    9  C   UNL     2     -10.355  18.367  68.185  1.00  0.00    -0.393 C  
HETATM   10  C   UNL     2      -9.875  19.741  68.623  1.00  0.00    -0.491 C  
ENDBRANCH   6   9
BRANCH   7  11
HETATM   11  O   UNL     2     -10.687  15.185  67.186  1.00  0.00    -0.296 OA 
BRANCH  11  12
HETATM   12  C   UNL     2     -10.589  13.739  67.278  1.00  0.00    -0.275 C  
HETATM   13  C   UNL     2     -11.771  12.936  66.636  1.00  0.00    -0.452 C  
HETATM   14  C   UNL     2     -11.524  11.345  66.726  1.00  0.00    -0.078 C  
HETATM   15  C   UNL     2     -10.922  10.334  67.780  1.00  0.00    -0.360 C  
HETATM   16  C   UNL     2      -9.479  10.854  68.023  1.00  0.00    -0.167 C  
HETATM   17  C   UNL     2      -9.092  11.682  66.770  1.00  0.00    -0.186 C  
HETATM   18  C   UNL     2      -9.185  13.212  66.927  1.00  0.00    -0.236 C  
HETATM   19  N   UNL     2     -10.159  11.235  65.769  1.00  0.00    -0.237 N  
HETATM   20  C   UNL     2     -10.257  11.976  64.430  1.00  0.00    -0.302 C  
HETATM   21  C   UNL     2      -9.807   9.786  65.286  1.00  0.00    -0.265 C  
ENDBRANCH  11  12
ENDBRANCH   7  11
ENDBRANCH   3   4
TORSDOF 4
ENDMDL
MODEL       73
REMARK 921   NORMALIZED FREE ENERGY PREDICTED BY IDOCK:   -4.54 KCAL/MOL
REMARK 922        TOTAL FREE ENERGY PREDICTED BY IDOCK:   -6.16 KCAL/MOL
REMARK 923 INTER-LIGAND FREE ENERGY PREDICTED BY IDOCK:   -5.62 KCAL/MOL
REMARK 924 INTRA-LIGAND FREE ENERGY PREDICTED BY IDOCK:   -0.54 KCAL/MOL
REMARK 927      BINDING AFFINITY PREDICTED BY RF-SCORE:    0.00 PKD
ROOT
HETATM    1 BR   UNL     1     -12.231  12.961  63.370  1.00  0.00    -0.454 Br 
HETATM    2  C   UNL     2     -10.215   5.656  74.451  1.00  0.00    -0.295 C  
HETATM    3  C   UNL     2     -11.036   6.278  73.330  1.00  0.00    -0.221 C  
ENDROOT
BRANCH   3   4
HETATM    4  C   UNL     2     -10.368   7.537  72.763  1.00  0.00    -0.331 C  
HETATM    5  C   UNL     2     -10.726   7.837  71.286  1.00  0.00    -0.251 C  
HETATM    6  C   UNL     2     -12.244   7.968  71.039  1.00  0.00    -0.199 C  
HETATM    7  C   UNL     2      -9.917   9.046  70.785  1.00  0.00    -0.245 C  
HETATM    8  O   UNL     2      -8.885   9.442  71.310  1.00  0.00    -0.287 OA 
BRANCH   6   9
HETATM    9  C   UNL     2     -12.909   9.091  71.841  1.00  0.00    -0.451 C  
HETATM   10  C   UNL     2     -14.373   8.794  72.122  1.00  0.00    -0.481 C  
ENDBRANCH   6   9
BRANCH   7  11
HETATM   11  O   UNL     2     -10.429   9.568  69.637  1.00  0.00    -0.201 OA 
BRANCH  11  12
HETATM   12  C   UNL     2     -10.260  10.971  69.304  1.00  0.00    -0.127 C  
HETATM   13  C   UNL     2      -8.934  11.336  68.555  1.00  0.00    -0.166 C  
HETATM   14  C   UNL     2      -8.882  12.899  68.167  1.00  0.00    -0.194 C  
HETATM   15  C   UNL     2      -9.313  14.263  68.838  1.00  0.00    -0.054 C  
HETATM   16  C   UNL     2     -10.833  14.092  69.106  1.00  0.00    -0.254 C  
HETATM   17  C   UNL     2     -11.336  13.010  68.115  1.00  0.00    -0.294 C  
HETATM   18  C   UNL     2     -11.533  11.602  68.709  1.00  0.00    -0.346 C  
HETATM   19  N   UNL     2     -10.179  12.953  67.114  1.00  0.00    -0.237 N  
HETATM   20  C   UNL     2     -10.188  11.846  66.055  1.00  0.00    -0.229 C  
HETATM   21  C   UNL     2     -10.243  14.233  66.212  1.00  0.00    -0.301 C  
ENDBRANCH  11  12
ENDBRANCH   7  11
ENDBRANCH   3   4
TORSDOF 4
ENDMDL
MODEL       74
REMARK 921   NORMALIZED FREE ENERGY PREDICTED BY IDOCK:   -4.54 KCAL/MOL
REMARK 922        TOTAL FREE ENERGY PREDICTED BY IDOCK:   -6.16 KCAL/MOL
REMARK 923 INTER-LIGAND FREE ENERGY PREDICTED BY IDOCK:   -5.43 KCAL/MOL
REMARK 924 INTRA-LIGAND FREE ENERGY PREDICTED BY IDOCK:   -0.73 KCAL/MOL
REMARK 927      BINDING AFFINITY PREDICTED BY RF-SCORE:    0.00 PKD
ROOT
HETATM    1 BR   UNL     1      -7.528   7.285  63.904  1.00  0.00    -0.106 Br 
HETATM    2  C   UNL     2     -10.382  20.019  67.052  1.00  0.00    -0.555 C  
HETATM    3  C   UNL     2      -9.489  18.797  66.890  1.00  0.00    -0.329 C  
ENDROOT
BRANCH   3   4
HETATM    4  C   UNL     2     -10.290  17.490  66.960  1.00  0.00    -0.324 C  
HETATM    5  C   UNL     2      -9.633  16.301  66.216  1.00  0.00    -0.336 C  
HETATM    6  C   UNL     2      -8.200  15.992  66.702  1.00  0.00    -0.324 C  
HETATM    7  C   UNL     2     -10.568  15.079  66.250  1.00  0.00    -0.307 C  
HETATM    8  O   UNL     2     -11.772  15.147  66.458  1.00  0.00    -0.202 OA 
BRANCH   6   9
HETATM    9  C   UNL     2      -8.113  15.624  68.186  1.00  0.00    -0.136 C  
HETATM   10  C   UNL     2      -7.219  16.584  68.955  1.00  0.00    -0.208 C  
ENDBRANCH   6   9
BRANCH   7  11
HETATM   11  O   UNL     2      -9.920  13.926  65.930  1.00  0.00    -0.299 OA 
BRANCH  11  12
HETATM   12  C   UNL     2      -9.967  12.767  66.803  1.00  0.00    -0.237 C  
HETATM   13  C   UNL     2     -11.210  11.831  66.621  1.00  0.00    -0.383 C  
HETATM   14  C   UNL     2     -11.125  10.539  67.581  1.00  0.00    -0.309 C  
HETATM   15  C   UNL     2     -10.648  10.234  69.056  1.00  0.00    -0.247 C  
HETATM   16  C   UNL     2      -9.165  10.696  69.078  1.00  0.00    -0.177 C  
HETATM   17  C   UNL     2      -8.672  10.668  67.608  1.00  0.00    -0.121 C  
HETATM   18  C   UNL     2      -8.616  12.034  66.898  1.00  0.00    -0.189 C  
HETATM   19  N   UNL     2      -9.759   9.823  66.940  1.00  0.00    -0.182 N  
HETATM   20  C   UNL     2      -9.754   9.709  65.411  1.00  0.00    -0.295 C  
HETATM   21  C   UNL     2      -9.543   8.326  67.353  1.00  0.00    -0.160 C  
ENDBRANCH  11  12
ENDBRANCH   7  11
ENDBRANCH   3   4
TORSDOF 4
ENDMDL
MODEL       75
REMARK 921   NORMALIZED FREE ENERGY PREDICTED BY IDOCK:   -4.53 KCAL/MOL
REMARK 922        TOTAL FREE ENERGY PREDICTED BY IDOCK:   -6.14 KCAL/MOL
REMARK 923 INTER-LIGAND FREE ENERGY PREDICTED BY IDOCK:   -5.63 KCAL/MOL
REMARK 924 INTRA-LIGAND FREE ENERGY PREDICTED BY IDOCK:   -0.52 KCAL/MOL
REMARK 927      BINDING AFFINITY PREDICTED BY RF-SCORE:    0.00 PKD
ROOT
HETATM    1 BR   UNL     1     -12.087  10.440  71.067  1.00  0.00    -0.501 Br 
HETATM    2  C   UNL     2      -5.445  21.318  66.852  1.00  0.00    -0.332 C  
HETATM    3  C   UNL     2      -6.638  20.546  67.397  1.00  0.00    -0.314 C  
ENDROOT
BRANCH   3   4
HETATM    4  C   UNL     2      -6.589  19.064  67.004  1.00  0.00    -0.200 C  
HETATM    5  C   UNL     2      -7.155  18.101  68.077  1.00  0.00    -0.222 C  
HETATM    6  C   UNL     2      -8.610  18.424  68.482  1.00  0.00    -0.341 C  
HETATM    7  C   UNL     2      -6.953  16.642  67.632  1.00  0.00    -0.139 C  
HETATM    8  O   UNL     2      -6.134  16.291  66.794  1.00  0.00    -0.316 OA 
BRANCH   6   9
HETATM    9  C   UNL     2      -9.608  18.352  67.323  1.00  0.00    -0.292 C  
HETATM   10  C   UNL     2     -10.273  19.695  67.065  1.00  0.00    -0.559 C  
ENDBRANCH   6   9
BRANCH   7  11
HETATM   11  O   UNL     2      -7.724  15.776  68.345  1.00  0.00    -0.122 OA 
BRANCH  11  12
HETATM   12  C   UNL     2      -8.597  14.824  67.684  1.00  0.00    -0.174 C  
HETATM   13  C   UNL     2      -9.605  14.066  68.614  1.00  0.00    -0.159 C  
HETATM   14  C   UNL     2     -10.575  13.094  67.772  1.00  0.00    -0.234 C  
HETATM   15  C   UNL     2     -10.438  12.137  66.522  1.00  0.00    -0.254 C  
HETATM   16  C   UNL     2      -9.918  13.063  65.389  1.00  0.00    -0.201 C  
HETATM   17  C   UNL     2     -10.329  14.508  65.778  1.00  0.00    -0.331 C  
HETATM   18  C   UNL     2      -9.211  15.378  66.384  1.00  0.00    -0.339 C  
HETATM   19  N   UNL     2     -11.376  14.244  66.862  1.00  0.00    -0.329 N  
HETATM   20  C   UNL     2     -11.907  15.437  67.665  1.00  0.00     0.013 C  
HETATM   21  C   UNL     2     -12.688  13.740  66.169  1.00  0.00    -0.283 C  
ENDBRANCH  11  12
ENDBRANCH   7  11
ENDBRANCH   3   4
TORSDOF 4
ENDMDL
MODEL       76
REMARK 921   NORMALIZED FREE ENERGY PREDICTED BY IDOCK:   -4.51 KCAL/MOL
REMARK 922        TOTAL FREE ENERGY PREDICTED BY IDOCK:   -6.12 KCAL/MOL
REMARK 923 INTER-LIGAND FREE ENERGY PREDICTED BY IDOCK:   -5.56 KCAL/MOL
REMARK 924 INTRA-LIGAND FREE ENERGY PREDICTED BY IDOCK:   -0.56 KCAL/MOL
REMARK 927      BINDING AFFINITY PREDICTED BY RF-SCORE:    0.00 PKD
ROOT
HETATM    1 BR   UNL     1     -10.694  15.145  65.127  1.00  0.00    -0.459 Br 
HETATM    2  C   UNL     2     -11.000   4.665  73.512  1.00  0.00    -0.395 C  
HETATM    3  C   UNL     2     -11.592   5.718  72.585  1.00  0.00    -0.304 C  
ENDROOT
BRANCH   3   4
HETATM    4  C   UNL     2     -10.695   6.959  72.483  1.00  0.00    -0.263 C  
HETATM    5  C   UNL     2     -10.967   7.839  71.237  1.00  0.00    -0.259 C  
HETATM    6  C   UNL     2     -12.432   8.318  71.135  1.00  0.00    -0.189 C  
HETATM    7  C   UNL     2      -9.943   8.985  71.171  1.00  0.00    -0.295 C  
HETATM    8  O   UNL     2      -8.865   8.971  71.750  1.00  0.00    -0.348 OA 
BRANCH   6   9
HETATM    9  C   UNL     2     -12.894   9.165  72.324  1.00  0.00    -0.472 C  
HETATM   10  C   UNL     2     -13.282  10.572  71.899  1.00  0.00    -0.526 C  
ENDBRANCH   6   9
BRANCH   7  11
HETATM   11  O   UNL     2     -10.331   9.974  70.321  1.00  0.00    -0.273 OA 
BRANCH  11  12
HETATM   12  C   UNL     2      -9.897   9.992  68.936  1.00  0.00    -0.184 C  
HETATM   13  C   UNL     2      -8.356   9.821  68.706  1.00  0.00    -0.113 C  
HETATM   14  C   UNL     2      -7.992   9.779  67.136  1.00  0.00    -0.102 C  
HETATM   15  C   UNL     2      -8.481  10.511  65.824  1.00  0.00    -0.177 C  
HETATM   16  C   UNL     2     -10.004  10.209  65.766  1.00  0.00    -0.339 C  
HETATM   17  C   UNL     2     -10.229   8.920  66.597  1.00  0.00    -0.268 C  
HETATM   18  C   UNL     2     -10.786   9.132  68.018  1.00  0.00    -0.205 C  
HETATM   19  N   UNL     2      -8.803   8.380  66.714  1.00  0.00    -0.133 N  
HETATM   20  C   UNL     2      -8.549   7.190  67.647  1.00  0.00    -0.122 C  
HETATM   21  C   UNL     2      -8.390   7.771  65.330  1.00  0.00    -0.136 C  
ENDBRANCH  11  12
ENDBRANCH   7  11
ENDBRANCH   3   4
TORSDOF 4
ENDMDL
MODEL       77
REMARK 921   NORMALIZED FREE ENERGY PREDICTED BY IDOCK:   -4.49 KCAL/MOL
REMARK 922        TOTAL FREE ENERGY PREDICTED BY IDOCK:   -6.10 KCAL/MOL
REMARK 923 INTER-LIGAND FREE ENERGY PREDICTED BY IDOCK:   -5.34 KCAL/MOL
REMARK 924 INTRA-LIGAND FREE ENERGY PREDICTED BY IDOCK:   -0.76 KCAL/MOL
REMARK 927      BINDING AFFINITY PREDICTED BY RF-SCORE:    0.00 PKD
ROOT
HETATM    1 BR   UNL     1     -12.564  13.892  65.460  1.00  0.00    -0.525 Br 
HETATM    2  C   UNL     2     -10.820   3.496  73.773  1.00  0.00    -0.317 C  
HETATM    3  C   UNL     2     -11.216   4.916  73.391  1.00  0.00    -0.415 C  
ENDROOT
BRANCH   3   4
HETATM    4  C   UNL     2     -10.472   5.400  72.140  1.00  0.00    -0.273 C  
HETATM    5  C   UNL     2     -11.387   6.021  71.055  1.00  0.00    -0.299 C  
HETATM    6  C   UNL     2     -12.236   7.202  71.574  1.00  0.00    -0.396 C  
HETATM    7  C   UNL     2     -10.559   6.365  69.804  1.00  0.00    -0.254 C  
HETATM    8  O   UNL     2      -9.471   5.867  69.548  1.00  0.00    -0.135 OA 
BRANCH   6   9
HETATM    9  C   UNL     2     -11.409   8.374  72.109  1.00  0.00    -0.437 C  
HETATM   10  C   UNL     2     -11.857   9.700  71.514  1.00  0.00    -0.483 C  
ENDBRANCH   6   9
BRANCH   7  11
HETATM   11  O   UNL     2     -11.218   7.215  68.970  1.00  0.00    -0.076 OA 
BRANCH  11  12
HETATM   12  C   UNL     2     -10.529   8.309  68.311  1.00  0.00    -0.161 C  
HETATM   13  C   UNL     2      -9.318   8.921  69.095  1.00  0.00    -0.148 C  
HETATM   14  C   UNL     2      -8.580  10.073  68.244  1.00  0.00    -0.115 C  
HETATM   15  C   UNL     2      -9.016  11.240  67.272  1.00  0.00    -0.149 C  
HETATM   16  C   UNL     2      -9.805  10.521  66.144  1.00  0.00    -0.271 C  
HETATM   17  C   UNL     2      -9.320   9.048  66.137  1.00  0.00    -0.232 C  
HETATM   18  C   UNL     2     -10.258   8.034  66.820  1.00  0.00    -0.367 C  
HETATM   19  N   UNL     2      -8.036   9.147  66.964  1.00  0.00    -0.102 N  
HETATM   20  C   UNL     2      -7.330   7.848  67.370  1.00  0.00    -0.092 C  
HETATM   21  C   UNL     2      -6.932   9.826  66.081  1.00  0.00    -0.095 C  
ENDBRANCH  11  12
ENDBRANCH   7  11
ENDBRANCH   3   4
TORSDOF 4
ENDMDL
MODEL       78
REMARK 921   NORMALIZED FREE ENERGY PREDICTED BY IDOCK:   -4.49 KCAL/MOL
REMARK 922        TOTAL FREE ENERGY PREDICTED BY IDOCK:   -6.10 KCAL/MOL
REMARK 923 INTER-LIGAND FREE ENERGY PREDICTED BY IDOCK:   -5.55 KCAL/MOL
REMARK 924 INTRA-LIGAND FREE ENERGY PREDICTED BY IDOCK:   -0.55 KCAL/MOL
REMARK 927      BINDING AFFINITY PREDICTED BY RF-SCORE:    0.00 PKD
ROOT
HETATM    1 BR   UNL     1      -7.911   7.164  62.925  1.00  0.00    -0.098 Br 
HETATM    2  C   UNL     2     -10.283  19.263  68.237  1.00  0.00    -0.513 C  
HETATM    3  C   UNL     2      -9.561  17.931  68.087  1.00  0.00    -0.306 C  
ENDROOT
BRANCH   3   4
HETATM    4  C   UNL     2     -10.465  16.857  67.469  1.00  0.00    -0.328 C  
HETATM    5  C   UNL     2     -10.256  15.437  68.053  1.00  0.00    -0.235 C  
HETATM    6  C   UNL     2     -10.441  15.372  69.584  1.00  0.00    -0.286 C  
HETATM    7  C   UNL     2     -11.124  14.423  67.287  1.00  0.00    -0.311 C  
HETATM    8  O   UNL     2     -11.576  14.619  66.167  1.00  0.00    -0.360 OA 
BRANCH   6   9
HETATM    9  C   UNL     2     -11.835  15.792  70.060  1.00  0.00    -0.365 C  
HETATM   10  C   UNL     2     -11.875  16.019  71.563  1.00  0.00    -0.554 C  
ENDBRANCH   6   9
BRANCH   7  11
HETATM   11  O   UNL     2     -11.253  13.246  67.959  1.00  0.00    -0.252 OA 
BRANCH  11  12
HETATM   12  C   UNL     2     -10.648  12.024  67.463  1.00  0.00    -0.221 C  
HETATM   13  C   UNL     2      -9.845  12.158  66.124  1.00  0.00    -0.254 C  
HETATM   14  C   UNL     2      -9.154  10.764  65.705  1.00  0.00    -0.188 C  
HETATM   15  C   UNL     2      -9.536   9.232  65.753  1.00  0.00    -0.341 C  
HETATM   16  C   UNL     2      -9.827   8.959  67.254  1.00  0.00    -0.256 C  
HETATM   17  C   UNL     2      -9.070  10.051  68.054  1.00  0.00    -0.131 C  
HETATM   18  C   UNL     2      -9.933  11.220  68.566  1.00  0.00    -0.206 C  
HETATM   19  N   UNL     2      -8.106  10.591  66.996  1.00  0.00    -0.116 N  
HETATM   20  C   UNL     2      -7.289  11.845  67.327  1.00  0.00    -0.146 C  
HETATM   21  C   UNL     2      -6.966   9.536  66.782  1.00  0.00    -0.081 C  
ENDBRANCH  11  12
ENDBRANCH   7  11
ENDBRANCH   3   4
TORSDOF 4
ENDMDL
MODEL       79
REMARK 921   NORMALIZED FREE ENERGY PREDICTED BY IDOCK:   -4.49 KCAL/MOL
REMARK 922        TOTAL FREE ENERGY PREDICTED BY IDOCK:   -6.10 KCAL/MOL
REMARK 923 INTER-LIGAND FREE ENERGY PREDICTED BY IDOCK:   -5.28 KCAL/MOL
REMARK 924 INTRA-LIGAND FREE ENERGY PREDICTED BY IDOCK:   -0.81 KCAL/MOL
REMARK 927      BINDING AFFINITY PREDICTED BY RF-SCORE:    0.00 PKD
ROOT
HETATM    1 BR   UNL     1      -9.605   8.569  66.702  1.00  0.00    -0.316 Br 
HETATM    2  C   UNL     2      -5.312  21.288  66.754  1.00  0.00    -0.306 C  
HETATM    3  C   UNL     2      -5.338  19.831  67.194  1.00  0.00    -0.163 C  
ENDROOT
BRANCH   3   4
HETATM    4  C   UNL     2      -6.705  19.183  66.943  1.00  0.00    -0.204 C  
HETATM    5  C   UNL     2      -6.642  17.668  66.626  1.00  0.00    -0.243 C  
HETATM    6  C   UNL     2      -5.933  16.843  67.722  1.00  0.00    -0.147 C  
HETATM    7  C   UNL     2      -8.048  17.145  66.280  1.00  0.00    -0.290 C  
HETATM    8  O   UNL     2      -8.971  17.861  65.915  1.00  0.00    -0.512 OA 
BRANCH   6   9
HETATM    9  C   UNL     2      -6.603  16.930  69.097  1.00  0.00    -0.224 C  
HETATM   10  C   UNL     2      -5.593  17.195  70.201  1.00  0.00    -0.236 C  
ENDBRANCH   6   9
BRANCH   7  11
HETATM   11  O   UNL     2      -8.119  15.787  66.335  1.00  0.00    -0.245 OA 
BRANCH  11  12
HETATM   12  C   UNL     2      -9.327  15.113  66.776  1.00  0.00    -0.247 C  
HETATM   13  C   UNL     2      -9.677  13.785  66.022  1.00  0.00    -0.255 C  
HETATM   14  C   UNL     2     -10.989  13.081  66.638  1.00  0.00    -0.279 C  
HETATM   15  C   UNL     2     -12.381  13.553  67.216  1.00  0.00    -0.179 C  
HETATM   16  C   UNL     2     -12.004  14.509  68.381  1.00  0.00    -0.309 C  
HETATM   17  C   UNL     2     -10.570  14.120  68.825  1.00  0.00    -0.253 C  
HETATM   18  C   UNL     2      -9.442  15.033  68.309  1.00  0.00    -0.196 C  
HETATM   19  N   UNL     2     -10.413  12.745  68.171  1.00  0.00    -0.229 N  
HETATM   20  C   UNL     2      -9.033  12.078  68.202  1.00  0.00    -0.190 C  
HETATM   21  C   UNL     2     -11.266  11.711  68.984  1.00  0.00    -0.262 C  
ENDBRANCH  11  12
ENDBRANCH   7  11
ENDBRANCH   3   4
TORSDOF 4
ENDMDL
MODEL       80
REMARK 921   NORMALIZED FREE ENERGY PREDICTED BY IDOCK:   -4.48 KCAL/MOL
REMARK 922        TOTAL FREE ENERGY PREDICTED BY IDOCK:   -6.09 KCAL/MOL
REMARK 923 INTER-LIGAND FREE ENERGY PREDICTED BY IDOCK:   -5.25 KCAL/MOL
REMARK 924 INTRA-LIGAND FREE ENERGY PREDICTED BY IDOCK:   -0.84 KCAL/MOL
REMARK 927      BINDING AFFINITY PREDICTED BY RF-SCORE:    0.00 PKD
ROOT
HETATM    1 BR   UNL     1      -6.998  18.527  68.593  1.00  0.00    -0.299 Br 
HETATM    2  C   UNL     2      -7.953   6.308  63.116  1.00  0.00    -0.098 C  
HETATM    3  C   UNL     2      -7.230   7.518  63.691  1.00  0.00    -0.079 C  
ENDROOT
BRANCH   3   4
HETATM    4  C   UNL     2      -8.064   8.798  63.560  1.00  0.00    -0.170 C  
HETATM    5  C   UNL     2      -8.879   9.159  64.827  1.00  0.00    -0.200 C  
HETATM    6  C   UNL     2      -8.008   9.302  66.094  1.00  0.00    -0.107 C  
HETATM    7  C   UNL     2      -9.763  10.388  64.549  1.00  0.00    -0.330 C  
HETATM    8  O   UNL     2     -10.082  10.760  63.428  1.00  0.00    -0.331 OA 
BRANCH   6   9
HETATM    9  C   UNL     2      -6.936  10.392  65.992  1.00  0.00    -0.129 C  
HETATM   10  C   UNL     2      -6.387  10.774  67.357  1.00  0.00    -0.059 C  
ENDBRANCH   6   9
BRANCH   7  11
HETATM   11  O   UNL     2     -10.227  10.956  65.696  1.00  0.00    -0.247 OA 
BRANCH  11  12
HETATM   12  C   UNL     2     -10.317  12.398  65.839  1.00  0.00    -0.257 C  
HETATM   13  C   UNL     2     -11.764  12.997  65.783  1.00  0.00    -0.427 C  
HETATM   14  C   UNL     2     -11.757  14.590  66.028  1.00  0.00    -0.345 C  
HETATM   15  C   UNL     2     -10.838  15.810  65.624  1.00  0.00    -0.316 C  
HETATM   16  C   UNL     2      -9.440  15.435  66.185  1.00  0.00    -0.371 C  
HETATM   17  C   UNL     2      -9.683  14.422  67.334  1.00  0.00    -0.220 C  
HETATM   18  C   UNL     2      -9.438  12.942  66.981  1.00  0.00    -0.235 C  
HETATM   19  N   UNL     2     -11.178  14.613  67.596  1.00  0.00    -0.307 N  
HETATM   20  C   UNL     2     -11.880  13.640  68.550  1.00  0.00    -0.371 C  
HETATM   21  C   UNL     2     -11.377  15.972  68.352  1.00  0.00    -0.355 C  
ENDBRANCH  11  12
ENDBRANCH   7  11
ENDBRANCH   3   4
TORSDOF 4
ENDMDL
MODEL       81
REMARK 921   NORMALIZED FREE ENERGY PREDICTED BY IDOCK:   -4.46 KCAL/MOL
REMARK 922        TOTAL FREE ENERGY PREDICTED BY IDOCK:   -6.07 KCAL/MOL
REMARK 923 INTER-LIGAND FREE ENERGY PREDICTED BY IDOCK:   -5.43 KCAL/MOL
REMARK 924 INTRA-LIGAND FREE ENERGY PREDICTED BY IDOCK:   -0.64 KCAL/MOL
REMARK 927      BINDING AFFINITY PREDICTED BY RF-SCORE:    0.00 PKD
ROOT
HETATM    1 BR   UNL     1      -8.393  19.413  66.320  1.00  0.00    -0.332 Br 
HETATM    2  C   UNL     2     -10.237   6.129  66.925  1.00  0.00    -0.263 C  
HETATM    3  C   UNL     2     -10.650   7.592  67.006  1.00  0.00    -0.406 C  
ENDROOT
BRANCH   3   4
HETATM    4  C   UNL     2      -9.460   8.506  67.326  1.00  0.00    -0.199 C  
HETATM    5  C   UNL     2      -9.856   9.944  67.742  1.00  0.00    -0.184 C  
HETATM    6  C   UNL     2     -10.813   9.989  68.954  1.00  0.00    -0.250 C  
HETATM    7  C   UNL     2      -8.593  10.804  67.927  1.00  0.00    -0.125 C  
HETATM    8  O   UNL     2      -7.505  10.531  67.439  1.00  0.00    -0.092 OA 
BRANCH   6   9
HETATM    9  C   UNL     2     -10.237   9.357  70.224  1.00  0.00    -0.295 C  
HETATM   10  C   UNL     2     -11.320   9.060  71.248  1.00  0.00    -0.389 C  
ENDBRANCH   6   9
BRANCH   7  11
HETATM   11  O   UNL     2      -8.847  11.949  68.617  1.00  0.00    -0.139 OA 
BRANCH  11  12
HETATM   12  C   UNL     2      -9.244  13.168  67.935  1.00  0.00    -0.207 C  
HETATM   13  C   UNL     2     -10.776  13.495  67.966  1.00  0.00    -0.263 C  
HETATM   14  C   UNL     2     -11.097  14.902  67.249  1.00  0.00    -0.336 C  
HETATM   15  C   UNL     2     -10.578  15.690  65.982  1.00  0.00    -0.336 C  
HETATM   16  C   UNL     2      -9.052  15.843  66.228  1.00  0.00    -0.379 C  
HETATM   17  C   UNL     2      -8.839  15.724  67.760  1.00  0.00    -0.171 C  
HETATM   18  C   UNL     2      -8.324  14.360  68.257  1.00  0.00    -0.158 C  
HETATM   19  N   UNL     2     -10.265  15.919  68.281  1.00  0.00    -0.223 N  
HETATM   20  C   UNL     2     -10.534  15.678  69.771  1.00  0.00    -0.308 C  
HETATM   21  C   UNL     2     -10.634  17.437  68.150  1.00  0.00    -0.376 C  
ENDBRANCH  11  12
ENDBRANCH   7  11
ENDBRANCH   3   4
TORSDOF 4
ENDMDL
MODEL       82
REMARK 921   NORMALIZED FREE ENERGY PREDICTED BY IDOCK:   -4.46 KCAL/MOL
REMARK 922        TOTAL FREE ENERGY PREDICTED BY IDOCK:   -6.06 KCAL/MOL
REMARK 923 INTER-LIGAND FREE ENERGY PREDICTED BY IDOCK:   -5.34 KCAL/MOL
REMARK 924 INTRA-LIGAND FREE ENERGY PREDICTED BY IDOCK:   -0.73 KCAL/MOL
REMARK 927      BINDING AFFINITY PREDICTED BY RF-SCORE:    0.00 PKD
ROOT
HETATM    1 BR   UNL     1     -14.242   8.499  71.861  1.00  0.00    -0.535 Br 
HETATM    2  C   UNL     2      -8.228  19.883  68.059  1.00  0.00    -0.299 C  
HETATM    3  C   UNL     2      -9.369  18.879  68.148  1.00  0.00    -0.368 C  
ENDROOT
BRANCH   3   4
HETATM    4  C   UNL     2      -8.861  17.455  68.407  1.00  0.00    -0.271 C  
HETATM    5  C   UNL     2      -9.978  16.387  68.496  1.00  0.00    -0.239 C  
HETATM    6  C   UNL     2     -10.876  16.335  67.240  1.00  0.00    -0.216 C  
HETATM    7  C   UNL     2      -9.372  15.023  68.871  1.00  0.00    -0.208 C  
HETATM    8  O   UNL     2      -8.280  14.886  69.406  1.00  0.00    -0.162 OA 
BRANCH   6   9
HETATM    9  C   UNL     2     -10.121  16.008  65.949  1.00  0.00    -0.378 C  
HETATM   10  C   UNL     2     -11.011  15.306  64.936  1.00  0.00    -0.445 C  
ENDBRANCH   6   9
BRANCH   7  11
HETATM   11  O   UNL     2     -10.229  13.994  68.626  1.00  0.00    -0.236 OA 
BRANCH  11  12
HETATM   12  C   UNL     2      -9.744  12.696  68.192  1.00  0.00    -0.219 C  
HETATM   13  C   UNL     2     -10.837  11.588  68.015  1.00  0.00    -0.259 C  
HETATM   14  C   UNL     2     -10.205  10.214  67.459  1.00  0.00    -0.211 C  
HETATM   15  C   UNL     2      -8.877   9.388  67.683  1.00  0.00    -0.118 C  
HETATM   16  C   UNL     2      -7.743  10.385  67.318  1.00  0.00    -0.099 C  
HETATM   17  C   UNL     2      -8.374  11.445  66.378  1.00  0.00    -0.140 C  
HETATM   18  C   UNL     2      -8.730  12.792  67.037  1.00  0.00    -0.197 C  
HETATM   19  N   UNL     2      -9.675  10.752  65.968  1.00  0.00    -0.208 N  
HETATM   20  C   UNL     2     -10.711  11.557  65.175  1.00  0.00    -0.289 C  
HETATM   21  C   UNL     2      -9.328   9.617  64.944  1.00  0.00    -0.242 C  
ENDBRANCH  11  12
ENDBRANCH   7  11
ENDBRANCH   3   4
TORSDOF 4
ENDMDL
MODEL       83
REMARK 921   NORMALIZED FREE ENERGY PREDICTED BY IDOCK:   -4.46 KCAL/MOL
REMARK 922        TOTAL FREE ENERGY PREDICTED BY IDOCK:   -6.06 KCAL/MOL
REMARK 923 INTER-LIGAND FREE ENERGY PREDICTED BY IDOCK:   -5.38 KCAL/MOL
REMARK 924 INTRA-LIGAND FREE ENERGY PREDICTED BY IDOCK:   -0.68 KCAL/MOL
REMARK 927      BINDING AFFINITY PREDICTED BY RF-SCORE:    0.00 PKD
ROOT
HETATM    1 BR   UNL     1      -6.744  18.733  67.366  1.00  0.00    -0.211 Br 
HETATM    2  C   UNL     2     -11.359   6.816  71.477  1.00  0.00    -0.316 C  
HETATM    3  C   UNL     2     -10.404   7.763  70.764  1.00  0.00    -0.206 C  
ENDROOT
BRANCH   3   4
HETATM    4  C   UNL     2     -11.088   9.079  70.374  1.00  0.00    -0.279 C  
HETATM    5  C   UNL     2     -10.175  10.067  69.604  1.00  0.00    -0.267 C  
HETATM    6  C   UNL     2      -9.566   9.463  68.320  1.00  0.00    -0.156 C  
HETATM    7  C   UNL     2     -10.920  11.391  69.365  1.00  0.00    -0.205 C  
HETATM    8  O   UNL     2     -11.891  11.755  70.014  1.00  0.00    -0.322 OA 
BRANCH   6   9
HETATM    9  C   UNL     2     -10.608   9.008  67.293  1.00  0.00    -0.301 C  
HETATM   10  C   UNL     2     -10.383   7.568  66.861  1.00  0.00    -0.379 C  
ENDBRANCH   6   9
BRANCH   7  11
HETATM   11  O   UNL     2     -10.319  12.154  68.412  1.00  0.00    -0.219 OA 
BRANCH  11  12
HETATM   12  C   UNL     2     -10.312  13.604  68.499  1.00  0.00    -0.243 C  
HETATM   13  C   UNL     2      -8.926  14.292  68.253  1.00  0.00    -0.187 C  
HETATM   14  C   UNL     2      -9.045  15.898  68.297  1.00  0.00    -0.185 C  
HETATM   15  C   UNL     2      -9.841  16.968  69.145  1.00  0.00    -0.198 C  
HETATM   16  C   UNL     2     -11.331  16.583  68.938  1.00  0.00    -0.206 C  
HETATM   17  C   UNL     2     -11.401  15.784  67.610  1.00  0.00    -0.194 C  
HETATM   18  C   UNL     2     -11.495  14.254  67.758  1.00  0.00    -0.354 C  
HETATM   19  N   UNL     2     -10.048  16.125  66.980  1.00  0.00    -0.264 N  
HETATM   20  C   UNL     2      -9.624  15.369  65.716  1.00  0.00    -0.333 C  
HETATM   21  C   UNL     2     -10.110  17.597  66.444  1.00  0.00    -0.356 C  
ENDBRANCH  11  12
ENDBRANCH   7  11
ENDBRANCH   3   4
TORSDOF 4
ENDMDL
MODEL       84
REMARK 921   NORMALIZED FREE ENERGY PREDICTED BY IDOCK:   -4.45 KCAL/MOL
REMARK 922        TOTAL FREE ENERGY PREDICTED BY IDOCK:   -6.05 KCAL/MOL
REMARK 923 INTER-LIGAND FREE ENERGY PREDICTED BY IDOCK:   -5.42 KCAL/MOL
REMARK 924 INTRA-LIGAND FREE ENERGY PREDICTED BY IDOCK:   -0.63 KCAL/MOL
REMARK 927      BINDING AFFINITY PREDICTED BY RF-SCORE:    0.00 PKD
ROOT
HETATM    1 BR   UNL     1      -6.218  20.546  64.567  1.00  0.00    -0.344 Br 
HETATM    2  C   UNL     2     -10.577   8.098  67.072  1.00  0.00    -0.346 C  
HETATM    3  C   UNL     2     -10.407   9.370  66.253  1.00  0.00    -0.211 C  
ENDROOT
BRANCH   3   4
HETATM    4  C   UNL     2     -10.144  10.592  67.142  1.00  0.00    -0.248 C  
HETATM    5  C   UNL     2      -9.303  11.702  66.464  1.00  0.00    -0.216 C  
HETATM    6  C   UNL     2      -9.917  12.215  65.143  1.00  0.00    -0.251 C  
HETATM    7  C   UNL     2      -9.001  12.823  67.475  1.00  0.00    -0.192 C  
HETATM    8  O   UNL     2      -9.053  12.679  68.689  1.00  0.00    -0.098 OA 
BRANCH   6   9
HETATM    9  C   UNL     2     -11.314  12.822  65.302  1.00  0.00    -0.338 C  
HETATM   10  C   UNL     2     -12.125  12.717  64.020  1.00  0.00    -0.533 C  
ENDBRANCH   6   9
BRANCH   7  11
HETATM   11  O   UNL     2      -8.579  13.964  66.866  1.00  0.00    -0.201 OA 
BRANCH  11  12
HETATM   12  C   UNL     2      -9.079  15.265  67.271  1.00  0.00    -0.198 C  
HETATM   13  C   UNL     2      -8.504  15.825  68.617  1.00  0.00    -0.193 C  
HETATM   14  C   UNL     2      -9.066  17.302  68.934  1.00  0.00    -0.172 C  
HETATM   15  C   UNL     2     -10.439  18.067  68.775  1.00  0.00    -0.182 C  
HETATM   16  C   UNL     2     -10.756  17.967  67.257  1.00  0.00    -0.305 C  
HETATM   17  C   UNL     2      -9.401  17.733  66.539  1.00  0.00    -0.279 C  
HETATM   18  C   UNL     2      -9.115  16.281  66.113  1.00  0.00    -0.377 C  
HETATM   19  N   UNL     2      -8.405  18.120  67.635  1.00  0.00    -0.241 N  
HETATM   20  C   UNL     2      -6.917  17.842  67.395  1.00  0.00    -0.186 C  
HETATM   21  C   UNL     2      -8.402  19.681  67.771  1.00  0.00    -0.310 C  
ENDBRANCH  11  12
ENDBRANCH   7  11
ENDBRANCH   3   4
TORSDOF 4
ENDMDL
MODEL       85
REMARK 921   NORMALIZED FREE ENERGY PREDICTED BY IDOCK:   -4.45 KCAL/MOL
REMARK 922        TOTAL FREE ENERGY PREDICTED BY IDOCK:   -6.05 KCAL/MOL
REMARK 923 INTER-LIGAND FREE ENERGY PREDICTED BY IDOCK:   -5.23 KCAL/MOL
REMARK 924 INTRA-LIGAND FREE ENERGY PREDICTED BY IDOCK:   -0.82 KCAL/MOL
REMARK 927      BINDING AFFINITY PREDICTED BY RF-SCORE:    0.00 PKD
ROOT
HETATM    1 BR   UNL     1      -7.962   5.239  63.998  1.00  0.00    -0.117 Br 
HETATM    2  C   UNL     2     -11.679  16.064  71.014  1.00  0.00    -0.458 C  
HETATM    3  C   UNL     2     -11.896  14.821  70.162  1.00  0.00    -0.360 C  
ENDROOT
BRANCH   3   4
HETATM    4  C   UNL     2     -10.667  14.493  69.306  1.00  0.00    -0.241 C  
HETATM    5  C   UNL     2     -10.740  13.123  68.586  1.00  0.00    -0.274 C  
HETATM    6  C   UNL     2     -11.985  12.971  67.685  1.00  0.00    -0.353 C  
HETATM    7  C   UNL     2      -9.416  12.843  67.854  1.00  0.00    -0.208 C  
HETATM    8  O   UNL     2      -8.357  13.394  68.123  1.00  0.00    -0.149 OA 
BRANCH   6   9
HETATM    9  C   UNL     2     -12.070  14.009  66.563  1.00  0.00    -0.488 C  
HETATM   10  C   UNL     2     -12.503  13.384  65.247  1.00  0.00    -0.532 C  
ENDBRANCH   6   9
BRANCH   7  11
HETATM   11  O   UNL     2      -9.537  11.846  66.935  1.00  0.00    -0.193 OA 
BRANCH  11  12
HETATM   12  C   UNL     2      -9.353  10.454  67.304  1.00  0.00    -0.146 C  
HETATM   13  C   UNL     2      -8.744  10.203  68.725  1.00  0.00    -0.138 C  
HETATM   14  C   UNL     2      -8.654   8.630  69.062  1.00  0.00    -0.129 C  
HETATM   15  C   UNL     2      -8.309   7.304  68.275  1.00  0.00    -0.125 C  
HETATM   16  C   UNL     2      -9.330   7.281  67.105  1.00  0.00    -0.170 C  
HETATM   17  C   UNL     2     -10.531   8.155  67.550  1.00  0.00    -0.256 C  
HETATM   18  C   UNL     2     -10.573   9.579  66.961  1.00  0.00    -0.271 C  
HETATM   19  N   UNL     2     -10.285   8.265  69.056  1.00  0.00    -0.214 N  
HETATM   20  C   UNL     2     -11.158   9.229  69.868  1.00  0.00    -0.181 C  
HETATM   21  C   UNL     2     -10.656   6.893  69.718  1.00  0.00    -0.233 C  
ENDBRANCH  11  12
ENDBRANCH   7  11
ENDBRANCH   3   4
TORSDOF 4
ENDMDL
MODEL       86
REMARK 921   NORMALIZED FREE ENERGY PREDICTED BY IDOCK:   -4.45 KCAL/MOL
REMARK 922        TOTAL FREE ENERGY PREDICTED BY IDOCK:   -6.05 KCAL/MOL
REMARK 923 INTER-LIGAND FREE ENERGY PREDICTED BY IDOCK:   -5.41 KCAL/MOL
REMARK 924 INTRA-LIGAND FREE ENERGY PREDICTED BY IDOCK:   -0.64 KCAL/MOL
REMARK 927      BINDING AFFINITY PREDICTED BY RF-SCORE:    0.00 PKD
ROOT
HETATM    1 BR   UNL     1      -9.835   2.390  71.926  1.00  0.00    -0.220 Br 
HETATM    2  C   UNL     2     -12.505  14.008  65.751  1.00  0.00    -0.523 C  
HETATM    3  C   UNL     2     -11.880  12.628  65.901  1.00  0.00    -0.499 C  
ENDROOT
BRANCH   3   4
HETATM    4  C   UNL     2     -11.712  12.232  67.374  1.00  0.00    -0.405 C  
HETATM    5  C   UNL     2     -10.564  11.226  67.636  1.00  0.00    -0.252 C  
HETATM    6  C   UNL     2      -9.191  11.720  67.131  1.00  0.00    -0.179 C  
HETATM    7  C   UNL     2     -10.559  10.811  69.118  1.00  0.00    -0.222 C  
HETATM    8  O   UNL     2     -11.523  10.924  69.862  1.00  0.00    -0.271 OA 
BRANCH   6   9
HETATM    9  C   UNL     2      -8.724  13.027  67.779  1.00  0.00    -0.188 C  
HETATM   10  C   UNL     2      -7.231  13.247  67.594  1.00  0.00    -0.165 C  
ENDBRANCH   6   9
BRANCH   7  11
HETATM   11  O   UNL     2      -9.389  10.217  69.481  1.00  0.00    -0.213 OA 
BRANCH  11  12
HETATM   12  C   UNL     2      -9.371   8.914  70.120  1.00  0.00    -0.180 C  
HETATM   13  C   UNL     2      -9.237   8.925  71.681  1.00  0.00    -0.302 C  
HETATM   14  C   UNL     2      -9.304   7.435  72.292  1.00  0.00    -0.142 C  
HETATM   15  C   UNL     2      -8.774   6.003  71.888  1.00  0.00    -0.137 C  
HETATM   16  C   UNL     2      -9.384   5.755  70.481  1.00  0.00    -0.189 C  
HETATM   17  C   UNL     2     -10.637   6.664  70.378  1.00  0.00    -0.223 C  
HETATM   18  C   UNL     2     -10.452   7.964  69.572  1.00  0.00    -0.226 C  
HETATM   19  N   UNL     2     -10.864   7.036  71.845  1.00  0.00    -0.222 N  
HETATM   20  C   UNL     2     -11.915   8.104  72.170  1.00  0.00    -0.359 C  
HETATM   21  C   UNL     2     -11.463   5.789  72.583  1.00  0.00    -0.287 C  
ENDBRANCH  11  12
ENDBRANCH   7  11
ENDBRANCH   3   4
TORSDOF 4
ENDMDL
MODEL       87
REMARK 921   NORMALIZED FREE ENERGY PREDICTED BY IDOCK:   -4.43 KCAL/MOL
REMARK 922        TOTAL FREE ENERGY PREDICTED BY IDOCK:   -6.03 KCAL/MOL
REMARK 923 INTER-LIGAND FREE ENERGY PREDICTED BY IDOCK:   -5.35 KCAL/MOL
REMARK 924 INTRA-LIGAND FREE ENERGY PREDICTED BY IDOCK:   -0.67 KCAL/MOL
REMARK 927      BINDING AFFINITY PREDICTED BY RF-SCORE:    0.00 PKD
ROOT
HETATM    1 BR   UNL     1      -8.111   5.390  62.582  1.00  0.00    -0.102 Br 
HETATM    2  C   UNL     2     -11.030  17.201  68.255  1.00  0.00    -0.229 C  
HETATM    3  C   UNL     2     -10.209  15.942  68.017  1.00  0.00    -0.238 C  
ENDROOT
BRANCH   3   4
HETATM    4  C   UNL     2     -11.068  14.791  67.480  1.00  0.00    -0.323 C  
HETATM    5  C   UNL     2     -10.918  13.464  68.265  1.00  0.00    -0.282 C  
HETATM    6  C   UNL     2     -11.226  13.608  69.772  1.00  0.00    -0.092 C  
HETATM    7  C   UNL     2     -11.730  12.352  67.577  1.00  0.00    -0.357 C  
HETATM    8  O   UNL     2     -12.088  12.393  66.408  1.00  0.00    -0.607 OA 
BRANCH   6   9
HETATM    9  C   UNL     2     -12.651  14.084  70.072  1.00  0.00    -0.250 C  
HETATM   10  C   UNL     2     -12.791  14.578  71.503  1.00  0.00    -0.407 C  
ENDBRANCH   6   9
BRANCH   7  11
HETATM   11  O   UNL     2     -11.922  11.278  68.390  1.00  0.00    -0.555 OA 
BRANCH  11  12
HETATM   12  C   UNL     2     -10.815  10.427  68.790  1.00  0.00    -0.232 C  
HETATM   13  C   UNL     2     -10.758  10.059  70.312  1.00  0.00    -0.367 C  
HETATM   14  C   UNL     2      -9.540   9.054  70.633  1.00  0.00    -0.237 C  
HETATM   15  C   UNL     2      -8.046   8.869  70.154  1.00  0.00    -0.122 C  
HETATM   16  C   UNL     2      -8.160   8.686  68.616  1.00  0.00    -0.117 C  
HETATM   17  C   UNL     2      -9.600   8.180  68.338  1.00  0.00    -0.147 C  
HETATM   18  C   UNL     2     -10.594   9.243  67.831  1.00  0.00    -0.288 C  
HETATM   19  N   UNL     2     -10.041   7.737  69.735  1.00  0.00    -0.190 N  
HETATM   20  C   UNL     2     -11.507   7.342  69.944  1.00  0.00    -0.054 C  
HETATM   21  C   UNL     2      -9.314   6.391  70.077  1.00  0.00    -0.156 C  
ENDBRANCH  11  12
ENDBRANCH   7  11
ENDBRANCH   3   4
TORSDOF 4
ENDMDL
MODEL       88
REMARK 921   NORMALIZED FREE ENERGY PREDICTED BY IDOCK:   -4.42 KCAL/MOL
REMARK 922        TOTAL FREE ENERGY PREDICTED BY IDOCK:   -6.01 KCAL/MOL
REMARK 923 INTER-LIGAND FREE ENERGY PREDICTED BY IDOCK:   -5.33 KCAL/MOL
REMARK 924 INTRA-LIGAND FREE ENERGY PREDICTED BY IDOCK:   -0.68 KCAL/MOL
REMARK 927      BINDING AFFINITY PREDICTED BY RF-SCORE:    0.00 PKD
ROOT
HETATM    1 BR   UNL     1     -12.869  15.755  73.387  1.00  0.00    -0.743 Br 
HETATM    2  C   UNL     2      -8.994   4.187  67.784  1.00  0.00    -0.142 C  
HETATM    3  C   UNL     2      -9.772   5.068  68.752  1.00  0.00    -0.226 C  
ENDROOT
BRANCH   3   4
HETATM    4  C   UNL     2      -9.063   6.404  69.007  1.00  0.00    -0.130 C  
HETATM    5  C   UNL     2     -10.002   7.636  68.989  1.00  0.00    -0.181 C  
HETATM    6  C   UNL     2     -11.167   7.532  69.996  1.00  0.00    -0.173 C  
HETATM    7  C   UNL     2      -9.176   8.926  69.138  1.00  0.00    -0.144 C  
HETATM    8  O   UNL     2      -7.979   9.002  68.899  1.00  0.00    -0.097 OA 
BRANCH   6   9
HETATM    9  C   UNL     2     -10.719   7.401  71.454  1.00  0.00    -0.239 C  
HETATM   10  C   UNL     2     -11.389   8.433  72.346  1.00  0.00    -0.448 C  
ENDBRANCH   6   9
BRANCH   7  11
HETATM   11  O   UNL     2      -9.949   9.994  69.476  1.00  0.00    -0.203 OA 
BRANCH  11  12
HETATM   12  C   UNL     2     -10.265  11.032  68.511  1.00  0.00    -0.192 C  
HETATM   13  C   UNL     2     -11.775  11.443  68.426  1.00  0.00    -0.373 C  
HETATM   14  C   UNL     2     -12.003  12.651  67.383  1.00  0.00    -0.242 C  
HETATM   15  C   UNL     2     -11.426  13.076  65.975  1.00  0.00    -0.374 C  
HETATM   16  C   UNL     2      -9.896  13.198  66.212  1.00  0.00    -0.284 C  
HETATM   17  C   UNL     2      -9.704  13.442  67.732  1.00  0.00    -0.216 C  
HETATM   18  C   UNL     2      -9.277  12.212  68.556  1.00  0.00    -0.100 C  
HETATM   19  N   UNL     2     -11.119  13.839  68.157  1.00  0.00    -0.250 N  
HETATM   20  C   UNL     2     -11.415  13.982  69.655  1.00  0.00    -0.258 C  
HETATM   21  C   UNL     2     -11.395  15.298  67.655  1.00  0.00    -0.312 C  
ENDBRANCH  11  12
ENDBRANCH   7  11
ENDBRANCH   3   4
TORSDOF 4
ENDMDL
MODEL       89
REMARK 921   NORMALIZED FREE ENERGY PREDICTED BY IDOCK:   -4.41 KCAL/MOL
REMARK 922        TOTAL FREE ENERGY PREDICTED BY IDOCK:   -6.00 KCAL/MOL
REMARK 923 INTER-LIGAND FREE ENERGY PREDICTED BY IDOCK:   -5.24 KCAL/MOL
REMARK 924 INTRA-LIGAND FREE ENERGY PREDICTED BY IDOCK:   -0.76 KCAL/MOL
REMARK 927      BINDING AFFINITY PREDICTED BY RF-SCORE:    0.00 PKD
ROOT
HETATM    1 BR   UNL     1      -9.627   7.889  73.154  1.00  0.00    -0.348 Br 
HETATM    2  C   UNL     2      -9.892  19.332  66.140  1.00  0.00    -0.429 C  
HETATM    3  C   UNL     2     -10.492  18.141  66.874  1.00  0.00    -0.372 C  
ENDROOT
BRANCH   3   4
HETATM    4  C   UNL     2      -9.534  16.943  66.899  1.00  0.00    -0.261 C  
HETATM    5  C   UNL     2     -10.185  15.617  67.366  1.00  0.00    -0.264 C  
HETATM    6  C   UNL     2     -11.414  15.209  66.523  1.00  0.00    -0.171 C  
HETATM    7  C   UNL     2      -9.117  14.514  67.464  1.00  0.00    -0.193 C  
HETATM    8  O   UNL     2      -7.917  14.733  67.561  1.00  0.00    -0.157 OA 
BRANCH   6   9
HETATM    9  C   UNL     2     -11.106  14.995  65.039  1.00  0.00    -0.421 C  
HETATM   10  C   UNL     2     -12.152  14.121  64.365  1.00  0.00    -0.486 C  
ENDBRANCH   6   9
BRANCH   7  11
HETATM   11  O   UNL     2      -9.666  13.270  67.525  1.00  0.00    -0.214 OA 
BRANCH  11  12
HETATM   12  C   UNL     2      -9.207  12.199  66.659  1.00  0.00    -0.206 C  
HETATM   13  C   UNL     2      -7.946  11.415  67.159  1.00  0.00    -0.156 C  
HETATM   14  C   UNL     2      -7.568  10.204  66.165  1.00  0.00    -0.114 C  
HETATM   15  C   UNL     2      -7.559   9.959  64.604  1.00  0.00    -0.139 C  
HETATM   16  C   UNL     2      -9.025  10.232  64.168  1.00  0.00    -0.263 C  
HETATM   17  C   UNL     2      -9.905  10.025  65.428  1.00  0.00    -0.314 C  
HETATM   18  C   UNL     2     -10.356  11.312  66.145  1.00  0.00    -0.300 C  
HETATM   19  N   UNL     2      -8.943   9.272  66.351  1.00  0.00    -0.147 N  
HETATM   20  C   UNL     2      -9.365   9.038  67.806  1.00  0.00    -0.140 C  
HETATM   21  C   UNL     2      -8.816   7.798  65.833  1.00  0.00    -0.142 C  
ENDBRANCH  11  12
ENDBRANCH   7  11
ENDBRANCH   3   4
TORSDOF 4
ENDMDL
MODEL       90
REMARK 921   NORMALIZED FREE ENERGY PREDICTED BY IDOCK:   -4.41 KCAL/MOL
REMARK 922        TOTAL FREE ENERGY PREDICTED BY IDOCK:   -6.00 KCAL/MOL
REMARK 923 INTER-LIGAND FREE ENERGY PREDICTED BY IDOCK:   -5.08 KCAL/MOL
REMARK 924 INTRA-LIGAND FREE ENERGY PREDICTED BY IDOCK:   -0.91 KCAL/MOL
REMARK 927      BINDING AFFINITY PREDICTED BY RF-SCORE:    0.00 PKD
ROOT
HETATM    1 BR   UNL     1      -9.750   3.229  71.767  1.00  0.00    -0.230 Br 
HETATM    2  C   UNL     2     -12.272  13.887  64.005  1.00  0.00    -0.413 C  
HETATM    3  C   UNL     2     -11.460  12.707  64.520  1.00  0.00    -0.389 C  
ENDROOT
BRANCH   3   4
HETATM    4  C   UNL     2     -11.828  12.346  65.964  1.00  0.00    -0.459 C  
HETATM    5  C   UNL     2     -10.683  11.676  66.764  1.00  0.00    -0.299 C  
HETATM    6  C   UNL     2      -9.393  12.524  66.814  1.00  0.00    -0.230 C  
HETATM    7  C   UNL     2     -11.191  11.252  68.153  1.00  0.00    -0.286 C  
HETATM    8  O   UNL     2     -12.373  11.093  68.428  1.00  0.00    -0.556 OA 
BRANCH   6   9
HETATM    9  C   UNL     2      -9.578  13.897  67.466  1.00  0.00    -0.229 C  
HETATM   10  C   UNL     2      -9.355  15.028  66.475  1.00  0.00    -0.309 C  
ENDBRANCH   6   9
BRANCH   7  11
HETATM   11  O   UNL     2     -10.172  10.984  69.014  1.00  0.00    -0.210 OA 
BRANCH  11  12
HETATM   12  C   UNL     2      -9.770   9.620  69.306  1.00  0.00    -0.185 C  
HETATM   13  C   UNL     2      -8.537   9.088  68.498  1.00  0.00    -0.129 C  
HETATM   14  C   UNL     2      -8.130   7.596  68.953  1.00  0.00    -0.127 C  
HETATM   15  C   UNL     2      -8.889   6.277  69.377  1.00  0.00    -0.127 C  
HETATM   16  C   UNL     2      -9.756   6.712  70.590  1.00  0.00    -0.183 C  
HETATM   17  C   UNL     2      -9.078   7.973  71.187  1.00  0.00    -0.149 C  
HETATM   18  C   UNL     2      -9.731   9.318  70.816  1.00  0.00    -0.348 C  
HETATM   19  N   UNL     2      -7.695   7.912  70.535  1.00  0.00    -0.085 N  
HETATM   20  C   UNL     2      -6.754   9.109  70.713  1.00  0.00    -0.082 C  
HETATM   21  C   UNL     2      -6.871   6.775  71.232  1.00  0.00    -0.062 C  
ENDBRANCH  11  12
ENDBRANCH   7  11
ENDBRANCH   3   4
TORSDOF 4
ENDMDL
MODEL       91
REMARK 921   NORMALIZED FREE ENERGY PREDICTED BY IDOCK:   -4.38 KCAL/MOL
REMARK 922        TOTAL FREE ENERGY PREDICTED BY IDOCK:   -5.96 KCAL/MOL
REMARK 923 INTER-LIGAND FREE ENERGY PREDICTED BY IDOCK:   -5.43 KCAL/MOL
REMARK 924 INTRA-LIGAND FREE ENERGY PREDICTED BY IDOCK:   -0.53 KCAL/MOL
REMARK 927      BINDING AFFINITY PREDICTED BY RF-SCORE:    0.00 PKD
ROOT
HETATM    1 BR   UNL     1     -12.585  12.108  63.388  1.00  0.00    -0.432 Br 
HETATM    2  C   UNL     2      -5.408  20.256  71.283  1.00  0.00    -0.334 C  
HETATM    3  C   UNL     2      -6.332  19.906  70.125  1.00  0.00    -0.360 C  
ENDROOT
BRANCH   3   4
HETATM    4  C   UNL     2      -6.146  18.456  69.662  1.00  0.00    -0.255 C  
HETATM    5  C   UNL     2      -7.192  17.980  68.623  1.00  0.00    -0.276 C  
HETATM    6  C   UNL     2      -7.246  18.865  67.360  1.00  0.00    -0.225 C  
HETATM    7  C   UNL     2      -6.985  16.486  68.317  1.00  0.00    -0.143 C  
HETATM    8  O   UNL     2      -6.383  15.715  69.052  1.00  0.00    -0.114 OA 
BRANCH   6   9
HETATM    9  C   UNL     2      -5.926  18.927  66.587  1.00  0.00    -0.177 C  
HETATM   10  C   UNL     2      -6.097  18.495  65.139  1.00  0.00    -0.260 C  
ENDBRANCH   6   9
BRANCH   7  11
HETATM   11  O   UNL     2      -7.627  16.100  67.180  1.00  0.00    -0.160 OA 
BRANCH  11  12
HETATM   12  C   UNL     2      -8.937  15.476  67.229  1.00  0.00    -0.201 C  
HETATM   13  C   UNL     2      -9.545  15.065  65.845  1.00  0.00    -0.356 C  
HETATM   14  C   UNL     2     -10.961  14.315  66.018  1.00  0.00    -0.312 C  
HETATM   15  C   UNL     2     -12.229  14.458  66.949  1.00  0.00    -0.300 C  
HETATM   16  C   UNL     2     -11.662  14.319  68.388  1.00  0.00    -0.373 C  
HETATM   17  C   UNL     2     -10.325  13.543  68.262  1.00  0.00    -0.252 C  
HETATM   18  C   UNL     2      -9.048  14.402  68.327  1.00  0.00    -0.193 C  
HETATM   19  N   UNL     2     -10.443  12.962  66.852  1.00  0.00    -0.245 N  
HETATM   20  C   UNL     2      -9.217  12.269  66.246  1.00  0.00    -0.171 C  
HETATM   21  C   UNL     2     -11.469  11.778  66.890  1.00  0.00    -0.293 C  
ENDBRANCH  11  12
ENDBRANCH   7  11
ENDBRANCH   3   4
TORSDOF 4
ENDMDL
MODEL       92
REMARK 921   NORMALIZED FREE ENERGY PREDICTED BY IDOCK:   -4.37 KCAL/MOL
REMARK 922        TOTAL FREE ENERGY PREDICTED BY IDOCK:   -5.95 KCAL/MOL
REMARK 923 INTER-LIGAND FREE ENERGY PREDICTED BY IDOCK:   -5.15 KCAL/MOL
REMARK 924 INTRA-LIGAND FREE ENERGY PREDICTED BY IDOCK:   -0.79 KCAL/MOL
REMARK 927      BINDING AFFINITY PREDICTED BY RF-SCORE:    0.00 PKD
ROOT
HETATM    1 BR   UNL     1      -6.697  18.462  68.934  1.00  0.00    -0.277 Br 
HETATM    2  C   UNL     2      -8.340   5.440  66.114  1.00  0.00    -0.117 C  
HETATM    3  C   UNL     2      -7.552   6.696  66.457  1.00  0.00    -0.090 C  
ENDROOT
BRANCH   3   4
HETATM    4  C   UNL     2      -8.285   7.970  66.017  1.00  0.00    -0.120 C  
HETATM    5  C   UNL     2      -9.271   8.533  67.071  1.00  0.00    -0.187 C  
HETATM    6  C   UNL     2      -8.606   8.830  68.433  1.00  0.00    -0.134 C  
HETATM    7  C   UNL     2     -10.033   9.736  66.486  1.00  0.00    -0.239 C  
HETATM    8  O   UNL     2     -10.149   9.953  65.288  1.00  0.00    -0.313 OA 
BRANCH   6   9
HETATM    9  C   UNL     2      -7.475   9.861  68.361  1.00  0.00    -0.082 C  
HETATM   10  C   UNL     2      -7.397  10.703  69.624  1.00  0.00    -0.133 C  
ENDBRANCH   6   9
BRANCH   7  11
HETATM   11  O   UNL     2     -10.642  10.477  67.452  1.00  0.00    -0.226 OA 
BRANCH  11  12
HETATM   12  C   UNL     2     -10.653  11.928  67.395  1.00  0.00    -0.225 C  
HETATM   13  C   UNL     2      -9.341  12.596  66.859  1.00  0.00    -0.228 C  
HETATM   14  C   UNL     2      -9.486  14.198  66.765  1.00  0.00    -0.279 C  
HETATM   15  C   UNL     2     -10.158  15.342  67.623  1.00  0.00    -0.235 C  
HETATM   16  C   UNL     2     -11.653  14.930  67.702  1.00  0.00    -0.357 C  
HETATM   17  C   UNL     2     -11.919  14.002  66.488  1.00  0.00    -0.444 C  
HETATM   18  C   UNL     2     -11.955  12.493  66.797  1.00  0.00    -0.327 C  
HETATM   19  N   UNL     2     -10.695  14.286  65.615  1.00  0.00    -0.303 N  
HETATM   20  C   UNL     2     -10.465  13.410  64.378  1.00  0.00    -0.384 C  
HETATM   21  C   UNL     2     -10.876  15.696  64.955  1.00  0.00    -0.450 C  
ENDBRANCH  11  12
ENDBRANCH   7  11
ENDBRANCH   3   4
TORSDOF 4
ENDMDL
MODEL       93
REMARK 921   NORMALIZED FREE ENERGY PREDICTED BY IDOCK:   -4.35 KCAL/MOL
REMARK 922        TOTAL FREE ENERGY PREDICTED BY IDOCK:   -5.93 KCAL/MOL
REMARK 923 INTER-LIGAND FREE ENERGY PREDICTED BY IDOCK:   -5.29 KCAL/MOL
REMARK 924 INTRA-LIGAND FREE ENERGY PREDICTED BY IDOCK:   -0.63 KCAL/MOL
REMARK 927      BINDING AFFINITY PREDICTED BY RF-SCORE:    0.00 PKD
ROOT
HETATM    1 BR   UNL     1     -13.813  15.546  72.287  1.00  0.00    -0.631 Br 
HETATM    2  C   UNL     2      -9.051   3.221  69.913  1.00  0.00    -0.199 C  
HETATM    3  C   UNL     2     -10.036   4.247  70.456  1.00  0.00    -0.219 C  
ENDROOT
BRANCH   3   4
HETATM    4  C   UNL     2      -9.366   5.603  70.713  1.00  0.00    -0.194 C  
HETATM    5  C   UNL     2     -10.081   6.803  70.042  1.00  0.00    -0.200 C  
HETATM    6  C   UNL     2     -11.565   6.935  70.448  1.00  0.00    -0.385 C  
HETATM    7  C   UNL     2      -9.268   8.090  70.265  1.00  0.00    -0.155 C  
HETATM    8  O   UNL     2      -8.079   8.104  70.554  1.00  0.00    -0.099 OA 
BRANCH   6   9
HETATM    9  C   UNL     2     -11.782   7.138  71.951  1.00  0.00    -0.328 C  
HETATM   10  C   UNL     2     -12.578   8.401  72.241  1.00  0.00    -0.401 C  
ENDBRANCH   6   9
BRANCH   7  11
HETATM   11  O   UNL     2      -9.998   9.210  70.012  1.00  0.00    -0.180 OA 
BRANCH  11  12
HETATM   12  C   UNL     2      -9.944   9.870  68.720  1.00  0.00    -0.173 C  
HETATM   13  C   UNL     2     -11.257  10.600  68.275  1.00  0.00    -0.362 C  
HETATM   14  C   UNL     2     -11.065  11.361  66.867  1.00  0.00    -0.295 C  
HETATM   15  C   UNL     2     -10.319  11.081  65.503  1.00  0.00    -0.321 C  
HETATM   16  C   UNL     2      -8.836  10.878  65.915  1.00  0.00    -0.197 C  
HETATM   17  C   UNL     2      -8.654  11.598  67.277  1.00  0.00    -0.154 C  
HETATM   18  C   UNL     2      -8.653  10.685  68.518  1.00  0.00    -0.137 C  
HETATM   19  N   UNL     2      -9.907  12.475  67.326  1.00  0.00    -0.202 N  
HETATM   20  C   UNL     2     -10.220  13.224  68.627  1.00  0.00    -0.172 C  
HETATM   21  C   UNL     2      -9.711  13.670  66.331  1.00  0.00    -0.292 C  
ENDBRANCH  11  12
ENDBRANCH   7  11
ENDBRANCH   3   4
TORSDOF 4
ENDMDL
MODEL       94
REMARK 921   NORMALIZED FREE ENERGY PREDICTED BY IDOCK:   -4.35 KCAL/MOL
REMARK 922        TOTAL FREE ENERGY PREDICTED BY IDOCK:   -5.93 KCAL/MOL
REMARK 923 INTER-LIGAND FREE ENERGY PREDICTED BY IDOCK:   -5.20 KCAL/MOL
REMARK 924 INTRA-LIGAND FREE ENERGY PREDICTED BY IDOCK:   -0.73 KCAL/MOL
REMARK 927      BINDING AFFINITY PREDICTED BY RF-SCORE:    0.00 PKD
ROOT
HETATM    1 BR   UNL     1      -9.558  17.787  66.709  1.00  0.00    -0.317 Br 
HETATM    2  C   UNL     2     -10.160   4.379  66.388  1.00  0.00    -0.235 C  
HETATM    3  C   UNL     2     -10.703   5.788  66.584  1.00  0.00    -0.333 C  
ENDROOT
BRANCH   3   4
HETATM    4  C   UNL     2      -9.593   6.784  66.943  1.00  0.00    -0.200 C  
HETATM    5  C   UNL     2     -10.074   8.001  67.773  1.00  0.00    -0.250 C  
HETATM    6  C   UNL     2     -10.783   7.604  69.086  1.00  0.00    -0.153 C  
HETATM    7  C   UNL     2      -8.912   8.988  67.978  1.00  0.00    -0.132 C  
HETATM    8  O   UNL     2      -7.911   9.019  67.276  1.00  0.00    -0.098 OA 
BRANCH   6   9
HETATM    9  C   UNL     2      -9.905   6.795  70.046  1.00  0.00    -0.179 C  
HETATM   10  C   UNL     2     -10.495   5.424  70.332  1.00  0.00    -0.345 C  
ENDBRANCH   6   9
BRANCH   7  11
HETATM   11  O   UNL     2      -9.167   9.883  68.971  1.00  0.00    -0.150 OA 
BRANCH  11  12
HETATM   12  C   UNL     2      -9.766  11.175  68.687  1.00  0.00    -0.198 C  
HETATM   13  C   UNL     2      -8.821  12.227  68.012  1.00  0.00    -0.182 C  
HETATM   14  C   UNL     2      -9.604  13.594  67.672  1.00  0.00    -0.221 C  
HETATM   15  C   UNL     2     -10.713  14.484  68.360  1.00  0.00    -0.246 C  
HETATM   16  C   UNL     2     -11.913  13.516  68.550  1.00  0.00    -0.379 C  
HETATM   17  C   UNL     2     -11.734  12.383  67.506  1.00  0.00    -0.357 C  
HETATM   18  C   UNL     2     -11.163  11.059  68.050  1.00  0.00    -0.372 C  
HETATM   19  N   UNL     2     -10.702  13.001  66.561  1.00  0.00    -0.276 N  
HETATM   20  C   UNL     2     -10.091  12.113  65.471  1.00  0.00    -0.248 C  
HETATM   21  C   UNL     2     -11.418  14.093  65.694  1.00  0.00    -0.325 C  
ENDBRANCH  11  12
ENDBRANCH   7  11
ENDBRANCH   3   4
TORSDOF 4
ENDMDL
MODEL       95
REMARK 921   NORMALIZED FREE ENERGY PREDICTED BY IDOCK:   -4.34 KCAL/MOL
REMARK 922        TOTAL FREE ENERGY PREDICTED BY IDOCK:   -5.92 KCAL/MOL
REMARK 923 INTER-LIGAND FREE ENERGY PREDICTED BY IDOCK:   -5.49 KCAL/MOL
REMARK 924 INTRA-LIGAND FREE ENERGY PREDICTED BY IDOCK:   -0.43 KCAL/MOL
REMARK 927      BINDING AFFINITY PREDICTED BY RF-SCORE:    0.00 PKD
ROOT
HETATM    1 BR   UNL     1     -12.931  15.875  73.385  1.00  0.00    -0.718 Br 
HETATM    2  C   UNL     2      -8.706   4.543  67.557  1.00  0.00    -0.109 C  
HETATM    3  C   UNL     2      -9.517   5.381  68.536  1.00  0.00    -0.156 C  
ENDROOT
BRANCH   3   4
HETATM    4  C   UNL     2      -8.844   6.728  68.831  1.00  0.00    -0.128 C  
HETATM    5  C   UNL     2      -9.824   7.925  68.911  1.00  0.00    -0.174 C  
HETATM    6  C   UNL     2     -10.944   7.729  69.956  1.00  0.00    -0.218 C  
HETATM    7  C   UNL     2      -9.038   9.235  69.094  1.00  0.00    -0.145 C  
HETATM    8  O   UNL     2      -7.854   9.366  68.814  1.00  0.00    -0.082 OA 
BRANCH   6   9
HETATM    9  C   UNL     2     -10.434   7.543  71.387  1.00  0.00    -0.226 C  
HETATM   10  C   UNL     2     -11.530   7.779  72.414  1.00  0.00    -0.418 C  
ENDBRANCH   6   9
BRANCH   7  11
HETATM   11  O   UNL     2      -9.832  10.257  69.515  1.00  0.00    -0.224 OA 
BRANCH  11  12
HETATM   12  C   UNL     2     -10.168  11.363  68.636  1.00  0.00    -0.208 C  
HETATM   13  C   UNL     2      -8.953  12.082  67.957  1.00  0.00    -0.187 C  
HETATM   14  C   UNL     2      -9.439  13.241  66.947  1.00  0.00    -0.249 C  
HETATM   15  C   UNL     2     -10.578  14.335  66.918  1.00  0.00    -0.273 C  
HETATM   16  C   UNL     2     -11.892  13.520  67.060  1.00  0.00    -0.447 C  
HETATM   17  C   UNL     2     -11.573  12.081  66.577  1.00  0.00    -0.314 C  
HETATM   18  C   UNL     2     -11.339  11.041  67.689  1.00  0.00    -0.355 C  
HETATM   19  N   UNL     2     -10.253  12.297  65.834  1.00  0.00    -0.244 N  
HETATM   20  C   UNL     2      -9.478  11.063  65.355  1.00  0.00    -0.222 C  
HETATM   21  C   UNL     2     -10.563  13.005  64.471  1.00  0.00    -0.393 C  
ENDBRANCH  11  12
ENDBRANCH   7  11
ENDBRANCH   3   4
TORSDOF 4
ENDMDL
MODEL       96
REMARK 921   NORMALIZED FREE ENERGY PREDICTED BY IDOCK:   -4.34 KCAL/MOL
REMARK 922        TOTAL FREE ENERGY PREDICTED BY IDOCK:   -5.91 KCAL/MOL
REMARK 923 INTER-LIGAND FREE ENERGY PREDICTED BY IDOCK:   -5.31 KCAL/MOL
REMARK 924 INTRA-LIGAND FREE ENERGY PREDICTED BY IDOCK:   -0.60 KCAL/MOL
REMARK 927      BINDING AFFINITY PREDICTED BY RF-SCORE:    0.00 PKD
ROOT
HETATM    1 BR   UNL     1      -7.843   9.889  62.401  1.00  0.00    -0.143 Br 
HETATM    2  C   UNL     2     -13.897  15.830  72.807  1.00  0.00    -0.600 C  
HETATM    3  C   UNL     2     -13.524  14.667  71.898  1.00  0.00    -0.461 C  
ENDROOT
BRANCH   3   4
HETATM    4  C   UNL     2     -13.148  15.140  70.488  1.00  0.00    -0.320 C  
HETATM    5  C   UNL     2     -11.651  14.958  70.134  1.00  0.00    -0.333 C  
HETATM    6  C   UNL     2     -11.161  13.501  70.279  1.00  0.00     0.305 C  
HETATM    7  C   UNL     2     -11.362  15.567  68.751  1.00  0.00    -0.334 C  
HETATM    8  O   UNL     2     -12.074  16.403  68.210  1.00  0.00     0.207 OA 
BRANCH   6   9
HETATM    9  C   UNL     2     -11.901  12.504  69.382  1.00  0.00    -0.368 C  
HETATM   10  C   UNL     2     -11.949  11.116  69.999  1.00  0.00    -0.447 C  
ENDBRANCH   6   9
BRANCH   7  11
HETATM   11  O   UNL     2     -10.175  15.141  68.239  1.00  0.00    -0.219 OA 
BRANCH  11  12
HETATM   12  C   UNL     2      -9.129  16.079  67.875  1.00  0.00    -0.187 C  
HETATM   13  C   UNL     2      -9.152  16.579  66.391  1.00  0.00    -0.332 C  
HETATM   14  C   UNL     2      -7.999  17.671  66.114  1.00  0.00    -0.213 C  
HETATM   15  C   UNL     2      -6.498  17.892  66.554  1.00  0.00    -0.245 C  
HETATM   16  C   UNL     2      -6.559  17.937  68.105  1.00  0.00    -0.197 C  
HETATM   17  C   UNL     2      -8.009  18.340  68.478  1.00  0.00    -0.308 C  
HETATM   18  C   UNL     2      -8.928  17.187  68.926  1.00  0.00    -0.189 C  
HETATM   19  N   UNL     2      -8.528  18.878  67.142  1.00  0.00    -0.271 N  
HETATM   20  C   UNL     2     -10.019  19.212  67.022  1.00  0.00    -0.347 C  
HETATM   21  C   UNL     2      -7.883  20.285  66.893  1.00  0.00    -0.309 C  
ENDBRANCH  11  12
ENDBRANCH   7  11
ENDBRANCH   3   4
TORSDOF 4
ENDMDL
MODEL       97
REMARK 921   NORMALIZED FREE ENERGY PREDICTED BY IDOCK:   -4.32 KCAL/MOL
REMARK 922        TOTAL FREE ENERGY PREDICTED BY IDOCK:   -5.89 KCAL/MOL
REMARK 923 INTER-LIGAND FREE ENERGY PREDICTED BY IDOCK:   -5.18 KCAL/MOL
REMARK 924 INTRA-LIGAND FREE ENERGY PREDICTED BY IDOCK:   -0.71 KCAL/MOL
REMARK 927      BINDING AFFINITY PREDICTED BY RF-SCORE:    0.00 PKD
ROOT
HETATM    1 BR   UNL     1     -12.535  15.698  74.259  1.00  0.00    -0.761 Br 
HETATM    2  C   UNL     2      -9.059  10.251  62.492  1.00  0.00    -0.303 C  
HETATM    3  C   UNL     2     -10.001  10.597  63.636  1.00  0.00    -0.364 C  
ENDROOT
BRANCH   3   4
HETATM    4  C   UNL     2      -9.244  10.843  64.947  1.00  0.00    -0.230 C  
HETATM    5  C   UNL     2      -9.476   9.758  66.029  1.00  0.00    -0.269 C  
HETATM    6  C   UNL     2      -9.123   8.333  65.552  1.00  0.00    -0.065 C  
HETATM    7  C   UNL     2      -8.768  10.160  67.335  1.00  0.00    -0.125 C  
HETATM    8  O   UNL     2      -8.434  11.306  67.606  1.00  0.00    -0.120 OA 
BRANCH   6   9
HETATM    9  C   UNL     2      -7.660   8.163  65.131  1.00  0.00    -0.097 C  
HETATM   10  C   UNL     2      -7.338   6.720  64.777  1.00  0.00    -0.088 C  
ENDBRANCH   6   9
BRANCH   7  11
HETATM   11  O   UNL     2      -8.639   9.112  68.193  1.00  0.00    -0.127 OA 
BRANCH  11  12
HETATM   12  C   UNL     2      -9.619   8.866  69.236  1.00  0.00    -0.162 C  
HETATM   13  C   UNL     2     -10.340   7.476  69.175  1.00  0.00    -0.215 C  
HETATM   14  C   UNL     2     -11.348   7.276  70.417  1.00  0.00    -0.271 C  
HETATM   15  C   UNL     2     -12.354   8.178  71.236  1.00  0.00    -0.285 C  
HETATM   16  C   UNL     2     -11.473   9.337  71.775  1.00  0.00    -0.448 C  
HETATM   17  C   UNL     2     -10.015   8.808  71.799  1.00  0.00    -0.326 C  
HETATM   18  C   UNL     2      -9.119   9.272  70.635  1.00  0.00    -0.309 C  
HETATM   19  N   UNL     2     -10.236   7.300  71.665  1.00  0.00    -0.193 N  
HETATM   20  C   UNL     2      -9.013   6.401  71.448  1.00  0.00    -0.138 C  
HETATM   21  C   UNL     2     -10.771   6.756  73.034  1.00  0.00    -0.285 C  
ENDBRANCH  11  12
ENDBRANCH   7  11
ENDBRANCH   3   4
TORSDOF 4
ENDMDL
MODEL       98
REMARK 921   NORMALIZED FREE ENERGY PREDICTED BY IDOCK:   -4.31 KCAL/MOL
REMARK 922        TOTAL FREE ENERGY PREDICTED BY IDOCK:   -5.88 KCAL/MOL
REMARK 923 INTER-LIGAND FREE ENERGY PREDICTED BY IDOCK:   -5.57 KCAL/MOL
REMARK 924 INTRA-LIGAND FREE ENERGY PREDICTED BY IDOCK:   -0.32 KCAL/MOL
REMARK 927      BINDING AFFINITY PREDICTED BY RF-SCORE:    0.00 PKD
ROOT
HETATM    1 BR   UNL     1     -10.184  20.027  66.535  1.00  0.00    -0.582 Br 
HETATM    2  C   UNL     2     -11.197   7.743  71.855  1.00  0.00    -0.310 C  
HETATM    3  C   UNL     2     -10.485   9.030  71.462  1.00  0.00    -0.410 C  
ENDROOT
BRANCH   3   4
HETATM    4  C   UNL     2     -11.172   9.726  70.280  1.00  0.00    -0.347 C  
HETATM    5  C   UNL     2     -10.255  10.691  69.489  1.00  0.00    -0.190 C  
HETATM    6  C   UNL     2      -8.977  10.015  68.948  1.00  0.00    -0.152 C  
HETATM    7  C   UNL     2     -11.069  11.418  68.404  1.00  0.00    -0.242 C  
HETATM    8  O   UNL     2     -12.288  11.531  68.426  1.00  0.00    -0.461 OA 
BRANCH   6   9
HETATM    9  C   UNL     2      -9.247   8.854  67.986  1.00  0.00    -0.147 C  
HETATM   10  C   UNL     2      -8.070   8.604  67.057  1.00  0.00    -0.100 C  
ENDBRANCH   6   9
BRANCH   7  11
HETATM   11  O   UNL     2     -10.273  12.003  67.468  1.00  0.00    -0.195 OA 
BRANCH  11  12
HETATM   12  C   UNL     2     -10.190  13.447  67.343  1.00  0.00    -0.237 C  
HETATM   13  C   UNL     2     -10.676  14.265  68.587  1.00  0.00    -0.256 C  
HETATM   14  C   UNL     2     -10.471  15.849  68.372  1.00  0.00    -0.254 C  
HETATM   15  C   UNL     2     -10.616  16.874  67.178  1.00  0.00    -0.249 C  
HETATM   16  C   UNL     2      -9.664  16.318  66.083  1.00  0.00    -0.357 C  
HETATM   17  C   UNL     2      -8.616  15.440  66.815  1.00  0.00    -0.273 C  
HETATM   18  C   UNL     2      -8.853  13.919  66.742  1.00  0.00    -0.170 C  
HETATM   19  N   UNL     2      -8.804  15.888  68.266  1.00  0.00    -0.176 N  
HETATM   20  C   UNL     2      -8.076  15.109  69.368  1.00  0.00    -0.200 C  
HETATM   21  C   UNL     2      -8.166  17.310  68.430  1.00  0.00    -0.260 C  
ENDBRANCH  11  12
ENDBRANCH   7  11
ENDBRANCH   3   4
TORSDOF 4
ENDMDL
MODEL       99
REMARK 921   NORMALIZED FREE ENERGY PREDICTED BY IDOCK:   -4.30 KCAL/MOL
REMARK 922        TOTAL FREE ENERGY PREDICTED BY IDOCK:   -5.87 KCAL/MOL
REMARK 923 INTER-LIGAND FREE ENERGY PREDICTED BY IDOCK:   -5.05 KCAL/MOL
REMARK 924 INTRA-LIGAND FREE ENERGY PREDICTED BY IDOCK:   -0.82 KCAL/MOL
REMARK 927      BINDING AFFINITY PREDICTED BY RF-SCORE:    0.00 PKD
ROOT
HETATM    1 BR   UNL     1      -7.520   5.686  71.131  1.00  0.00    -0.092 Br 
HETATM    2  C   UNL     2     -10.417  18.159  67.100  1.00  0.00    -0.392 C  
HETATM    3  C   UNL     2     -10.730  16.735  67.540  1.00  0.00    -0.275 C  
ENDROOT
BRANCH   3   4
HETATM    4  C   UNL     2      -9.567  15.778  67.249  1.00  0.00    -0.220 C  
HETATM    5  C   UNL     2      -9.945  14.277  67.321  1.00  0.00    -0.252 C  
HETATM    6  C   UNL     2     -11.107  13.894  66.379  1.00  0.00    -0.309 C  
HETATM    7  C   UNL     2      -8.689  13.410  67.128  1.00  0.00    -0.215 C  
HETATM    8  O   UNL     2      -7.547  13.815  67.301  1.00  0.00    -0.155 OA 
BRANCH   6   9
HETATM    9  C   UNL     2     -10.819  14.156  64.898  1.00  0.00    -0.423 C  
HETATM   10  C   UNL     2     -11.181  12.961  64.031  1.00  0.00    -0.458 C  
ENDBRANCH   6   9
BRANCH   7  11
HETATM   11  O   UNL     2      -8.997  12.117  66.835  1.00  0.00    -0.190 OA 
BRANCH  11  12
HETATM   12  C   UNL     2      -9.266  11.150  67.884  1.00  0.00    -0.154 C  
HETATM   13  C   UNL     2     -10.776  10.802  68.115  1.00  0.00    -0.257 C  
HETATM   14  C   UNL     2     -10.957   9.667  69.245  1.00  0.00    -0.168 C  
HETATM   15  C   UNL     2     -10.280   9.300  70.624  1.00  0.00    -0.335 C  
HETATM   16  C   UNL     2      -8.780   9.107  70.271  1.00  0.00    -0.223 C  
HETATM   17  C   UNL     2      -8.723   8.768  68.758  1.00  0.00    -0.137 C  
HETATM   18  C   UNL     2      -8.325   9.932  67.830  1.00  0.00    -0.114 C  
HETATM   19  N   UNL     2     -10.181   8.403  68.474  1.00  0.00    -0.198 N  
HETATM   20  C   UNL     2     -10.606   8.186  67.017  1.00  0.00    -0.275 C  
HETATM   21  C   UNL     2     -10.463   6.986  69.084  1.00  0.00    -0.207 C  
ENDBRANCH  11  12
ENDBRANCH   7  11
ENDBRANCH   3   4
TORSDOF 4
ENDMDL
MODEL      100
REMARK 921   NORMALIZED FREE ENERGY PREDICTED BY IDOCK:   -4.30 KCAL/MOL
REMARK 922        TOTAL FREE ENERGY PREDICTED BY IDOCK:   -5.86 KCAL/MOL
REMARK 923 INTER-LIGAND FREE ENERGY PREDICTED BY IDOCK:   -5.55 KCAL/MOL
REMARK 924 INTRA-LIGAND FREE ENERGY PREDICTED BY IDOCK:   -0.32 KCAL/MOL
REMARK 927      BINDING AFFINITY PREDICTED BY RF-SCORE:    0.00 PKD
ROOT
HETATM    1 BR   UNL     1     -13.310   9.273  71.894  1.00  0.00    -0.541 Br 
HETATM    2  C   UNL     2      -5.399  19.659  68.766  1.00  0.00    -0.214 C  
HETATM    3  C   UNL     2      -6.535  18.948  69.490  1.00  0.00    -0.270 C  
ENDROOT
BRANCH   3   4
HETATM    4  C   UNL     2      -7.056  17.744  68.695  1.00  0.00    -0.257 C  
HETATM    5  C   UNL     2      -8.561  17.447  68.904  1.00  0.00    -0.151 C  
HETATM    6  C   UNL     2      -9.474  18.648  68.575  1.00  0.00    -0.386 C  
HETATM    7  C   UNL     2      -8.950  16.159  68.157  1.00  0.00    -0.185 C  
HETATM    8  O   UNL     2      -8.148  15.304  67.808  1.00  0.00    -0.132 OA 
BRANCH   6   9
HETATM    9  C   UNL     2      -9.366  19.132  67.125  1.00  0.00    -0.358 C  
HETATM   10  C   UNL     2     -10.645  19.808  66.659  1.00  0.00    -0.578 C  
ENDBRANCH   6   9
BRANCH   7  11
HETATM   11  O   UNL     2     -10.298  16.036  68.011  1.00  0.00    -0.252 OA 
BRANCH  11  12
HETATM   12  C   UNL     2     -11.166  15.839  69.159  1.00  0.00    -0.322 C  
HETATM   13  C   UNL     2     -12.526  15.119  68.866  1.00  0.00     0.123 C  
HETATM   14  C   UNL     2     -13.375  14.883  70.215  1.00  0.00     0.161 C  
HETATM   15  C   UNL     2     -13.663  15.685  71.545  1.00  0.00    -0.431 C  
HETATM   16  C   UNL     2     -12.254  15.945  72.144  1.00  0.00    -0.578 C  
HETATM   17  C   UNL     2     -11.317  14.859  71.556  1.00  0.00    -0.168 C  
HETATM   18  C   UNL     2     -10.412  15.316  70.396  1.00  0.00    -0.168 C  
HETATM   19  N   UNL     2     -12.329  13.850  71.008  1.00  0.00    -0.364 N  
HETATM   20  C   UNL     2     -11.808  12.688  70.154  1.00  0.00    -0.249 C  
HETATM   21  C   UNL     2     -12.957  13.075  72.217  1.00  0.00    -0.224 C  
ENDBRANCH  11  12
ENDBRANCH   7  11
ENDBRANCH   3   4
TORSDOF 4
ENDMDL
MODEL      101
REMARK 921   NORMALIZED FREE ENERGY PREDICTED BY IDOCK:   -4.29 KCAL/MOL
REMARK 922        TOTAL FREE ENERGY PREDICTED BY IDOCK:   -5.85 KCAL/MOL
REMARK 923 INTER-LIGAND FREE ENERGY PREDICTED BY IDOCK:   -5.09 KCAL/MOL
REMARK 924 INTRA-LIGAND FREE ENERGY PREDICTED BY IDOCK:   -0.76 KCAL/MOL
REMARK 927      BINDING AFFINITY PREDICTED BY RF-SCORE:    0.00 PKD
ROOT
HETATM    1 BR   UNL     1     -12.392  13.202  64.758  1.00  0.00    -0.477 Br 
HETATM    2  C   UNL     2     -10.796   3.279  73.658  1.00  0.00    -0.322 C  
HETATM    3  C   UNL     2     -11.364   4.588  73.126  1.00  0.00    -0.318 C  
ENDROOT
BRANCH   3   4
HETATM    4  C   UNL     2     -10.431   5.241  72.099  1.00  0.00    -0.278 C  
HETATM    5  C   UNL     2     -10.484   6.789  72.084  1.00  0.00    -0.231 C  
HETATM    6  C   UNL     2     -10.177   7.425  73.457  1.00  0.00    -0.400 C  
HETATM    7  C   UNL     2      -9.603   7.333  70.945  1.00  0.00    -0.170 C  
HETATM    8  O   UNL     2      -9.256   6.673  69.976  1.00  0.00    -0.156 OA 
BRANCH   6   9
HETATM    9  C   UNL     2      -8.787   7.085  74.002  1.00  0.00    -0.210 C  
HETATM   10  C   UNL     2      -8.012   8.333  74.391  1.00  0.00    -0.290 C  
ENDBRANCH   6   9
BRANCH   7  11
HETATM   11  O   UNL     2      -9.333   8.659  71.094  1.00  0.00    -0.176 OA 
BRANCH  11  12
HETATM   12  C   UNL     2      -9.548   9.599  70.008  1.00  0.00    -0.243 C  
HETATM   13  C   UNL     2      -8.311   9.862  69.083  1.00  0.00    -0.145 C  
HETATM   14  C   UNL     2      -8.679  10.858  67.870  1.00  0.00    -0.131 C  
HETATM   15  C   UNL     2      -9.567  12.150  67.674  1.00  0.00    -0.190 C  
HETATM   16  C   UNL     2     -10.989  11.703  68.110  1.00  0.00    -0.275 C  
HETATM   17  C   UNL     2     -11.033  10.161  67.956  1.00  0.00    -0.270 C  
HETATM   18  C   UNL     2     -10.873   9.356  69.261  1.00  0.00    -0.190 C  
HETATM   19  N   UNL     2      -9.804   9.907  67.081  1.00  0.00    -0.178 N  
HETATM   20  C   UNL     2      -9.364   8.458  66.846  1.00  0.00    -0.174 C  
HETATM   21  C   UNL     2     -10.139  10.360  65.618  1.00  0.00    -0.269 C  
ENDBRANCH  11  12
ENDBRANCH   7  11
ENDBRANCH   3   4
TORSDOF 4
ENDMDL
MODEL      102
REMARK 921   NORMALIZED FREE ENERGY PREDICTED BY IDOCK:   -4.27 KCAL/MOL
REMARK 922        TOTAL FREE ENERGY PREDICTED BY IDOCK:   -5.83 KCAL/MOL
REMARK 923 INTER-LIGAND FREE ENERGY PREDICTED BY IDOCK:   -5.02 KCAL/MOL
REMARK 924 INTRA-LIGAND FREE ENERGY PREDICTED BY IDOCK:   -0.81 KCAL/MOL
REMARK 927      BINDING AFFINITY PREDICTED BY RF-SCORE:    0.00 PKD
ROOT
HETATM    1 BR   UNL     1      -7.382   7.484  63.947  1.00  0.00    -0.099 Br 
HETATM    2  C   UNL     2      -6.773  20.451  67.369  1.00  0.00    -0.304 C  
HETATM    3  C   UNL     2      -6.654  18.950  67.593  1.00  0.00    -0.212 C  
ENDROOT
BRANCH   3   4
HETATM    4  C   UNL     2      -7.547  18.156  66.632  1.00  0.00    -0.259 C  
HETATM    5  C   UNL     2      -8.495  17.149  67.330  1.00  0.00    -0.211 C  
HETATM    6  C   UNL     2      -9.417  17.804  68.382  1.00  0.00    -0.297 C  
HETATM    7  C   UNL     2      -9.258  16.328  66.275  1.00  0.00    -0.328 C  
HETATM    8  O   UNL     2      -8.889  16.197  65.115  1.00  0.00     0.499 OA 
BRANCH   6   9
HETATM    9  C   UNL     2     -10.341  18.884  67.812  1.00  0.00    -0.490 C  
HETATM   10  C   UNL     2     -10.174  20.210  68.537  1.00  0.00    -0.403 C  
ENDBRANCH   6   9
BRANCH   7  11
HETATM   11  O   UNL     2     -10.337  15.688  66.802  1.00  0.00    -0.274 OA 
BRANCH  11  12
HETATM   12  C   UNL     2     -10.299  14.269  67.106  1.00  0.00    -0.262 C  
HETATM   13  C   UNL     2      -9.545  13.877  68.422  1.00  0.00    -0.215 C  
HETATM   14  C   UNL     2      -9.628  12.292  68.703  1.00  0.00    -0.043 C  
HETATM   15  C   UNL     2      -9.576  10.969  67.841  1.00  0.00    -0.180 C  
HETATM   16  C   UNL     2     -10.738  11.133  66.823  1.00  0.00    -0.326 C  
HETATM   17  C   UNL     2     -11.737  12.138  67.453  1.00  0.00    -0.304 C  
HETATM   18  C   UNL     2     -11.662  13.579  66.913  1.00  0.00    -0.424 C  
HETATM   19  N   UNL     2     -11.279  12.147  68.913  1.00  0.00    -0.251 N  
HETATM   20  C   UNL     2     -11.896  13.181  69.862  1.00  0.00    -0.308 C  
HETATM   21  C   UNL     2     -11.744  10.808  69.584  1.00  0.00    -0.323 C  
ENDBRANCH  11  12
ENDBRANCH   7  11
ENDBRANCH   3   4
TORSDOF 4
ENDMDL
MODEL      103
REMARK 921   NORMALIZED FREE ENERGY PREDICTED BY IDOCK:   -4.27 KCAL/MOL
REMARK 922        TOTAL FREE ENERGY PREDICTED BY IDOCK:   -5.82 KCAL/MOL
REMARK 923 INTER-LIGAND FREE ENERGY PREDICTED BY IDOCK:   -5.20 KCAL/MOL
REMARK 924 INTRA-LIGAND FREE ENERGY PREDICTED BY IDOCK:   -0.62 KCAL/MOL
REMARK 927      BINDING AFFINITY PREDICTED BY RF-SCORE:    0.00 PKD
ROOT
HETATM    1 BR   UNL     1      -9.839   2.691  72.086  1.00  0.00    -0.238 Br 
HETATM    2  C   UNL     2     -10.075  14.163  65.119  1.00  0.00    -0.348 C  
HETATM    3  C   UNL     2     -10.370  12.693  65.381  1.00  0.00    -0.311 C  
ENDROOT
BRANCH   3   4
HETATM    4  C   UNL     2      -9.357  12.070  66.349  1.00  0.00    -0.232 C  
HETATM    5  C   UNL     2      -9.764  10.675  66.886  1.00  0.00    -0.213 C  
HETATM    6  C   UNL     2     -10.031   9.643  65.769  1.00  0.00    -0.342 C  
HETATM    7  C   UNL     2      -8.741  10.196  67.931  1.00  0.00    -0.122 C  
HETATM    8  O   UNL     2      -7.980  10.941  68.533  1.00  0.00    -0.117 OA 
BRANCH   6   9
HETATM    9  C   UNL     2      -8.823   9.379  64.866  1.00  0.00    -0.240 C  
HETATM   10  C   UNL     2      -9.117   9.721  63.414  1.00  0.00    -0.262 C  
ENDBRANCH   6   9
BRANCH   7  11
HETATM   11  O   UNL     2      -8.844   8.862  68.177  1.00  0.00    -0.133 OA 
BRANCH  11  12
HETATM   12  C   UNL     2      -9.453   8.364  69.398  1.00  0.00    -0.158 C  
HETATM   13  C   UNL     2      -9.287   9.278  70.660  1.00  0.00    -0.329 C  
HETATM   14  C   UNL     2     -10.062   8.672  71.937  1.00  0.00    -0.328 C  
HETATM   15  C   UNL     2     -10.317   7.239  72.551  1.00  0.00    -0.254 C  
HETATM   16  C   UNL     2     -11.010   6.453  71.405  1.00  0.00    -0.316 C  
HETATM   17  C   UNL     2     -11.655   7.510  70.472  1.00  0.00    -0.200 C  
HETATM   18  C   UNL     2     -10.877   7.820  69.178  1.00  0.00    -0.066 C  
HETATM   19  N   UNL     2     -11.628   8.756  71.360  1.00  0.00    -0.280 N  
HETATM   20  C   UNL     2     -12.006  10.104  70.735  1.00  0.00    -0.348 C  
HETATM   21  C   UNL     2     -12.742   8.608  72.452  1.00  0.00    -0.362 C  
ENDBRANCH  11  12
ENDBRANCH   7  11
ENDBRANCH   3   4
TORSDOF 4
ENDMDL
MODEL      104
REMARK 921   NORMALIZED FREE ENERGY PREDICTED BY IDOCK:   -4.25 KCAL/MOL
REMARK 922        TOTAL FREE ENERGY PREDICTED BY IDOCK:   -5.80 KCAL/MOL
REMARK 923 INTER-LIGAND FREE ENERGY PREDICTED BY IDOCK:   -5.30 KCAL/MOL
REMARK 924 INTRA-LIGAND FREE ENERGY PREDICTED BY IDOCK:   -0.50 KCAL/MOL
REMARK 927      BINDING AFFINITY PREDICTED BY RF-SCORE:    0.00 PKD
ROOT
HETATM    1 BR   UNL     1      -5.609   7.299  62.484  1.00  0.00    -0.046 Br 
HETATM    2  C   UNL     2     -12.739  15.363  70.506  1.00  0.00    -0.455 C  
HETATM    3  C   UNL     2     -12.080  14.058  70.082  1.00  0.00    -0.419 C  
ENDROOT
BRANCH   3   4
HETATM    4  C   UNL     2     -11.907  13.972  68.561  1.00  0.00    -0.399 C  
HETATM    5  C   UNL     2     -10.641  14.687  68.023  1.00  0.00    -0.240 C  
HETATM    6  C   UNL     2      -9.333  14.180  68.667  1.00  0.00    -0.152 C  
HETATM    7  C   UNL     2     -10.626  14.639  66.485  1.00  0.00    -0.300 C  
HETATM    8  O   UNL     2     -11.620  14.446  65.798  1.00  0.00    -0.343 OA 
BRANCH   6   9
HETATM    9  C   UNL     2      -9.067  12.688  68.443  1.00  0.00    -0.128 C  
HETATM   10  C   UNL     2      -7.674  12.440  67.887  1.00  0.00    -0.135 C  
ENDBRANCH   6   9
BRANCH   7  11
HETATM   11  O   UNL     2      -9.399  14.931  65.974  1.00  0.00    -0.294 OA 
BRANCH  11  12
HETATM   12  C   UNL     2      -8.860  16.278  66.026  1.00  0.00    -0.273 C  
HETATM   13  C   UNL     2      -9.887  17.406  66.382  1.00  0.00    -0.311 C  
HETATM   14  C   UNL     2      -9.172  18.847  66.487  1.00  0.00    -0.331 C  
HETATM   15  C   UNL     2      -8.028  19.620  65.721  1.00  0.00    -0.153 C  
HETATM   16  C   UNL     2      -6.793  18.686  65.841  1.00  0.00    -0.312 C  
HETATM   17  C   UNL     2      -7.036  17.790  67.083  1.00  0.00    -0.177 C  
HETATM   18  C   UNL     2      -7.524  16.359  66.787  1.00  0.00    -0.278 C  
HETATM   19  N   UNL     2      -8.165  18.547  67.787  1.00  0.00    -0.248 N  
HETATM   20  C   UNL     2      -8.850  17.882  68.986  1.00  0.00     0.001 C  
HETATM   21  C   UNL     2      -7.557  19.826  68.459  1.00  0.00    -0.303 C  
ENDBRANCH  11  12
ENDBRANCH   7  11
ENDBRANCH   3   4
TORSDOF 4
ENDMDL
MODEL      105
REMARK 921   NORMALIZED FREE ENERGY PREDICTED BY IDOCK:   -4.23 KCAL/MOL
REMARK 922        TOTAL FREE ENERGY PREDICTED BY IDOCK:   -5.78 KCAL/MOL
REMARK 923 INTER-LIGAND FREE ENERGY PREDICTED BY IDOCK:   -5.02 KCAL/MOL
REMARK 924 INTRA-LIGAND FREE ENERGY PREDICTED BY IDOCK:   -0.77 KCAL/MOL
REMARK 927      BINDING AFFINITY PREDICTED BY RF-SCORE:    0.00 PKD
ROOT
HETATM    1 BR   UNL     1     -12.320  12.407  63.644  1.00  0.00    -0.642 Br 
HETATM    2  C   UNL     2     -10.560   4.471  74.327  1.00  0.00    -0.316 C  
HETATM    3  C   UNL     2     -11.328   5.077  73.161  1.00  0.00    -0.397 C  
ENDROOT
BRANCH   3   4
HETATM    4  C   UNL     2     -10.786   6.458  72.775  1.00  0.00    -0.267 C  
HETATM    5  C   UNL     2      -9.628   6.423  71.746  1.00  0.00    -0.162 C  
HETATM    6  C   UNL     2      -9.995   5.689  70.438  1.00  0.00    -0.267 C  
HETATM    7  C   UNL     2      -9.085   7.845  71.518  1.00  0.00    -0.137 C  
HETATM    8  O   UNL     2      -9.247   8.771  72.301  1.00  0.00    -0.340 OA 
BRANCH   6   9
HETATM    9  C   UNL     2     -11.173   6.313  69.684  1.00  0.00    -0.506 C  
HETATM   10  C   UNL     2     -10.964   6.277  68.179  1.00  0.00    -0.412 C  
ENDBRANCH   6   9
BRANCH   7  11
HETATM   11  O   UNL     2      -8.325   7.931  70.393  1.00  0.00    -0.118 OA 
BRANCH  11  12
HETATM   12  C   UNL     2      -8.329   9.126  69.569  1.00  0.00    -0.126 C  
HETATM   13  C   UNL     2      -7.322   9.127  68.368  1.00  0.00    -0.078 C  
HETATM   14  C   UNL     2      -7.462  10.462  67.477  1.00  0.00    -0.093 C  
HETATM   15  C   UNL     2      -7.718  11.998  67.743  1.00  0.00    -0.139 C  
HETATM   16  C   UNL     2      -9.068  12.032  68.510  1.00  0.00    -0.107 C  
HETATM   17  C   UNL     2      -9.810  10.717  68.153  1.00  0.00    -0.158 C  
HETATM   18  C   UNL     2      -9.750   9.607  69.220  1.00  0.00    -0.191 C  
HETATM   19  N   UNL     2      -9.026  10.249  66.926  1.00  0.00    -0.136 N  
HETATM   20  C   UNL     2      -9.319   8.854  66.363  1.00  0.00    -0.204 C  
HETATM   21  C   UNL     2      -9.425  11.154  65.710  1.00  0.00    -0.221 C  
ENDBRANCH  11  12
ENDBRANCH   7  11
ENDBRANCH   3   4
TORSDOF 4
ENDMDL
MODEL      106
REMARK 921   NORMALIZED FREE ENERGY PREDICTED BY IDOCK:   -4.19 KCAL/MOL
REMARK 922        TOTAL FREE ENERGY PREDICTED BY IDOCK:   -5.73 KCAL/MOL
REMARK 923 INTER-LIGAND FREE ENERGY PREDICTED BY IDOCK:   -5.06 KCAL/MOL
REMARK 924 INTRA-LIGAND FREE ENERGY PREDICTED BY IDOCK:   -0.68 KCAL/MOL
REMARK 927      BINDING AFFINITY PREDICTED BY RF-SCORE:    0.00 PKD
ROOT
HETATM    1 BR   UNL     1     -14.295   8.226  71.918  1.00  0.00    -0.579 Br 
HETATM    2  C   UNL     2      -8.197  18.869  66.463  1.00  0.00    -0.306 C  
HETATM    3  C   UNL     2      -9.364  17.935  66.749  1.00  0.00    -0.279 C  
ENDROOT
BRANCH   3   4
HETATM    4  C   UNL     2      -8.891  16.522  67.113  1.00  0.00    -0.213 C  
HETATM    5  C   UNL     2     -10.014  15.587  67.627  1.00  0.00    -0.233 C  
HETATM    6  C   UNL     2     -11.189  15.440  66.636  1.00  0.00    -0.175 C  
HETATM    7  C   UNL     2      -9.414  14.241  68.071  1.00  0.00    -0.204 C  
HETATM    8  O   UNL     2      -8.236  14.080  68.357  1.00  0.00    -0.141 OA 
BRANCH   6   9
HETATM    9  C   UNL     2     -10.786  14.860  65.277  1.00  0.00    -0.409 C  
HETATM   10  C   UNL     2     -11.992  14.366  64.494  1.00  0.00    -0.487 C  
ENDBRANCH   6   9
BRANCH   7  11
HETATM   11  O   UNL     2     -10.362  13.273  68.198  1.00  0.00    -0.231 OA 
BRANCH  11  12
HETATM   12  C   UNL     2     -10.150  11.935  67.675  1.00  0.00    -0.191 C  
HETATM   13  C   UNL     2      -9.313  11.848  66.353  1.00  0.00    -0.233 C  
HETATM   14  C   UNL     2      -9.073  10.319  65.903  1.00  0.00    -0.163 C  
HETATM   15  C   UNL     2      -9.909   8.979  65.898  1.00  0.00    -0.257 C  
HETATM   16  C   UNL     2     -10.305   8.773  67.385  1.00  0.00    -0.349 C  
HETATM   17  C   UNL     2      -9.269   9.559  68.230  1.00  0.00    -0.130 C  
HETATM   18  C   UNL     2      -9.743  10.924  68.764  1.00  0.00    -0.196 C  
HETATM   19  N   UNL     2      -8.161   9.801  67.204  1.00  0.00    -0.116 N  
HETATM   20  C   UNL     2      -7.006  10.734  67.587  1.00  0.00    -0.082 C  
HETATM   21  C   UNL     2      -7.395   8.452  66.977  1.00  0.00    -0.084 C  
ENDBRANCH  11  12
ENDBRANCH   7  11
ENDBRANCH   3   4
TORSDOF 4
ENDMDL
MODEL      107
REMARK 921   NORMALIZED FREE ENERGY PREDICTED BY IDOCK:   -4.18 KCAL/MOL
REMARK 922        TOTAL FREE ENERGY PREDICTED BY IDOCK:   -5.71 KCAL/MOL
REMARK 923 INTER-LIGAND FREE ENERGY PREDICTED BY IDOCK:   -4.94 KCAL/MOL
REMARK 924 INTRA-LIGAND FREE ENERGY PREDICTED BY IDOCK:   -0.78 KCAL/MOL
REMARK 927      BINDING AFFINITY PREDICTED BY RF-SCORE:    0.00 PKD
ROOT
HETATM    1 BR   UNL     1     -11.692  15.694  68.930  1.00  0.00    -0.368 Br 
HETATM    2  C   UNL     2     -11.173   3.138  73.651  1.00  0.00    -0.288 C  
HETATM    3  C   UNL     2     -10.834   4.622  73.615  1.00  0.00    -0.375 C  
ENDROOT
BRANCH   3   4
HETATM    4  C   UNL     2     -10.997   5.212  72.209  1.00  0.00    -0.209 C  
HETATM    5  C   UNL     2     -11.088   6.758  72.174  1.00  0.00    -0.284 C  
HETATM    6  C   UNL     2      -9.879   7.457  72.832  1.00  0.00    -0.253 C  
HETATM    7  C   UNL     2     -11.365   7.235  70.737  1.00  0.00    -0.285 C  
HETATM    8  O   UNL     2     -11.837   6.523  69.861  1.00  0.00    -0.381 OA 
BRANCH   6   9
HETATM    9  C   UNL     2      -8.537   7.128  72.173  1.00  0.00    -0.120 C  
HETATM   10  C   UNL     2      -7.716   8.380  71.907  1.00  0.00    -0.157 C  
ENDBRANCH   6   9
BRANCH   7  11
HETATM   11  O   UNL     2     -11.113   8.563  70.579  1.00  0.00    -0.244 OA 
BRANCH  11  12
HETATM   12  C   UNL     2     -10.730   9.110  69.290  1.00  0.00    -0.183 C  
HETATM   13  C   UNL     2     -10.668  10.673  69.207  1.00  0.00    -0.275 C  
HETATM   14  C   UNL     2     -10.160  11.170  67.760  1.00  0.00    -0.178 C  
HETATM   15  C   UNL     2     -10.367  10.730  66.257  1.00  0.00    -0.303 C  
HETATM   16  C   UNL     2      -9.893   9.251  66.226  1.00  0.00    -0.361 C  
HETATM   17  C   UNL     2      -8.926   9.073  67.425  1.00  0.00    -0.124 C  
HETATM   18  C   UNL     2      -9.524   8.382  68.666  1.00  0.00    -0.147 C  
HETATM   19  N   UNL     2      -8.618  10.528  67.786  1.00  0.00    -0.118 N  
HETATM   20  C   UNL     2      -7.831  10.808  69.072  1.00  0.00    -0.138 C  
HETATM   21  C   UNL     2      -7.643  11.109  66.704  1.00  0.00    -0.147 C  
ENDBRANCH  11  12
ENDBRANCH   7  11
ENDBRANCH   3   4
TORSDOF 4
ENDMDL
MODEL      108
REMARK 921   NORMALIZED FREE ENERGY PREDICTED BY IDOCK:   -4.18 KCAL/MOL
REMARK 922        TOTAL FREE ENERGY PREDICTED BY IDOCK:   -5.71 KCAL/MOL
REMARK 923 INTER-LIGAND FREE ENERGY PREDICTED BY IDOCK:   -4.95 KCAL/MOL
REMARK 924 INTRA-LIGAND FREE ENERGY PREDICTED BY IDOCK:   -0.76 KCAL/MOL
REMARK 927      BINDING AFFINITY PREDICTED BY RF-SCORE:    0.00 PKD
ROOT
HETATM    1 BR   UNL     1      -7.585   5.625  63.354  1.00  0.00    -0.083 Br 
HETATM    2  C   UNL     2      -8.961  18.606  66.486  1.00  0.00    -0.308 C  
HETATM    3  C   UNL     2      -8.257  17.257  66.440  1.00  0.00    -0.317 C  
ENDROOT
BRANCH   3   4
HETATM    4  C   UNL     2      -9.251  16.097  66.297  1.00  0.00    -0.366 C  
HETATM    5  C   UNL     2      -9.198  15.068  67.454  1.00  0.00    -0.200 C  
HETATM    6  C   UNL     2      -9.420  15.699  68.845  1.00  0.00    -0.228 C  
HETATM    7  C   UNL     2     -10.146  13.893  67.155  1.00  0.00    -0.252 C  
HETATM    8  O   UNL     2     -10.552  13.612  66.035  1.00  0.00    -0.282 OA 
BRANCH   6   9
HETATM    9  C   UNL     2     -10.775  16.396  69.002  1.00  0.00    -0.322 C  
HETATM   10  C   UNL     2     -11.420  16.083  70.342  1.00  0.00    -0.392 C  
ENDBRANCH   6   9
BRANCH   7  11
HETATM   11  O   UNL     2     -10.406  13.148  68.263  1.00  0.00    -0.240 OA 
BRANCH  11  12
HETATM   12  C   UNL     2     -10.131  11.723  68.296  1.00  0.00    -0.197 C  
HETATM   13  C   UNL     2     -11.252  10.801  67.705  1.00  0.00    -0.385 C  
HETATM   14  C   UNL     2     -10.815   9.250  67.721  1.00  0.00    -0.126 C  
HETATM   15  C   UNL     2     -10.024   8.290  68.694  1.00  0.00    -0.203 C  
HETATM   16  C   UNL     2      -8.639   8.972  68.859  1.00  0.00    -0.131 C  
HETATM   17  C   UNL     2      -8.442   9.876  67.614  1.00  0.00    -0.114 C  
HETATM   18  C   UNL     2      -8.703  11.378  67.832  1.00  0.00    -0.145 C  
HETATM   19  N   UNL     2      -9.517   9.332  66.671  1.00  0.00    -0.177 N  
HETATM   20  C   UNL     2      -9.796  10.093  65.369  1.00  0.00    -0.307 C  
HETATM   21  C   UNL     2      -9.032   7.950  66.113  1.00  0.00    -0.175 C  
ENDBRANCH  11  12
ENDBRANCH   7  11
ENDBRANCH   3   4
TORSDOF 4
ENDMDL
MODEL      109
REMARK 921   NORMALIZED FREE ENERGY PREDICTED BY IDOCK:   -4.18 KCAL/MOL
REMARK 922        TOTAL FREE ENERGY PREDICTED BY IDOCK:   -5.71 KCAL/MOL
REMARK 923 INTER-LIGAND FREE ENERGY PREDICTED BY IDOCK:   -5.06 KCAL/MOL
REMARK 924 INTRA-LIGAND FREE ENERGY PREDICTED BY IDOCK:   -0.65 KCAL/MOL
REMARK 927      BINDING AFFINITY PREDICTED BY RF-SCORE:    0.00 PKD
ROOT
HETATM    1 BR   UNL     1      -5.265   3.693  70.609  1.00  0.00    -0.004 Br 
HETATM    2  C   UNL     2     -12.654  13.838  65.844  1.00  0.00    -0.494 C  
HETATM    3  C   UNL     2     -11.488  12.859  65.861  1.00  0.00    -0.387 C  
ENDROOT
BRANCH   3   4
HETATM    4  C   UNL     2     -11.192  12.346  67.276  1.00  0.00    -0.357 C  
HETATM    5  C   UNL     2     -11.166  10.802  67.400  1.00  0.00    -0.315 C  
HETATM    6  C   UNL     2     -10.159  10.128  66.444  1.00  0.00    -0.300 C  
HETATM    7  C   UNL     2     -10.978  10.398  68.873  1.00  0.00    -0.245 C  
HETATM    8  O   UNL     2     -11.218  11.135  69.820  1.00  0.00    -0.259 OA 
BRANCH   6   9
HETATM    9  C   UNL     2      -8.707  10.564  66.662  1.00  0.00    -0.138 C  
HETATM   10  C   UNL     2      -7.880  10.429  65.394  1.00  0.00    -0.143 C  
ENDBRANCH   6   9
BRANCH   7  11
HETATM   11  O   UNL     2     -10.602   9.096  69.005  1.00  0.00    -0.222 OA 
BRANCH  11  12
HETATM   12  C   UNL     2     -10.416   8.493  70.312  1.00  0.00    -0.220 C  
HETATM   13  C   UNL     2     -11.156   7.132  70.544  1.00  0.00    -0.299 C  
HETATM   14  C   UNL     2     -10.821   6.514  71.995  1.00  0.00    -0.234 C  
HETATM   15  C   UNL     2     -10.606   7.070  73.458  1.00  0.00    -0.405 C  
HETATM   16  C   UNL     2      -9.441   8.086  73.311  1.00  0.00    -0.336 C  
HETATM   17  C   UNL     2      -8.657   7.677  72.037  1.00  0.00    -0.110 C  
HETATM   18  C   UNL     2      -8.948   8.517  70.778  1.00  0.00    -0.193 C  
HETATM   19  N   UNL     2      -9.181   6.259  71.800  1.00  0.00    -0.144 N  
HETATM   20  C   UNL     2      -8.795   5.549  70.498  1.00  0.00    -0.136 C  
HETATM   21  C   UNL     2      -8.531   5.309  72.865  1.00  0.00    -0.116 C  
ENDBRANCH  11  12
ENDBRANCH   7  11
ENDBRANCH   3   4
TORSDOF 4
ENDMDL
MODEL      110
REMARK 921   NORMALIZED FREE ENERGY PREDICTED BY IDOCK:   -4.16 KCAL/MOL
REMARK 922        TOTAL FREE ENERGY PREDICTED BY IDOCK:   -5.69 KCAL/MOL
REMARK 923 INTER-LIGAND FREE ENERGY PREDICTED BY IDOCK:   -5.00 KCAL/MOL
REMARK 924 INTRA-LIGAND FREE ENERGY PREDICTED BY IDOCK:   -0.69 KCAL/MOL
REMARK 927      BINDING AFFINITY PREDICTED BY RF-SCORE:    0.00 PKD
ROOT
HETATM    1 BR   UNL     1     -12.002  15.836  71.545  1.00  0.00    -0.559 Br 
HETATM    2  C   UNL     2      -8.879   2.913  69.684  1.00  0.00    -0.147 C  
HETATM    3  C   UNL     2      -9.786   4.085  70.033  1.00  0.00    -0.264 C  
ENDROOT
BRANCH   3   4
HETATM    4  C   UNL     2      -8.988   5.302  70.518  1.00  0.00    -0.162 C  
HETATM    5  C   UNL     2      -9.798   6.621  70.554  1.00  0.00    -0.190 C  
HETATM    6  C   UNL     2     -11.075   6.532  71.418  1.00  0.00    -0.315 C  
HETATM    7  C   UNL     2      -8.878   7.792  70.940  1.00  0.00    -0.142 C  
HETATM    8  O   UNL     2      -7.659   7.766  70.835  1.00  0.00    -0.076 OA 
BRANCH   6   9
HETATM    9  C   UNL     2     -10.808   6.194  72.887  1.00  0.00    -0.290 C  
HETATM   10  C   UNL     2     -11.350   4.824  73.260  1.00  0.00    -0.408 C  
ENDBRANCH   6   9
BRANCH   7  11
HETATM   11  O   UNL     2      -9.580   8.893  71.325  1.00  0.00    -0.227 OA 
BRANCH  11  12
HETATM   12  C   UNL     2      -9.885   9.958  70.386  1.00  0.00    -0.123 C  
HETATM   13  C   UNL     2      -8.827  10.192  69.256  1.00  0.00    -0.191 C  
HETATM   14  C   UNL     2      -9.299  11.341  68.229  1.00  0.00    -0.180 C  
HETATM   15  C   UNL     2     -10.047  12.729  68.324  1.00  0.00    -0.237 C  
HETATM   16  C   UNL     2     -11.403  12.384  69.000  1.00  0.00    -0.336 C  
HETATM   17  C   UNL     2     -11.658  10.878  68.731  1.00  0.00    -0.309 C  
HETATM   18  C   UNL     2     -11.348   9.929  69.905  1.00  0.00    -0.273 C  
HETATM   19  N   UNL     2     -10.659  10.596  67.607  1.00  0.00    -0.227 N  
HETATM   20  C   UNL     2     -10.447   9.142  67.169  1.00  0.00    -0.255 C  
HETATM   21  C   UNL     2     -11.212  11.231  66.284  1.00  0.00    -0.091 C  
ENDBRANCH  11  12
ENDBRANCH   7  11
ENDBRANCH   3   4
TORSDOF 4
ENDMDL
MODEL      111
REMARK 921   NORMALIZED FREE ENERGY PREDICTED BY IDOCK:   -4.16 KCAL/MOL
REMARK 922        TOTAL FREE ENERGY PREDICTED BY IDOCK:   -5.69 KCAL/MOL
REMARK 923 INTER-LIGAND FREE ENERGY PREDICTED BY IDOCK:   -5.22 KCAL/MOL
REMARK 924 INTRA-LIGAND FREE ENERGY PREDICTED BY IDOCK:   -0.47 KCAL/MOL
REMARK 927      BINDING AFFINITY PREDICTED BY RF-SCORE:    0.00 PKD
ROOT
HETATM    1 BR   UNL     1      -9.746  19.386  66.320  1.00  0.00    -0.459 Br 
HETATM    2  C   UNL     2      -5.810   6.792  63.843  1.00  0.00    -0.031 C  
HETATM    3  C   UNL     2      -5.619   8.283  64.088  1.00  0.00    -0.056 C  
ENDROOT
BRANCH   3   4
HETATM    4  C   UNL     2      -6.867   9.089  63.709  1.00  0.00    -0.088 C  
HETATM    5  C   UNL     2      -7.999   9.044  64.767  1.00  0.00    -0.129 C  
HETATM    6  C   UNL     2      -7.548   9.519  66.165  1.00  0.00    -0.100 C  
HETATM    7  C   UNL     2      -9.240   9.785  64.238  1.00  0.00    -0.232 C  
HETATM    8  O   UNL     2      -9.449  10.009  63.054  1.00  0.00    -0.297 OA 
BRANCH   6   9
HETATM    9  C   UNL     2      -7.038  10.962  66.197  1.00  0.00    -0.097 C  
HETATM   10  C   UNL     2      -5.892  11.134  67.181  1.00  0.00    -0.072 C  
ENDBRANCH   6   9
BRANCH   7  11
HETATM   11  O   UNL     2     -10.123  10.080  65.231  1.00  0.00    -0.321 OA 
BRANCH  11  12
HETATM   12  C   UNL     2     -10.839  11.343  65.253  1.00  0.00    -0.233 C  
HETATM   13  C   UNL     2     -11.279  11.849  66.669  1.00  0.00    -0.384 C  
HETATM   14  C   UNL     2     -11.994  13.291  66.588  1.00  0.00    -0.388 C  
HETATM   15  C   UNL     2     -12.995  14.023  65.609  1.00  0.00    -0.337 C  
HETATM   16  C   UNL     2     -12.273  13.992  64.235  1.00  0.00    -0.453 C  
HETATM   17  C   UNL     2     -10.759  13.835  64.536  1.00  0.00    -0.390 C  
HETATM   18  C   UNL     2     -10.188  12.415  64.359  1.00  0.00    -0.342 C  
HETATM   19  N   UNL     2     -10.707  14.193  66.022  1.00  0.00    -0.294 N  
HETATM   20  C   UNL     2      -9.391  13.972  66.778  1.00  0.00    -0.277 C  
HETATM   21  C   UNL     2     -10.877  15.745  66.162  1.00  0.00    -0.240 C  
ENDBRANCH  11  12
ENDBRANCH   7  11
ENDBRANCH   3   4
TORSDOF 4
ENDMDL
MODEL      112
REMARK 921   NORMALIZED FREE ENERGY PREDICTED BY IDOCK:   -4.15 KCAL/MOL
REMARK 922        TOTAL FREE ENERGY PREDICTED BY IDOCK:   -5.68 KCAL/MOL
REMARK 923 INTER-LIGAND FREE ENERGY PREDICTED BY IDOCK:   -5.05 KCAL/MOL
REMARK 924 INTRA-LIGAND FREE ENERGY PREDICTED BY IDOCK:   -0.64 KCAL/MOL
REMARK 927      BINDING AFFINITY PREDICTED BY RF-SCORE:    0.00 PKD
ROOT
HETATM    1 BR   UNL     1      -6.761  18.984  65.407  1.00  0.00    -0.203 Br 
HETATM    2  C   UNL     2     -10.804   6.375  67.616  1.00  0.00    -0.425 C  
HETATM    3  C   UNL     2     -10.552   7.626  66.785  1.00  0.00    -0.256 C  
ENDROOT
BRANCH   3   4
HETATM    4  C   UNL     2     -10.535   8.893  67.650  1.00  0.00    -0.320 C  
HETATM    5  C   UNL     2      -9.333   9.832  67.380  1.00  0.00    -0.155 C  
HETATM    6  C   UNL     2      -9.223  10.276  65.905  1.00  0.00    -0.205 C  
HETATM    7  C   UNL     2      -9.350  11.006  68.374  1.00  0.00    -0.179 C  
HETATM    8  O   UNL     2      -9.952  10.989  69.440  1.00  0.00    -0.131 OA 
BRANCH   6   9
HETATM    9  C   UNL     2     -10.445  11.046  65.396  1.00  0.00    -0.306 C  
HETATM   10  C   UNL     2     -10.289  11.456  63.940  1.00  0.00    -0.434 C  
ENDBRANCH   6   9
BRANCH   7  11
HETATM   11  O   UNL     2      -8.545  12.028  67.976  1.00  0.00    -0.154 OA 
BRANCH  11  12
HETATM   12  C   UNL     2      -8.916  13.413  68.205  1.00  0.00    -0.176 C  
HETATM   13  C   UNL     2      -7.982  14.484  67.545  1.00  0.00    -0.208 C  
HETATM   14  C   UNL     2      -8.525  15.981  67.797  1.00  0.00    -0.161 C  
HETATM   15  C   UNL     2      -9.209  16.770  68.982  1.00  0.00    -0.199 C  
HETATM   16  C   UNL     2     -10.492  15.952  69.293  1.00  0.00    -0.253 C  
HETATM   17  C   UNL     2     -10.829  15.154  68.006  1.00  0.00    -0.284 C  
HETATM   18  C   UNL     2     -10.423  13.668  68.017  1.00  0.00    -0.251 C  
HETATM   19  N   UNL     2      -9.972  15.880  66.966  1.00  0.00    -0.242 N  
HETATM   20  C   UNL     2      -9.861  15.272  65.563  1.00  0.00    -0.326 C  
HETATM   21  C   UNL     2     -10.645  17.258  66.646  1.00  0.00    -0.179 C  
ENDBRANCH  11  12
ENDBRANCH   7  11
ENDBRANCH   3   4
TORSDOF 4
ENDMDL
MODEL      113
REMARK 921   NORMALIZED FREE ENERGY PREDICTED BY IDOCK:   -4.15 KCAL/MOL
REMARK 922        TOTAL FREE ENERGY PREDICTED BY IDOCK:   -5.68 KCAL/MOL
REMARK 923 INTER-LIGAND FREE ENERGY PREDICTED BY IDOCK:   -5.00 KCAL/MOL
REMARK 924 INTRA-LIGAND FREE ENERGY PREDICTED BY IDOCK:   -0.68 KCAL/MOL
REMARK 927      BINDING AFFINITY PREDICTED BY RF-SCORE:    0.00 PKD
ROOT
HETATM    1 BR   UNL     1      -7.294   3.164  65.631  1.00  0.00    -0.073 Br 
HETATM    2  C   UNL     2     -10.905  16.018  67.033  1.00  0.00    -0.227 C  
HETATM    3  C   UNL     2     -10.795  14.677  66.319  1.00  0.00    -0.321 C  
ENDROOT
BRANCH   3   4
HETATM    4  C   UNL     2      -9.597  13.860  66.819  1.00  0.00    -0.288 C  
HETATM    5  C   UNL     2      -9.948  12.412  67.245  1.00  0.00    -0.209 C  
HETATM    6  C   UNL     2     -10.632  11.595  66.128  1.00  0.00    -0.306 C  
HETATM    7  C   UNL     2      -8.705  11.723  67.834  1.00  0.00    -0.164 C  
HETATM    8  O   UNL     2      -7.733  12.325  68.271  1.00  0.00    -0.127 OA 
BRANCH   6   9
HETATM    9  C   UNL     2      -9.783  11.438  64.863  1.00  0.00    -0.283 C  
HETATM   10  C   UNL     2     -10.533  11.886  63.619  1.00  0.00    -0.493 C  
ENDBRANCH   6   9
BRANCH   7  11
HETATM   11  O   UNL     2      -8.849  10.372  67.901  1.00  0.00    -0.124 OA 
BRANCH  11  12
HETATM   12  C   UNL     2      -9.332   9.723  69.106  1.00  0.00    -0.182 C  
HETATM   13  C   UNL     2     -10.887   9.553  69.209  1.00  0.00    -0.211 C  
HETATM   14  C   UNL     2     -11.309   8.756  70.545  1.00  0.00    -0.227 C  
HETATM   15  C   UNL     2     -10.833   8.705  72.050  1.00  0.00    -0.430 C  
HETATM   16  C   UNL     2      -9.330   8.322  71.961  1.00  0.00    -0.298 C  
HETATM   17  C   UNL     2      -9.138   7.609  70.597  1.00  0.00    -0.158 C  
HETATM   18  C   UNL     2      -8.520   8.468  69.477  1.00  0.00    -0.127 C  
HETATM   19  N   UNL     2     -10.584   7.287  70.216  1.00  0.00    -0.224 N  
HETATM   20  C   UNL     2     -10.861   6.738  68.811  1.00  0.00    -0.231 C  
HETATM   21  C   UNL     2     -11.076   6.095  71.107  1.00  0.00    -0.298 C  
ENDBRANCH  11  12
ENDBRANCH   7  11
ENDBRANCH   3   4
TORSDOF 4
ENDMDL
MODEL      114
REMARK 921   NORMALIZED FREE ENERGY PREDICTED BY IDOCK:   -4.15 KCAL/MOL
REMARK 922        TOTAL FREE ENERGY PREDICTED BY IDOCK:   -5.67 KCAL/MOL
REMARK 923 INTER-LIGAND FREE ENERGY PREDICTED BY IDOCK:   -4.81 KCAL/MOL
REMARK 924 INTRA-LIGAND FREE ENERGY PREDICTED BY IDOCK:   -0.86 KCAL/MOL
REMARK 927      BINDING AFFINITY PREDICTED BY RF-SCORE:    0.00 PKD
ROOT
HETATM    1 BR   UNL     1     -11.405  14.712  67.077  1.00  0.00    -0.371 Br 
HETATM    2  C   UNL     2     -10.487   3.546  74.472  1.00  0.00    -0.234 C  
HETATM    3  C   UNL     2      -9.964   4.789  73.766  1.00  0.00    -0.188 C  
ENDROOT
BRANCH   3   4
HETATM    4  C   UNL     2     -10.869   5.209  72.601  1.00  0.00    -0.303 C  
HETATM    5  C   UNL     2     -10.107   5.766  71.372  1.00  0.00    -0.249 C  
HETATM    6  C   UNL     2      -9.053   4.786  70.811  1.00  0.00    -0.178 C  
HETATM    7  C   UNL     2     -11.108   6.261  70.314  1.00  0.00    -0.364 C  
HETATM    8  O   UNL     2     -12.272   6.549  70.558  1.00  0.00    -0.325 OA 
BRANCH   6   9
HETATM    9  C   UNL     2      -9.635   3.450  70.340  1.00  0.00    -0.227 C  
HETATM   10  C   UNL     2      -9.382   3.214  68.860  1.00  0.00    -0.231 C  
ENDBRANCH   6   9
BRANCH   7  11
HETATM   11  O   UNL     2     -10.526   6.432  69.096  1.00  0.00    -0.189 OA 
BRANCH  11  12
HETATM   12  C   UNL     2     -10.203   7.756  68.594  1.00  0.00    -0.201 C  
HETATM   13  C   UNL     2      -8.762   8.274  68.925  1.00  0.00    -0.137 C  
HETATM   14  C   UNL     2      -8.482   9.715  68.258  1.00  0.00    -0.118 C  
HETATM   15  C   UNL     2      -9.301  11.041  68.005  1.00  0.00    -0.163 C  
HETATM   16  C   UNL     2     -10.524  10.579  67.166  1.00  0.00    -0.302 C  
HETATM   17  C   UNL     2     -10.109   9.253  66.477  1.00  0.00    -0.273 C  
HETATM   18  C   UNL     2     -10.643   7.965  67.133  1.00  0.00    -0.383 C  
HETATM   19  N   UNL     2      -8.589   9.285  66.647  1.00  0.00    -0.126 N  
HETATM   20  C   UNL     2      -7.788   8.035  66.265  1.00  0.00    -0.099 C  
HETATM   21  C   UNL     2      -8.002  10.336  65.644  1.00  0.00    -0.150 C  
ENDBRANCH  11  12
ENDBRANCH   7  11
ENDBRANCH   3   4
TORSDOF 4
ENDMDL
MODEL      115
REMARK 921   NORMALIZED FREE ENERGY PREDICTED BY IDOCK:   -4.14 KCAL/MOL
REMARK 922        TOTAL FREE ENERGY PREDICTED BY IDOCK:   -5.67 KCAL/MOL
REMARK 923 INTER-LIGAND FREE ENERGY PREDICTED BY IDOCK:   -4.83 KCAL/MOL
REMARK 924 INTRA-LIGAND FREE ENERGY PREDICTED BY IDOCK:   -0.84 KCAL/MOL
REMARK 927      BINDING AFFINITY PREDICTED BY RF-SCORE:    0.00 PKD
ROOT
HETATM    1 BR   UNL     1      -6.717   3.309  74.300  1.00  0.00    -0.040 Br 
HETATM    2  C   UNL     2     -10.390  11.190  64.072  1.00  0.00    -0.437 C  
HETATM    3  C   UNL     2      -9.575  10.108  64.766  1.00  0.00    -0.378 C  
ENDROOT
BRANCH   3   4
HETATM    4  C   UNL     2      -9.541  10.304  66.287  1.00  0.00    -0.238 C  
HETATM    5  C   UNL     2     -10.439   9.320  67.076  1.00  0.00    -0.303 C  
HETATM    6  C   UNL     2     -10.117   7.836  66.794  1.00  0.00    -0.341 C  
HETATM    7  C   UNL     2     -10.420   9.677  68.573  1.00  0.00    -0.212 C  
HETATM    8  O   UNL     2     -10.096  10.773  69.009  1.00  0.00    -0.200 OA 
BRANCH   6   9
HETATM    9  C   UNL     2      -8.683   7.433  67.152  1.00  0.00    -0.121 C  
HETATM   10  C   UNL     2      -8.364   6.019  66.696  1.00  0.00    -0.111 C  
ENDBRANCH   6   9
BRANCH   7  11
HETATM   11  O   UNL     2     -10.894   8.665  69.349  1.00  0.00    -0.197 OA 
BRANCH  11  12
HETATM   12  C   UNL     2     -10.227   8.282  70.581  1.00  0.00    -0.193 C  
HETATM   13  C   UNL     2     -10.999   8.615  71.903  1.00  0.00    -0.412 C  
HETATM   14  C   UNL     2     -10.208   8.082  73.202  1.00  0.00    -0.217 C  
HETATM   15  C   UNL     2      -8.702   7.984  73.670  1.00  0.00    -0.332 C  
HETATM   16  C   UNL     2      -8.013   7.145  72.559  1.00  0.00    -0.103 C  
HETATM   17  C   UNL     2      -9.131   6.318  71.873  1.00  0.00    -0.143 C  
HETATM   18  C   UNL     2      -9.631   6.863  70.522  1.00  0.00    -0.171 C  
HETATM   19  N   UNL     2     -10.267   6.440  72.891  1.00  0.00    -0.184 N  
HETATM   20  C   UNL     2     -11.653   5.914  72.502  1.00  0.00    -0.277 C  
HETATM   21  C   UNL     2      -9.932   5.525  74.118  1.00  0.00    -0.219 C  
ENDBRANCH  11  12
ENDBRANCH   7  11
ENDBRANCH   3   4
TORSDOF 4
ENDMDL
MODEL      116
REMARK 921   NORMALIZED FREE ENERGY PREDICTED BY IDOCK:   -4.13 KCAL/MOL
REMARK 922        TOTAL FREE ENERGY PREDICTED BY IDOCK:   -5.66 KCAL/MOL
REMARK 923 INTER-LIGAND FREE ENERGY PREDICTED BY IDOCK:   -5.05 KCAL/MOL
REMARK 924 INTRA-LIGAND FREE ENERGY PREDICTED BY IDOCK:   -0.61 KCAL/MOL
REMARK 927      BINDING AFFINITY PREDICTED BY RF-SCORE:    0.00 PKD
ROOT
HETATM    1 BR   UNL     1     -10.838   2.424  63.059  1.00  0.00    -0.229 Br 
HETATM    2  C   UNL     2      -6.098  12.739  70.225  1.00  0.00    -0.067 C  
HETATM    3  C   UNL     2      -6.023  11.402  69.501  1.00  0.00    -0.086 C  
ENDROOT
BRANCH   3   4
HETATM    4  C   UNL     2      -7.393  10.717  69.421  1.00  0.00    -0.133 C  
HETATM    5  C   UNL     2      -8.131  10.923  68.075  1.00  0.00    -0.119 C  
HETATM    6  C   UNL     2      -7.311  10.461  66.851  1.00  0.00    -0.106 C  
HETATM    7  C   UNL     2      -9.534  10.296  68.144  1.00  0.00    -0.147 C  
HETATM    8  O   UNL     2     -10.120  10.047  69.189  1.00  0.00    -0.185 OA 
BRANCH   6   9
HETATM    9  C   UNL     2      -6.943   8.974  66.874  1.00  0.00    -0.078 C  
HETATM   10  C   UNL     2      -6.060   8.591  65.698  1.00  0.00    -0.048 C  
ENDBRANCH   6   9
BRANCH   7  11
HETATM   11  O   UNL     2     -10.087  10.135  66.911  1.00  0.00    -0.203 OA 
BRANCH  11  12
HETATM   12  C   UNL     2     -10.771  11.228  66.243  1.00  0.00    -0.257 C  
HETATM   13  C   UNL     2     -11.342  12.346  67.181  1.00  0.00    -0.390 C  
HETATM   14  C   UNL     2     -12.012  13.544  66.336  1.00  0.00    -0.414 C  
HETATM   15  C   UNL     2     -12.890  13.677  65.029  1.00  0.00    -0.325 C  
HETATM   16  C   UNL     2     -12.031  13.003  63.925  1.00  0.00    -0.551 C  
HETATM   17  C   UNL     2     -10.561  13.057  64.415  1.00  0.00    -0.409 C  
HETATM   18  C   UNL     2     -10.008  11.748  65.011  1.00  0.00    -0.287 C  
HETATM   19  N   UNL     2     -10.653  14.095  65.536  1.00  0.00    -0.309 N  
HETATM   20  C   UNL     2      -9.427  14.309  66.432  1.00  0.00    -0.275 C  
HETATM   21  C   UNL     2     -10.800  15.513  64.885  1.00  0.00    -0.427 C  
ENDBRANCH  11  12
ENDBRANCH   7  11
ENDBRANCH   3   4
TORSDOF 4
ENDMDL
MODEL      117
REMARK 921   NORMALIZED FREE ENERGY PREDICTED BY IDOCK:   -4.12 KCAL/MOL
REMARK 922        TOTAL FREE ENERGY PREDICTED BY IDOCK:   -5.64 KCAL/MOL
REMARK 923 INTER-LIGAND FREE ENERGY PREDICTED BY IDOCK:   -5.05 KCAL/MOL
REMARK 924 INTRA-LIGAND FREE ENERGY PREDICTED BY IDOCK:   -0.59 KCAL/MOL
REMARK 927      BINDING AFFINITY PREDICTED BY RF-SCORE:    0.00 PKD
ROOT
HETATM    1 BR   UNL     1      -6.585   9.303  62.395  1.00  0.00    -0.091 Br 
HETATM    2  C   UNL     2     -12.034  16.266  72.497  1.00  0.00    -0.648 C  
HETATM    3  C   UNL     2     -12.002  15.604  71.126  1.00  0.00    -0.457 C  
ENDROOT
BRANCH   3   4
HETATM    4  C   UNL     2     -10.573  15.481  70.583  1.00  0.00    -0.170 C  
HETATM    5  C   UNL     2     -10.482  14.859  69.167  1.00  0.00    -0.246 C  
HETATM    6  C   UNL     2     -11.314  15.619  68.111  1.00  0.00    -0.340 C  
HETATM    7  C   UNL     2      -9.007  14.675  68.769  1.00  0.00    -0.173 C  
HETATM    8  O   UNL     2      -8.083  14.636  69.570  1.00  0.00    -0.047 OA 
BRANCH   6   9
HETATM    9  C   UNL     2     -10.897  17.081  67.926  1.00  0.00    -0.302 C  
HETATM   10  C   UNL     2     -10.495  17.376  66.490  1.00  0.00    -0.264 C  
ENDBRANCH   6   9
BRANCH   7  11
HETATM   11  O   UNL     2      -8.858  14.468  67.432  1.00  0.00    -0.178 OA 
BRANCH  11  12
HETATM   12  C   UNL     2      -8.938  13.135  66.862  1.00  0.00    -0.209 C  
HETATM   13  C   UNL     2      -8.103  12.031  67.596  1.00  0.00    -0.155 C  
HETATM   14  C   UNL     2      -8.323  10.580  66.929  1.00  0.00    -0.126 C  
HETATM   15  C   UNL     2      -8.496  10.001  65.470  1.00  0.00    -0.155 C  
HETATM   16  C   UNL     2      -9.729  10.757  64.905  1.00  0.00    -0.330 C  
HETATM   17  C   UNL     2     -10.550  11.239  66.129  1.00  0.00    -0.258 C  
HETATM   18  C   UNL     2     -10.379  12.723  66.504  1.00  0.00    -0.262 C  
HETATM   19  N   UNL     2      -9.952  10.387  67.250  1.00  0.00    -0.180 N  
HETATM   20  C   UNL     2     -10.359  10.695  68.695  1.00  0.00    -0.186 C  
HETATM   21  C   UNL     2     -10.485   8.921  67.094  1.00  0.00    -0.274 C  
ENDBRANCH  11  12
ENDBRANCH   7  11
ENDBRANCH   3   4
TORSDOF 4
ENDMDL
MODEL      118
REMARK 921   NORMALIZED FREE ENERGY PREDICTED BY IDOCK:   -4.11 KCAL/MOL
REMARK 922        TOTAL FREE ENERGY PREDICTED BY IDOCK:   -5.64 KCAL/MOL
REMARK 923 INTER-LIGAND FREE ENERGY PREDICTED BY IDOCK:   -4.90 KCAL/MOL
REMARK 924 INTRA-LIGAND FREE ENERGY PREDICTED BY IDOCK:   -0.73 KCAL/MOL
REMARK 927      BINDING AFFINITY PREDICTED BY RF-SCORE:    0.00 PKD
ROOT
HETATM    1 BR   UNL     1      -7.661   6.095  62.879  1.00  0.00    -0.096 Br 
HETATM    2  C   UNL     2     -12.304  15.688  71.042  1.00  0.00    -0.481 C  
HETATM    3  C   UNL     2     -12.392  14.643  69.939  1.00  0.00    -0.341 C  
ENDROOT
BRANCH   3   4
HETATM    4  C   UNL     2     -11.030  14.388  69.282  1.00  0.00    -0.281 C  
HETATM    5  C   UNL     2     -10.954  13.075  68.462  1.00  0.00    -0.290 C  
HETATM    6  C   UNL     2     -12.026  12.984  67.354  1.00  0.00    -0.372 C  
HETATM    7  C   UNL     2      -9.520  12.861  67.947  1.00  0.00    -0.208 C  
HETATM    8  O   UNL     2      -8.533  13.396  68.433  1.00  0.00    -0.165 OA 
BRANCH   6   9
HETATM    9  C   UNL     2     -11.940  14.104  66.313  1.00  0.00    -0.448 C  
HETATM   10  C   UNL     2     -11.852  13.554  64.898  1.00  0.00    -0.402 C  
ENDBRANCH   6   9
BRANCH   7  11
HETATM   11  O   UNL     2      -9.465  11.935  66.951  1.00  0.00    -0.190 OA 
BRANCH  11  12
HETATM   12  C   UNL     2      -9.554  10.514  67.235  1.00  0.00    -0.163 C  
HETATM   13  C   UNL     2      -9.870   9.594  66.007  1.00  0.00    -0.345 C  
HETATM   14  C   UNL     2      -9.871   8.036  66.418  1.00  0.00    -0.167 C  
HETATM   15  C   UNL     2     -10.345   7.174  67.654  1.00  0.00    -0.276 C  
HETATM   16  C   UNL     2      -9.573   7.780  68.858  1.00  0.00    -0.154 C  
HETATM   17  C   UNL     2      -8.320   8.480  68.270  1.00  0.00    -0.124 C  
HETATM   18  C   UNL     2      -8.413  10.013  68.140  1.00  0.00    -0.114 C  
HETATM   19  N   UNL     2      -8.268   7.880  66.864  1.00  0.00    -0.114 N  
HETATM   20  C   UNL     2      -7.266   8.463  65.861  1.00  0.00    -0.072 C  
HETATM   21  C   UNL     2      -7.756   6.403  66.977  1.00  0.00    -0.100 C  
ENDBRANCH  11  12
ENDBRANCH   7  11
ENDBRANCH   3   4
TORSDOF 4
ENDMDL
MODEL      119
REMARK 921   NORMALIZED FREE ENERGY PREDICTED BY IDOCK:   -4.11 KCAL/MOL
REMARK 922        TOTAL FREE ENERGY PREDICTED BY IDOCK:   -5.63 KCAL/MOL
REMARK 923 INTER-LIGAND FREE ENERGY PREDICTED BY IDOCK:   -4.95 KCAL/MOL
REMARK 924 INTRA-LIGAND FREE ENERGY PREDICTED BY IDOCK:   -0.69 KCAL/MOL
REMARK 927      BINDING AFFINITY PREDICTED BY RF-SCORE:    0.00 PKD
ROOT
HETATM    1 BR   UNL     1     -11.325  11.944  63.629  1.00  0.00    -0.539 Br 
HETATM    2  C   UNL     2     -10.476   3.894  74.338  1.00  0.00    -0.269 C  
HETATM    3  C   UNL     2     -11.028   4.372  73.002  1.00  0.00    -0.289 C  
ENDROOT
BRANCH   3   4
HETATM    4  C   UNL     2     -10.800   5.874  72.794  1.00  0.00    -0.289 C  
HETATM    5  C   UNL     2      -9.603   6.215  71.872  1.00  0.00    -0.166 C  
HETATM    6  C   UNL     2      -9.703   5.564  70.475  1.00  0.00    -0.241 C  
HETATM    7  C   UNL     2      -9.394   7.739  71.824  1.00  0.00    -0.141 C  
HETATM    8  O   UNL     2      -9.819   8.513  72.671  1.00  0.00    -0.281 OA 
BRANCH   6   9
HETATM    9  C   UNL     2     -10.943   5.984  69.681  1.00  0.00    -0.470 C  
HETATM   10  C   UNL     2     -10.736   5.822  68.183  1.00  0.00    -0.288 C  
ENDBRANCH   6   9
BRANCH   7  11
HETATM   11  O   UNL     2      -8.604   8.117  70.783  1.00  0.00    -0.126 OA 
BRANCH  11  12
HETATM   12  C   UNL     2      -9.158   8.789  69.621  1.00  0.00    -0.149 C  
HETATM   13  C   UNL     2      -9.813  10.186  69.892  1.00  0.00    -0.223 C  
HETATM   14  C   UNL     2     -10.325  10.875  68.528  1.00  0.00    -0.187 C  
HETATM   15  C   UNL     2     -11.016  10.399  67.190  1.00  0.00    -0.263 C  
HETATM   16  C   UNL     2     -10.040   9.336  66.615  1.00  0.00    -0.341 C  
HETATM   17  C   UNL     2      -8.647   9.643  67.225  1.00  0.00    -0.132 C  
HETATM   18  C   UNL     2      -8.221   8.741  68.399  1.00  0.00    -0.118 C  
HETATM   19  N   UNL     2      -8.854  11.062  67.757  1.00  0.00    -0.132 N  
HETATM   20  C   UNL     2      -7.753  11.681  68.626  1.00  0.00    -0.134 C  
HETATM   21  C   UNL     2      -8.868  12.049  66.540  1.00  0.00    -0.172 C  
ENDBRANCH  11  12
ENDBRANCH   7  11
ENDBRANCH   3   4
TORSDOF 4
ENDMDL
MODEL      120
REMARK 921   NORMALIZED FREE ENERGY PREDICTED BY IDOCK:   -4.11 KCAL/MOL
REMARK 922        TOTAL FREE ENERGY PREDICTED BY IDOCK:   -5.62 KCAL/MOL
REMARK 923 INTER-LIGAND FREE ENERGY PREDICTED BY IDOCK:   -4.89 KCAL/MOL
REMARK 924 INTRA-LIGAND FREE ENERGY PREDICTED BY IDOCK:   -0.73 KCAL/MOL
REMARK 927      BINDING AFFINITY PREDICTED BY RF-SCORE:    0.00 PKD
ROOT
HETATM    1 BR   UNL     1      -6.001   4.476  72.914  1.00  0.00    -0.013 Br 
HETATM    2  C   UNL     2     -11.577  15.791  68.322  1.00  0.00    -0.302 C  
HETATM    3  C   UNL     2     -11.569  14.400  68.940  1.00  0.00    -0.340 C  
ENDROOT
BRANCH   3   4
HETATM    4  C   UNL     2     -10.322  13.602  68.538  1.00  0.00    -0.244 C  
HETATM    5  C   UNL     2     -10.605  12.126  68.163  1.00  0.00    -0.236 C  
HETATM    6  C   UNL     2     -11.639  11.971  67.027  1.00  0.00    -0.387 C  
HETATM    7  C   UNL     2      -9.281  11.391  67.890  1.00  0.00    -0.164 C  
HETATM    8  O   UNL     2      -8.191  11.775  68.294  1.00  0.00    -0.144 OA 
BRANCH   6   9
HETATM    9  C   UNL     2     -11.223  12.638  65.713  1.00  0.00    -0.347 C  
HETATM   10  C   UNL     2     -11.126  11.633  64.576  1.00  0.00    -0.365 C  
ENDBRANCH   6   9
BRANCH   7  11
HETATM   11  O   UNL     2      -9.471  10.217  67.230  1.00  0.00    -0.151 OA 
BRANCH  11  12
HETATM   12  C   UNL     2      -9.830   9.002  67.939  1.00  0.00    -0.171 C  
HETATM   13  C   UNL     2     -10.530   7.895  67.079  1.00  0.00    -0.419 C  
HETATM   14  C   UNL     2     -10.816   6.565  67.943  1.00  0.00    -0.304 C  
HETATM   15  C   UNL     2     -11.274   6.229  69.417  1.00  0.00    -0.489 C  
HETATM   16  C   UNL     2     -10.209   6.920  70.312  1.00  0.00    -0.208 C  
HETATM   17  C   UNL     2      -8.937   7.082  69.439  1.00  0.00    -0.139 C  
HETATM   18  C   UNL     2      -8.704   8.490  68.857  1.00  0.00    -0.131 C  
HETATM   19  N   UNL     2      -9.239   6.127  68.282  1.00  0.00    -0.115 N  
HETATM   20  C   UNL     2      -8.300   6.132  67.071  1.00  0.00    -0.105 C  
HETATM   21  C   UNL     2      -9.059   4.657  68.796  1.00  0.00    -0.116 C  
ENDBRANCH  11  12
ENDBRANCH   7  11
ENDBRANCH   3   4
TORSDOF 4
ENDMDL
MODEL      121
REMARK 921   NORMALIZED FREE ENERGY PREDICTED BY IDOCK:   -4.09 KCAL/MOL
REMARK 922        TOTAL FREE ENERGY PREDICTED BY IDOCK:   -5.61 KCAL/MOL
REMARK 923 INTER-LIGAND FREE ENERGY PREDICTED BY IDOCK:   -4.78 KCAL/MOL
REMARK 924 INTRA-LIGAND FREE ENERGY PREDICTED BY IDOCK:   -0.83 KCAL/MOL
REMARK 927      BINDING AFFINITY PREDICTED BY RF-SCORE:    0.00 PKD
ROOT
HETATM    1 BR   UNL     1      -6.691   5.602  72.467  1.00  0.00    -0.074 Br 
HETATM    2  C   UNL     2     -10.264  16.900  66.159  1.00  0.00    -0.352 C  
HETATM    3  C   UNL     2     -10.499  15.599  66.913  1.00  0.00    -0.307 C  
ENDROOT
BRANCH   3   4
HETATM    4  C   UNL     2      -9.335  14.616  66.734  1.00  0.00    -0.275 C  
HETATM    5  C   UNL     2      -9.724  13.128  66.915  1.00  0.00    -0.243 C  
HETATM    6  C   UNL     2     -10.861  12.674  65.974  1.00  0.00    -0.306 C  
HETATM    7  C   UNL     2      -8.469  12.243  66.831  1.00  0.00    -0.159 C  
HETATM    8  O   UNL     2      -7.330  12.655  67.004  1.00  0.00    -0.082 OA 
BRANCH   6   9
HETATM    9  C   UNL     2     -10.528  12.815  64.485  1.00  0.00    -0.392 C  
HETATM   10  C   UNL     2     -10.523  11.470  63.778  1.00  0.00    -0.459 C  
ENDBRANCH   6   9
BRANCH   7  11
HETATM   11  O   UNL     2      -8.776  10.932  66.634  1.00  0.00    -0.146 OA 
BRANCH  11  12
HETATM   12  C   UNL     2      -9.028  10.040  67.751  1.00  0.00    -0.131 C  
HETATM   13  C   UNL     2      -8.862  10.672  69.175  1.00  0.00    -0.133 C  
HETATM   14  C   UNL     2      -9.237   9.621  70.338  1.00  0.00    -0.202 C  
HETATM   15  C   UNL     2      -9.039   8.075  70.597  1.00  0.00    -0.154 C  
HETATM   16  C   UNL     2      -9.719   7.396  69.377  1.00  0.00    -0.159 C  
HETATM   17  C   UNL     2     -10.746   8.416  68.820  1.00  0.00    -0.051 C  
HETATM   18  C   UNL     2     -10.301   9.193  67.566  1.00  0.00    -0.324 C  
HETATM   19  N   UNL     2     -10.856   9.402  69.984  1.00  0.00    -0.232 N  
HETATM   20  C   UNL     2     -11.643  10.700  69.766  1.00  0.00    -0.309 C  
HETATM   21  C   UNL     2     -11.695   8.729  71.124  1.00  0.00    -0.291 C  
ENDBRANCH  11  12
ENDBRANCH   7  11
ENDBRANCH   3   4
TORSDOF 4
ENDMDL
MODEL      122
REMARK 921   NORMALIZED FREE ENERGY PREDICTED BY IDOCK:   -4.09 KCAL/MOL
REMARK 922        TOTAL FREE ENERGY PREDICTED BY IDOCK:   -5.61 KCAL/MOL
REMARK 923 INTER-LIGAND FREE ENERGY PREDICTED BY IDOCK:   -5.00 KCAL/MOL
REMARK 924 INTRA-LIGAND FREE ENERGY PREDICTED BY IDOCK:   -0.60 KCAL/MOL
REMARK 927      BINDING AFFINITY PREDICTED BY RF-SCORE:    0.00 PKD
ROOT
HETATM    1 BR   UNL     1      -5.382  18.557  66.277  1.00  0.00    -0.184 Br 
HETATM    2  C   UNL     2      -7.779   5.560  68.631  1.00  0.00    -0.088 C  
HETATM    3  C   UNL     2      -7.742   6.835  67.802  1.00  0.00    -0.111 C  
ENDROOT
BRANCH   3   4
HETATM    4  C   UNL     2      -7.792   8.091  68.681  1.00  0.00    -0.118 C  
HETATM    5  C   UNL     2      -8.996   9.022  68.393  1.00  0.00    -0.133 C  
HETATM    6  C   UNL     2     -10.362   8.313  68.522  1.00  0.00    -0.230 C  
HETATM    7  C   UNL     2      -8.887  10.300  69.243  1.00  0.00    -0.177 C  
HETATM    8  O   UNL     2      -7.844  10.701  69.742  1.00  0.00    -0.106 OA 
BRANCH   6   9
HETATM    9  C   UNL     2     -10.634   7.737  69.915  1.00  0.00    -0.239 C  
HETATM   10  C   UNL     2     -11.309   6.377  69.842  1.00  0.00    -0.500 C  
ENDBRANCH   6   9
BRANCH   7  11
HETATM   11  O   UNL     2     -10.063  10.982  69.300  1.00  0.00    -0.189 OA 
BRANCH  11  12
HETATM   12  C   UNL     2     -10.370  12.037  68.350  1.00  0.00    -0.214 C  
HETATM   13  C   UNL     2     -11.624  12.912  68.689  1.00  0.00    -0.353 C  
HETATM   14  C   UNL     2     -11.830  14.096  67.615  1.00  0.00    -0.392 C  
HETATM   15  C   UNL     2     -11.672  14.269  66.053  1.00  0.00    -0.384 C  
HETATM   16  C   UNL     2     -10.190  13.895  65.777  1.00  0.00    -0.331 C  
HETATM   17  C   UNL     2      -9.426  14.110  67.109  1.00  0.00    -0.236 C  
HETATM   18  C   UNL     2      -9.125  12.834  67.918  1.00  0.00    -0.204 C  
HETATM   19  N   UNL     2     -10.426  14.957  67.900  1.00  0.00    -0.248 N  
HETATM   20  C   UNL     2     -10.135  15.233  69.380  1.00  0.00    -0.264 C  
HETATM   21  C   UNL     2     -10.413  16.410  67.314  1.00  0.00    -0.303 C  
ENDBRANCH  11  12
ENDBRANCH   7  11
ENDBRANCH   3   4
TORSDOF 4
ENDMDL
MODEL      123
REMARK 921   NORMALIZED FREE ENERGY PREDICTED BY IDOCK:   -4.09 KCAL/MOL
REMARK 922        TOTAL FREE ENERGY PREDICTED BY IDOCK:   -5.60 KCAL/MOL
REMARK 923 INTER-LIGAND FREE ENERGY PREDICTED BY IDOCK:   -5.06 KCAL/MOL
REMARK 924 INTRA-LIGAND FREE ENERGY PREDICTED BY IDOCK:   -0.55 KCAL/MOL
REMARK 927      BINDING AFFINITY PREDICTED BY RF-SCORE:    0.00 PKD
ROOT
HETATM    1 BR   UNL     1      -7.668   5.331  73.160  1.00  0.00    -0.097 Br 
HETATM    2  C   UNL     2     -10.909  17.158  67.699  1.00  0.00    -0.241 C  
HETATM    3  C   UNL     2     -11.122  15.926  68.567  1.00  0.00    -0.340 C  
ENDROOT
BRANCH   3   4
HETATM    4  C   UNL     2     -10.299  14.730  68.075  1.00  0.00    -0.237 C  
HETATM    5  C   UNL     2     -11.147  13.510  67.639  1.00  0.00    -0.290 C  
HETATM    6  C   UNL     2     -12.179  13.844  66.540  1.00  0.00    -0.482 C  
HETATM    7  C   UNL     2     -10.225  12.332  67.275  1.00  0.00    -0.210 C  
HETATM    8  O   UNL     2      -9.066  12.232  67.652  1.00  0.00    -0.170 OA 
BRANCH   6   9
HETATM    9  C   UNL     2     -11.558  14.375  65.244  1.00  0.00    -0.353 C  
HETATM   10  C   UNL     2     -11.992  13.562  64.035  1.00  0.00    -0.501 C  
ENDBRANCH   6   9
BRANCH   7  11
HETATM   11  O   UNL     2     -10.876  11.370  66.565  1.00  0.00    -0.271 OA 
BRANCH  11  12
HETATM   12  C   UNL     2     -10.669   9.960  66.841  1.00  0.00    -0.125 C  
HETATM   13  C   UNL     2      -9.555   9.258  65.992  1.00  0.00    -0.338 C  
HETATM   14  C   UNL     2      -9.357   7.720  66.430  1.00  0.00    -0.181 C  
HETATM   15  C   UNL     2     -10.288   6.524  66.875  1.00  0.00    -0.311 C  
HETATM   16  C   UNL     2     -11.043   7.072  68.116  1.00  0.00    -0.097 C  
HETATM   17  C   UNL     2     -10.169   8.215  68.694  1.00  0.00    -0.207 C  
HETATM   18  C   UNL     2     -10.628   9.645  68.348  1.00  0.00    -0.264 C  
HETATM   19  N   UNL     2      -8.831   7.957  67.998  1.00  0.00    -0.125 N  
HETATM   20  C   UNL     2      -7.719   9.001  68.148  1.00  0.00    -0.096 C  
HETATM   21  C   UNL     2      -8.162   6.706  68.665  1.00  0.00    -0.119 C  
ENDBRANCH  11  12
ENDBRANCH   7  11
ENDBRANCH   3   4
TORSDOF 4
ENDMDL
MODEL      124
REMARK 921   NORMALIZED FREE ENERGY PREDICTED BY IDOCK:   -4.08 KCAL/MOL
REMARK 922        TOTAL FREE ENERGY PREDICTED BY IDOCK:   -5.59 KCAL/MOL
REMARK 923 INTER-LIGAND FREE ENERGY PREDICTED BY IDOCK:   -4.92 KCAL/MOL
REMARK 924 INTRA-LIGAND FREE ENERGY PREDICTED BY IDOCK:   -0.67 KCAL/MOL
REMARK 927      BINDING AFFINITY PREDICTED BY RF-SCORE:    0.00 PKD
ROOT
HETATM    1 BR   UNL     1      -9.927   4.037  64.866  1.00  0.00    -0.200 Br 
HETATM    2  C   UNL     2     -13.045  15.503  71.112  1.00  0.00    -0.573 C  
HETATM    3  C   UNL     2     -12.465  14.644  69.997  1.00  0.00    -0.333 C  
ENDROOT
BRANCH   3   4
HETATM    4  C   UNL     2     -12.078  13.246  70.494  1.00  0.00    -0.391 C  
HETATM    5  C   UNL     2     -12.129  12.146  69.404  1.00  0.00    -0.247 C  
HETATM    6  C   UNL     2     -11.248  12.460  68.176  1.00  0.00    -0.313 C  
HETATM    7  C   UNL     2     -11.838  10.771  70.032  1.00  0.00    -0.344 C  
HETATM    8  O   UNL     2     -11.953  10.528  71.226  1.00  0.00    -0.345 OA 
BRANCH   6   9
HETATM    9  C   UNL     2      -9.761  12.620  68.503  1.00  0.00    -0.131 C  
HETATM   10  C   UNL     2      -9.243  13.997  68.119  1.00  0.00    -0.196 C  
ENDBRANCH   6   9
BRANCH   7  11
HETATM   11  O   UNL     2     -11.527   9.834  69.096  1.00  0.00    -0.066 OA 
BRANCH  11  12
HETATM   12  C   UNL     2     -10.598   8.757  69.386  1.00  0.00    -0.209 C  
HETATM   13  C   UNL     2      -9.174   9.199  69.869  1.00  0.00    -0.194 C  
HETATM   14  C   UNL     2      -8.251   7.929  70.235  1.00  0.00    -0.124 C  
HETATM   15  C   UNL     2      -8.009   6.480  69.655  1.00  0.00    -0.120 C  
HETATM   16  C   UNL     2      -9.415   5.820  69.682  1.00  0.00    -0.174 C  
HETATM   17  C   UNL     2     -10.238   6.581  70.754  1.00  0.00    -0.187 C  
HETATM   18  C   UNL     2     -11.236   7.623  70.212  1.00  0.00    -0.230 C  
HETATM   19  N   UNL     2      -9.136   7.320  71.515  1.00  0.00    -0.140 N  
HETATM   20  C   UNL     2      -9.548   8.364  72.560  1.00  0.00    -0.288 C  
HETATM   21  C   UNL     2      -8.374   6.283  72.409  1.00  0.00    -0.111 C  
ENDBRANCH  11  12
ENDBRANCH   7  11
ENDBRANCH   3   4
TORSDOF 4
ENDMDL
MODEL      125
REMARK 921   NORMALIZED FREE ENERGY PREDICTED BY IDOCK:   -4.05 KCAL/MOL
REMARK 922        TOTAL FREE ENERGY PREDICTED BY IDOCK:   -5.56 KCAL/MOL
REMARK 923 INTER-LIGAND FREE ENERGY PREDICTED BY IDOCK:   -5.17 KCAL/MOL
REMARK 924 INTRA-LIGAND FREE ENERGY PREDICTED BY IDOCK:   -0.39 KCAL/MOL
REMARK 927      BINDING AFFINITY PREDICTED BY RF-SCORE:    0.00 PKD
ROOT
HETATM    1 BR   UNL     1     -10.563  19.341  67.204  1.00  0.00    -0.590 Br 
HETATM    2  C   UNL     2      -7.236   6.654  70.068  1.00  0.00    -0.080 C  
HETATM    3  C   UNL     2      -6.985   8.141  69.861  1.00  0.00    -0.048 C  
ENDROOT
BRANCH   3   4
HETATM    4  C   UNL     2      -8.022   8.772  68.924  1.00  0.00    -0.105 C  
HETATM    5  C   UNL     2      -8.443  10.210  69.315  1.00  0.00    -0.167 C  
HETATM    6  C   UNL     2      -7.253  11.190  69.414  1.00  0.00    -0.091 C  
HETATM    7  C   UNL     2      -9.565  10.701  68.384  1.00  0.00    -0.168 C  
HETATM    8  O   UNL     2     -10.281   9.957  67.727  1.00  0.00    -0.173 OA 
BRANCH   6   9
HETATM    9  C   UNL     2      -6.471  11.351  68.107  1.00  0.00    -0.056 C  
HETATM   10  C   UNL     2      -6.186  12.811  67.796  1.00  0.00    -0.138 C  
ENDBRANCH   6   9
BRANCH   7  11
HETATM   11  O   UNL     2      -9.732  12.050  68.446  1.00  0.00    -0.208 OA 
BRANCH  11  12
HETATM   12  C   UNL     2     -10.352  12.785  67.357  1.00  0.00    -0.222 C  
HETATM   13  C   UNL     2      -9.435  13.065  66.118  1.00  0.00    -0.159 C  
HETATM   14  C   UNL     2     -10.240  13.816  64.942  1.00  0.00    -0.348 C  
HETATM   15  C   UNL     2     -11.345  14.941  64.843  1.00  0.00    -0.415 C  
HETATM   16  C   UNL     2     -12.528  14.385  65.682  1.00  0.00    -0.345 C  
HETATM   17  C   UNL     2     -12.359  12.844  65.716  1.00  0.00    -0.375 C  
HETATM   18  C   UNL     2     -11.761  12.268  67.013  1.00  0.00    -0.399 C  
HETATM   19  N   UNL     2     -11.355  12.624  64.583  1.00  0.00    -0.306 N  
HETATM   20  C   UNL     2     -10.757  11.224  64.403  1.00  0.00    -0.339 C  
HETATM   21  C   UNL     2     -12.102  12.810  63.217  1.00  0.00    -0.439 C  
ENDBRANCH  11  12
ENDBRANCH   7  11
ENDBRANCH   3   4
TORSDOF 4
ENDMDL
MODEL      126
REMARK 921   NORMALIZED FREE ENERGY PREDICTED BY IDOCK:   -4.05 KCAL/MOL
REMARK 922        TOTAL FREE ENERGY PREDICTED BY IDOCK:   -5.56 KCAL/MOL
REMARK 923 INTER-LIGAND FREE ENERGY PREDICTED BY IDOCK:   -4.85 KCAL/MOL
REMARK 924 INTRA-LIGAND FREE ENERGY PREDICTED BY IDOCK:   -0.71 KCAL/MOL
REMARK 927      BINDING AFFINITY PREDICTED BY RF-SCORE:    0.00 PKD
ROOT
HETATM    1 BR   UNL     1      -7.952   2.687  68.882  1.00  0.00    -0.066 Br 
HETATM    2  C   UNL     2     -10.370  15.803  67.353  1.00  0.00    -0.282 C  
HETATM    3  C   UNL     2     -10.731  14.346  67.604  1.00  0.00    -0.263 C  
ENDROOT
BRANCH   3   4
HETATM    4  C   UNL     2      -9.700  13.387  66.996  1.00  0.00    -0.239 C  
HETATM    5  C   UNL     2     -10.248  11.969  66.697  1.00  0.00    -0.229 C  
HETATM    6  C   UNL     2     -11.481  11.973  65.768  1.00  0.00    -0.377 C  
HETATM    7  C   UNL     2      -9.109  11.061  66.201  1.00  0.00    -0.192 C  
HETATM    8  O   UNL     2      -7.922  11.285  66.397  1.00  0.00    -0.164 OA 
BRANCH   6   9
HETATM    9  C   UNL     2     -11.220  12.591  64.391  1.00  0.00    -0.388 C  
HETATM   10  C   UNL     2     -12.265  13.636  64.034  1.00  0.00    -0.443 C  
ENDBRANCH   6   9
BRANCH   7  11
HETATM   11  O   UNL     2      -9.576   9.932  65.601  1.00  0.00    -0.215 OA 
BRANCH  11  12
HETATM   12  C   UNL     2      -9.712   8.688  66.337  1.00  0.00    -0.263 C  
HETATM   13  C   UNL     2      -8.427   7.793  66.401  1.00  0.00    -0.136 C  
HETATM   14  C   UNL     2      -8.664   6.478  67.302  1.00  0.00    -0.110 C  
HETATM   15  C   UNL     2      -9.839   5.451  67.547  1.00  0.00    -0.173 C  
HETATM   16  C   UNL     2     -11.022   6.336  68.028  1.00  0.00    -0.418 C  
HETATM   17  C   UNL     2     -10.397   7.632  68.605  1.00  0.00    -0.200 C  
HETATM   18  C   UNL     2     -10.443   8.864  67.681  1.00  0.00    -0.320 C  
HETATM   19  N   UNL     2      -8.935   7.214  68.777  1.00  0.00    -0.129 N  
HETATM   20  C   UNL     2      -7.910   8.290  69.152  1.00  0.00    -0.106 C  
HETATM   21  C   UNL     2      -8.837   6.260  70.017  1.00  0.00    -0.142 C  
ENDBRANCH  11  12
ENDBRANCH   7  11
ENDBRANCH   3   4
TORSDOF 4
ENDMDL
MODEL      127
REMARK 921   NORMALIZED FREE ENERGY PREDICTED BY IDOCK:   -4.05 KCAL/MOL
REMARK 922        TOTAL FREE ENERGY PREDICTED BY IDOCK:   -5.55 KCAL/MOL
REMARK 923 INTER-LIGAND FREE ENERGY PREDICTED BY IDOCK:   -4.75 KCAL/MOL
REMARK 924 INTRA-LIGAND FREE ENERGY PREDICTED BY IDOCK:   -0.80 KCAL/MOL
REMARK 927      BINDING AFFINITY PREDICTED BY RF-SCORE:    0.00 PKD
ROOT
HETATM    1 BR   UNL     1      -9.944   6.511  74.359  1.00  0.00    -0.349 Br 
HETATM    2  C   UNL     2      -9.915  16.906  65.864  1.00  0.00    -0.274 C  
HETATM    3  C   UNL     2     -10.538  15.889  66.810  1.00  0.00    -0.309 C  
ENDROOT
BRANCH   3   4
HETATM    4  C   UNL     2      -9.695  14.612  66.914  1.00  0.00    -0.249 C  
HETATM    5  C   UNL     2     -10.379  13.459  67.691  1.00  0.00    -0.238 C  
HETATM    6  C   UNL     2     -11.752  13.060  67.108  1.00  0.00    -0.439 C  
HETATM    7  C   UNL     2      -9.407  12.275  67.835  1.00  0.00    -0.190 C  
HETATM    8  O   UNL     2      -8.192  12.371  67.728  1.00  0.00    -0.141 OA 
BRANCH   6   9
HETATM    9  C   UNL     2     -11.695  12.577  65.656  1.00  0.00    -0.473 C  
HETATM   10  C   UNL     2     -12.454  13.504  64.722  1.00  0.00    -0.402 C  
ENDBRANCH   6   9
BRANCH   7  11
HETATM   11  O   UNL     2     -10.046  11.126  68.188  1.00  0.00    -0.169 OA 
BRANCH  11  12
HETATM   12  C   UNL     2      -9.577   9.830  67.730  1.00  0.00    -0.135 C  
HETATM   13  C   UNL     2      -8.694   9.029  68.746  1.00  0.00    -0.136 C  
HETATM   14  C   UNL     2      -8.292   7.579  68.168  1.00  0.00    -0.125 C  
HETATM   15  C   UNL     2      -7.882   6.975  66.768  1.00  0.00    -0.107 C  
HETATM   16  C   UNL     2      -9.076   7.324  65.838  1.00  0.00    -0.064 C  
HETATM   17  C   UNL     2     -10.305   7.537  66.760  1.00  0.00    -0.262 C  
HETATM   18  C   UNL     2     -10.681   9.004  67.043  1.00  0.00    -0.185 C  
HETATM   19  N   UNL     2      -9.818   6.905  68.066  1.00  0.00    -0.136 N  
HETATM   20  C   UNL     2     -10.678   7.077  69.323  1.00  0.00    -0.225 C  
HETATM   21  C   UNL     2      -9.839   5.346  67.898  1.00  0.00    -0.144 C  
ENDBRANCH  11  12
ENDBRANCH   7  11
ENDBRANCH   3   4
TORSDOF 4
ENDMDL
MODEL      128
REMARK 921   NORMALIZED FREE ENERGY PREDICTED BY IDOCK:   -4.04 KCAL/MOL
REMARK 922        TOTAL FREE ENERGY PREDICTED BY IDOCK:   -5.54 KCAL/MOL
REMARK 923 INTER-LIGAND FREE ENERGY PREDICTED BY IDOCK:   -5.39 KCAL/MOL
REMARK 924 INTRA-LIGAND FREE ENERGY PREDICTED BY IDOCK:   -0.15 KCAL/MOL
REMARK 927      BINDING AFFINITY PREDICTED BY RF-SCORE:    0.00 PKD
ROOT
HETATM    1 BR   UNL     1     -13.231  15.184  72.611  1.00  0.00    -0.600 Br 
HETATM    2  C   UNL     2      -8.147   8.030  62.453  1.00  0.00    -0.163 C  
HETATM    3  C   UNL     2      -8.340   8.428  63.910  1.00  0.00    -0.063 C  
ENDROOT
BRANCH   3   4
HETATM    4  C   UNL     2      -8.782   9.890  64.050  1.00  0.00    -0.229 C  
HETATM    5  C   UNL     2      -9.758  10.149  65.225  1.00  0.00    -0.365 C  
HETATM    6  C   UNL     2      -9.200   9.702  66.594  1.00  0.00    -0.187 C  
HETATM    7  C   UNL     2     -10.227  11.615  65.204  1.00  0.00    -0.274 C  
HETATM    8  O   UNL     2     -10.174  12.334  64.216  1.00  0.00    -0.314 OA 
BRANCH   6   9
HETATM    9  C   UNL     2      -7.902  10.409  66.997  1.00  0.00    -0.112 C  
HETATM   10  C   UNL     2      -7.416   9.960  68.365  1.00  0.00    -0.082 C  
ENDBRANCH   6   9
BRANCH   7  11
HETATM   11  O   UNL     2     -10.793  11.990  66.383  1.00  0.00    -0.256 OA 
BRANCH  11  12
HETATM   12  C   UNL     2     -10.626  13.335  66.906  1.00  0.00    -0.264 C  
HETATM   13  C   UNL     2     -11.948  14.141  67.140  1.00  0.00    -0.460 C  
HETATM   14  C   UNL     2     -11.655  15.586  67.791  1.00  0.00    -0.187 C  
HETATM   15  C   UNL     2     -10.559  16.714  67.637  1.00  0.00    -0.321 C  
HETATM   16  C   UNL     2      -9.222  15.989  67.951  1.00  0.00    -0.196 C  
HETATM   17  C   UNL     2      -9.583  14.751  68.813  1.00  0.00    -0.215 C  
HETATM   18  C   UNL     2      -9.614  13.405  68.065  1.00  0.00    -0.219 C  
HETATM   19  N   UNL     2     -11.009  15.092  69.251  1.00  0.00    -0.252 N  
HETATM   20  C   UNL     2     -11.824  14.016  69.977  1.00  0.00    -0.320 C  
HETATM   21  C   UNL     2     -10.935  16.207  70.350  1.00  0.00    -0.309 C  
ENDBRANCH  11  12
ENDBRANCH   7  11
ENDBRANCH   3   4
TORSDOF 4
ENDMDL
MODEL      129
REMARK 921   NORMALIZED FREE ENERGY PREDICTED BY IDOCK:   -4.03 KCAL/MOL
REMARK 922        TOTAL FREE ENERGY PREDICTED BY IDOCK:   -5.54 KCAL/MOL
REMARK 923 INTER-LIGAND FREE ENERGY PREDICTED BY IDOCK:   -4.91 KCAL/MOL
REMARK 924 INTRA-LIGAND FREE ENERGY PREDICTED BY IDOCK:   -0.63 KCAL/MOL
REMARK 927      BINDING AFFINITY PREDICTED BY RF-SCORE:    0.00 PKD
ROOT
HETATM    1 BR   UNL     1     -11.054  15.052  65.073  1.00  0.00    -0.433 Br 
HETATM    2  C   UNL     2      -9.545   4.048  72.613  1.00  0.00    -0.185 C  
HETATM    3  C   UNL     2     -10.236   4.955  71.605  1.00  0.00    -0.267 C  
ENDROOT
BRANCH   3   4
HETATM    4  C   UNL     2      -9.855   6.427  71.802  1.00  0.00    -0.178 C  
HETATM    5  C   UNL     2     -10.365   7.372  70.686  1.00  0.00    -0.217 C  
HETATM    6  C   UNL     2     -11.895   7.314  70.488  1.00  0.00    -0.237 C  
HETATM    7  C   UNL     2      -9.831   8.797  70.920  1.00  0.00    -0.222 C  
HETATM    8  O   UNL     2      -8.856   9.055  71.612  1.00  0.00    -0.329 OA 
BRANCH   6   9
HETATM    9  C   UNL     2     -12.698   7.705  71.732  1.00  0.00    -0.356 C  
HETATM   10  C   UNL     2     -14.183   7.427  71.557  1.00  0.00    -0.571 C  
ENDBRANCH   6   9
BRANCH   7  11
HETATM   11  O   UNL     2     -10.511   9.726  70.194  1.00  0.00    -0.247 OA 
BRANCH  11  12
HETATM   12  C   UNL     2     -10.016  10.191  68.911  1.00  0.00    -0.199 C  
HETATM   13  C   UNL     2      -8.540  10.718  68.903  1.00  0.00    -0.155 C  
HETATM   14  C   UNL     2      -8.068  11.136  67.420  1.00  0.00    -0.132 C  
HETATM   15  C   UNL     2      -8.717  11.841  66.164  1.00  0.00    -0.057 C  
HETATM   16  C   UNL     2      -9.947  10.956  65.826  1.00  0.00    -0.299 C  
HETATM   17  C   UNL     2      -9.659   9.553  66.422  1.00  0.00    -0.213 C  
HETATM   18  C   UNL     2     -10.366   9.237  67.753  1.00  0.00    -0.292 C  
HETATM   19  N   UNL     2      -8.154   9.638  66.684  1.00  0.00    -0.118 N  
HETATM   20  C   UNL     2      -7.486   8.502  67.467  1.00  0.00    -0.093 C  
HETATM   21  C   UNL     2      -7.407   9.536  65.310  1.00  0.00    -0.104 C  
ENDBRANCH  11  12
ENDBRANCH   7  11
ENDBRANCH   3   4
TORSDOF 4
ENDMDL
MODEL      130
REMARK 921   NORMALIZED FREE ENERGY PREDICTED BY IDOCK:   -4.02 KCAL/MOL
REMARK 922        TOTAL FREE ENERGY PREDICTED BY IDOCK:   -5.52 KCAL/MOL
REMARK 923 INTER-LIGAND FREE ENERGY PREDICTED BY IDOCK:   -4.85 KCAL/MOL
REMARK 924 INTRA-LIGAND FREE ENERGY PREDICTED BY IDOCK:   -0.66 KCAL/MOL
REMARK 927      BINDING AFFINITY PREDICTED BY RF-SCORE:    0.00 PKD
ROOT
HETATM    1 BR   UNL     1      -5.169  13.844  74.253  1.00  0.00    -0.031 Br 
HETATM    2  C   UNL     2     -12.689  12.102  63.269  1.00  0.00    -0.417 C  
HETATM    3  C   UNL     2     -12.431  12.355  64.748  1.00  0.00    -0.480 C  
ENDROOT
BRANCH   3   4
HETATM    4  C   UNL     2     -11.077  11.792  65.197  1.00  0.00    -0.341 C  
HETATM    5  C   UNL     2     -10.369  12.633  66.289  1.00  0.00    -0.269 C  
HETATM    6  C   UNL     2     -11.227  12.837  67.556  1.00  0.00    -0.332 C  
HETATM    7  C   UNL     2      -8.976  12.047  66.580  1.00  0.00    -0.204 C  
HETATM    8  O   UNL     2      -8.369  11.314  65.812  1.00  0.00    -0.106 OA 
BRANCH   6   9
HETATM    9  C   UNL     2     -11.621  11.533  68.257  1.00  0.00    -0.378 C  
HETATM   10  C   UNL     2     -11.846  11.738  69.746  1.00  0.00    -0.420 C  
ENDBRANCH   6   9
BRANCH   7  11
HETATM   11  O   UNL     2      -8.456  12.514  67.749  1.00  0.00    -0.149 OA 
BRANCH  11  12
HETATM   12  C   UNL     2      -7.949  13.870  67.860  1.00  0.00    -0.160 C  
HETATM   13  C   UNL     2      -8.545  14.723  69.031  1.00  0.00    -0.137 C  
HETATM   14  C   UNL     2      -7.860  16.180  69.111  1.00  0.00    -0.232 C  
HETATM   15  C   UNL     2      -7.351  17.268  68.085  1.00  0.00    -0.199 C  
HETATM   16  C   UNL     2      -6.304  16.514  67.220  1.00  0.00    -0.213 C  
HETATM   17  C   UNL     2      -5.807  15.318  68.074  1.00  0.00    -0.141 C  
HETATM   18  C   UNL     2      -6.417  13.948  67.720  1.00  0.00    -0.178 C  
HETATM   19  N   UNL     2      -6.295  15.717  69.468  1.00  0.00    -0.156 N  
HETATM   20  C   UNL     2      -6.175  14.691  70.601  1.00  0.00    -0.115 C  
HETATM   21  C   UNL     2      -5.373  16.866  70.004  1.00  0.00    -0.198 C  
ENDBRANCH  11  12
ENDBRANCH   7  11
ENDBRANCH   3   4
TORSDOF 4
ENDMDL
MODEL      131
REMARK 921   NORMALIZED FREE ENERGY PREDICTED BY IDOCK:   -4.01 KCAL/MOL
REMARK 922        TOTAL FREE ENERGY PREDICTED BY IDOCK:   -5.50 KCAL/MOL
REMARK 923 INTER-LIGAND FREE ENERGY PREDICTED BY IDOCK:   -4.76 KCAL/MOL
REMARK 924 INTRA-LIGAND FREE ENERGY PREDICTED BY IDOCK:   -0.74 KCAL/MOL
REMARK 927      BINDING AFFINITY PREDICTED BY RF-SCORE:    0.00 PKD
ROOT
HETATM    1 BR   UNL     1     -11.657  15.673  68.876  1.00  0.00    -0.399 Br 
HETATM    2  C   UNL     2      -9.532   2.567  70.863  1.00  0.00    -0.217 C  
HETATM    3  C   UNL     2      -9.814   4.005  71.276  1.00  0.00    -0.242 C  
ENDROOT
BRANCH   3   4
HETATM    4  C   UNL     2      -9.298   5.010  70.238  1.00  0.00    -0.212 C  
HETATM    5  C   UNL     2     -10.414   5.722  69.433  1.00  0.00    -0.360 C  
HETATM    6  C   UNL     2     -11.435   6.461  70.324  1.00  0.00    -0.468 C  
HETATM    7  C   UNL     2      -9.788   6.615  68.347  1.00  0.00    -0.138 C  
HETATM    8  O   UNL     2      -8.650   6.477  67.922  1.00  0.00    -0.118 OA 
BRANCH   6   9
HETATM    9  C   UNL     2     -10.819   7.558  71.197  1.00  0.00    -0.254 C  
HETATM   10  C   UNL     2     -11.267   7.447  72.645  1.00  0.00    -0.379 C  
ENDBRANCH   6   9
BRANCH   7  11
HETATM   11  O   UNL     2     -10.678   7.517  67.848  1.00  0.00    -0.202 OA 
BRANCH  11  12
HETATM   12  C   UNL     2     -10.313   8.909  67.657  1.00  0.00    -0.251 C  
HETATM   13  C   UNL     2      -9.572   9.588  68.858  1.00  0.00    -0.156 C  
HETATM   14  C   UNL     2      -9.147  11.104  68.513  1.00  0.00    -0.175 C  
HETATM   15  C   UNL     2      -9.779  12.325  67.735  1.00  0.00    -0.199 C  
HETATM   16  C   UNL     2     -10.032  11.773  66.305  1.00  0.00    -0.246 C  
HETATM   17  C   UNL     2      -9.061  10.579  66.115  1.00  0.00    -0.162 C  
HETATM   18  C   UNL     2      -9.687   9.180  66.276  1.00  0.00    -0.344 C  
HETATM   19  N   UNL     2      -8.077  10.801  67.266  1.00  0.00    -0.116 N  
HETATM   20  C   UNL     2      -7.045   9.708  67.562  1.00  0.00    -0.088 C  
HETATM   21  C   UNL     2      -7.144  12.003  66.891  1.00  0.00    -0.033 C  
ENDBRANCH  11  12
ENDBRANCH   7  11
ENDBRANCH   3   4
TORSDOF 4
ENDMDL
MODEL      132
REMARK 921   NORMALIZED FREE ENERGY PREDICTED BY IDOCK:   -3.98 KCAL/MOL
REMARK 922        TOTAL FREE ENERGY PREDICTED BY IDOCK:   -5.47 KCAL/MOL
REMARK 923 INTER-LIGAND FREE ENERGY PREDICTED BY IDOCK:   -4.98 KCAL/MOL
REMARK 924 INTRA-LIGAND FREE ENERGY PREDICTED BY IDOCK:   -0.49 KCAL/MOL
REMARK 927      BINDING AFFINITY PREDICTED BY RF-SCORE:    0.00 PKD
ROOT
HETATM    1 BR   UNL     1     -10.455   2.599  73.943  1.00  0.00    -0.251 Br 
HETATM    2  C   UNL     2     -11.764  14.450  67.774  1.00  0.00    -0.407 C  
HETATM    3  C   UNL     2     -12.013  13.420  68.867  1.00  0.00    -0.362 C  
ENDROOT
BRANCH   3   4
HETATM    4  C   UNL     2     -11.805  11.988  68.361  1.00  0.00    -0.360 C  
HETATM    5  C   UNL     2     -11.037  11.070  69.346  1.00  0.00    -0.320 C  
HETATM    6  C   UNL     2     -11.698  10.978  70.738  1.00  0.00    -0.286 C  
HETATM    7  C   UNL     2     -10.783   9.699  68.695  1.00  0.00    -0.201 C  
HETATM    8  O   UNL     2     -10.809   9.500  67.488  1.00  0.00    -0.280 OA 
BRANCH   6   9
HETATM    9  C   UNL     2     -13.124  10.420  70.712  1.00  0.00    -0.362 C  
HETATM   10  C   UNL     2     -13.501   9.772  72.035  1.00  0.00    -0.498 C  
ENDBRANCH   6   9
BRANCH   7  11
HETATM   11  O   UNL     2     -10.434   8.753  69.610  1.00  0.00    -0.213 OA 
BRANCH  11  12
HETATM   12  C   UNL     2      -9.929   7.456  69.198  1.00  0.00    -0.173 C  
HETATM   13  C   UNL     2      -8.563   7.026  69.833  1.00  0.00    -0.141 C  
HETATM   14  C   UNL     2      -8.134   5.543  69.369  1.00  0.00    -0.095 C  
HETATM   15  C   UNL     2      -8.208   4.688  68.043  1.00  0.00    -0.091 C  
HETATM   16  C   UNL     2      -9.720   4.664  67.691  1.00  0.00    -0.207 C  
HETATM   17  C   UNL     2     -10.485   4.928  69.014  1.00  0.00     0.102 C  
HETATM   18  C   UNL     2     -11.015   6.363  69.202  1.00  0.00    -0.416 C  
HETATM   19  N   UNL     2      -9.390   4.679  70.053  1.00  0.00    -0.130 N  
HETATM   20  C   UNL     2      -9.683   5.028  71.517  1.00  0.00    -0.169 C  
HETATM   21  C   UNL     2      -9.149   3.133  70.154  1.00  0.00    -0.122 C  
ENDBRANCH  11  12
ENDBRANCH   7  11
ENDBRANCH   3   4
TORSDOF 4
ENDMDL
MODEL      133
REMARK 921   NORMALIZED FREE ENERGY PREDICTED BY IDOCK:   -3.97 KCAL/MOL
REMARK 922        TOTAL FREE ENERGY PREDICTED BY IDOCK:   -5.46 KCAL/MOL
REMARK 923 INTER-LIGAND FREE ENERGY PREDICTED BY IDOCK:   -4.69 KCAL/MOL
REMARK 924 INTRA-LIGAND FREE ENERGY PREDICTED BY IDOCK:   -0.76 KCAL/MOL
REMARK 927      BINDING AFFINITY PREDICTED BY RF-SCORE:    0.00 PKD
ROOT
HETATM    1 BR   UNL     1      -9.475   2.531  71.698  1.00  0.00    -0.216 Br 
HETATM    2  C   UNL     2      -9.660  15.299  67.556  1.00  0.00    -0.206 C  
HETATM    3  C   UNL     2     -10.078  13.836  67.559  1.00  0.00    -0.241 C  
ENDROOT
BRANCH   3   4
HETATM    4  C   UNL     2      -8.978  12.927  68.121  1.00  0.00    -0.202 C  
HETATM    5  C   UNL     2      -9.450  11.492  68.462  1.00  0.00    -0.175 C  
HETATM    6  C   UNL     2     -10.088  10.757  67.263  1.00  0.00    -0.233 C  
HETATM    7  C   UNL     2      -8.305  10.705  69.123  1.00  0.00    -0.135 C  
HETATM    8  O   UNL     2      -7.338  11.229  69.659  1.00  0.00    -0.051 OA 
BRANCH   6   9
HETATM    9  C   UNL     2      -9.148  10.588  66.066  1.00  0.00    -0.191 C  
HETATM   10  C   UNL     2      -9.906  10.227  64.799  1.00  0.00    -0.403 C  
ENDBRANCH   6   9
BRANCH   7  11
HETATM   11  O   UNL     2      -8.536   9.364  69.126  1.00  0.00    -0.130 OA 
BRANCH  11  12
HETATM   12  C   UNL     2      -8.881   8.661  70.348  1.00  0.00    -0.157 C  
HETATM   13  C   UNL     2     -10.198   9.132  71.054  1.00  0.00    -0.372 C  
HETATM   14  C   UNL     2     -10.526   8.238  72.354  1.00  0.00    -0.334 C  
HETATM   15  C   UNL     2      -9.704   7.564  73.522  1.00  0.00    -0.358 C  
HETATM   16  C   UNL     2      -8.698   6.634  72.791  1.00  0.00    -0.128 C  
HETATM   17  C   UNL     2      -9.311   6.328  71.400  1.00  0.00    -0.152 C  
HETATM   18  C   UNL     2      -8.728   7.133  70.223  1.00  0.00    -0.144 C  
HETATM   19  N   UNL     2     -10.764   6.763  71.607  1.00  0.00    -0.223 N  
HETATM   20  C   UNL     2     -11.691   6.807  70.386  1.00  0.00    -0.363 C  
HETATM   21  C   UNL     2     -11.481   5.684  72.490  1.00  0.00    -0.279 C  
ENDBRANCH  11  12
ENDBRANCH   7  11
ENDBRANCH   3   4
TORSDOF 4
ENDMDL
MODEL      134
REMARK 921   NORMALIZED FREE ENERGY PREDICTED BY IDOCK:   -3.96 KCAL/MOL
REMARK 922        TOTAL FREE ENERGY PREDICTED BY IDOCK:   -5.44 KCAL/MOL
REMARK 923 INTER-LIGAND FREE ENERGY PREDICTED BY IDOCK:   -4.74 KCAL/MOL
REMARK 924 INTRA-LIGAND FREE ENERGY PREDICTED BY IDOCK:   -0.71 KCAL/MOL
REMARK 927      BINDING AFFINITY PREDICTED BY RF-SCORE:    0.00 PKD
ROOT
HETATM    1 BR   UNL     1     -10.738  19.625  66.184  1.00  0.00    -0.444 Br 
HETATM    2  C   UNL     2     -12.718   7.782  72.189  1.00  0.00    -0.220 C  
HETATM    3  C   UNL     2     -12.077   9.150  71.996  1.00  0.00    -0.431 C  
ENDROOT
BRANCH   3   4
HETATM    4  C   UNL     2     -12.154   9.616  70.537  1.00  0.00    -0.198 C  
HETATM    5  C   UNL     2     -10.849  10.259  70.004  1.00  0.00    -0.364 C  
HETATM    6  C   UNL     2      -9.617   9.336  70.130  1.00  0.00    -0.254 C  
HETATM    7  C   UNL     2     -11.071  10.793  68.578  1.00  0.00    -0.262 C  
HETATM    8  O   UNL     2     -12.172  11.041  68.106  1.00  0.00    -0.578 OA 
BRANCH   6   9
HETATM    9  C   UNL     2      -9.748   8.017  69.363  1.00  0.00    -0.170 C  
HETATM   10  C   UNL     2      -9.542   6.813  70.268  1.00  0.00    -0.170 C  
ENDBRANCH   6   9
BRANCH   7  11
HETATM   11  O   UNL     2      -9.898  11.046  67.936  1.00  0.00    -0.166 OA 
BRANCH  11  12
HETATM   12  C   UNL     2      -9.131  12.248  68.211  1.00  0.00    -0.187 C  
HETATM   13  C   UNL     2      -7.989  12.573  67.189  1.00  0.00    -0.140 C  
HETATM   14  C   UNL     2      -7.254  13.963  67.544  1.00  0.00    -0.161 C  
HETATM   15  C   UNL     2      -6.802  14.721  68.854  1.00  0.00    -0.105 C  
HETATM   16  C   UNL     2      -8.113  14.882  69.671  1.00  0.00     0.018 C  
HETATM   17  C   UNL     2      -9.280  14.800  68.653  1.00  0.00    -0.194 C  
HETATM   18  C   UNL     2     -10.017  13.448  68.592  1.00  0.00    -0.139 C  
HETATM   19  N   UNL     2      -8.542  15.005  67.328  1.00  0.00    -0.192 N  
HETATM   20  C   UNL     2      -9.319  14.799  66.023  1.00  0.00    -0.214 C  
HETATM   21  C   UNL     2      -8.152  16.519  67.210  1.00  0.00    -0.168 C  
ENDBRANCH  11  12
ENDBRANCH   7  11
ENDBRANCH   3   4
TORSDOF 4
ENDMDL
MODEL      135
REMARK 921   NORMALIZED FREE ENERGY PREDICTED BY IDOCK:   -3.95 KCAL/MOL
REMARK 922        TOTAL FREE ENERGY PREDICTED BY IDOCK:   -5.43 KCAL/MOL
REMARK 923 INTER-LIGAND FREE ENERGY PREDICTED BY IDOCK:   -5.14 KCAL/MOL
REMARK 924 INTRA-LIGAND FREE ENERGY PREDICTED BY IDOCK:   -0.29 KCAL/MOL
REMARK 927      BINDING AFFINITY PREDICTED BY RF-SCORE:    0.00 PKD
ROOT
HETATM    1 BR   UNL     1     -11.350  15.868  64.523  1.00  0.00    -0.175 Br 
HETATM    2  C   UNL     2      -8.512   7.314  74.473  1.00  0.00    -0.234 C  
HETATM    3  C   UNL     2      -8.250   8.077  73.182  1.00  0.00    -0.244 C  
ENDROOT
BRANCH   3   4
HETATM    4  C   UNL     2      -9.553   8.483  72.482  1.00  0.00    -0.324 C  
HETATM    5  C   UNL     2      -9.463   8.509  70.935  1.00  0.00    -0.221 C  
HETATM    6  C   UNL     2      -9.010   7.165  70.326  1.00  0.00    -0.152 C  
HETATM    7  C   UNL     2     -10.781   9.038  70.342  1.00  0.00    -0.227 C  
HETATM    8  O   UNL     2     -11.594   9.703  70.970  1.00  0.00    -0.300 OA 
BRANCH   6   9
HETATM    9  C   UNL     2      -9.942   5.992  70.646  1.00  0.00    -0.232 C  
HETATM   10  C   UNL     2     -10.498   5.352  69.384  1.00  0.00    -0.331 C  
ENDBRANCH   6   9
BRANCH   7  11
HETATM   11  O   UNL     2     -10.895   8.761  69.015  1.00  0.00    -0.156 OA 
BRANCH  11  12
HETATM   12  C   UNL     2     -10.952   9.822  68.025  1.00  0.00    -0.180 C  
HETATM   13  C   UNL     2     -11.514  11.193  68.532  1.00  0.00    -0.371 C  
HETATM   14  C   UNL     2     -11.463  12.318  67.378  1.00  0.00    -0.352 C  
HETATM   15  C   UNL     2     -11.705  12.375  65.818  1.00  0.00    -0.470 C  
HETATM   16  C   UNL     2     -10.704  11.337  65.241  1.00  0.00    -0.302 C  
HETATM   17  C   UNL     2      -9.576  11.179  66.293  1.00  0.00    -0.206 C  
HETATM   18  C   UNL     2      -9.666   9.924  67.183  1.00  0.00    -0.224 C  
HETATM   19  N   UNL     2      -9.807  12.409  67.173  1.00  0.00    -0.203 N  
HETATM   20  C   UNL     2      -9.008  12.533  68.475  1.00  0.00    -0.052 C  
HETATM   21  C   UNL     2      -9.308  13.674  66.392  1.00  0.00    -0.186 C  
ENDBRANCH  11  12
ENDBRANCH   7  11
ENDBRANCH   3   4
TORSDOF 4
ENDMDL
MODEL      136
REMARK 921   NORMALIZED FREE ENERGY PREDICTED BY IDOCK:   -3.92 KCAL/MOL
REMARK 922        TOTAL FREE ENERGY PREDICTED BY IDOCK:   -5.39 KCAL/MOL
REMARK 923 INTER-LIGAND FREE ENERGY PREDICTED BY IDOCK:   -4.90 KCAL/MOL
REMARK 924 INTRA-LIGAND FREE ENERGY PREDICTED BY IDOCK:   -0.49 KCAL/MOL
REMARK 927      BINDING AFFINITY PREDICTED BY RF-SCORE:    0.00 PKD
ROOT
HETATM    1 BR   UNL     1     -12.027  12.935  63.463  1.00  0.00    -0.608 Br 
HETATM    2  C   UNL     2     -11.078   4.101  73.526  1.00  0.00    -0.359 C  
HETATM    3  C   UNL     2     -11.440   5.428  72.876  1.00  0.00    -0.340 C  
ENDROOT
BRANCH   3   4
HETATM    4  C   UNL     2     -10.577   5.714  71.640  1.00  0.00    -0.301 C  
HETATM    5  C   UNL     2     -10.318   7.218  71.378  1.00  0.00    -0.212 C  
HETATM    6  C   UNL     2      -9.666   7.944  72.575  1.00  0.00    -0.290 C  
HETATM    7  C   UNL     2      -9.545   7.396  70.059  1.00  0.00    -0.168 C  
HETATM    8  O   UNL     2      -9.503   6.552  69.174  1.00  0.00    -0.136 OA 
BRANCH   6   9
HETATM    9  C   UNL     2      -8.303   7.375  72.979  1.00  0.00    -0.147 C  
HETATM   10  C   UNL     2      -7.159   8.253  72.498  1.00  0.00    -0.122 C  
ENDBRANCH   6   9
BRANCH   7  11
HETATM   11  O   UNL     2      -8.992   8.634  69.950  1.00  0.00    -0.143 OA 
BRANCH  11  12
HETATM   12  C   UNL     2      -9.321   9.513  68.842  1.00  0.00    -0.149 C  
HETATM   13  C   UNL     2     -10.837   9.573  68.451  1.00  0.00    -0.183 C  
HETATM   14  C   UNL     2     -11.102  10.632  67.265  1.00  0.00    -0.243 C  
HETATM   15  C   UNL     2     -10.363  11.086  65.945  1.00  0.00    -0.315 C  
HETATM   16  C   UNL     2      -8.966  11.558  66.434  1.00  0.00    -0.200 C  
HETATM   17  C   UNL     2      -9.127  11.934  67.930  1.00  0.00    -0.183 C  
HETATM   18  C   UNL     2      -8.624  10.883  68.939  1.00  0.00    -0.143 C  
HETATM   19  N   UNL     2     -10.649  12.033  68.056  1.00  0.00    -0.201 N  
HETATM   20  C   UNL     2     -11.254  12.200  69.455  1.00  0.00    -0.182 C  
HETATM   21  C   UNL     2     -11.116  13.360  67.365  1.00  0.00    -0.278 C  
ENDBRANCH  11  12
ENDBRANCH   7  11
ENDBRANCH   3   4
TORSDOF 4
ENDMDL
MODEL      137
REMARK 921   NORMALIZED FREE ENERGY PREDICTED BY IDOCK:   -3.92 KCAL/MOL
REMARK 922        TOTAL FREE ENERGY PREDICTED BY IDOCK:   -5.39 KCAL/MOL
REMARK 923 INTER-LIGAND FREE ENERGY PREDICTED BY IDOCK:   -4.88 KCAL/MOL
REMARK 924 INTRA-LIGAND FREE ENERGY PREDICTED BY IDOCK:   -0.51 KCAL/MOL
REMARK 927      BINDING AFFINITY PREDICTED BY RF-SCORE:    0.00 PKD
ROOT
HETATM    1 BR   UNL     1      -7.193   2.587  62.750  1.00  0.00    -0.041 Br 
HETATM    2  C   UNL     2     -11.151  15.083  65.650  1.00  0.00    -0.349 C  
HETATM    3  C   UNL     2     -10.641  13.962  64.756  1.00  0.00    -0.444 C  
ENDROOT
BRANCH   3   4
HETATM    4  C   UNL     2      -9.917  12.873  65.559  1.00  0.00    -0.226 C  
HETATM    5  C   UNL     2     -10.538  11.461  65.420  1.00  0.00    -0.333 C  
HETATM    6  C   UNL     2     -10.629  10.973  63.958  1.00  0.00    -0.395 C  
HETATM    7  C   UNL     2      -9.811  10.474  66.351  1.00  0.00    -0.210 C  
HETATM    8  O   UNL     2      -9.147  10.814  67.321  1.00  0.00    -0.143 OA 
BRANCH   6   9
HETATM    9  C   UNL     2      -9.274  10.879  63.249  1.00  0.00    -0.293 C  
HETATM   10  C   UNL     2      -9.152   9.602  62.433  1.00  0.00    -0.290 C  
ENDBRANCH   6   9
BRANCH   7  11
HETATM   11  O   UNL     2     -10.067   9.178  66.026  1.00  0.00    -0.284 OA 
BRANCH  11  12
HETATM   12  C   UNL     2      -9.978   8.120  67.017  1.00  0.00    -0.259 C  
HETATM   13  C   UNL     2     -11.124   7.053  66.976  1.00  0.00    -0.247 C  
HETATM   14  C   UNL     2     -10.888   5.887  68.064  1.00  0.00    -0.232 C  
HETATM   15  C   UNL     2     -10.349   5.791  69.546  1.00  0.00    -0.333 C  
HETATM   16  C   UNL     2      -8.920   6.396  69.470  1.00  0.00    -0.136 C  
HETATM   17  C   UNL     2      -8.461   6.257  67.995  1.00  0.00    -0.117 C  
HETATM   18  C   UNL     2      -8.558   7.537  67.144  1.00  0.00    -0.121 C  
HETATM   19  N   UNL     2      -9.472   5.242  67.456  1.00  0.00    -0.120 N  
HETATM   20  C   UNL     2      -9.491   4.965  65.948  1.00  0.00    -0.164 C  
HETATM   21  C   UNL     2      -9.098   3.827  68.017  1.00  0.00    -0.144 C  
ENDBRANCH  11  12
ENDBRANCH   7  11
ENDBRANCH   3   4
TORSDOF 4
ENDMDL
MODEL      138
REMARK 921   NORMALIZED FREE ENERGY PREDICTED BY IDOCK:   -3.91 KCAL/MOL
REMARK 922        TOTAL FREE ENERGY PREDICTED BY IDOCK:   -5.39 KCAL/MOL
REMARK 923 INTER-LIGAND FREE ENERGY PREDICTED BY IDOCK:   -5.03 KCAL/MOL
REMARK 924 INTRA-LIGAND FREE ENERGY PREDICTED BY IDOCK:   -0.35 KCAL/MOL
REMARK 927      BINDING AFFINITY PREDICTED BY RF-SCORE:    0.00 PKD
ROOT
HETATM    1 BR   UNL     1      -5.295  13.898  74.323  1.00  0.00    -0.030 Br 
HETATM    2  C   UNL     2     -12.909  12.191  63.399  1.00  0.00    -0.406 C  
HETATM    3  C   UNL     2     -12.636  12.367  64.886  1.00  0.00    -0.372 C  
ENDROOT
BRANCH   3   4
HETATM    4  C   UNL     2     -11.224  11.907  65.268  1.00  0.00    -0.351 C  
HETATM    5  C   UNL     2     -10.522  12.807  66.315  1.00  0.00    -0.273 C  
HETATM    6  C   UNL     2     -11.326  12.963  67.624  1.00  0.00    -0.349 C  
HETATM    7  C   UNL     2      -9.078  12.325  66.538  1.00  0.00    -0.188 C  
HETATM    8  O   UNL     2      -8.461  11.628  65.744  1.00  0.00     0.016 OA 
BRANCH   6   9
HETATM    9  C   UNL     2     -11.590  11.643  68.353  1.00  0.00    -0.376 C  
HETATM   10  C   UNL     2     -11.490  11.801  69.862  1.00  0.00    -0.285 C  
ENDBRANCH   6   9
BRANCH   7  11
HETATM   11  O   UNL     2      -8.533  12.839  67.674  1.00  0.00    -0.154 OA 
BRANCH  11  12
HETATM   12  C   UNL     2      -8.151  14.237  67.762  1.00  0.00    -0.170 C  
HETATM   13  C   UNL     2      -8.548  15.128  66.536  1.00  0.00    -0.226 C  
HETATM   14  C   UNL     2      -8.146  16.671  66.768  1.00  0.00    -0.246 C  
HETATM   15  C   UNL     2      -6.941  17.458  67.419  1.00  0.00    -0.186 C  
HETATM   16  C   UNL     2      -6.889  16.933  68.880  1.00  0.00    -0.209 C  
HETATM   17  C   UNL     2      -8.305  16.389  69.203  1.00  0.00    -0.182 C  
HETATM   18  C   UNL     2      -8.462  14.857  69.137  1.00  0.00    -0.152 C  
HETATM   19  N   UNL     2      -9.133  17.007  68.075  1.00  0.00    -0.232 N  
HETATM   20  C   UNL     2     -10.588  16.555  67.908  1.00  0.00    -0.329 C  
HETATM   21  C   UNL     2      -9.325  18.532  68.381  1.00  0.00    -0.334 C  
ENDBRANCH  11  12
ENDBRANCH   7  11
ENDBRANCH   3   4
TORSDOF 4
ENDMDL
MODEL      139
REMARK 921   NORMALIZED FREE ENERGY PREDICTED BY IDOCK:   -3.90 KCAL/MOL
REMARK 922        TOTAL FREE ENERGY PREDICTED BY IDOCK:   -5.37 KCAL/MOL
REMARK 923 INTER-LIGAND FREE ENERGY PREDICTED BY IDOCK:   -5.79 KCAL/MOL
REMARK 924 INTRA-LIGAND FREE ENERGY PREDICTED BY IDOCK:    0.42 KCAL/MOL
REMARK 927      BINDING AFFINITY PREDICTED BY RF-SCORE:    0.00 PKD
ROOT
HETATM    1 BR   UNL     1     -13.083  14.782  72.220  1.00  0.00    -0.490 Br 
HETATM    2  C   UNL     2      -9.624   3.730  65.431  1.00  0.00    -0.174 C  
HETATM    3  C   UNL     2     -10.011   4.538  66.662  1.00  0.00    -0.253 C  
ENDROOT
BRANCH   3   4
HETATM    4  C   UNL     2      -9.659   6.022  66.505  1.00  0.00    -0.182 C  
HETATM    5  C   UNL     2     -10.654   6.988  67.198  1.00  0.00    -0.412 C  
HETATM    6  C   UNL     2     -10.826   6.710  68.707  1.00  0.00    -0.321 C  
HETATM    7  C   UNL     2     -10.274   8.446  66.882  1.00  0.00    -0.313 C  
HETATM    8  O   UNL     2      -9.578   8.780  65.934  1.00  0.00    -0.240 OA 
BRANCH   6   9
HETATM    9  C   UNL     2      -9.531   6.835  69.514  1.00  0.00    -0.148 C  
HETATM   10  C   UNL     2      -9.736   7.630  70.793  1.00  0.00    -0.173 C  
ENDBRANCH   6   9
BRANCH   7  11
HETATM   11  O   UNL     2     -10.879   9.328  67.724  1.00  0.00    -0.237 OA 
BRANCH  11  12
HETATM   12  C   UNL     2     -11.171  10.688  67.310  1.00  0.00    -0.161 C  
HETATM   13  C   UNL     2     -10.790  11.808  68.337  1.00  0.00    -0.260 C  
HETATM   14  C   UNL     2     -11.084  13.279  67.748  1.00  0.00    -0.265 C  
HETATM   15  C   UNL     2     -12.201  13.958  66.861  1.00  0.00    -0.415 C  
HETATM   16  C   UNL     2     -12.202  13.127  65.549  1.00  0.00    -0.513 C  
HETATM   17  C   UNL     2     -10.806  12.459  65.449  1.00  0.00    -0.285 C  
HETATM   18  C   UNL     2     -10.746  10.975  65.857  1.00  0.00    -0.226 C  
HETATM   19  N   UNL     2     -10.007  13.271  66.471  1.00  0.00    -0.273 N  
HETATM   20  C   UNL     2      -8.593  12.800  66.830  1.00  0.00    -0.137 C  
HETATM   21  C   UNL     2      -9.706  14.681  65.854  1.00  0.00    -0.310 C  
ENDBRANCH  11  12
ENDBRANCH   7  11
ENDBRANCH   3   4
TORSDOF 4
ENDMDL
MODEL      140
REMARK 921   NORMALIZED FREE ENERGY PREDICTED BY IDOCK:   -3.89 KCAL/MOL
REMARK 922        TOTAL FREE ENERGY PREDICTED BY IDOCK:   -5.36 KCAL/MOL
REMARK 923 INTER-LIGAND FREE ENERGY PREDICTED BY IDOCK:   -4.73 KCAL/MOL
REMARK 924 INTRA-LIGAND FREE ENERGY PREDICTED BY IDOCK:   -0.64 KCAL/MOL
REMARK 927      BINDING AFFINITY PREDICTED BY RF-SCORE:    0.00 PKD
ROOT
HETATM    1 BR   UNL     1      -9.872  18.398  68.173  1.00  0.00    -0.391 Br 
HETATM    2  C   UNL     2     -10.994   6.005  73.211  1.00  0.00    -0.244 C  
HETATM    3  C   UNL     2     -11.372   7.469  73.030  1.00  0.00    -0.313 C  
ENDROOT
BRANCH   3   4
HETATM    4  C   UNL     2     -10.177   8.316  72.576  1.00  0.00    -0.386 C  
HETATM    5  C   UNL     2     -10.026   8.431  71.038  1.00  0.00    -0.235 C  
HETATM    6  C   UNL     2     -11.284   8.993  70.341  1.00  0.00    -0.275 C  
HETATM    7  C   UNL     2      -8.739   9.200  70.693  1.00  0.00    -0.229 C  
HETATM    8  O   UNL     2      -7.798   9.336  71.463  1.00  0.00    -0.336 OA 
BRANCH   6   9
HETATM    9  C   UNL     2     -11.675  10.400  70.803  1.00  0.00    -0.464 C  
HETATM   10  C   UNL     2     -11.582  11.413  69.674  1.00  0.00    -0.399 C  
ENDBRANCH   6   9
BRANCH   7  11
HETATM   11  O   UNL     2      -8.728   9.632  69.403  1.00  0.00    -0.145 OA 
BRANCH  11  12
HETATM   12  C   UNL     2      -8.398   8.736  68.310  1.00  0.00    -0.126 C  
HETATM   13  C   UNL     2      -7.964   7.289  68.726  1.00  0.00    -0.123 C  
HETATM   14  C   UNL     2      -7.695   6.357  67.439  1.00  0.00    -0.104 C  
HETATM   15  C   UNL     2      -7.054   6.535  66.006  1.00  0.00    -0.063 C  
HETATM   16  C   UNL     2      -7.885   7.675  65.357  1.00  0.00    -0.115 C  
HETATM   17  C   UNL     2      -9.251   7.697  66.091  1.00  0.00    -0.116 C  
HETATM   18  C   UNL     2      -9.417   8.797  67.157  1.00  0.00    -0.208 C  
HETATM   19  N   UNL     2      -9.238   6.340  66.798  1.00  0.00    -0.133 N  
HETATM   20  C   UNL     2     -10.348   6.037  67.812  1.00  0.00    -0.204 C  
HETATM   21  C   UNL     2      -9.495   5.224  65.728  1.00  0.00    -0.117 C  
ENDBRANCH  11  12
ENDBRANCH   7  11
ENDBRANCH   3   4
TORSDOF 4
ENDMDL
MODEL      141
REMARK 921   NORMALIZED FREE ENERGY PREDICTED BY IDOCK:   -3.88 KCAL/MOL
REMARK 922        TOTAL FREE ENERGY PREDICTED BY IDOCK:   -5.35 KCAL/MOL
REMARK 923 INTER-LIGAND FREE ENERGY PREDICTED BY IDOCK:   -4.76 KCAL/MOL
REMARK 924 INTRA-LIGAND FREE ENERGY PREDICTED BY IDOCK:   -0.59 KCAL/MOL
REMARK 927      BINDING AFFINITY PREDICTED BY RF-SCORE:    0.00 PKD
ROOT
HETATM    1 BR   UNL     1     -11.777  12.739  63.954  1.00  0.00    -0.575 Br 
HETATM    2  C   UNL     2     -10.717   3.969  74.063  1.00  0.00    -0.298 C  
HETATM    3  C   UNL     2     -11.448   4.893  73.099  1.00  0.00    -0.362 C  
ENDROOT
BRANCH   3   4
HETATM    4  C   UNL     2     -10.535   6.008  72.572  1.00  0.00    -0.233 C  
HETATM    5  C   UNL     2     -10.733   6.336  71.071  1.00  0.00    -0.313 C  
HETATM    6  C   UNL     2     -12.186   6.721  70.715  1.00  0.00    -0.353 C  
HETATM    7  C   UNL     2      -9.695   7.379  70.621  1.00  0.00    -0.175 C  
HETATM    8  O   UNL     2      -8.649   7.602  71.215  1.00  0.00    -0.118 OA 
BRANCH   6   9
HETATM    9  C   UNL     2     -12.701   7.956  71.459  1.00  0.00    -0.342 C  
HETATM   10  C   UNL     2     -14.140   7.780  71.918  1.00  0.00    -0.462 C  
ENDBRANCH   6   9
BRANCH   7  11
HETATM   11  O   UNL     2     -10.029   7.958  69.435  1.00  0.00    -0.181 OA 
BRANCH  11  12
HETATM   12  C   UNL     2      -9.092   8.004  68.327  1.00  0.00    -0.135 C  
HETATM   13  C   UNL     2      -9.658   7.547  66.940  1.00  0.00    -0.242 C  
HETATM   14  C   UNL     2      -8.562   7.709  65.770  1.00  0.00    -0.139 C  
HETATM   15  C   UNL     2      -7.004   7.498  65.619  1.00  0.00    -0.060 C  
HETATM   16  C   UNL     2      -6.389   8.419  66.707  1.00  0.00    -0.056 C  
HETATM   17  C   UNL     2      -7.446   9.513  67.007  1.00  0.00    -0.091 C  
HETATM   18  C   UNL     2      -8.272   9.307  68.292  1.00  0.00    -0.115 C  
HETATM   19  N   UNL     2      -8.382   9.370  65.805  1.00  0.00    -0.118 N  
HETATM   20  C   UNL     2      -9.698  10.155  65.810  1.00  0.00    -0.245 C  
HETATM   21  C   UNL     2      -7.670   9.983  64.550  1.00  0.00    -0.145 C  
ENDBRANCH  11  12
ENDBRANCH   7  11
ENDBRANCH   3   4
TORSDOF 4
ENDMDL
MODEL      142
REMARK 921   NORMALIZED FREE ENERGY PREDICTED BY IDOCK:   -3.85 KCAL/MOL
REMARK 922        TOTAL FREE ENERGY PREDICTED BY IDOCK:   -5.31 KCAL/MOL
REMARK 923 INTER-LIGAND FREE ENERGY PREDICTED BY IDOCK:   -4.92 KCAL/MOL
REMARK 924 INTRA-LIGAND FREE ENERGY PREDICTED BY IDOCK:   -0.39 KCAL/MOL
REMARK 927      BINDING AFFINITY PREDICTED BY RF-SCORE:    0.00 PKD
ROOT
HETATM    1 BR   UNL     1     -12.533  12.081  63.571  1.00  0.00    -0.545 Br 
HETATM    2  C   UNL     2      -5.156  21.282  69.985  1.00  0.00    -0.187 C  
HETATM    3  C   UNL     2      -5.401  19.998  69.205  1.00  0.00    -0.242 C  
ENDROOT
BRANCH   3   4
HETATM    4  C   UNL     2      -6.832  19.479  69.392  1.00  0.00    -0.365 C  
HETATM    5  C   UNL     2      -7.448  18.839  68.122  1.00  0.00    -0.289 C  
HETATM    6  C   UNL     2      -6.606  17.678  67.552  1.00  0.00    -0.177 C  
HETATM    7  C   UNL     2      -8.916  18.460  68.386  1.00  0.00    -0.316 C  
HETATM    8  O   UNL     2      -9.596  18.943  69.281  1.00  0.00    -0.217 OA 
BRANCH   6   9
HETATM    9  C   UNL     2      -6.415  16.512  68.526  1.00  0.00    -0.137 C  
HETATM   10  C   UNL     2      -5.865  15.278  67.830  1.00  0.00    -0.144 C  
ENDBRANCH   6   9
BRANCH   7  11
HETATM   11  O   UNL     2      -9.399  17.596  67.452  1.00  0.00    -0.244 OA 
BRANCH  11  12
HETATM   12  C   UNL     2      -9.965  16.314  67.832  1.00  0.00    -0.241 C  
HETATM   13  C   UNL     2      -9.317  15.630  69.084  1.00  0.00    -0.252 C  
HETATM   14  C   UNL     2     -10.067  14.255  69.463  1.00  0.00     0.238 C  
HETATM   15  C   UNL     2     -10.715  13.046  68.678  1.00  0.00    -0.273 C  
HETATM   16  C   UNL     2     -11.791  13.712  67.777  1.00  0.00    -0.403 C  
HETATM   17  C   UNL     2     -12.153  15.063  68.447  1.00  0.00    -0.104 C  
HETATM   18  C   UNL     2     -11.505  16.312  67.820  1.00  0.00     0.016 C  
HETATM   19  N   UNL     2     -11.571  14.872  69.849  1.00  0.00    -0.272 N  
HETATM   20  C   UNL     2     -11.543  16.078  70.796  1.00  0.00    -0.400 C  
HETATM   21  C   UNL     2     -12.503  13.891  70.640  1.00  0.00    -0.366 C  
ENDBRANCH  11  12
ENDBRANCH   7  11
ENDBRANCH   3   4
TORSDOF 4
ENDMDL
MODEL      143
REMARK 921   NORMALIZED FREE ENERGY PREDICTED BY IDOCK:   -3.83 KCAL/MOL
REMARK 922        TOTAL FREE ENERGY PREDICTED BY IDOCK:   -5.28 KCAL/MOL
REMARK 923 INTER-LIGAND FREE ENERGY PREDICTED BY IDOCK:   -4.50 KCAL/MOL
REMARK 924 INTRA-LIGAND FREE ENERGY PREDICTED BY IDOCK:   -0.78 KCAL/MOL
REMARK 927      BINDING AFFINITY PREDICTED BY RF-SCORE:    0.00 PKD
ROOT
HETATM    1 BR   UNL     1      -8.835   4.639  63.923  1.00  0.00    -0.108 Br 
HETATM    2  C   UNL     2     -12.836  15.390  70.896  1.00  0.00    -0.536 C  
HETATM    3  C   UNL     2     -12.192  14.654  69.729  1.00  0.00    -0.347 C  
ENDROOT
BRANCH   3   4
HETATM    4  C   UNL     2     -11.695  13.261  70.135  1.00  0.00    -0.254 C  
HETATM    5  C   UNL     2     -11.752  12.209  68.999  1.00  0.00    -0.377 C  
HETATM    6  C   UNL     2     -10.969  12.629  67.737  1.00  0.00    -0.266 C  
HETATM    7  C   UNL     2     -11.344  10.828  69.542  1.00  0.00    -0.289 C  
HETATM    8  O   UNL     2     -11.371  10.525  70.727  1.00  0.00    -0.327 OA 
BRANCH   6   9
HETATM    9  C   UNL     2      -9.475  12.863  67.981  1.00  0.00    -0.213 C  
HETATM   10  C   UNL     2      -9.033  14.237  67.503  1.00  0.00    -0.197 C  
ENDBRANCH   6   9
BRANCH   7  11
HETATM   11  O   UNL     2     -11.039   9.953  68.545  1.00  0.00    -0.207 OA 
BRANCH  11  12
HETATM   12  C   UNL     2     -10.302   8.731  68.813  1.00  0.00    -0.213 C  
HETATM   13  C   UNL     2     -10.678   7.502  67.917  1.00  0.00    -0.200 C  
HETATM   14  C   UNL     2      -9.751   6.224  68.244  1.00  0.00    -0.120 C  
HETATM   15  C   UNL     2      -9.122   5.562  69.533  1.00  0.00    -0.143 C  
HETATM   16  C   UNL     2      -8.268   6.695  70.164  1.00  0.00    -0.133 C  
HETATM   17  C   UNL     2      -7.936   7.687  69.019  1.00  0.00    -0.121 C  
HETATM   18  C   UNL     2      -8.790   8.969  68.980  1.00  0.00    -0.136 C  
HETATM   19  N   UNL     2      -8.271   6.848  67.784  1.00  0.00    -0.117 N  
HETATM   20  C   UNL     2      -8.265   7.536  66.414  1.00  0.00    -0.122 C  
HETATM   21  C   UNL     2      -7.138   5.782  67.590  1.00  0.00    -0.074 C  
ENDBRANCH  11  12
ENDBRANCH   7  11
ENDBRANCH   3   4
TORSDOF 4
ENDMDL
MODEL      144
REMARK 921   NORMALIZED FREE ENERGY PREDICTED BY IDOCK:   -3.82 KCAL/MOL
REMARK 922        TOTAL FREE ENERGY PREDICTED BY IDOCK:   -5.27 KCAL/MOL
REMARK 923 INTER-LIGAND FREE ENERGY PREDICTED BY IDOCK:   -4.96 KCAL/MOL
REMARK 924 INTRA-LIGAND FREE ENERGY PREDICTED BY IDOCK:   -0.31 KCAL/MOL
REMARK 927      BINDING AFFINITY PREDICTED BY RF-SCORE:    0.00 PKD
ROOT
HETATM    1 BR   UNL     1      -5.236  18.302  70.265  1.00  0.00    -0.261 Br 
HETATM    2  C   UNL     2     -10.366   5.901  70.614  1.00  0.00    -0.296 C  
HETATM    3  C   UNL     2      -9.592   7.098  71.149  1.00  0.00    -0.164 C  
ENDROOT
BRANCH   3   4
HETATM    4  C   UNL     2      -9.053   7.983  70.018  1.00  0.00    -0.152 C  
HETATM    5  C   UNL     2     -10.060   8.230  68.868  1.00  0.00    -0.208 C  
HETATM    6  C   UNL     2     -11.392   8.849  69.345  1.00  0.00     0.265 C  
HETATM    7  C   UNL     2      -9.383   9.027  67.740  1.00  0.00    -0.140 C  
HETATM    8  O   UNL     2      -8.172   9.097  67.585  1.00  0.00    -0.108 OA 
BRANCH   6   9
HETATM    9  C   UNL     2     -11.235  10.210  70.029  1.00  0.00    -0.361 C  
HETATM   10  C   UNL     2     -12.083  10.311  71.287  1.00  0.00    -0.479 C  
ENDBRANCH   6   9
BRANCH   7  11
HETATM   11  O   UNL     2     -10.288   9.569  66.879  1.00  0.00    -0.240 OA 
BRANCH  11  12
HETATM   12  C   UNL     2     -10.300  10.993  66.595  1.00  0.00    -0.240 C  
HETATM   13  C   UNL     2     -10.043  11.391  65.102  1.00  0.00    -0.319 C  
HETATM   14  C   UNL     2     -10.154  12.984  64.885  1.00  0.00    -0.213 C  
HETATM   15  C   UNL     2      -9.748  14.283  65.686  1.00  0.00    -0.238 C  
HETATM   16  C   UNL     2     -10.483  14.135  67.047  1.00  0.00    -0.271 C  
HETATM   17  C   UNL     2     -11.680  13.181  66.800  1.00  0.00    -0.385 C  
HETATM   18  C   UNL     2     -11.479  11.725  67.264  1.00  0.00    -0.373 C  
HETATM   19  N   UNL     2     -11.767  13.191  65.272  1.00  0.00    -0.329 N  
HETATM   20  C   UNL     2     -12.720  12.202  64.591  1.00  0.00    -0.060 C  
HETATM   21  C   UNL     2     -12.382  14.560  64.822  1.00  0.00    -0.391 C  
ENDBRANCH  11  12
ENDBRANCH   7  11
ENDBRANCH   3   4
TORSDOF 4
ENDMDL
MODEL      145
REMARK 921   NORMALIZED FREE ENERGY PREDICTED BY IDOCK:   -3.78 KCAL/MOL
REMARK 922        TOTAL FREE ENERGY PREDICTED BY IDOCK:   -5.22 KCAL/MOL
REMARK 923 INTER-LIGAND FREE ENERGY PREDICTED BY IDOCK:   -4.70 KCAL/MOL
REMARK 924 INTRA-LIGAND FREE ENERGY PREDICTED BY IDOCK:   -0.52 KCAL/MOL
REMARK 927      BINDING AFFINITY PREDICTED BY RF-SCORE:    0.00 PKD
ROOT
HETATM    1 BR   UNL     1      -5.152   7.231  62.332  1.00  0.00    -0.034 Br 
HETATM    2  C   UNL     2     -12.628  15.152  70.179  1.00  0.00    -0.319 C  
HETATM    3  C   UNL     2     -12.092  13.828  69.653  1.00  0.00    -0.392 C  
ENDROOT
BRANCH   3   4
HETATM    4  C   UNL     2     -11.593  13.946  68.207  1.00  0.00    -0.372 C  
HETATM    5  C   UNL     2     -10.299  14.783  68.047  1.00  0.00    -0.237 C  
HETATM    6  C   UNL     2      -9.123  14.259  68.900  1.00  0.00    -0.031 C  
HETATM    7  C   UNL     2      -9.954  14.934  66.555  1.00  0.00    -0.265 C  
HETATM    8  O   UNL     2     -10.762  14.783  65.648  1.00  0.00    -0.302 OA 
BRANCH   6   9
HETATM    9  C   UNL     2      -8.707  12.823  68.570  1.00  0.00    -0.045 C  
HETATM   10  C   UNL     2      -7.264  12.549  68.962  1.00  0.00     0.002 C  
ENDBRANCH   6   9
BRANCH   7  11
HETATM   11  O   UNL     2      -8.671  15.346  66.363  1.00  0.00    -0.297 OA 
BRANCH  11  12
HETATM   12  C   UNL     2      -8.186  16.590  66.932  1.00  0.00    -0.215 C  
HETATM   13  C   UNL     2      -6.629  16.721  67.049  1.00  0.00    -0.239 C  
HETATM   14  C   UNL     2      -6.196  18.165  67.619  1.00  0.00    -0.170 C  
HETATM   15  C   UNL     2      -6.734  19.179  68.706  1.00  0.00    -0.330 C  
HETATM   16  C   UNL     2      -8.189  19.481  68.256  1.00  0.00    -0.373 C  
HETATM   17  C   UNL     2      -8.254  19.176  66.737  1.00  0.00    -0.280 C  
HETATM   18  C   UNL     2      -8.895  17.829  66.354  1.00  0.00    -0.256 C  
HETATM   19  N   UNL     2      -6.768  19.122  66.375  1.00  0.00    -0.196 N  
HETATM   20  C   UNL     2      -6.378  18.645  64.971  1.00  0.00    -0.144 C  
HETATM   21  C   UNL     2      -6.210  20.587  66.360  1.00  0.00    -0.210 C  
ENDBRANCH  11  12
ENDBRANCH   7  11
ENDBRANCH   3   4
TORSDOF 4
ENDMDL
MODEL      146
REMARK 921   NORMALIZED FREE ENERGY PREDICTED BY IDOCK:   -3.76 KCAL/MOL
REMARK 922        TOTAL FREE ENERGY PREDICTED BY IDOCK:   -5.20 KCAL/MOL
REMARK 923 INTER-LIGAND FREE ENERGY PREDICTED BY IDOCK:   -4.44 KCAL/MOL
REMARK 924 INTRA-LIGAND FREE ENERGY PREDICTED BY IDOCK:   -0.76 KCAL/MOL
REMARK 927      BINDING AFFINITY PREDICTED BY RF-SCORE:    0.00 PKD
ROOT
HETATM    1 BR   UNL     1     -11.045   7.529  72.905  1.00  0.00    -0.413 Br 
HETATM    2  C   UNL     2      -7.132  18.384  66.043  1.00  0.00    -0.307 C  
HETATM    3  C   UNL     2      -8.083  17.540  66.880  1.00  0.00    -0.254 C  
ENDROOT
BRANCH   3   4
HETATM    4  C   UNL     2      -7.805  16.040  66.726  1.00  0.00    -0.288 C  
HETATM    5  C   UNL     2      -8.335  15.170  67.893  1.00  0.00    -0.153 C  
HETATM    6  C   UNL     2      -9.850  15.336  68.140  1.00  0.00    -0.217 C  
HETATM    7  C   UNL     2      -7.903  13.707  67.695  1.00  0.00    -0.174 C  
HETATM    8  O   UNL     2      -6.972  13.360  66.981  1.00  0.00    -0.017 OA 
BRANCH   6   9
HETATM    9  C   UNL     2     -10.721  14.956  66.939  1.00  0.00    -0.308 C  
HETATM   10  C   UNL     2     -11.984  14.226  67.367  1.00  0.00    -0.426 C  
ENDBRANCH   6   9
BRANCH   7  11
HETATM   11  O   UNL     2      -8.615  12.851  68.478  1.00  0.00    -0.139 OA 
BRANCH  11  12
HETATM   12  C   UNL     2      -9.006  11.538  67.998  1.00  0.00    -0.170 C  
HETATM   13  C   UNL     2      -9.578  11.491  66.540  1.00  0.00    -0.225 C  
HETATM   14  C   UNL     2      -9.909   9.982  66.081  1.00  0.00    -0.246 C  
HETATM   15  C   UNL     2     -10.506   8.682  66.751  1.00  0.00    -0.298 C  
HETATM   16  C   UNL     2      -9.561   8.407  67.953  1.00  0.00    -0.180 C  
HETATM   17  C   UNL     2      -8.212   9.097  67.621  1.00  0.00    -0.108 C  
HETATM   18  C   UNL     2      -7.965  10.448  68.318  1.00  0.00    -0.111 C  
HETATM   19  N   UNL     2      -8.363   9.349  66.119  1.00  0.00    -0.114 N  
HETATM   20  C   UNL     2      -7.304  10.207  65.416  1.00  0.00    -0.144 C  
HETATM   21  C   UNL     2      -8.190   7.984  65.369  1.00  0.00    -0.151 C  
ENDBRANCH  11  12
ENDBRANCH   7  11
ENDBRANCH   3   4
TORSDOF 4
ENDMDL
MODEL      147
REMARK 921   NORMALIZED FREE ENERGY PREDICTED BY IDOCK:   -3.76 KCAL/MOL
REMARK 922        TOTAL FREE ENERGY PREDICTED BY IDOCK:   -5.19 KCAL/MOL
REMARK 923 INTER-LIGAND FREE ENERGY PREDICTED BY IDOCK:   -4.44 KCAL/MOL
REMARK 924 INTRA-LIGAND FREE ENERGY PREDICTED BY IDOCK:   -0.76 KCAL/MOL
REMARK 927      BINDING AFFINITY PREDICTED BY RF-SCORE:    0.00 PKD
ROOT
HETATM    1 BR   UNL     1      -9.912  18.148  66.728  1.00  0.00    -0.378 Br 
HETATM    2  C   UNL     2      -6.376   5.200  66.956  1.00  0.00    -0.040 C  
HETATM    3  C   UNL     2      -6.254   6.677  67.301  1.00  0.00    -0.036 C  
ENDROOT
BRANCH   3   4
HETATM    4  C   UNL     2      -6.920   7.568  66.245  1.00  0.00    -0.066 C  
HETATM    5  C   UNL     2      -8.395   7.927  66.554  1.00  0.00    -0.127 C  
HETATM    6  C   UNL     2      -8.583   8.614  67.924  1.00  0.00    -0.137 C  
HETATM    7  C   UNL     2      -8.999   8.722  65.383  1.00  0.00    -0.160 C  
HETATM    8  O   UNL     2      -8.542   8.717  64.248  1.00  0.00    -0.134 OA 
BRANCH   6   9
HETATM    9  C   UNL     2      -7.819   9.934  68.068  1.00  0.00    -0.086 C  
HETATM   10  C   UNL     2      -8.523  10.895  69.012  1.00  0.00    -0.110 C  
ENDBRANCH   6   9
BRANCH   7  11
HETATM   11  O   UNL     2     -10.151   9.356  65.731  1.00  0.00    -0.288 OA 
BRANCH  11  12
HETATM   12  C   UNL     2     -10.248  10.805  65.721  1.00  0.00    -0.257 C  
HETATM   13  C   UNL     2     -10.169  11.480  64.309  1.00  0.00    -0.361 C  
HETATM   14  C   UNL     2     -10.363  13.078  64.404  1.00  0.00    -0.374 C  
HETATM   15  C   UNL     2      -9.922  14.231  65.389  1.00  0.00    -0.334 C  
HETATM   16  C   UNL     2     -10.498  13.798  66.765  1.00  0.00    -0.270 C  
HETATM   17  C   UNL     2     -11.678  12.837  66.465  1.00  0.00    -0.400 C  
HETATM   18  C   UNL     2     -11.374  11.336  66.628  1.00  0.00    -0.154 C  
HETATM   19  N   UNL     2     -11.931  13.119  64.982  1.00  0.00    -0.360 N  
HETATM   20  C   UNL     2     -12.914  12.217  64.227  1.00  0.00    -0.133 C  
HETATM   21  C   UNL     2     -12.642  14.510  64.858  1.00  0.00    -0.234 C  
ENDBRANCH  11  12
ENDBRANCH   7  11
ENDBRANCH   3   4
TORSDOF 4
ENDMDL
MODEL      148
REMARK 921   NORMALIZED FREE ENERGY PREDICTED BY IDOCK:   -3.74 KCAL/MOL
REMARK 922        TOTAL FREE ENERGY PREDICTED BY IDOCK:   -5.17 KCAL/MOL
REMARK 923 INTER-LIGAND FREE ENERGY PREDICTED BY IDOCK:   -4.81 KCAL/MOL
REMARK 924 INTRA-LIGAND FREE ENERGY PREDICTED BY IDOCK:   -0.37 KCAL/MOL
REMARK 927      BINDING AFFINITY PREDICTED BY RF-SCORE:    0.00 PKD
ROOT
HETATM    1 BR   UNL     1      -8.849  18.941  67.293  1.00  0.00    -0.307 Br 
HETATM    2  C   UNL     2     -13.829   7.277  71.695  1.00  0.00    -0.461 C  
HETATM    3  C   UNL     2     -13.781   8.789  71.524  1.00  0.00    -0.384 C  
ENDROOT
BRANCH   3   4
HETATM    4  C   UNL     2     -12.358   9.290  71.250  1.00  0.00    -0.403 C  
HETATM    5  C   UNL     2     -12.270  10.402  70.175  1.00  0.00    -0.305 C  
HETATM    6  C   UNL     2     -13.139  11.636  70.500  1.00  0.00     0.270 C  
HETATM    7  C   UNL     2     -10.796  10.747  69.896  1.00  0.00    -0.202 C  
HETATM    8  O   UNL     2      -9.860  10.005  70.159  1.00  0.00    -0.241 OA 
BRANCH   6   9
HETATM    9  C   UNL     2     -12.768  12.329  71.814  1.00  0.00    -0.257 C  
HETATM   10  C   UNL     2     -13.866  13.270  72.287  1.00  0.00    -0.637 C  
ENDBRANCH   6   9
BRANCH   7  11
HETATM   11  O   UNL     2     -10.661  11.931  69.239  1.00  0.00    -0.167 OA 
BRANCH  11  12
HETATM   12  C   UNL     2     -10.771  12.008  67.793  1.00  0.00    -0.210 C  
HETATM   13  C   UNL     2      -9.787  13.003  67.089  1.00  0.00    -0.230 C  
HETATM   14  C   UNL     2      -9.940  12.954  65.486  1.00  0.00    -0.213 C  
HETATM   15  C   UNL     2     -11.123  12.813  64.449  1.00  0.00    -0.386 C  
HETATM   16  C   UNL     2     -11.809  11.474  64.835  1.00  0.00     0.117 C  
HETATM   17  C   UNL     2     -10.744  10.636  65.591  1.00  0.00    -0.034 C  
HETATM   18  C   UNL     2     -10.874  10.623  67.126  1.00  0.00    -0.328 C  
HETATM   19  N   UNL     2      -9.457  11.376  65.223  1.00  0.00    -0.225 N  
HETATM   20  C   UNL     2      -8.159  10.978  65.935  1.00  0.00    -0.075 C  
HETATM   21  C   UNL     2      -9.100  11.035  63.735  1.00  0.00    -0.128 C  
ENDBRANCH  11  12
ENDBRANCH   7  11
ENDBRANCH   3   4
TORSDOF 4
ENDMDL
MODEL      149
REMARK 921   NORMALIZED FREE ENERGY PREDICTED BY IDOCK:   -3.71 KCAL/MOL
REMARK 922        TOTAL FREE ENERGY PREDICTED BY IDOCK:   -5.14 KCAL/MOL
REMARK 923 INTER-LIGAND FREE ENERGY PREDICTED BY IDOCK:   -4.51 KCAL/MOL
REMARK 924 INTRA-LIGAND FREE ENERGY PREDICTED BY IDOCK:   -0.63 KCAL/MOL
REMARK 927      BINDING AFFINITY PREDICTED BY RF-SCORE:    0.00 PKD
ROOT
HETATM    1 BR   UNL     1     -10.458   3.966  62.719  1.00  0.00    -0.160 Br 
HETATM    2  C   UNL     2     -11.863  16.038  68.422  1.00  0.00    -0.068 C  
HETATM    3  C   UNL     2     -11.313  15.032  67.420  1.00  0.00    -0.338 C  
ENDROOT
BRANCH   3   4
HETATM    4  C   UNL     2     -11.356  13.599  67.964  1.00  0.00    -0.316 C  
HETATM    5  C   UNL     2     -11.000  12.511  66.921  1.00  0.00    -0.296 C  
HETATM    6  C   UNL     2      -9.615  12.717  66.270  1.00  0.00    -0.242 C  
HETATM    7  C   UNL     2     -11.186  11.113  67.537  1.00  0.00    -0.301 C  
HETATM    8  O   UNL     2     -11.877  10.887  68.520  1.00  0.00    -0.464 OA 
BRANCH   6   9
HETATM    9  C   UNL     2      -8.452  12.702  67.266  1.00  0.00    -0.193 C  
HETATM   10  C   UNL     2      -7.353  11.744  66.836  1.00  0.00    -0.104 C  
ENDBRANCH   6   9
BRANCH   7  11
HETATM   11  O   UNL     2     -10.569  10.144  66.807  1.00  0.00    -0.223 OA 
BRANCH  11  12
HETATM   12  C   UNL     2      -9.822   9.077  67.449  1.00  0.00    -0.190 C  
HETATM   13  C   UNL     2      -9.294   9.389  68.890  1.00  0.00    -0.154 C  
HETATM   14  C   UNL     2      -8.549   8.115  69.538  1.00  0.00    -0.134 C  
HETATM   15  C   UNL     2      -7.584   6.970  69.033  1.00  0.00    -0.104 C  
HETATM   16  C   UNL     2      -8.381   6.278  67.894  1.00  0.00    -0.118 C  
HETATM   17  C   UNL     2      -9.879   6.581  68.156  1.00  0.00    -0.131 C  
HETATM   18  C   UNL     2     -10.494   7.699  67.292  1.00  0.00    -0.396 C  
HETATM   19  N   UNL     2      -9.842   7.060  69.609  1.00  0.00    -0.164 N  
HETATM   20  C   UNL     2     -11.120   7.656  70.211  1.00  0.00    -0.244 C  
HETATM   21  C   UNL     2      -9.626   5.813  70.534  1.00  0.00    -0.173 C  
ENDBRANCH  11  12
ENDBRANCH   7  11
ENDBRANCH   3   4
TORSDOF 4
ENDMDL
MODEL      150
REMARK 921   NORMALIZED FREE ENERGY PREDICTED BY IDOCK:   -3.70 KCAL/MOL
REMARK 922        TOTAL FREE ENERGY PREDICTED BY IDOCK:   -5.12 KCAL/MOL
REMARK 923 INTER-LIGAND FREE ENERGY PREDICTED BY IDOCK:   -4.34 KCAL/MOL
REMARK 924 INTRA-LIGAND FREE ENERGY PREDICTED BY IDOCK:   -0.78 KCAL/MOL
REMARK 927      BINDING AFFINITY PREDICTED BY RF-SCORE:    0.00 PKD
ROOT
HETATM    1 BR   UNL     1      -7.346  17.861  68.548  1.00  0.00    -0.277 Br 
HETATM    2  C   UNL     2      -6.420   4.770  71.372  1.00  0.00    -0.023 C  
HETATM    3  C   UNL     2      -6.289   6.015  70.506  1.00  0.00    -0.036 C  
ENDROOT
BRANCH   3   4
HETATM    4  C   UNL     2      -7.259   7.120  70.942  1.00  0.00    -0.070 C  
HETATM    5  C   UNL     2      -8.131   7.689  69.795  1.00  0.00    -0.125 C  
HETATM    6  C   UNL     2      -8.957   6.610  69.061  1.00  0.00    -0.130 C  
HETATM    7  C   UNL     2      -8.980   8.863  70.314  1.00  0.00    -0.183 C  
HETATM    8  O   UNL     2      -8.718   9.499  71.326  1.00  0.00    -0.241 OA 
BRANCH   6   9
HETATM    9  C   UNL     2      -9.939   5.858  69.964  1.00  0.00    -0.239 C  
HETATM   10  C   UNL     2     -11.373   5.995  69.478  1.00  0.00    -0.306 C  
ENDBRANCH   6   9
BRANCH   7  11
HETATM   11  O   UNL     2     -10.001   9.173  69.469  1.00  0.00    -0.177 OA 
BRANCH  11  12
HETATM   12  C   UNL     2     -10.014  10.420  68.727  1.00  0.00    -0.188 C  
HETATM   13  C   UNL     2      -8.733  10.718  67.876  1.00  0.00    -0.129 C  
HETATM   14  C   UNL     2      -8.883  12.085  67.035  1.00  0.00    -0.197 C  
HETATM   15  C   UNL     2      -9.506  13.516  67.273  1.00  0.00    -0.230 C  
HETATM   16  C   UNL     2     -10.995  13.231  67.610  1.00  0.00    -0.281 C  
HETATM   17  C   UNL     2     -11.327  11.844  67.001  1.00  0.00    -0.329 C  
HETATM   18  C   UNL     2     -11.346  10.667  67.994  1.00  0.00    -0.350 C  
HETATM   19  N   UNL     2     -10.152  11.645  66.041  1.00  0.00    -0.216 N  
HETATM   20  C   UNL     2      -9.990  10.279  65.363  1.00  0.00    -0.302 C  
HETATM   21  C   UNL     2     -10.368  12.574  64.797  1.00  0.00    -0.307 C  
ENDBRANCH  11  12
ENDBRANCH   7  11
ENDBRANCH   3   4
TORSDOF 4
ENDMDL
MODEL      151
REMARK 921   NORMALIZED FREE ENERGY PREDICTED BY IDOCK:   -3.67 KCAL/MOL
REMARK 922        TOTAL FREE ENERGY PREDICTED BY IDOCK:   -5.09 KCAL/MOL
REMARK 923 INTER-LIGAND FREE ENERGY PREDICTED BY IDOCK:   -4.34 KCAL/MOL
REMARK 924 INTRA-LIGAND FREE ENERGY PREDICTED BY IDOCK:   -0.75 KCAL/MOL
REMARK 927      BINDING AFFINITY PREDICTED BY RF-SCORE:    0.00 PKD
ROOT
HETATM    1 BR   UNL     1      -9.059   2.656  70.803  1.00  0.00    -0.201 Br 
HETATM    2  C   UNL     2     -12.585  14.374  65.283  1.00  0.00    -0.333 C  
HETATM    3  C   UNL     2     -11.665  13.195  65.567  1.00  0.00    -0.393 C  
ENDROOT
BRANCH   3   4
HETATM    4  C   UNL     2     -11.996  12.519  66.903  1.00  0.00    -0.306 C  
HETATM    5  C   UNL     2     -10.771  11.901  67.624  1.00  0.00    -0.253 C  
HETATM    6  C   UNL     2      -9.640  12.918  67.888  1.00  0.00    -0.215 C  
HETATM    7  C   UNL     2     -11.230  11.153  68.888  1.00  0.00    -0.256 C  
HETATM    8  O   UNL     2     -12.374  10.761  69.072  1.00  0.00    -0.422 OA 
BRANCH   6   9
HETATM    9  C   UNL     2     -10.059  14.100  68.767  1.00  0.00    -0.199 C  
HETATM   10  C   UNL     2      -9.918  15.426  68.037  1.00  0.00    -0.221 C  
ENDBRANCH   6   9
BRANCH   7  11
HETATM   11  O   UNL     2     -10.197  10.894  69.735  1.00  0.00    -0.088 OA 
BRANCH  11  12
HETATM   12  C   UNL     2      -9.478   9.633  69.686  1.00  0.00    -0.210 C  
HETATM   13  C   UNL     2     -10.248   8.390  70.249  1.00  0.00    -0.204 C  
HETATM   14  C   UNL     2      -9.393   7.035  70.077  1.00  0.00    -0.158 C  
HETATM   15  C   UNL     2      -7.876   6.611  70.195  1.00  0.00    -0.107 C  
HETATM   16  C   UNL     2      -7.145   7.533  69.180  1.00  0.00    -0.078 C  
HETATM   17  C   UNL     2      -8.209   7.978  68.143  1.00  0.00    -0.126 C  
HETATM   18  C   UNL     2      -8.775   9.398  68.336  1.00  0.00    -0.124 C  
HETATM   19  N   UNL     2      -9.331   6.972  68.409  1.00  0.00    -0.131 N  
HETATM   20  C   UNL     2     -10.679   7.186  67.711  1.00  0.00    -0.212 C  
HETATM   21  C   UNL     2      -8.902   5.586  67.817  1.00  0.00    -0.105 C  
ENDBRANCH  11  12
ENDBRANCH   7  11
ENDBRANCH   3   4
TORSDOF 4
ENDMDL
MODEL      152
REMARK 921   NORMALIZED FREE ENERGY PREDICTED BY IDOCK:   -3.63 KCAL/MOL
REMARK 922        TOTAL FREE ENERGY PREDICTED BY IDOCK:   -5.04 KCAL/MOL
REMARK 923 INTER-LIGAND FREE ENERGY PREDICTED BY IDOCK:   -4.24 KCAL/MOL
REMARK 924 INTRA-LIGAND FREE ENERGY PREDICTED BY IDOCK:   -0.80 KCAL/MOL
REMARK 927      BINDING AFFINITY PREDICTED BY RF-SCORE:    0.00 PKD
ROOT
HETATM    1 BR   UNL     1     -12.188  12.499  63.526  1.00  0.00    -0.625 Br 
HETATM    2  C   UNL     2     -10.977   3.850  73.721  1.00  0.00    -0.321 C  
HETATM    3  C   UNL     2     -11.380   5.156  73.050  1.00  0.00    -0.381 C  
ENDROOT
BRANCH   3   4
HETATM    4  C   UNL     2     -10.523   5.451  71.813  1.00  0.00    -0.288 C  
HETATM    5  C   UNL     2     -10.729   6.868  71.220  1.00  0.00    -0.249 C  
HETATM    6  C   UNL     2     -10.475   8.000  72.239  1.00  0.00    -0.344 C  
HETATM    7  C   UNL     2      -9.914   7.017  69.923  1.00  0.00    -0.177 C  
HETATM    8  O   UNL     2      -9.510   6.073  69.258  1.00  0.00    -0.131 OA 
BRANCH   6   9
HETATM    9  C   UNL     2      -9.054   8.015  72.811  1.00  0.00    -0.303 C  
HETATM   10  C   UNL     2      -9.032   7.624  74.280  1.00  0.00    -0.183 C  
ENDBRANCH   6   9
BRANCH   7  11
HETATM   11  O   UNL     2      -9.774   8.319  69.551  1.00  0.00    -0.170 OA 
BRANCH  11  12
HETATM   12  C   UNL     2      -8.502   8.835  69.077  1.00  0.00    -0.130 C  
HETATM   13  C   UNL     2      -8.391   9.050  67.529  1.00  0.00    -0.116 C  
HETATM   14  C   UNL     2      -6.972   9.696  67.120  1.00  0.00    -0.085 C  
HETATM   15  C   UNL     2      -5.468   9.546  67.579  1.00  0.00    -0.037 C  
HETATM   16  C   UNL     2      -5.499   9.879  69.096  1.00  0.00    -0.035 C  
HETATM   17  C   UNL     2      -6.764  10.744  69.332  1.00  0.00    -0.097 C  
HETATM   18  C   UNL     2      -7.976  10.004  69.931  1.00  0.00    -0.184 C  
HETATM   19  N   UNL     2      -7.115  11.165  67.903  1.00  0.00    -0.079 N  
HETATM   20  C   UNL     2      -8.445  11.890  67.664  1.00  0.00    -0.156 C  
HETATM   21  C   UNL     2      -6.090  12.259  67.445  1.00  0.00    -0.153 C  
ENDBRANCH  11  12
ENDBRANCH   7  11
ENDBRANCH   3   4
TORSDOF 4
ENDMDL
MODEL      153
REMARK 921   NORMALIZED FREE ENERGY PREDICTED BY IDOCK:   -3.62 KCAL/MOL
REMARK 922        TOTAL FREE ENERGY PREDICTED BY IDOCK:   -5.02 KCAL/MOL
REMARK 923 INTER-LIGAND FREE ENERGY PREDICTED BY IDOCK:   -4.57 KCAL/MOL
REMARK 924 INTRA-LIGAND FREE ENERGY PREDICTED BY IDOCK:   -0.46 KCAL/MOL
REMARK 927      BINDING AFFINITY PREDICTED BY RF-SCORE:    0.00 PKD
ROOT
HETATM    1 BR   UNL     1      -9.848   1.558  71.361  1.00  0.00    -0.172 Br 
HETATM    2  C   UNL     2     -11.545  14.164  67.068  1.00  0.00    -0.404 C  
HETATM    3  C   UNL     2     -11.838  12.938  67.922  1.00  0.00    -0.388 C  
ENDROOT
BRANCH   3   4
HETATM    4  C   UNL     2     -11.395  11.641  67.232  1.00  0.00    -0.372 C  
HETATM    5  C   UNL     2     -10.040  11.084  67.734  1.00  0.00    -0.201 C  
HETATM    6  C   UNL     2     -10.008  10.831  69.257  1.00  0.00    -0.182 C  
HETATM    7  C   UNL     2      -9.637   9.854  66.900  1.00  0.00    -0.179 C  
HETATM    8  O   UNL     2     -10.085   9.607  65.789  1.00  0.00    -0.290 OA 
BRANCH   6   9
HETATM    9  C   UNL     2     -11.052   9.821  69.741  1.00  0.00    -0.272 C  
HETATM   10  C   UNL     2     -10.588   9.082  70.985  1.00  0.00    -0.341 C  
ENDBRANCH   6   9
BRANCH   7  11
HETATM   11  O   UNL     2      -8.658   9.124  67.501  1.00  0.00    -0.116 OA 
BRANCH  11  12
HETATM   12  C   UNL     2      -8.952   7.863  68.157  1.00  0.00    -0.131 C  
HETATM   13  C   UNL     2     -10.226   7.110  67.641  1.00  0.00    -0.253 C  
HETATM   14  C   UNL     2     -10.416   5.691  68.381  1.00  0.00    -0.195 C  
HETATM   15  C   UNL     2     -10.218   5.121  69.841  1.00  0.00    -0.361 C  
HETATM   16  C   UNL     2      -8.725   5.404  70.160  1.00  0.00    -0.134 C  
HETATM   17  C   UNL     2      -8.000   5.536  68.795  1.00  0.00    -0.095 C  
HETATM   18  C   UNL     2      -7.705   6.975  68.333  1.00  0.00    -0.120 C  
HETATM   19  N   UNL     2      -9.031   4.926  67.844  1.00  0.00    -0.107 N  
HETATM   20  C   UNL     2      -8.784   5.037  66.335  1.00  0.00    -0.114 C  
HETATM   21  C   UNL     2      -9.021   3.370  68.036  1.00  0.00    -0.139 C  
ENDBRANCH  11  12
ENDBRANCH   7  11
ENDBRANCH   3   4
TORSDOF 4
ENDMDL
MODEL      154
REMARK 921   NORMALIZED FREE ENERGY PREDICTED BY IDOCK:   -3.62 KCAL/MOL
REMARK 922        TOTAL FREE ENERGY PREDICTED BY IDOCK:   -5.02 KCAL/MOL
REMARK 923 INTER-LIGAND FREE ENERGY PREDICTED BY IDOCK:   -4.18 KCAL/MOL
REMARK 924 INTRA-LIGAND FREE ENERGY PREDICTED BY IDOCK:   -0.84 KCAL/MOL
REMARK 927      BINDING AFFINITY PREDICTED BY RF-SCORE:    0.00 PKD
ROOT
HETATM    1 BR   UNL     1      -6.158   4.644  71.193  1.00  0.00    -0.019 Br 
HETATM    2  C   UNL     2     -11.904  16.325  67.915  1.00  0.00     0.386 C  
HETATM    3  C   UNL     2     -10.781  15.299  67.970  1.00  0.00    -0.268 C  
ENDROOT
BRANCH   3   4
HETATM    4  C   UNL     2     -10.931  14.351  69.167  1.00  0.00    -0.288 C  
HETATM    5  C   UNL     2     -11.467  12.944  68.801  1.00  0.00    -0.345 C  
HETATM    6  C   UNL     2     -10.608  12.219  67.742  1.00  0.00    -0.241 C  
HETATM    7  C   UNL     2     -11.687  12.118  70.080  1.00  0.00    -0.218 C  
HETATM    8  O   UNL     2     -11.816  12.606  71.195  1.00  0.00     0.242 OA 
BRANCH   6   9
HETATM    9  C   UNL     2      -9.156  11.989  68.171  1.00  0.00    -0.191 C  
HETATM   10  C   UNL     2      -8.174  12.661  67.225  1.00  0.00    -0.184 C  
ENDBRANCH   6   9
BRANCH   7  11
HETATM   11  O   UNL     2     -11.817  10.789  69.818  1.00  0.00    -0.287 OA 
BRANCH  11  12
HETATM   12  C   UNL     2     -11.370   9.785  70.767  1.00  0.00    -0.342 C  
HETATM   13  C   UNL     2     -12.428   8.695  71.151  1.00  0.00    -0.210 C  
HETATM   14  C   UNL     2     -11.806   7.591  72.147  1.00  0.00    -0.298 C  
HETATM   15  C   UNL     2     -10.807   7.581  73.371  1.00  0.00    -0.339 C  
HETATM   16  C   UNL     2      -9.505   8.208  72.802  1.00  0.00    -0.349 C  
HETATM   17  C   UNL     2      -9.551   8.004  71.266  1.00  0.00    -0.156 C  
HETATM   18  C   UNL     2      -9.968   9.237  70.441  1.00  0.00    -0.287 C  
HETATM   19  N   UNL     2     -10.646   6.944  71.133  1.00  0.00    -0.220 N  
HETATM   20  C   UNL     2     -11.151   6.590  69.730  1.00  0.00    -0.370 C  
HETATM   21  C   UNL     2     -10.059   5.566  71.598  1.00  0.00    -0.195 C  
ENDBRANCH  11  12
ENDBRANCH   7  11
ENDBRANCH   3   4
TORSDOF 4
ENDMDL
MODEL      155
REMARK 921   NORMALIZED FREE ENERGY PREDICTED BY IDOCK:   -3.62 KCAL/MOL
REMARK 922        TOTAL FREE ENERGY PREDICTED BY IDOCK:   -5.02 KCAL/MOL
REMARK 923 INTER-LIGAND FREE ENERGY PREDICTED BY IDOCK:   -4.26 KCAL/MOL
REMARK 924 INTRA-LIGAND FREE ENERGY PREDICTED BY IDOCK:   -0.76 KCAL/MOL
REMARK 927      BINDING AFFINITY PREDICTED BY RF-SCORE:    0.00 PKD
ROOT
HETATM    1 BR   UNL     1     -12.648  16.434  73.648  1.00  0.00    -0.467 Br 
HETATM    2  C   UNL     2      -7.971   7.856  64.442  1.00  0.00    -0.132 C  
HETATM    3  C   UNL     2      -8.969   8.833  65.046  1.00  0.00    -0.113 C  
ENDROOT
BRANCH   3   4
HETATM    4  C   UNL     2      -8.835   8.916  66.572  1.00  0.00    -0.160 C  
HETATM    5  C   UNL     2     -10.035   8.318  67.349  1.00  0.00    -0.271 C  
HETATM    6  C   UNL     2     -10.322   6.844  66.990  1.00  0.00    -0.348 C  
HETATM    7  C   UNL     2      -9.853   8.556  68.859  1.00  0.00    -0.176 C  
HETATM    8  O   UNL     2      -9.119   9.414  69.331  1.00  0.00    -0.145 OA 
BRANCH   6   9
HETATM    9  C   UNL     2      -9.155   5.895  67.277  1.00  0.00    -0.111 C  
HETATM   10  C   UNL     2      -9.621   4.612  67.946  1.00  0.00    -0.205 C  
ENDBRANCH   6   9
BRANCH   7  11
HETATM   11  O   UNL     2     -10.672   7.767  69.606  1.00  0.00    -0.243 OA 
BRANCH  11  12
HETATM   12  C   UNL     2     -10.290   7.328  70.936  1.00  0.00    -0.201 C  
HETATM   13  C   UNL     2     -11.392   6.556  71.739  1.00  0.00    -0.325 C  
HETATM   14  C   UNL     2     -10.840   6.049  73.166  1.00  0.00    -0.259 C  
HETATM   15  C   UNL     2      -9.888   6.611  74.295  1.00  0.00    -0.353 C  
HETATM   16  C   UNL     2      -8.548   6.887  73.559  1.00  0.00    -0.152 C  
HETATM   17  C   UNL     2      -8.542   5.981  72.300  1.00  0.00    -0.124 C  
HETATM   18  C   UNL     2      -8.892   6.682  70.973  1.00  0.00    -0.142 C  
HETATM   19  N   UNL     2      -9.661   4.992  72.632  1.00  0.00    -0.140 N  
HETATM   20  C   UNL     2     -10.121   4.021  71.539  1.00  0.00    -0.096 C  
HETATM   21  C   UNL     2      -9.131   3.993  73.718  1.00  0.00    -0.094 C  
ENDBRANCH  11  12
ENDBRANCH   7  11
ENDBRANCH   3   4
TORSDOF 4
ENDMDL
MODEL      156
REMARK 921   NORMALIZED FREE ENERGY PREDICTED BY IDOCK:   -3.61 KCAL/MOL
REMARK 922        TOTAL FREE ENERGY PREDICTED BY IDOCK:   -5.02 KCAL/MOL
REMARK 923 INTER-LIGAND FREE ENERGY PREDICTED BY IDOCK:   -4.31 KCAL/MOL
REMARK 924 INTRA-LIGAND FREE ENERGY PREDICTED BY IDOCK:   -0.71 KCAL/MOL
REMARK 927      BINDING AFFINITY PREDICTED BY RF-SCORE:    0.00 PKD
ROOT
HETATM    1 BR   UNL     1     -12.454  13.993  65.488  1.00  0.00    -0.528 Br 
HETATM    2  C   UNL     2      -6.265   2.339  67.957  1.00  0.00    -0.025 C  
HETATM    3  C   UNL     2      -6.366   3.784  67.489  1.00  0.00    -0.037 C  
ENDROOT
BRANCH   3   4
HETATM    4  C   UNL     2      -7.794   4.148  67.062  1.00  0.00    -0.096 C  
HETATM    5  C   UNL     2      -8.335   5.453  67.699  1.00  0.00    -0.099 C  
HETATM    6  C   UNL     2      -7.443   6.683  67.425  1.00  0.00    -0.096 C  
HETATM    7  C   UNL     2      -9.806   5.662  67.298  1.00  0.00    -0.146 C  
HETATM    8  O   UNL     2     -10.538   4.767  66.898  1.00  0.00    -0.158 OA 
BRANCH   6   9
HETATM    9  C   UNL     2      -7.276   7.011  65.938  1.00  0.00    -0.074 C  
HETATM   10  C   UNL     2      -7.404   8.502  65.670  1.00  0.00    -0.084 C  
ENDBRANCH   6   9
BRANCH   7  11
HETATM   11  O   UNL     2     -10.226   6.936  67.528  1.00  0.00    -0.160 OA 
BRANCH  11  12
HETATM   12  C   UNL     2     -10.758   7.334  68.819  1.00  0.00    -0.139 C  
HETATM   13  C   UNL     2     -11.246   6.165  69.741  1.00  0.00    -0.494 C  
HETATM   14  C   UNL     2     -11.744   6.709  71.174  1.00  0.00    -0.346 C  
HETATM   15  C   UNL     2     -12.544   7.961  71.712  1.00  0.00    -0.353 C  
HETATM   16  C   UNL     2     -11.715   9.180  71.223  1.00  0.00    -0.396 C  
HETATM   17  C   UNL     2     -10.270   8.666  70.991  1.00  0.00    -0.220 C  
HETATM   18  C   UNL     2      -9.889   8.392  69.523  1.00  0.00    -0.181 C  
HETATM   19  N   UNL     2     -10.299   7.331  71.738  1.00  0.00    -0.196 N  
HETATM   20  C   UNL     2      -9.098   6.389  71.591  1.00  0.00    -0.144 C  
HETATM   21  C   UNL     2     -10.264   7.625  73.277  1.00  0.00    -0.339 C  
ENDBRANCH  11  12
ENDBRANCH   7  11
ENDBRANCH   3   4
TORSDOF 4
ENDMDL
MODEL      157
REMARK 921   NORMALIZED FREE ENERGY PREDICTED BY IDOCK:   -3.61 KCAL/MOL
REMARK 922        TOTAL FREE ENERGY PREDICTED BY IDOCK:   -5.02 KCAL/MOL
REMARK 923 INTER-LIGAND FREE ENERGY PREDICTED BY IDOCK:   -4.17 KCAL/MOL
REMARK 924 INTRA-LIGAND FREE ENERGY PREDICTED BY IDOCK:   -0.84 KCAL/MOL
REMARK 927      BINDING AFFINITY PREDICTED BY RF-SCORE:    0.00 PKD
ROOT
HETATM    1 BR   UNL     1     -12.988  11.963  71.813  1.00  0.00    -0.347 Br 
HETATM    2  C   UNL     2      -9.570   2.663  62.754  1.00  0.00    -0.092 C  
HETATM    3  C   UNL     2     -10.345   3.231  63.935  1.00  0.00    -0.215 C  
ENDROOT
BRANCH   3   4
HETATM    4  C   UNL     2      -9.564   4.338  64.654  1.00  0.00    -0.160 C  
HETATM    5  C   UNL     2      -9.759   4.361  66.190  1.00  0.00    -0.220 C  
HETATM    6  C   UNL     2      -9.398   3.023  66.873  1.00  0.00    -0.137 C  
HETATM    7  C   UNL     2      -9.029   5.573  66.794  1.00  0.00    -0.114 C  
HETATM    8  O   UNL     2      -8.704   6.563  66.153  1.00  0.00    -0.139 OA 
BRANCH   6   9
HETATM    9  C   UNL     2      -7.943   2.594  66.668  1.00  0.00    -0.080 C  
HETATM   10  C   UNL     2      -7.247   2.307  67.988  1.00  0.00    -0.048 C  
ENDBRANCH   6   9
BRANCH   7  11
HETATM   11  O   UNL     2      -8.869   5.458  68.141  1.00  0.00    -0.106 OA 
BRANCH  11  12
HETATM   12  C   UNL     2      -9.521   6.374  69.059  1.00  0.00    -0.129 C  
HETATM   13  C   UNL     2     -11.002   6.022  69.432  1.00  0.00    -0.455 C  
HETATM   14  C   UNL     2     -11.603   7.057  70.512  1.00  0.00    -0.319 C  
HETATM   15  C   UNL     2     -11.514   8.610  70.788  1.00  0.00    -0.293 C  
HETATM   16  C   UNL     2      -9.994   8.878  70.961  1.00  0.00    -0.324 C  
HETATM   17  C   UNL     2      -9.353   7.528  71.377  1.00  0.00    -0.141 C  
HETATM   18  C   UNL     2      -8.629   6.761  70.254  1.00  0.00    -0.140 C  
HETATM   19  N   UNL     2     -10.585   6.722  71.794  1.00  0.00    -0.212 N  
HETATM   20  C   UNL     2     -10.410   5.230  72.098  1.00  0.00    -0.212 C  
HETATM   21  C   UNL     2     -11.077   7.256  73.183  1.00  0.00    -0.292 C  
ENDBRANCH  11  12
ENDBRANCH   7  11
ENDBRANCH   3   4
TORSDOF 4
ENDMDL
MODEL      158
REMARK 921   NORMALIZED FREE ENERGY PREDICTED BY IDOCK:   -3.60 KCAL/MOL
REMARK 922        TOTAL FREE ENERGY PREDICTED BY IDOCK:   -5.01 KCAL/MOL
REMARK 923 INTER-LIGAND FREE ENERGY PREDICTED BY IDOCK:   -4.41 KCAL/MOL
REMARK 924 INTRA-LIGAND FREE ENERGY PREDICTED BY IDOCK:   -0.59 KCAL/MOL
REMARK 927      BINDING AFFINITY PREDICTED BY RF-SCORE:    0.00 PKD
ROOT
HETATM    1 BR   UNL     1      -5.211   7.859  63.120  1.00  0.00    -0.050 Br 
HETATM    2  C   UNL     2     -12.780  15.363  71.281  1.00  0.00    -0.501 C  
HETATM    3  C   UNL     2     -12.514  14.311  70.214  1.00  0.00    -0.422 C  
ENDROOT
BRANCH   3   4
HETATM    4  C   UNL     2     -11.188  14.558  69.485  1.00  0.00    -0.300 C  
HETATM    5  C   UNL     2     -10.796  13.445  68.480  1.00  0.00    -0.285 C  
HETATM    6  C   UNL     2     -11.873  13.185  67.405  1.00  0.00    -0.412 C  
HETATM    7  C   UNL     2      -9.403  13.734  67.895  1.00  0.00    -0.211 C  
HETATM    8  O   UNL     2      -8.580  14.471  68.421  1.00  0.00    -0.160 OA 
BRANCH   6   9
HETATM    9  C   UNL     2     -12.191  14.405  66.536  1.00  0.00    -0.358 C  
HETATM   10  C   UNL     2     -12.055  14.093  65.054  1.00  0.00    -0.428 C  
ENDBRANCH   6   9
BRANCH   7  11
HETATM   11  O   UNL     2      -9.155  13.004  66.773  1.00  0.00    -0.230 OA 
BRANCH  11  12
HETATM   12  C   UNL     2      -8.483  11.719  66.842  1.00  0.00    -0.174 C  
HETATM   13  C   UNL     2      -6.923  11.775  66.975  1.00  0.00    -0.135 C  
HETATM   14  C   UNL     2      -6.287  10.302  67.120  1.00  0.00    -0.067 C  
HETATM   15  C   UNL     2      -6.552   8.870  66.506  1.00  0.00    -0.067 C  
HETATM   16  C   UNL     2      -8.033   8.572  66.866  1.00  0.00    -0.095 C  
HETATM   17  C   UNL     2      -8.374   9.451  68.097  1.00  0.00    -0.119 C  
HETATM   18  C   UNL     2      -9.177  10.732  67.800  1.00  0.00    -0.155 C  
HETATM   19  N   UNL     2      -6.978   9.858  68.575  1.00  0.00    -0.066 N  
HETATM   20  C   UNL     2      -6.867  10.912  69.683  1.00  0.00    -0.137 C  
HETATM   21  C   UNL     2      -6.314   8.620  69.270  1.00  0.00    -0.042 C  
ENDBRANCH  11  12
ENDBRANCH   7  11
ENDBRANCH   3   4
TORSDOF 4
ENDMDL
MODEL      159
REMARK 921   NORMALIZED FREE ENERGY PREDICTED BY IDOCK:   -3.58 KCAL/MOL
REMARK 922        TOTAL FREE ENERGY PREDICTED BY IDOCK:   -4.98 KCAL/MOL
REMARK 923 INTER-LIGAND FREE ENERGY PREDICTED BY IDOCK:   -4.27 KCAL/MOL
REMARK 924 INTRA-LIGAND FREE ENERGY PREDICTED BY IDOCK:   -0.71 KCAL/MOL
REMARK 927      BINDING AFFINITY PREDICTED BY RF-SCORE:    0.00 PKD
ROOT
HETATM    1 BR   UNL     1      -5.529   2.351  65.971  1.00  0.00    -0.017 Br 
HETATM    2  C   UNL     2     -11.707  14.121  67.847  1.00  0.00    -0.402 C  
HETATM    3  C   UNL     2     -11.248  12.906  67.052  1.00  0.00    -0.329 C  
ENDROOT
BRANCH   3   4
HETATM    4  C   UNL     2      -9.991  12.269  67.656  1.00  0.00    -0.199 C  
HETATM    5  C   UNL     2     -10.026  10.722  67.714  1.00  0.00    -0.195 C  
HETATM    6  C   UNL     2     -10.261  10.064  66.337  1.00  0.00    -0.290 C  
HETATM    7  C   UNL     2      -8.775  10.195  68.438  1.00  0.00    -0.123 C  
HETATM    8  O   UNL     2      -8.088  10.870  69.193  1.00  0.00    -0.149 OA 
BRANCH   6   9
HETATM    9  C   UNL     2      -9.186  10.394  65.298  1.00  0.00    -0.240 C  
HETATM   10  C   UNL     2      -9.790  10.715  63.940  1.00  0.00    -0.398 C  
ENDBRANCH   6   9
BRANCH   7  11
HETATM   11  O   UNL     2      -8.574   8.867  68.218  1.00  0.00    -0.132 OA 
BRANCH  11  12
HETATM   12  C   UNL     2      -9.139   7.862  69.100  1.00  0.00    -0.145 C  
HETATM   13  C   UNL     2     -10.393   7.103  68.549  1.00  0.00    -0.203 C  
HETATM   14  C   UNL     2     -10.893   5.961  69.571  1.00  0.00    -0.372 C  
HETATM   15  C   UNL     2     -11.024   5.799  71.137  1.00  0.00    -0.295 C  
HETATM   16  C   UNL     2      -9.583   6.037  71.665  1.00  0.00    -0.170 C  
HETATM   17  C   UNL     2      -8.624   5.730  70.485  1.00  0.00    -0.138 C  
HETATM   18  C   UNL     2      -8.068   6.959  69.741  1.00  0.00    -0.126 C  
HETATM   19  N   UNL     2      -9.549   4.968  69.534  1.00  0.00    -0.150 N  
HETATM   20  C   UNL     2      -9.035   4.641  68.127  1.00  0.00    -0.114 C  
HETATM   21  C   UNL     2      -9.777   3.529  70.113  1.00  0.00    -0.085 C  
ENDBRANCH  11  12
ENDBRANCH   7  11
ENDBRANCH   3   4
TORSDOF 4
ENDMDL
MODEL      160
REMARK 921   NORMALIZED FREE ENERGY PREDICTED BY IDOCK:   -3.58 KCAL/MOL
REMARK 922        TOTAL FREE ENERGY PREDICTED BY IDOCK:   -4.97 KCAL/MOL
REMARK 923 INTER-LIGAND FREE ENERGY PREDICTED BY IDOCK:   -4.39 KCAL/MOL
REMARK 924 INTRA-LIGAND FREE ENERGY PREDICTED BY IDOCK:   -0.58 KCAL/MOL
REMARK 927      BINDING AFFINITY PREDICTED BY RF-SCORE:    0.00 PKD
ROOT
HETATM    1 BR   UNL     1      -8.649   8.248  73.737  1.00  0.00    -0.136 Br 
HETATM    2  C   UNL     2      -9.444  19.762  66.881  1.00  0.00    -0.481 C  
HETATM    3  C   UNL     2      -9.330  18.894  68.127  1.00  0.00    -0.368 C  
ENDROOT
BRANCH   3   4
HETATM    4  C   UNL     2      -9.913  17.493  67.903  1.00  0.00    -0.312 C  
HETATM    5  C   UNL     2      -8.934  16.495  67.236  1.00  0.00    -0.212 C  
HETATM    6  C   UNL     2      -7.610  16.327  68.012  1.00  0.00    -0.143 C  
HETATM    7  C   UNL     2      -9.652  15.164  66.954  1.00  0.00    -0.239 C  
HETATM    8  O   UNL     2     -10.868  15.046  66.883  1.00  0.00    -0.303 OA 
BRANCH   6   9
HETATM    9  C   UNL     2      -7.789  15.806  69.441  1.00  0.00    -0.210 C  
HETATM   10  C   UNL     2      -6.644  14.897  69.859  1.00  0.00    -0.175 C  
ENDBRANCH   6   9
BRANCH   7  11
HETATM   11  O   UNL     2      -8.778  14.152  66.699  1.00  0.00    -0.169 OA 
BRANCH  11  12
HETATM   12  C   UNL     2      -8.821  12.911  67.451  1.00  0.00    -0.199 C  
HETATM   13  C   UNL     2     -10.185  12.142  67.416  1.00  0.00    -0.211 C  
HETATM   14  C   UNL     2     -10.100  10.746  68.216  1.00  0.00    -0.171 C  
HETATM   15  C   UNL     2      -9.417  10.222  69.541  1.00  0.00    -0.207 C  
HETATM   16  C   UNL     2      -7.906  10.515  69.330  1.00  0.00    -0.151 C  
HETATM   17  C   UNL     2      -7.684  10.605  67.798  1.00  0.00    -0.100 C  
HETATM   18  C   UNL     2      -7.578  12.030  67.223  1.00  0.00    -0.157 C  
HETATM   19  N   UNL     2      -8.968   9.966  67.267  1.00  0.00    -0.135 N  
HETATM   20  C   UNL     2      -9.244  10.031  65.760  1.00  0.00    -0.176 C  
HETATM   21  C   UNL     2      -8.877   8.417  67.489  1.00  0.00    -0.135 C  
ENDBRANCH  11  12
ENDBRANCH   7  11
ENDBRANCH   3   4
TORSDOF 4
ENDMDL
MODEL      161
REMARK 921   NORMALIZED FREE ENERGY PREDICTED BY IDOCK:   -3.57 KCAL/MOL
REMARK 922        TOTAL FREE ENERGY PREDICTED BY IDOCK:   -4.97 KCAL/MOL
REMARK 923 INTER-LIGAND FREE ENERGY PREDICTED BY IDOCK:   -4.65 KCAL/MOL
REMARK 924 INTRA-LIGAND FREE ENERGY PREDICTED BY IDOCK:   -0.32 KCAL/MOL
REMARK 927      BINDING AFFINITY PREDICTED BY RF-SCORE:    0.00 PKD
ROOT
HETATM    1 BR   UNL     1     -10.791  14.115  64.903  1.00  0.00    -0.436 Br 
HETATM    2  C   UNL     2     -10.457   4.413  74.175  1.00  0.00    -0.313 C  
HETATM    3  C   UNL     2     -11.084   5.264  73.080  1.00  0.00    -0.384 C  
ENDROOT
BRANCH   3   4
HETATM    4  C   UNL     2     -10.415   6.640  72.972  1.00  0.00    -0.268 C  
HETATM    5  C   UNL     2     -10.644   7.354  71.616  1.00  0.00    -0.229 C  
HETATM    6  C   UNL     2     -12.137   7.537  71.266  1.00  0.00    -0.351 C  
HETATM    7  C   UNL     2      -9.839   8.665  71.571  1.00  0.00    -0.272 C  
HETATM    8  O   UNL     2      -8.877   8.900  72.289  1.00  0.00    -0.397 OA 
BRANCH   6   9
HETATM    9  C   UNL     2     -12.917   8.371  72.286  1.00  0.00    -0.338 C  
HETATM   10  C   UNL     2     -14.209   8.918  71.700  1.00  0.00    -0.355 C  
ENDBRANCH   6   9
BRANCH   7  11
HETATM   11  O   UNL     2     -10.262   9.493  70.577  1.00  0.00    -0.249 OA 
BRANCH  11  12
HETATM   12  C   UNL     2      -9.537   9.597  69.323  1.00  0.00    -0.185 C  
HETATM   13  C   UNL     2     -10.039  10.709  68.339  1.00  0.00    -0.181 C  
HETATM   14  C   UNL     2      -9.122  10.788  67.016  1.00  0.00    -0.144 C  
HETATM   15  C   UNL     2      -8.383   9.764  66.067  1.00  0.00    -0.123 C  
HETATM   16  C   UNL     2      -7.436   8.981  67.017  1.00  0.00    -0.087 C  
HETATM   17  C   UNL     2      -7.194   9.893  68.248  1.00  0.00    -0.078 C  
HETATM   18  C   UNL     2      -8.009   9.542  69.508  1.00  0.00    -0.110 C  
HETATM   19  N   UNL     2      -7.678  11.246  67.723  1.00  0.00    -0.109 N  
HETATM   20  C   UNL     2      -7.793  12.411  68.713  1.00  0.00     0.020 C  
HETATM   21  C   UNL     2      -6.603  11.802  66.727  1.00  0.00    -0.060 C  
ENDBRANCH  11  12
ENDBRANCH   7  11
ENDBRANCH   3   4
TORSDOF 4
ENDMDL
MODEL      162
REMARK 921   NORMALIZED FREE ENERGY PREDICTED BY IDOCK:   -3.56 KCAL/MOL
REMARK 922        TOTAL FREE ENERGY PREDICTED BY IDOCK:   -4.95 KCAL/MOL
REMARK 923 INTER-LIGAND FREE ENERGY PREDICTED BY IDOCK:   -4.10 KCAL/MOL
REMARK 924 INTRA-LIGAND FREE ENERGY PREDICTED BY IDOCK:   -0.85 KCAL/MOL
REMARK 927      BINDING AFFINITY PREDICTED BY RF-SCORE:    0.00 PKD
ROOT
HETATM    1 BR   UNL     1      -9.520   2.951  71.214  1.00  0.00    -0.225 Br 
HETATM    2  C   UNL     2     -11.343  15.970  68.494  1.00  0.00    -0.382 C  
HETATM    3  C   UNL     2     -11.743  14.505  68.594  1.00  0.00    -0.364 C  
ENDROOT
BRANCH   3   4
HETATM    4  C   UNL     2     -10.527  13.573  68.518  1.00  0.00    -0.250 C  
HETATM    5  C   UNL     2     -10.790  12.242  67.771  1.00  0.00    -0.256 C  
HETATM    6  C   UNL     2     -11.311  12.442  66.331  1.00  0.00    -0.392 C  
HETATM    7  C   UNL     2      -9.547  11.339  67.853  1.00  0.00    -0.178 C  
HETATM    8  O   UNL     2      -8.667  11.464  68.694  1.00  0.00    -0.158 OA 
BRANCH   6   9
HETATM    9  C   UNL     2     -10.351  13.218  65.425  1.00  0.00    -0.316 C  
HETATM   10  C   UNL     2     -11.030  14.410  64.771  1.00  0.00    -0.409 C  
ENDBRANCH   6   9
BRANCH   7  11
HETATM   11  O   UNL     2      -9.584  10.329  66.942  1.00  0.00    -0.165 OA 
BRANCH  11  12
HETATM   12  C   UNL     2      -8.414   9.975  66.159  1.00  0.00    -0.127 C  
HETATM   13  C   UNL     2      -7.463   8.910  66.803  1.00  0.00    -0.083 C  
HETATM   14  C   UNL     2      -6.240   8.535  65.821  1.00  0.00    -0.052 C  
HETATM   15  C   UNL     2      -5.300   9.306  64.813  1.00  0.00    -0.049 C  
HETATM   16  C   UNL     2      -6.281   9.958  63.801  1.00  0.00    -0.125 C  
HETATM   17  C   UNL     2      -7.587   9.123  63.852  1.00  0.00    -0.113 C  
HETATM   18  C   UNL     2      -8.738   9.736  64.672  1.00  0.00    -0.218 C  
HETATM   19  N   UNL     2      -7.109   7.856  64.565  1.00  0.00    -0.070 N  
HETATM   20  C   UNL     2      -8.159   6.826  64.998  1.00  0.00    -0.126 C  
HETATM   21  C   UNL     2      -6.258   7.012  63.555  1.00  0.00    -0.044 C  
ENDBRANCH  11  12
ENDBRANCH   7  11
ENDBRANCH   3   4
TORSDOF 4
ENDMDL
MODEL      163
REMARK 921   NORMALIZED FREE ENERGY PREDICTED BY IDOCK:   -3.54 KCAL/MOL
REMARK 922        TOTAL FREE ENERGY PREDICTED BY IDOCK:   -4.93 KCAL/MOL
REMARK 923 INTER-LIGAND FREE ENERGY PREDICTED BY IDOCK:   -4.68 KCAL/MOL
REMARK 924 INTRA-LIGAND FREE ENERGY PREDICTED BY IDOCK:   -0.25 KCAL/MOL
REMARK 927      BINDING AFFINITY PREDICTED BY RF-SCORE:    0.00 PKD
ROOT
HETATM    1 BR   UNL     1      -7.076  17.474  66.502  1.00  0.00    -0.318 Br 
HETATM    2  C   UNL     2      -9.088   4.205  66.192  1.00  0.00    -0.137 C  
HETATM    3  C   UNL     2      -8.549   5.538  65.693  1.00  0.00    -0.148 C  
ENDROOT
BRANCH   3   4
HETATM    4  C   UNL     2      -9.389   6.719  66.196  1.00  0.00    -0.095 C  
HETATM    5  C   UNL     2      -8.565   7.985  66.540  1.00  0.00    -0.148 C  
HETATM    6  C   UNL     2      -7.709   8.496  65.362  1.00  0.00    -0.095 C  
HETATM    7  C   UNL     2      -9.486   9.062  67.141  1.00  0.00    -0.152 C  
HETATM    8  O   UNL     2     -10.577   8.827  67.640  1.00  0.00    -0.253 OA 
BRANCH   6   9
HETATM    9  C   UNL     2      -8.522   8.881  64.123  1.00  0.00    -0.156 C  
HETATM   10  C   UNL     2      -7.923   8.302  62.851  1.00  0.00    -0.163 C  
ENDBRANCH   6   9
BRANCH   7  11
HETATM   11  O   UNL     2      -8.906  10.294  67.138  1.00  0.00    -0.135 OA 
BRANCH  11  12
HETATM   12  C   UNL     2      -9.622  11.464  66.663  1.00  0.00    -0.191 C  
HETATM   13  C   UNL     2     -11.148  11.515  67.016  1.00  0.00    -0.365 C  
HETATM   14  C   UNL     2     -11.828  12.886  66.510  1.00  0.00    -0.407 C  
HETATM   15  C   UNL     2     -11.711  13.829  65.248  1.00  0.00    -0.349 C  
HETATM   16  C   UNL     2     -10.211  14.231  65.212  1.00  0.00    -0.408 C  
HETATM   17  C   UNL     2      -9.674  14.058  66.656  1.00  0.00    -0.289 C  
HETATM   18  C   UNL     2      -8.857  12.777  66.915  1.00  0.00    -0.194 C  
HETATM   19  N   UNL     2     -10.975  13.968  67.456  1.00  0.00    -0.273 N  
HETATM   20  C   UNL     2     -10.893  13.593  68.940  1.00  0.00    -0.235 C  
HETATM   21  C   UNL     2     -11.601  15.403  67.543  1.00  0.00    -0.169 C  
ENDBRANCH  11  12
ENDBRANCH   7  11
ENDBRANCH   3   4
TORSDOF 4
ENDMDL
MODEL      164
REMARK 921   NORMALIZED FREE ENERGY PREDICTED BY IDOCK:   -3.52 KCAL/MOL
REMARK 922        TOTAL FREE ENERGY PREDICTED BY IDOCK:   -4.91 KCAL/MOL
REMARK 923 INTER-LIGAND FREE ENERGY PREDICTED BY IDOCK:   -4.06 KCAL/MOL
REMARK 924 INTRA-LIGAND FREE ENERGY PREDICTED BY IDOCK:   -0.85 KCAL/MOL
REMARK 927      BINDING AFFINITY PREDICTED BY RF-SCORE:    0.00 PKD
ROOT
HETATM    1 BR   UNL     1     -10.966  14.104  64.845  1.00  0.00    -0.422 Br 
HETATM    2  C   UNL     2      -8.328   2.649  71.330  1.00  0.00    -0.084 C  
HETATM    3  C   UNL     2      -8.082   3.757  70.315  1.00  0.00    -0.057 C  
ENDROOT
BRANCH   3   4
HETATM    4  C   UNL     2      -9.383   4.464  69.914  1.00  0.00    -0.225 C  
HETATM    5  C   UNL     2      -9.174   5.770  69.106  1.00  0.00    -0.135 C  
HETATM    6  C   UNL     2      -8.342   5.567  67.821  1.00  0.00    -0.099 C  
HETATM    7  C   UNL     2     -10.530   6.455  68.857  1.00  0.00    -0.223 C  
HETATM    8  O   UNL     2     -11.535   6.239  69.520  1.00  0.00    -0.428 OA 
BRANCH   6   9
HETATM    9  C   UNL     2      -8.965   4.584  66.826  1.00  0.00    -0.115 C  
HETATM   10  C   UNL     2      -8.003   3.465  66.460  1.00  0.00    -0.084 C  
ENDBRANCH   6   9
BRANCH   7  11
HETATM   11  O   UNL     2     -10.457   7.396  67.877  1.00  0.00    -0.196 OA 
BRANCH  11  12
HETATM   12  C   UNL     2     -10.646   8.805  68.168  1.00  0.00    -0.147 C  
HETATM   13  C   UNL     2      -9.959   9.326  69.476  1.00  0.00    -0.194 C  
HETATM   14  C   UNL     2     -10.167  10.913  69.664  1.00  0.00     0.021 C  
HETATM   15  C   UNL     2     -11.328  11.956  69.419  1.00  0.00    -0.327 C  
HETATM   16  C   UNL     2     -11.658  11.808  67.908  1.00  0.00    -0.377 C  
HETATM   17  C   UNL     2     -10.393  11.213  67.237  1.00  0.00    -0.208 C  
HETATM   18  C   UNL     2     -10.447   9.704  66.933  1.00  0.00    -0.282 C  
HETATM   19  N   UNL     2      -9.336  11.450  68.317  1.00  0.00    -0.181 N  
HETATM   20  C   UNL     2      -7.950  10.821  68.130  1.00  0.00    -0.114 C  
HETATM   21  C   UNL     2      -8.975  12.975  68.330  1.00  0.00    -0.177 C  
ENDBRANCH  11  12
ENDBRANCH   7  11
ENDBRANCH   3   4
TORSDOF 4
ENDMDL
MODEL      165
REMARK 921   NORMALIZED FREE ENERGY PREDICTED BY IDOCK:   -3.51 KCAL/MOL
REMARK 922        TOTAL FREE ENERGY PREDICTED BY IDOCK:   -4.89 KCAL/MOL
REMARK 923 INTER-LIGAND FREE ENERGY PREDICTED BY IDOCK:   -4.30 KCAL/MOL
REMARK 924 INTRA-LIGAND FREE ENERGY PREDICTED BY IDOCK:   -0.60 KCAL/MOL
REMARK 927      BINDING AFFINITY PREDICTED BY RF-SCORE:    0.00 PKD
ROOT
HETATM    1 BR   UNL     1      -7.838   3.455  73.832  1.00  0.00    -0.067 Br 
HETATM    2  C   UNL     2      -9.050  11.404  63.082  1.00  0.00    -0.168 C  
HETATM    3  C   UNL     2      -8.302  10.579  64.120  1.00  0.00    -0.095 C  
ENDROOT
BRANCH   3   4
HETATM    4  C   UNL     2      -9.098  10.444  65.425  1.00  0.00    -0.221 C  
HETATM    5  C   UNL     2      -9.650   9.020  65.689  1.00  0.00    -0.237 C  
HETATM    6  C   UNL     2      -8.554   7.932  65.700  1.00  0.00    -0.159 C  
HETATM    7  C   UNL     2     -10.524   9.023  66.955  1.00  0.00    -0.246 C  
HETATM    8  O   UNL     2     -11.031  10.029  67.433  1.00  0.00    -0.283 OA 
BRANCH   6   9
HETATM    9  C   UNL     2      -7.480   8.143  66.772  1.00  0.00    -0.090 C  
HETATM   10  C   UNL     2      -6.089   8.235  66.167  1.00  0.00    -0.045 C  
ENDBRANCH   6   9
BRANCH   7  11
HETATM   11  O   UNL     2     -10.745   7.767  67.430  1.00  0.00    -0.278 OA 
BRANCH  11  12
HETATM   12  C   UNL     2     -10.377   7.396  68.784  1.00  0.00    -0.199 C  
HETATM   13  C   UNL     2      -9.743   8.536  69.652  1.00  0.00    -0.179 C  
HETATM   14  C   UNL     2      -9.443   8.040  71.156  1.00  0.00    -0.153 C  
HETATM   15  C   UNL     2      -8.922   6.719  71.847  1.00  0.00    -0.135 C  
HETATM   16  C   UNL     2      -9.928   5.628  71.388  1.00  0.00    -0.237 C  
HETATM   17  C   UNL     2     -11.237   6.368  71.006  1.00  0.00    -0.313 C  
HETATM   18  C   UNL     2     -11.468   6.575  69.497  1.00  0.00    -0.384 C  
HETATM   19  N   UNL     2     -11.011   7.737  71.650  1.00  0.00    -0.231 N  
HETATM   20  C   UNL     2     -12.007   8.861  71.340  1.00  0.00    -0.311 C  
HETATM   21  C   UNL     2     -11.196   7.590  73.200  1.00  0.00    -0.267 C  
ENDBRANCH  11  12
ENDBRANCH   7  11
ENDBRANCH   3   4
TORSDOF 4
ENDMDL
MODEL      166
REMARK 921   NORMALIZED FREE ENERGY PREDICTED BY IDOCK:   -3.51 KCAL/MOL
REMARK 922        TOTAL FREE ENERGY PREDICTED BY IDOCK:   -4.89 KCAL/MOL
REMARK 923 INTER-LIGAND FREE ENERGY PREDICTED BY IDOCK:   -4.14 KCAL/MOL
REMARK 924 INTRA-LIGAND FREE ENERGY PREDICTED BY IDOCK:   -0.75 KCAL/MOL
REMARK 927      BINDING AFFINITY PREDICTED BY RF-SCORE:    0.00 PKD
ROOT
HETATM    1 BR   UNL     1     -12.170  14.124  64.266  1.00  0.00    -0.384 Br 
HETATM    2  C   UNL     2      -9.091   2.911  70.975  1.00  0.00    -0.185 C  
HETATM    3  C   UNL     2      -9.755   3.734  69.881  1.00  0.00    -0.200 C  
ENDROOT
BRANCH   3   4
HETATM    4  C   UNL     2      -9.957   5.194  70.306  1.00  0.00    -0.320 C  
HETATM    5  C   UNL     2      -8.914   6.178  69.721  1.00  0.00    -0.138 C  
HETATM    6  C   UNL     2      -8.847   6.151  68.178  1.00  0.00    -0.112 C  
HETATM    7  C   UNL     2      -9.138   7.586  70.300  1.00  0.00    -0.154 C  
HETATM    8  O   UNL     2      -9.751   7.809  71.336  1.00  0.00    -0.165 OA 
BRANCH   6   9
HETATM    9  C   UNL     2     -10.165   6.522  67.492  1.00  0.00    -0.221 C  
HETATM   10  C   UNL     2     -10.611   5.450  66.510  1.00  0.00    -0.353 C  
ENDBRANCH   6   9
BRANCH   7  11
HETATM   11  O   UNL     2      -8.498   8.546  69.579  1.00  0.00    -0.123 OA 
BRANCH  11  12
HETATM   12  C   UNL     2      -9.237   9.521  68.796  1.00  0.00    -0.140 C  
HETATM   13  C   UNL     2      -9.797  10.748  69.593  1.00  0.00     0.041 C  
HETATM   14  C   UNL     2     -10.532  11.801  68.619  1.00  0.00    -0.222 C  
HETATM   15  C   UNL     2     -11.466  11.732  67.347  1.00  0.00    -0.375 C  
HETATM   16  C   UNL     2     -10.636  10.926  66.311  1.00  0.00    -0.276 C  
HETATM   17  C   UNL     2      -9.149  11.078  66.723  1.00  0.00    -0.162 C  
HETATM   18  C   UNL     2      -8.538   9.877  67.470  1.00  0.00    -0.122 C  
HETATM   19  N   UNL     2      -9.221  12.261  67.691  1.00  0.00    -0.177 N  
HETATM   20  C   UNL     2      -7.965  12.623  68.493  1.00  0.00    -0.093 C  
HETATM   21  C   UNL     2      -9.432  13.570  66.855  1.00  0.00    -0.258 C  
ENDBRANCH  11  12
ENDBRANCH   7  11
ENDBRANCH   3   4
TORSDOF 4
ENDMDL
MODEL      167
REMARK 921   NORMALIZED FREE ENERGY PREDICTED BY IDOCK:   -3.51 KCAL/MOL
REMARK 922        TOTAL FREE ENERGY PREDICTED BY IDOCK:   -4.88 KCAL/MOL
REMARK 923 INTER-LIGAND FREE ENERGY PREDICTED BY IDOCK:   -4.37 KCAL/MOL
REMARK 924 INTRA-LIGAND FREE ENERGY PREDICTED BY IDOCK:   -0.52 KCAL/MOL
REMARK 927      BINDING AFFINITY PREDICTED BY RF-SCORE:    0.00 PKD
ROOT
HETATM    1 BR   UNL     1      -5.857   7.955  62.338  1.00  0.00    -0.070 Br 
HETATM    2  C   UNL     2     -13.595  12.605  72.273  1.00  0.00    -0.508 C  
HETATM    3  C   UNL     2     -12.832  11.548  71.488  1.00  0.00    -0.485 C  
ENDROOT
BRANCH   3   4
HETATM    4  C   UNL     2     -12.659  11.942  70.016  1.00  0.00     0.026 C  
HETATM    5  C   UNL     2     -11.205  12.300  69.619  1.00  0.00    -0.120 C  
HETATM    6  C   UNL     2     -10.194  11.171  69.918  1.00  0.00     0.496 C  
HETATM    7  C   UNL     2     -11.164  12.789  68.161  1.00  0.00    -0.272 C  
HETATM    8  O   UNL     2     -12.139  13.213  67.555  1.00  0.00    -0.339 OA 
BRANCH   6   9
HETATM    9  C   UNL     2     -10.490   9.861  69.183  1.00  0.00    -0.235 C  
HETATM   10  C   UNL     2      -9.228   9.046  68.950  1.00  0.00    -0.140 C  
ENDBRANCH   6   9
BRANCH   7  11
HETATM   11  O   UNL     2      -9.901  12.784  67.653  1.00  0.00    -0.205 OA 
BRANCH  11  12
HETATM   12  C   UNL     2      -9.163  14.019  67.455  1.00  0.00    -0.216 C  
HETATM   13  C   UNL     2      -9.760  15.004  66.393  1.00  0.00    -0.305 C  
HETATM   14  C   UNL     2      -8.909  16.370  66.308  1.00  0.00    -0.332 C  
HETATM   15  C   UNL     2      -7.385  16.780  66.373  1.00  0.00    -0.261 C  
HETATM   16  C   UNL     2      -6.904  16.238  67.747  1.00  0.00    -0.155 C  
HETATM   17  C   UNL     2      -8.169  16.104  68.635  1.00  0.00    -0.202 C  
HETATM   18  C   UNL     2      -8.735  14.679  68.779  1.00  0.00    -0.166 C  
HETATM   19  N   UNL     2      -9.179  16.947  67.853  1.00  0.00    -0.230 N  
HETATM   20  C   UNL     2     -10.646  16.921  68.297  1.00  0.00    -0.363 C  
HETATM   21  C   UNL     2      -8.828  18.460  68.063  1.00  0.00    -0.287 C  
ENDBRANCH  11  12
ENDBRANCH   7  11
ENDBRANCH   3   4
TORSDOF 4
ENDMDL
MODEL      168
REMARK 921   NORMALIZED FREE ENERGY PREDICTED BY IDOCK:   -3.50 KCAL/MOL
REMARK 922        TOTAL FREE ENERGY PREDICTED BY IDOCK:   -4.88 KCAL/MOL
REMARK 923 INTER-LIGAND FREE ENERGY PREDICTED BY IDOCK:   -4.33 KCAL/MOL
REMARK 924 INTRA-LIGAND FREE ENERGY PREDICTED BY IDOCK:   -0.55 KCAL/MOL
REMARK 927      BINDING AFFINITY PREDICTED BY RF-SCORE:    0.00 PKD
ROOT
HETATM    1 BR   UNL     1     -12.489  12.349  63.745  1.00  0.00    -0.573 Br 
HETATM    2  C   UNL     2     -10.094   4.696  74.511  1.00  0.00    -0.266 C  
HETATM    3  C   UNL     2     -10.700   5.865  73.747  1.00  0.00    -0.219 C  
ENDROOT
BRANCH   3   4
HETATM    4  C   UNL     2      -9.870   6.233  72.511  1.00  0.00    -0.177 C  
HETATM    5  C   UNL     2     -10.598   6.000  71.164  1.00  0.00    -0.303 C  
HETATM    6  C   UNL     2     -11.943   6.751  71.057  1.00  0.00    -0.431 C  
HETATM    7  C   UNL     2      -9.640   6.289  69.994  1.00  0.00    -0.158 C  
HETATM    8  O   UNL     2      -8.421   6.297  70.096  1.00  0.00    -0.130 OA 
BRANCH   6   9
HETATM    9  C   UNL     2     -11.816   8.272  71.178  1.00  0.00    -0.302 C  
HETATM   10  C   UNL     2     -12.752   8.834  72.236  1.00  0.00    -0.466 C  
ENDBRANCH   6   9
BRANCH   7  11
HETATM   11  O   UNL     2     -10.302   6.442  68.814  1.00  0.00    -0.166 OA 
BRANCH  11  12
HETATM   12  C   UNL     2      -9.923   5.686  67.634  1.00  0.00    -0.150 C  
HETATM   13  C   UNL     2      -8.946   6.411  66.647  1.00  0.00    -0.145 C  
HETATM   14  C   UNL     2      -8.532   5.458  65.415  1.00  0.00    -0.144 C  
HETATM   15  C   UNL     2      -9.247   4.386  64.502  1.00  0.00    -0.153 C  
HETATM   16  C   UNL     2      -9.781   3.328  65.505  1.00  0.00     0.012 C  
HETATM   17  C   UNL     2      -8.911   3.453  66.783  1.00  0.00    -0.154 C  
HETATM   18  C   UNL     2      -9.552   4.225  67.953  1.00  0.00    -0.207 C  
HETATM   19  N   UNL     2      -7.724   4.266  66.263  1.00  0.00    -0.093 N  
HETATM   20  C   UNL     2      -6.699   4.787  67.277  1.00  0.00    -0.055 C  
HETATM   21  C   UNL     2      -6.828   3.325  65.386  1.00  0.00    -0.049 C  
ENDBRANCH  11  12
ENDBRANCH   7  11
ENDBRANCH   3   4
TORSDOF 4
ENDMDL
MODEL      169
REMARK 921   NORMALIZED FREE ENERGY PREDICTED BY IDOCK:   -3.50 KCAL/MOL
REMARK 922        TOTAL FREE ENERGY PREDICTED BY IDOCK:   -4.88 KCAL/MOL
REMARK 923 INTER-LIGAND FREE ENERGY PREDICTED BY IDOCK:   -4.39 KCAL/MOL
REMARK 924 INTRA-LIGAND FREE ENERGY PREDICTED BY IDOCK:   -0.49 KCAL/MOL
REMARK 927      BINDING AFFINITY PREDICTED BY RF-SCORE:    0.00 PKD
ROOT
HETATM    1 BR   UNL     1     -10.192  18.685  68.264  1.00  0.00    -0.410 Br 
HETATM    2  C   UNL     2     -10.691   6.121  72.968  1.00  0.00    -0.276 C  
HETATM    3  C   UNL     2     -11.062   7.597  72.910  1.00  0.00    -0.448 C  
ENDROOT
BRANCH   3   4
HETATM    4  C   UNL     2      -9.946   8.443  72.284  1.00  0.00    -0.383 C  
HETATM    5  C   UNL     2     -10.057   8.606  70.747  1.00  0.00    -0.244 C  
HETATM    6  C   UNL     2     -11.404   9.206  70.291  1.00  0.00    -0.217 C  
HETATM    7  C   UNL     2      -8.833   9.369  70.211  1.00  0.00    -0.236 C  
HETATM    8  O   UNL     2      -7.772   9.467  70.813  1.00  0.00    -0.230 OA 
BRANCH   6   9
HETATM    9  C   UNL     2     -11.685  10.602  70.856  1.00  0.00    -0.387 C  
HETATM   10  C   UNL     2     -12.933  10.620  71.723  1.00  0.00    -0.577 C  
ENDBRANCH   6   9
BRANCH   7  11
HETATM   11  O   UNL     2      -9.034   9.842  68.951  1.00  0.00    -0.138 OA 
BRANCH  11  12
HETATM   12  C   UNL     2      -8.548   9.122  67.788  1.00  0.00    -0.121 C  
HETATM   13  C   UNL     2      -7.623   9.938  66.822  1.00  0.00    -0.095 C  
HETATM   14  C   UNL     2      -7.080   9.025  65.610  1.00  0.00    -0.081 C  
HETATM   15  C   UNL     2      -7.656   7.880  64.687  1.00  0.00    -0.109 C  
HETATM   16  C   UNL     2      -8.106   6.778  65.685  1.00  0.00    -0.122 C  
HETATM   17  C   UNL     2      -7.289   7.000  66.984  1.00  0.00    -0.086 C  
HETATM   18  C   UNL     2      -8.038   7.709  68.130  1.00  0.00    -0.124 C  
HETATM   19  N   UNL     2      -6.177   7.928  66.489  1.00  0.00    -0.045 N  
HETATM   20  C   UNL     2      -5.239   8.557  67.526  1.00  0.00    -0.034 C  
HETATM   21  C   UNL     2      -5.166   7.079  65.645  1.00  0.00    -0.023 C  
ENDBRANCH  11  12
ENDBRANCH   7  11
ENDBRANCH   3   4
TORSDOF 4
ENDMDL
MODEL      170
REMARK 921   NORMALIZED FREE ENERGY PREDICTED BY IDOCK:   -3.49 KCAL/MOL
REMARK 922        TOTAL FREE ENERGY PREDICTED BY IDOCK:   -4.86 KCAL/MOL
REMARK 923 INTER-LIGAND FREE ENERGY PREDICTED BY IDOCK:   -4.61 KCAL/MOL
REMARK 924 INTRA-LIGAND FREE ENERGY PREDICTED BY IDOCK:   -0.25 KCAL/MOL
REMARK 927      BINDING AFFINITY PREDICTED BY RF-SCORE:    0.00 PKD
ROOT
HETATM    1 BR   UNL     1      -9.833   6.283  74.561  1.00  0.00    -0.364 Br 
HETATM    2  C   UNL     2     -12.268  13.479  63.492  1.00  0.00    -0.410 C  
HETATM    3  C   UNL     2     -12.236  12.222  64.351  1.00  0.00    -0.488 C  
ENDROOT
BRANCH   3   4
HETATM    4  C   UNL     2     -11.164  12.304  65.445  1.00  0.00    -0.372 C  
HETATM    5  C   UNL     2     -10.591  10.931  65.878  1.00  0.00    -0.244 C  
HETATM    6  C   UNL     2      -9.996  10.120  64.707  1.00  0.00    -0.334 C  
HETATM    7  C   UNL     2      -9.615  11.117  67.053  1.00  0.00    -0.181 C  
HETATM    8  O   UNL     2      -9.605  12.100  67.783  1.00  0.00    -0.184 OA 
BRANCH   6   9
HETATM    9  C   UNL     2      -8.838  10.821  63.991  1.00  0.00    -0.120 C  
HETATM   10  C   UNL     2      -8.757  10.425  62.525  1.00  0.00    -0.253 C  
ENDBRANCH   6   9
BRANCH   7  11
HETATM   11  O   UNL     2      -8.829  10.024  67.246  1.00  0.00    -0.134 OA 
BRANCH  11  12
HETATM   12  C   UNL     2      -9.005   9.162  68.401  1.00  0.00    -0.133 C  
HETATM   13  C   UNL     2      -8.025   7.943  68.495  1.00  0.00    -0.121 C  
HETATM   14  C   UNL     2      -8.256   7.098  69.848  1.00  0.00    -0.133 C  
HETATM   15  C   UNL     2      -9.492   6.644  70.721  1.00  0.00    -0.173 C  
HETATM   16  C   UNL     2     -10.200   7.974  71.097  1.00  0.00    -0.225 C  
HETATM   17  C   UNL     2      -9.128   9.090  70.991  1.00  0.00    -0.257 C  
HETATM   18  C   UNL     2      -9.184   9.948  69.713  1.00  0.00    -0.252 C  
HETATM   19  N   UNL     2      -7.837   8.269  70.964  1.00  0.00    -0.088 N  
HETATM   20  C   UNL     2      -6.520   8.994  70.665  1.00  0.00    -0.056 C  
HETATM   21  C   UNL     2      -7.563   7.732  72.411  1.00  0.00    -0.089 C  
ENDBRANCH  11  12
ENDBRANCH   7  11
ENDBRANCH   3   4
TORSDOF 4
ENDMDL
MODEL      171
REMARK 921   NORMALIZED FREE ENERGY PREDICTED BY IDOCK:   -3.44 KCAL/MOL
REMARK 922        TOTAL FREE ENERGY PREDICTED BY IDOCK:   -4.81 KCAL/MOL
REMARK 923 INTER-LIGAND FREE ENERGY PREDICTED BY IDOCK:   -4.28 KCAL/MOL
REMARK 924 INTRA-LIGAND FREE ENERGY PREDICTED BY IDOCK:   -0.53 KCAL/MOL
REMARK 927      BINDING AFFINITY PREDICTED BY RF-SCORE:    0.00 PKD
ROOT
HETATM    1 BR   UNL     1      -9.373  17.170  68.641  1.00  0.00    -0.256 Br 
HETATM    2  C   UNL     2      -5.543   4.627  65.771  1.00  0.00    -0.017 C  
HETATM    3  C   UNL     2      -6.127   6.002  65.475  1.00  0.00    -0.029 C  
ENDROOT
BRANCH   3   4
HETATM    4  C   UNL     2      -6.690   6.668  66.736  1.00  0.00    -0.056 C  
HETATM    5  C   UNL     2      -8.122   7.236  66.571  1.00  0.00    -0.114 C  
HETATM    6  C   UNL     2      -9.149   6.180  66.108  1.00  0.00    -0.158 C  
HETATM    7  C   UNL     2      -8.542   7.979  67.851  1.00  0.00    -0.129 C  
HETATM    8  O   UNL     2      -7.753   8.404  68.684  1.00  0.00    -0.102 OA 
BRANCH   6   9
HETATM    9  C   UNL     2      -9.303   4.999  67.071  1.00  0.00    -0.133 C  
HETATM   10  C   UNL     2      -9.377   3.673  66.331  1.00  0.00    -0.194 C  
ENDBRANCH   6   9
BRANCH   7  11
HETATM   11  O   UNL     2      -9.885   8.193  67.904  1.00  0.00    -0.156 OA 
BRANCH  11  12
HETATM   12  C   UNL     2     -10.628   8.023  69.140  1.00  0.00    -0.169 C  
HETATM   13  C   UNL     2     -10.801   6.545  69.630  1.00  0.00    -0.359 C  
HETATM   14  C   UNL     2     -11.571   6.475  71.044  1.00  0.00    -0.348 C  
HETATM   15  C   UNL     2     -12.770   7.235  71.737  1.00  0.00    -0.370 C  
HETATM   16  C   UNL     2     -12.330   8.724  71.732  1.00  0.00    -0.412 C  
HETATM   17  C   UNL     2     -10.782   8.726  71.632  1.00  0.00    -0.327 C  
HETATM   18  C   UNL     2     -10.205   9.020  70.234  1.00  0.00    -0.235 C  
HETATM   19  N   UNL     2     -10.453   7.276  71.993  1.00  0.00    -0.199 N  
HETATM   20  C   UNL     2      -9.008   6.794  71.822  1.00  0.00    -0.139 C  
HETATM   21  C   UNL     2     -10.650   7.096  73.538  1.00  0.00    -0.374 C  
ENDBRANCH  11  12
ENDBRANCH   7  11
ENDBRANCH   3   4
TORSDOF 4
ENDMDL
MODEL      172
REMARK 921   NORMALIZED FREE ENERGY PREDICTED BY IDOCK:   -3.42 KCAL/MOL
REMARK 922        TOTAL FREE ENERGY PREDICTED BY IDOCK:   -4.78 KCAL/MOL
REMARK 923 INTER-LIGAND FREE ENERGY PREDICTED BY IDOCK:   -4.11 KCAL/MOL
REMARK 924 INTRA-LIGAND FREE ENERGY PREDICTED BY IDOCK:   -0.67 KCAL/MOL
REMARK 927      BINDING AFFINITY PREDICTED BY RF-SCORE:    0.00 PKD
ROOT
HETATM    1 BR   UNL     1     -12.412  12.381  64.357  1.00  0.00    -0.469 Br 
HETATM    2  C   UNL     2      -9.576   2.069  72.471  1.00  0.00    -0.153 C  
HETATM    3  C   UNL     2     -10.280   3.352  72.052  1.00  0.00    -0.116 C  
ENDROOT
BRANCH   3   4
HETATM    4  C   UNL     2      -9.451   4.157  71.043  1.00  0.00    -0.233 C  
HETATM    5  C   UNL     2     -10.267   5.196  70.234  1.00  0.00    -0.342 C  
HETATM    6  C   UNL     2     -11.022   6.207  71.124  1.00  0.00    -0.343 C  
HETATM    7  C   UNL     2      -9.368   5.861  69.177  1.00  0.00    -0.120 C  
HETATM    8  O   UNL     2      -8.322   5.376  68.768  1.00  0.00    -0.096 OA 
BRANCH   6   9
HETATM    9  C   UNL     2     -10.110   7.042  72.028  1.00  0.00    -0.201 C  
HETATM   10  C   UNL     2     -10.825   7.489  73.293  1.00  0.00    -0.409 C  
ENDBRANCH   6   9
BRANCH   7  11
HETATM   11  O   UNL     2      -9.916   7.004  68.682  1.00  0.00    -0.149 OA 
BRANCH  11  12
HETATM   12  C   UNL     2      -9.129   8.215  68.533  1.00  0.00    -0.136 C  
HETATM   13  C   UNL     2      -8.716   8.581  67.067  1.00  0.00    -0.132 C  
HETATM   14  C   UNL     2      -7.914   9.977  67.007  1.00  0.00    -0.106 C  
HETATM   15  C   UNL     2      -6.834  10.720  67.889  1.00  0.00    -0.072 C  
HETATM   16  C   UNL     2      -7.503  10.842  69.286  1.00  0.00    -0.135 C  
HETATM   17  C   UNL     2      -9.034  10.756  69.051  1.00  0.00    -0.132 C  
HETATM   18  C   UNL     2      -9.680   9.392  69.361  1.00  0.00    -0.181 C  
HETATM   19  N   UNL     2      -9.123  10.999  67.543  1.00  0.00    -0.137 N  
HETATM   20  C   UNL     2     -10.478  10.801  66.853  1.00  0.00    -0.252 C  
HETATM   21  C   UNL     2      -8.867  12.522  67.272  1.00  0.00    -0.195 C  
ENDBRANCH  11  12
ENDBRANCH   7  11
ENDBRANCH   3   4
TORSDOF 4
ENDMDL
MODEL      173
REMARK 921   NORMALIZED FREE ENERGY PREDICTED BY IDOCK:   -3.37 KCAL/MOL
REMARK 922        TOTAL FREE ENERGY PREDICTED BY IDOCK:   -4.72 KCAL/MOL
REMARK 923 INTER-LIGAND FREE ENERGY PREDICTED BY IDOCK:   -4.09 KCAL/MOL
REMARK 924 INTRA-LIGAND FREE ENERGY PREDICTED BY IDOCK:   -0.63 KCAL/MOL
REMARK 927      BINDING AFFINITY PREDICTED BY RF-SCORE:    0.00 PKD
ROOT
HETATM    1 BR   UNL     1     -12.210  12.772  63.372  1.00  0.00    -0.491 Br 
HETATM    2  C   UNL     2      -8.350   1.709  69.923  1.00  0.00    -0.069 C  
HETATM    3  C   UNL     2      -9.205   2.527  68.966  1.00  0.00    -0.207 C  
ENDROOT
BRANCH   3   4
HETATM    4  C   UNL     2      -9.195   4.019  69.322  1.00  0.00    -0.219 C  
HETATM    5  C   UNL     2      -8.382   4.901  68.342  1.00  0.00    -0.091 C  
HETATM    6  C   UNL     2      -8.850   4.779  66.876  1.00  0.00    -0.110 C  
HETATM    7  C   UNL     2      -8.341   6.352  68.854  1.00  0.00    -0.121 C  
HETATM    8  O   UNL     2      -8.551   6.673  70.016  1.00  0.00    -0.137 OA 
BRANCH   6   9
HETATM    9  C   UNL     2     -10.310   5.187  66.654  1.00  0.00    -0.325 C  
HETATM   10  C   UNL     2     -10.902   4.519  65.423  1.00  0.00    -0.096 C  
ENDBRANCH   6   9
BRANCH   7  11
HETATM   11  O   UNL     2      -7.953   7.227  67.886  1.00  0.00    -0.115 OA 
BRANCH  11  12
HETATM   12  C   UNL     2      -8.605   8.515  67.729  1.00  0.00    -0.134 C  
HETATM   13  C   UNL     2     -10.144   8.467  67.440  1.00  0.00    -0.301 C  
HETATM   14  C   UNL     2     -10.779   9.946  67.358  1.00  0.00    -0.260 C  
HETATM   15  C   UNL     2     -10.342  11.354  66.790  1.00  0.00    -0.271 C  
HETATM   16  C   UNL     2      -9.009  11.662  67.523  1.00  0.00    -0.165 C  
HETATM   17  C   UNL     2      -9.021  10.827  68.830  1.00  0.00    -0.153 C  
HETATM   18  C   UNL     2      -8.182   9.535  68.803  1.00  0.00    -0.112 C  
HETATM   19  N   UNL     2     -10.498  10.441  68.930  1.00  0.00    -0.198 N  
HETATM   20  C   UNL     2     -10.914   9.427  70.002  1.00  0.00    -0.239 C  
HETATM   21  C   UNL     2     -11.309  11.704  69.379  1.00  0.00    -0.278 C  
ENDBRANCH  11  12
ENDBRANCH   7  11
ENDBRANCH   3   4
TORSDOF 4
ENDMDL
MODEL      174
REMARK 921   NORMALIZED FREE ENERGY PREDICTED BY IDOCK:   -3.35 KCAL/MOL
REMARK 922        TOTAL FREE ENERGY PREDICTED BY IDOCK:   -4.69 KCAL/MOL
REMARK 923 INTER-LIGAND FREE ENERGY PREDICTED BY IDOCK:   -4.25 KCAL/MOL
REMARK 924 INTRA-LIGAND FREE ENERGY PREDICTED BY IDOCK:   -0.44 KCAL/MOL
REMARK 927      BINDING AFFINITY PREDICTED BY RF-SCORE:    0.00 PKD
ROOT
HETATM    1 BR   UNL     1      -7.472  18.059  68.471  1.00  0.00    -0.292 Br 
HETATM    2  C   UNL     2      -6.075   4.827  70.256  1.00  0.00    -0.021 C  
HETATM    3  C   UNL     2      -6.140   6.119  69.454  1.00  0.00    -0.029 C  
ENDROOT
BRANCH   3   4
HETATM    4  C   UNL     2      -6.960   7.198  70.173  1.00  0.00    -0.061 C  
HETATM    5  C   UNL     2      -8.125   7.778  69.332  1.00  0.00    -0.126 C  
HETATM    6  C   UNL     2      -9.114   6.701  68.832  1.00  0.00    -0.132 C  
HETATM    7  C   UNL     2      -8.805   8.925  70.099  1.00  0.00    -0.163 C  
HETATM    8  O   UNL     2      -8.276   9.543  71.013  1.00  0.00    -0.301 OA 
BRANCH   6   9
HETATM    9  C   UNL     2      -9.794   5.913  69.955  1.00  0.00    -0.225 C  
HETATM   10  C   UNL     2     -11.280   6.220  70.041  1.00  0.00    -0.480 C  
ENDBRANCH   6   9
BRANCH   7  11
HETATM   11  O   UNL     2     -10.026   9.236  69.583  1.00  0.00    -0.175 OA 
BRANCH  11  12
HETATM   12  C   UNL     2     -10.186  10.309  68.618  1.00  0.00    -0.180 C  
HETATM   13  C   UNL     2     -11.658  10.608  68.174  1.00  0.00    -0.217 C  
HETATM   14  C   UNL     2     -11.730  11.861  67.163  1.00  0.00    -0.236 C  
HETATM   15  C   UNL     2     -10.863  12.424  65.968  1.00  0.00    -0.308 C  
HETATM   16  C   UNL     2      -9.458  12.646  66.590  1.00  0.00    -0.244 C  
HETATM   17  C   UNL     2      -9.671  12.802  68.118  1.00  0.00    -0.223 C  
HETATM   18  C   UNL     2      -9.351  11.556  68.966  1.00  0.00     0.090 C  
HETATM   19  N   UNL     2     -11.178  13.059  68.190  1.00  0.00    -0.256 N  
HETATM   20  C   UNL     2     -11.848  13.078  69.568  1.00  0.00    -0.323 C  
HETATM   21  C   UNL     2     -11.452  14.523  67.702  1.00  0.00    -0.353 C  
ENDBRANCH  11  12
ENDBRANCH   7  11
ENDBRANCH   3   4
TORSDOF 4
ENDMDL
MODEL      175
REMARK 921   NORMALIZED FREE ENERGY PREDICTED BY IDOCK:   -3.35 KCAL/MOL
REMARK 922        TOTAL FREE ENERGY PREDICTED BY IDOCK:   -4.69 KCAL/MOL
REMARK 923 INTER-LIGAND FREE ENERGY PREDICTED BY IDOCK:   -4.03 KCAL/MOL
REMARK 924 INTRA-LIGAND FREE ENERGY PREDICTED BY IDOCK:   -0.67 KCAL/MOL
REMARK 927      BINDING AFFINITY PREDICTED BY RF-SCORE:    0.00 PKD
ROOT
HETATM    1 BR   UNL     1     -12.946  14.790  71.450  1.00  0.00    -0.449 Br 
HETATM    2  C   UNL     2      -9.296   3.431  65.296  1.00  0.00    -0.155 C  
HETATM    3  C   UNL     2      -9.967   4.271  66.374  1.00  0.00    -0.223 C  
ENDROOT
BRANCH   3   4
HETATM    4  C   UNL     2      -9.308   5.649  66.519  1.00  0.00    -0.159 C  
HETATM    5  C   UNL     2     -10.307   6.832  66.550  1.00  0.00    -0.116 C  
HETATM    6  C   UNL     2     -11.368   6.707  67.665  1.00  0.00    -0.078 C  
HETATM    7  C   UNL     2      -9.540   8.166  66.581  1.00  0.00    -0.229 C  
HETATM    8  O   UNL     2      -8.375   8.291  66.229  1.00  0.00    -0.113 OA 
BRANCH   6   9
HETATM    9  C   UNL     2     -10.781   6.651  69.079  1.00  0.00    -0.299 C  
HETATM   10  C   UNL     2     -11.853   6.400  70.127  1.00  0.00    -0.254 C  
ENDBRANCH   6   9
BRANCH   7  11
HETATM   11  O   UNL     2     -10.333   9.206  66.956  1.00  0.00    -0.250 OA 
BRANCH  11  12
HETATM   12  C   UNL     2      -9.781  10.528  67.194  1.00  0.00    -0.171 C  
HETATM   13  C   UNL     2     -10.171  11.625  66.146  1.00  0.00    -0.263 C  
HETATM   14  C   UNL     2      -9.570  13.067  66.545  1.00  0.00    -0.260 C  
HETATM   15  C   UNL     2      -8.230  13.618  67.173  1.00  0.00    -0.123 C  
HETATM   16  C   UNL     2      -8.118  12.882  68.536  1.00  0.00    -0.080 C  
HETATM   17  C   UNL     2      -9.556  12.449  68.923  1.00  0.00     0.205 C  
HETATM   18  C   UNL     2      -9.899  10.969  68.665  1.00  0.00    -0.197 C  
HETATM   19  N   UNL     2     -10.397  13.310  67.977  1.00  0.00    -0.235 N  
HETATM   20  C   UNL     2     -11.904  13.044  67.897  1.00  0.00    -0.343 C  
HETATM   21  C   UNL     2     -10.379  14.785  68.506  1.00  0.00    -0.237 C  
ENDBRANCH  11  12
ENDBRANCH   7  11
ENDBRANCH   3   4
TORSDOF 4
ENDMDL
MODEL      176
REMARK 921   NORMALIZED FREE ENERGY PREDICTED BY IDOCK:   -3.34 KCAL/MOL
REMARK 922        TOTAL FREE ENERGY PREDICTED BY IDOCK:   -4.68 KCAL/MOL
REMARK 923 INTER-LIGAND FREE ENERGY PREDICTED BY IDOCK:   -3.80 KCAL/MOL
REMARK 924 INTRA-LIGAND FREE ENERGY PREDICTED BY IDOCK:   -0.87 KCAL/MOL
REMARK 927      BINDING AFFINITY PREDICTED BY RF-SCORE:    0.00 PKD
ROOT
HETATM    1 BR   UNL     1      -5.671   7.009  62.555  1.00  0.00    -0.041 Br 
HETATM    2  C   UNL     2     -14.113   9.171  72.767  1.00  0.00    -0.175 C  
HETATM    3  C   UNL     2     -13.363   8.333  71.740  1.00  0.00    -0.375 C  
ENDROOT
BRANCH   3   4
HETATM    4  C   UNL     2     -12.969   9.157  70.508  1.00  0.00     0.446 C  
HETATM    5  C   UNL     2     -11.476   9.570  70.470  1.00  0.00    -0.337 C  
HETATM    6  C   UNL     2     -10.507   8.371  70.554  1.00  0.00    -0.227 C  
HETATM    7  C   UNL     2     -11.216  10.485  69.260  1.00  0.00    -0.262 C  
HETATM    8  O   UNL     2     -12.090  11.108  68.675  1.00  0.00    -0.556 OA 
BRANCH   6   9
HETATM    9  C   UNL     2     -10.665   7.363  69.412  1.00  0.00    -0.220 C  
HETATM   10  C   UNL     2     -11.090   5.995  69.921  1.00  0.00    -0.469 C  
ENDBRANCH   6   9
BRANCH   7  11
HETATM   11  O   UNL     2      -9.889  10.594  68.975  1.00  0.00    -0.193 OA 
BRANCH  11  12
HETATM   12  C   UNL     2      -9.357  10.175  67.691  1.00  0.00    -0.148 C  
HETATM   13  C   UNL     2      -9.323  11.276  66.577  1.00  0.00    -0.201 C  
HETATM   14  C   UNL     2      -8.646  10.728  65.221  1.00  0.00    -0.148 C  
HETATM   15  C   UNL     2      -8.646   9.376  64.403  1.00  0.00    -0.214 C  
HETATM   16  C   UNL     2      -8.135   8.318  65.418  1.00  0.00    -0.135 C  
HETATM   17  C   UNL     2      -7.327   9.091  66.492  1.00  0.00    -0.085 C  
HETATM   18  C   UNL     2      -8.063   9.349  67.821  1.00  0.00    -0.107 C  
HETATM   19  N   UNL     2      -7.104  10.435  65.796  1.00  0.00    -0.135 N  
HETATM   20  C   UNL     2      -6.497  11.584  66.609  1.00  0.00    -0.090 C  
HETATM   21  C   UNL     2      -6.013  10.241  64.687  1.00  0.00    -0.130 C  
ENDBRANCH  11  12
ENDBRANCH   7  11
ENDBRANCH   3   4
TORSDOF 4
ENDMDL
MODEL      177
REMARK 921   NORMALIZED FREE ENERGY PREDICTED BY IDOCK:   -3.32 KCAL/MOL
REMARK 922        TOTAL FREE ENERGY PREDICTED BY IDOCK:   -4.66 KCAL/MOL
REMARK 923 INTER-LIGAND FREE ENERGY PREDICTED BY IDOCK:   -4.10 KCAL/MOL
REMARK 924 INTRA-LIGAND FREE ENERGY PREDICTED BY IDOCK:   -0.56 KCAL/MOL
REMARK 927      BINDING AFFINITY PREDICTED BY RF-SCORE:    0.00 PKD
ROOT
HETATM    1 BR   UNL     1      -7.170   7.571  62.997  1.00  0.00    -0.089 Br 
HETATM    2  C   UNL     2     -14.169  14.644  72.009  1.00  0.00    -0.625 C  
HETATM    3  C   UNL     2     -13.235  14.445  70.823  1.00  0.00    -0.288 C  
ENDROOT
BRANCH   3   4
HETATM    4  C   UNL     2     -12.532  13.083  70.870  1.00  0.00    -0.396 C  
HETATM    5  C   UNL     2     -12.580  12.296  69.536  1.00  0.00     0.387 C  
HETATM    6  C   UNL     2     -11.992  13.079  68.342  1.00  0.00    -0.309 C  
HETATM    7  C   UNL     2     -11.951  10.904  69.726  1.00  0.00    -0.351 C  
HETATM    8  O   UNL     2     -11.815  10.359  70.813  1.00  0.00    -0.312 OA 
BRANCH   6   9
HETATM    9  C   UNL     2     -10.521  13.466  68.517  1.00  0.00    -0.260 C  
HETATM   10  C   UNL     2     -10.359  14.947  68.820  1.00  0.00    -0.245 C  
ENDBRANCH   6   9
BRANCH   7  11
HETATM   11  O   UNL     2     -11.650  10.310  68.539  1.00  0.00    -0.178 OA 
BRANCH  11  12
HETATM   12  C   UNL     2     -10.355   9.696  68.310  1.00  0.00    -0.204 C  
HETATM   13  C   UNL     2     -10.063   9.257  66.835  1.00  0.00    -0.324 C  
HETATM   14  C   UNL     2      -8.574   8.659  66.677  1.00  0.00    -0.117 C  
HETATM   15  C   UNL     2      -7.607   7.747  67.531  1.00  0.00    -0.109 C  
HETATM   16  C   UNL     2      -7.462   8.504  68.879  1.00  0.00    -0.091 C  
HETATM   17  C   UNL     2      -7.792   9.992  68.587  1.00  0.00    -0.091 C  
HETATM   18  C   UNL     2      -9.203  10.454  68.997  1.00  0.00    -0.194 C  
HETATM   19  N   UNL     2      -7.698  10.029  67.060  1.00  0.00    -0.095 N  
HETATM   20  C   UNL     2      -8.151  11.301  66.335  1.00  0.00    -0.138 C  
HETATM   21  C   UNL     2      -6.184   9.977  66.658  1.00  0.00    -0.069 C  
ENDBRANCH  11  12
ENDBRANCH   7  11
ENDBRANCH   3   4
TORSDOF 4
ENDMDL
MODEL      178
REMARK 921   NORMALIZED FREE ENERGY PREDICTED BY IDOCK:   -3.32 KCAL/MOL
REMARK 922        TOTAL FREE ENERGY PREDICTED BY IDOCK:   -4.65 KCAL/MOL
REMARK 923 INTER-LIGAND FREE ENERGY PREDICTED BY IDOCK:   -4.49 KCAL/MOL
REMARK 924 INTRA-LIGAND FREE ENERGY PREDICTED BY IDOCK:   -0.17 KCAL/MOL
REMARK 927      BINDING AFFINITY PREDICTED BY RF-SCORE:    0.00 PKD
ROOT
HETATM    1 BR   UNL     1     -11.701   6.392  72.023  1.00  0.00    -0.375 Br 
HETATM    2  C   UNL     2      -6.439  18.120  68.152  1.00  0.00    -0.192 C  
HETATM    3  C   UNL     2      -7.068  17.137  69.129  1.00  0.00    -0.213 C  
ENDROOT
BRANCH   3   4
HETATM    4  C   UNL     2      -7.898  16.066  68.410  1.00  0.00    -0.149 C  
HETATM    5  C   UNL     2      -9.394  16.042  68.814  1.00  0.00    -0.222 C  
HETATM    6  C   UNL     2     -10.106  17.396  68.606  1.00  0.00    -0.355 C  
HETATM    7  C   UNL     2     -10.104  14.864  68.124  1.00  0.00    -0.222 C  
HETATM    8  O   UNL     2      -9.524  13.885  67.674  1.00  0.00    -0.201 OA 
BRANCH   6   9
HETATM    9  C   UNL     2     -10.098  17.885  67.155  1.00  0.00    -0.340 C  
HETATM   10  C   UNL     2     -10.705  19.273  67.023  1.00  0.00    -0.565 C  
ENDBRANCH   6   9
BRANCH   7  11
HETATM   11  O   UNL     2     -11.459  14.991  68.156  1.00  0.00    -0.315 OA 
BRANCH  11  12
HETATM   12  C   UNL     2     -12.207  14.789  69.384  1.00  0.00    -0.216 C  
HETATM   13  C   UNL     2     -11.808  13.526  70.222  1.00  0.00    -0.327 C  
HETATM   14  C   UNL     2     -12.644  13.439  71.597  1.00  0.00    -0.187 C  
HETATM   15  C   UNL     2     -14.124  13.737  72.063  1.00  0.00    -0.522 C  
HETATM   16  C   UNL     2     -14.344  15.230  71.697  1.00  0.00    -0.666 C  
HETATM   17  C   UNL     2     -12.936  15.878  71.623  1.00  0.00    -0.313 C  
HETATM   18  C   UNL     2     -12.370  16.082  70.205  1.00  0.00    -0.017 C  
HETATM   19  N   UNL     2     -12.081  14.828  72.336  1.00  0.00    -0.295 N  
HETATM   20  C   UNL     2     -10.557  14.992  72.312  1.00  0.00     1.645 C  
HETATM   21  C   UNL     2     -12.369  14.919  73.874  1.00  0.00    -0.441 C  
ENDBRANCH  11  12
ENDBRANCH   7  11
ENDBRANCH   3   4
TORSDOF 4
ENDMDL
MODEL      179
REMARK 921   NORMALIZED FREE ENERGY PREDICTED BY IDOCK:   -3.29 KCAL/MOL
REMARK 922        TOTAL FREE ENERGY PREDICTED BY IDOCK:   -4.61 KCAL/MOL
REMARK 923 INTER-LIGAND FREE ENERGY PREDICTED BY IDOCK:   -3.87 KCAL/MOL
REMARK 924 INTRA-LIGAND FREE ENERGY PREDICTED BY IDOCK:   -0.74 KCAL/MOL
REMARK 927      BINDING AFFINITY PREDICTED BY RF-SCORE:    0.00 PKD
ROOT
HETATM    1 BR   UNL     1     -11.175  15.746  64.613  1.00  0.00    -0.262 Br 
HETATM    2  C   UNL     2      -6.596   3.635  68.160  1.00  0.00    -0.041 C  
HETATM    3  C   UNL     2      -7.654   4.661  67.778  1.00  0.00    -0.078 C  
ENDROOT
BRANCH   3   4
HETATM    4  C   UNL     2      -7.207   6.092  68.101  1.00  0.00    -0.084 C  
HETATM    5  C   UNL     2      -8.371   7.100  68.273  1.00  0.00    -0.124 C  
HETATM    6  C   UNL     2      -9.390   6.678  69.354  1.00  0.00    -0.147 C  
HETATM    7  C   UNL     2      -7.811   8.518  68.478  1.00  0.00    -0.108 C  
HETATM    8  O   UNL     2      -6.682   8.860  68.155  1.00  0.00    -0.063 OA 
BRANCH   6   9
HETATM    9  C   UNL     2      -8.787   6.533  70.754  1.00  0.00    -0.144 C  
HETATM   10  C   UNL     2      -9.310   5.298  71.469  1.00  0.00    -0.182 C  
ENDBRANCH   6   9
BRANCH   7  11
HETATM   11  O   UNL     2      -8.747   9.373  68.974  1.00  0.00    -0.129 OA 
BRANCH  11  12
HETATM   12  C   UNL     2      -9.369  10.381  68.135  1.00  0.00    -0.145 C  
HETATM   13  C   UNL     2     -10.912  10.222  67.914  1.00  0.00    -0.350 C  
HETATM   14  C   UNL     2     -11.512  11.431  67.033  1.00  0.00    -0.156 C  
HETATM   15  C   UNL     2     -11.049  12.285  65.788  1.00  0.00    -0.362 C  
HETATM   16  C   UNL     2      -9.700  12.910  66.237  1.00  0.00    -0.268 C  
HETATM   17  C   UNL     2      -9.717  12.928  67.788  1.00  0.00    -0.214 C  
HETATM   18  C   UNL     2      -8.910  11.811  68.476  1.00  0.00    -0.122 C  
HETATM   19  N   UNL     2     -11.201  12.698  68.078  1.00  0.00    -0.247 N  
HETATM   20  C   UNL     2     -11.629  12.450  69.529  1.00  0.00    -0.286 C  
HETATM   21  C   UNL     2     -11.978  14.022  67.758  1.00  0.00    -0.357 C  
ENDBRANCH  11  12
ENDBRANCH   7  11
ENDBRANCH   3   4
TORSDOF 4
ENDMDL
MODEL      180
REMARK 921   NORMALIZED FREE ENERGY PREDICTED BY IDOCK:   -3.22 KCAL/MOL
REMARK 922        TOTAL FREE ENERGY PREDICTED BY IDOCK:   -4.54 KCAL/MOL
REMARK 923 INTER-LIGAND FREE ENERGY PREDICTED BY IDOCK:   -4.14 KCAL/MOL
REMARK 924 INTRA-LIGAND FREE ENERGY PREDICTED BY IDOCK:   -0.40 KCAL/MOL
REMARK 927      BINDING AFFINITY PREDICTED BY RF-SCORE:    0.00 PKD
ROOT
HETATM    1 BR   UNL     1     -12.908  11.761  63.110  1.00  0.00     0.368 Br 
HETATM    2  C   UNL     2      -5.581  20.379  70.341  1.00  0.00    -0.357 C  
HETATM    3  C   UNL     2      -6.402  19.920  69.144  1.00  0.00    -0.353 C  
ENDROOT
BRANCH   3   4
HETATM    4  C   UNL     2      -6.382  18.394  68.987  1.00  0.00    -0.248 C  
HETATM    5  C   UNL     2      -7.755  17.773  68.627  1.00  0.00    -0.283 C  
HETATM    6  C   UNL     2      -8.375  18.362  67.341  1.00  0.00    -0.256 C  
HETATM    7  C   UNL     2      -7.648  16.238  68.608  1.00  0.00    -0.188 C  
HETATM    8  O   UNL     2      -6.764  15.609  69.173  1.00  0.00    -0.130 OA 
BRANCH   6   9
HETATM    9  C   UNL     2      -7.514  18.165  66.090  1.00  0.00    -0.297 C  
HETATM   10  C   UNL     2      -6.884  19.468  65.626  1.00  0.00    -0.313 C  
ENDBRANCH   6   9
BRANCH   7  11
HETATM   11  O   UNL     2      -8.701  15.657  67.971  1.00  0.00    -0.165 OA 
BRANCH  11  12
HETATM   12  C   UNL     2      -9.026  14.257  68.174  1.00  0.00    -0.189 C  
HETATM   13  C   UNL     2     -10.544  13.937  68.390  1.00  0.00    -0.262 C  
HETATM   14  C   UNL     2     -10.802  12.352  68.528  1.00  0.00    -0.242 C  
HETATM   15  C   UNL     2     -10.068  11.123  69.196  1.00  0.00    -0.134 C  
HETATM   16  C   UNL     2      -8.660  11.120  68.542  1.00  0.00    -0.157 C  
HETATM   17  C   UNL     2      -8.800  11.867  67.190  1.00  0.00    -0.180 C  
HETATM   18  C   UNL     2      -8.305  13.326  67.180  1.00  0.00    -0.143 C  
HETATM   19  N   UNL     2     -10.318  11.872  67.002  1.00  0.00    -0.210 N  
HETATM   20  C   UNL     2     -10.907  12.702  65.855  1.00  0.00    -0.270 C  
HETATM   21  C   UNL     2     -10.770  10.428  66.592  1.00  0.00    -0.128 C  
ENDBRANCH  11  12
ENDBRANCH   7  11
ENDBRANCH   3   4
TORSDOF 4
ENDMDL
MODEL      181
REMARK 921   NORMALIZED FREE ENERGY PREDICTED BY IDOCK:   -3.19 KCAL/MOL
REMARK 922        TOTAL FREE ENERGY PREDICTED BY IDOCK:   -4.50 KCAL/MOL
REMARK 923 INTER-LIGAND FREE ENERGY PREDICTED BY IDOCK:   -3.86 KCAL/MOL
REMARK 924 INTRA-LIGAND FREE ENERGY PREDICTED BY IDOCK:   -0.63 KCAL/MOL
REMARK 927      BINDING AFFINITY PREDICTED BY RF-SCORE:    0.00 PKD
ROOT
HETATM    1 BR   UNL     1     -10.377   2.361  74.000  1.00  0.00    -0.214 Br 
HETATM    2  C   UNL     2     -10.110  13.446  66.431  1.00  0.00    -0.292 C  
HETATM    3  C   UNL     2     -10.363  12.634  67.693  1.00  0.00    -0.221 C  
ENDROOT
BRANCH   3   4
HETATM    4  C   UNL     2     -10.604  11.152  67.382  1.00  0.00    -0.272 C  
HETATM    5  C   UNL     2      -9.645  10.182  68.116  1.00  0.00    -0.151 C  
HETATM    6  C   UNL     2      -9.671  10.342  69.651  1.00  0.00    -0.216 C  
HETATM    7  C   UNL     2      -9.896   8.739  67.645  1.00  0.00    -0.180 C  
HETATM    8  O   UNL     2     -10.453   8.450  66.595  1.00  0.00    -0.294 OA 
BRANCH   6   9
HETATM    9  C   UNL     2     -11.044  10.086  70.279  1.00  0.00    -0.381 C  
HETATM   10  C   UNL     2     -10.962   9.104  71.437  1.00  0.00    -0.414 C  
ENDBRANCH   6   9
BRANCH   7  11
HETATM   11  O   UNL     2      -9.345   7.821  68.486  1.00  0.00    -0.147 OA 
BRANCH  11  12
HETATM   12  C   UNL     2      -9.048   6.472  68.039  1.00  0.00    -0.114 C  
HETATM   13  C   UNL     2      -7.565   6.211  67.607  1.00  0.00    -0.097 C  
HETATM   14  C   UNL     2      -7.327   4.669  67.204  1.00  0.00    -0.077 C  
HETATM   15  C   UNL     2      -8.134   3.543  66.445  1.00  0.00    -0.096 C  
HETATM   16  C   UNL     2      -9.459   3.420  67.246  1.00  0.00    -0.211 C  
HETATM   17  C   UNL     2      -9.164   3.958  68.671  1.00  0.00    -0.151 C  
HETATM   18  C   UNL     2      -9.652   5.391  68.956  1.00  0.00    -0.191 C  
HETATM   19  N   UNL     2      -7.634   3.958  68.685  1.00  0.00    -0.054 N  
HETATM   20  C   UNL     2      -6.918   4.616  69.870  1.00  0.00    -0.049 C  
HETATM   21  C   UNL     2      -7.142   2.476  68.820  1.00  0.00    -0.044 C  
ENDBRANCH  11  12
ENDBRANCH   7  11
ENDBRANCH   3   4
TORSDOF 4
ENDMDL
MODEL      182
REMARK 921   NORMALIZED FREE ENERGY PREDICTED BY IDOCK:   -3.18 KCAL/MOL
REMARK 922        TOTAL FREE ENERGY PREDICTED BY IDOCK:   -4.48 KCAL/MOL
REMARK 923 INTER-LIGAND FREE ENERGY PREDICTED BY IDOCK:   -3.88 KCAL/MOL
REMARK 924 INTRA-LIGAND FREE ENERGY PREDICTED BY IDOCK:   -0.61 KCAL/MOL
REMARK 927      BINDING AFFINITY PREDICTED BY RF-SCORE:    0.00 PKD
ROOT
HETATM    1 BR   UNL     1     -11.388  15.685  68.698  1.00  0.00    -0.378 Br 
HETATM    2  C   UNL     2      -8.959   2.530  69.823  1.00  0.00    -0.159 C  
HETATM    3  C   UNL     2      -9.808   3.793  69.869  1.00  0.00    -0.080 C  
ENDROOT
BRANCH   3   4
HETATM    4  C   UNL     2      -8.957   5.045  70.114  1.00  0.00    -0.147 C  
HETATM    5  C   UNL     2      -9.630   6.369  69.671  1.00  0.00    -0.157 C  
HETATM    6  C   UNL     2     -11.005   6.607  70.331  1.00  0.00    -0.341 C  
HETATM    7  C   UNL     2      -8.651   7.542  69.853  1.00  0.00    -0.139 C  
HETATM    8  O   UNL     2      -7.437   7.411  69.937  1.00  0.00    -0.081 OA 
BRANCH   6   9
HETATM    9  C   UNL     2     -10.955   6.685  71.860  1.00  0.00    -0.277 C  
HETATM   10  C   UNL     2     -11.771   5.578  72.509  1.00  0.00    -0.222 C  
ENDBRANCH   6   9
BRANCH   7  11
HETATM   11  O   UNL     2      -9.281   8.748  69.816  1.00  0.00    -0.149 OA 
BRANCH  11  12
HETATM   12  C   UNL     2      -9.307   9.548  68.606  1.00  0.00    -0.142 C  
HETATM   13  C   UNL     2      -7.934   9.712  67.870  1.00  0.00    -0.098 C  
HETATM   14  C   UNL     2      -8.090  10.552  66.503  1.00  0.00    -0.134 C  
HETATM   15  C   UNL     2      -8.922  11.802  66.012  1.00  0.00    -0.108 C  
HETATM   16  C   UNL     2     -10.400  11.396  66.260  1.00  0.00    -0.287 C  
HETATM   17  C   UNL     2     -10.432   9.845  66.287  1.00  0.00    -0.101 C  
HETATM   18  C   UNL     2     -10.494   9.205  67.687  1.00  0.00    -0.323 C  
HETATM   19  N   UNL     2      -9.080   9.502  65.660  1.00  0.00    -0.185 N  
HETATM   20  C   UNL     2      -8.620   8.040  65.676  1.00  0.00    -0.145 C  
HETATM   21  C   UNL     2      -9.167   9.773  64.119  1.00  0.00    -0.224 C  
ENDBRANCH  11  12
ENDBRANCH   7  11
ENDBRANCH   3   4
TORSDOF 4
ENDMDL
MODEL      183
REMARK 921   NORMALIZED FREE ENERGY PREDICTED BY IDOCK:   -3.17 KCAL/MOL
REMARK 922        TOTAL FREE ENERGY PREDICTED BY IDOCK:   -4.47 KCAL/MOL
REMARK 923 INTER-LIGAND FREE ENERGY PREDICTED BY IDOCK:   -3.81 KCAL/MOL
REMARK 924 INTRA-LIGAND FREE ENERGY PREDICTED BY IDOCK:   -0.66 KCAL/MOL
REMARK 927      BINDING AFFINITY PREDICTED BY RF-SCORE:    0.00 PKD
ROOT
HETATM    1 BR   UNL     1      -9.309  15.193  66.185  1.00  0.00    -0.320 Br 
HETATM    2  C   UNL     2      -6.960   3.617  72.564  1.00  0.00    -0.043 C  
HETATM    3  C   UNL     2      -7.672   4.544  71.588  1.00  0.00    -0.083 C  
ENDROOT
BRANCH   3   4
HETATM    4  C   UNL     2      -7.535   6.016  71.995  1.00  0.00    -0.095 C  
HETATM    5  C   UNL     2      -8.509   6.972  71.261  1.00  0.00    -0.118 C  
HETATM    6  C   UNL     2      -9.993   6.581  71.431  1.00  0.00    -0.202 C  
HETATM    7  C   UNL     2      -8.211   8.429  71.655  1.00  0.00    -0.152 C  
HETATM    8  O   UNL     2      -7.147   8.804  72.130  1.00  0.00    -0.244 OA 
BRANCH   6   9
HETATM    9  C   UNL     2     -10.472   6.573  72.886  1.00  0.00    -0.246 C  
HETATM   10  C   UNL     2     -11.216   5.293  73.229  1.00  0.00    -0.359 C  
ENDBRANCH   6   9
BRANCH   7  11
HETATM   11  O   UNL     2      -9.230   9.269  71.329  1.00  0.00    -0.240 OA 
BRANCH  11  12
HETATM   12  C   UNL     2      -9.522   9.600  69.945  1.00  0.00    -0.231 C  
HETATM   13  C   UNL     2     -10.997   9.347  69.483  1.00  0.00    -0.193 C  
HETATM   14  C   UNL     2     -11.230   9.818  67.959  1.00  0.00     0.009 C  
HETATM   15  C   UNL     2     -10.410   9.785  66.609  1.00  0.00    -0.276 C  
HETATM   16  C   UNL     2      -9.101  10.551  66.941  1.00  0.00    -0.161 C  
HETATM   17  C   UNL     2      -9.421  11.469  68.149  1.00  0.00    -0.184 C  
HETATM   18  C   UNL     2      -8.936  10.960  69.520  1.00  0.00     0.232 C  
HETATM   19  N   UNL     2     -10.951  11.455  68.143  1.00  0.00    -0.214 N  
HETATM   20  C   UNL     2     -11.689  12.100  69.322  1.00  0.00    -0.328 C  
HETATM   21  C   UNL     2     -11.449  12.346  66.954  1.00  0.00    -0.360 C  
ENDBRANCH  11  12
ENDBRANCH   7  11
ENDBRANCH   3   4
TORSDOF 4
ENDMDL
MODEL      184
REMARK 921   NORMALIZED FREE ENERGY PREDICTED BY IDOCK:   -3.17 KCAL/MOL
REMARK 922        TOTAL FREE ENERGY PREDICTED BY IDOCK:   -4.47 KCAL/MOL
REMARK 923 INTER-LIGAND FREE ENERGY PREDICTED BY IDOCK:   -4.10 KCAL/MOL
REMARK 924 INTRA-LIGAND FREE ENERGY PREDICTED BY IDOCK:   -0.36 KCAL/MOL
REMARK 927      BINDING AFFINITY PREDICTED BY RF-SCORE:    0.00 PKD
ROOT
HETATM    1 BR   UNL     1      -9.923  20.142  69.435  1.00  0.00     0.151 Br 
HETATM    2  C   UNL     2      -6.555   7.982  64.850  1.00  0.00    -0.051 C  
HETATM    3  C   UNL     2      -7.352   9.279  64.888  1.00  0.00    -0.103 C  
ENDROOT
BRANCH   3   4
HETATM    4  C   UNL     2      -7.332   9.921  66.281  1.00  0.00    -0.102 C  
HETATM    5  C   UNL     2      -8.481  10.930  66.533  1.00  0.00    -0.159 C  
HETATM    6  C   UNL     2      -9.885  10.322  66.323  1.00  0.00    -0.276 C  
HETATM    7  C   UNL     2      -8.301  11.598  67.907  1.00  0.00    -0.143 C  
HETATM    8  O   UNL     2      -7.238  11.640  68.512  1.00  0.00    -0.081 OA 
BRANCH   6   9
HETATM    9  C   UNL     2     -10.193   9.138  67.244  1.00  0.00    -0.319 C  
HETATM   10  C   UNL     2     -10.017   7.807  66.531  1.00  0.00    -0.244 C  
ENDBRANCH   6   9
BRANCH   7  11
HETATM   11  O   UNL     2      -9.437  12.217  68.330  1.00  0.00    -0.211 OA 
BRANCH  11  12
HETATM   12  C   UNL     2      -9.608  13.653  68.196  1.00  0.00    -0.221 C  
HETATM   13  C   UNL     2      -8.550  14.382  67.301  1.00  0.00    -0.230 C  
HETATM   14  C   UNL     2      -8.876  15.954  67.158  1.00  0.00    -0.207 C  
HETATM   15  C   UNL     2      -9.419  17.104  68.095  1.00  0.00    -0.269 C  
HETATM   16  C   UNL     2     -10.796  16.576  68.584  1.00  0.00    -0.345 C  
HETATM   17  C   UNL     2     -11.267  15.535  67.536  1.00  0.00    -0.272 C  
HETATM   18  C   UNL     2     -11.070  14.058  67.928  1.00  0.00    -0.274 C  
HETATM   19  N   UNL     2     -10.340  15.848  66.359  1.00  0.00    -0.296 N  
HETATM   20  C   UNL     2     -10.344  14.897  65.156  1.00  0.00    -0.401 C  
HETATM   21  C   UNL     2     -10.824  17.181  65.691  1.00  0.00    -0.049 C  
ENDBRANCH  11  12
ENDBRANCH   7  11
ENDBRANCH   3   4
TORSDOF 4
ENDMDL
MODEL      185
REMARK 921   NORMALIZED FREE ENERGY PREDICTED BY IDOCK:   -3.16 KCAL/MOL
REMARK 922        TOTAL FREE ENERGY PREDICTED BY IDOCK:   -4.45 KCAL/MOL
REMARK 923 INTER-LIGAND FREE ENERGY PREDICTED BY IDOCK:   -3.82 KCAL/MOL
REMARK 924 INTRA-LIGAND FREE ENERGY PREDICTED BY IDOCK:   -0.63 KCAL/MOL
REMARK 927      BINDING AFFINITY PREDICTED BY RF-SCORE:    0.00 PKD
ROOT
HETATM    1 BR   UNL     1      -9.211  19.131  67.158  1.00  0.00    -0.358 Br 
HETATM    2  C   UNL     2      -5.402   6.472  69.495  1.00  0.00    -0.014 C  
HETATM    3  C   UNL     2      -5.374   7.984  69.670  1.00  0.00    -0.023 C  
ENDROOT
BRANCH   3   4
HETATM    4  C   UNL     2      -5.896   8.714  68.426  1.00  0.00    -0.042 C  
HETATM    5  C   UNL     2      -7.143   9.596  68.682  1.00  0.00    -0.072 C  
HETATM    6  C   UNL     2      -6.926  10.656  69.783  1.00  0.00    -0.145 C  
HETATM    7  C   UNL     2      -7.650  10.186  67.354  1.00  0.00    -0.094 C  
HETATM    8  O   UNL     2      -7.381   9.723  66.254  1.00  0.00    -0.096 OA 
BRANCH   6   9
HETATM    9  C   UNL     2      -5.800  11.647  69.479  1.00  0.00    -0.080 C  
HETATM   10  C   UNL     2      -6.286  13.087  69.526  1.00  0.00    -0.117 C  
ENDBRANCH   6   9
BRANCH   7  11
HETATM   11  O   UNL     2      -8.507  11.226  67.548  1.00  0.00    -0.127 OA 
BRANCH  11  12
HETATM   12  C   UNL     2      -9.435  11.641  66.511  1.00  0.00    -0.206 C  
HETATM   13  C   UNL     2     -10.910  11.140  66.680  1.00  0.00    -0.308 C  
HETATM   14  C   UNL     2     -11.869  11.719  65.522  1.00  0.00     0.083 C  
HETATM   15  C   UNL     2     -11.754  12.007  63.973  1.00  0.00    -0.498 C  
HETATM   16  C   UNL     2     -10.555  12.987  63.858  1.00  0.00    -0.292 C  
HETATM   17  C   UNL     2     -10.415  13.678  65.239  1.00  0.00    -0.351 C  
HETATM   18  C   UNL     2      -9.298  13.131  66.148  1.00  0.00    -0.086 C  
HETATM   19  N   UNL     2     -11.764  13.347  65.882  1.00  0.00    -0.340 N  
HETATM   20  C   UNL     2     -11.968  13.689  67.362  1.00  0.00    -0.376 C  
HETATM   21  C   UNL     2     -12.863  14.242  65.212  1.00  0.00    -0.281 C  
ENDBRANCH  11  12
ENDBRANCH   7  11
ENDBRANCH   3   4
TORSDOF 4
ENDMDL
MODEL      186
REMARK 921   NORMALIZED FREE ENERGY PREDICTED BY IDOCK:   -3.14 KCAL/MOL
REMARK 922        TOTAL FREE ENERGY PREDICTED BY IDOCK:   -4.43 KCAL/MOL
REMARK 923 INTER-LIGAND FREE ENERGY PREDICTED BY IDOCK:   -4.29 KCAL/MOL
REMARK 924 INTRA-LIGAND FREE ENERGY PREDICTED BY IDOCK:   -0.14 KCAL/MOL
REMARK 927      BINDING AFFINITY PREDICTED BY RF-SCORE:    0.00 PKD
ROOT
HETATM    1 BR   UNL     1      -6.322   6.499  62.846  1.00  0.00    -0.038 Br 
HETATM    2  C   UNL     2     -13.561  12.942  72.136  1.00  0.00    -0.589 C  
HETATM    3  C   UNL     2     -12.709  12.819  70.880  1.00  0.00    -0.277 C  
ENDROOT
BRANCH   3   4
HETATM    4  C   UNL     2     -11.802  11.583  70.923  1.00  0.00    -0.038 C  
HETATM    5  C   UNL     2     -11.849  10.715  69.641  1.00  0.00    -0.358 C  
HETATM    6  C   UNL     2     -11.500  11.500  68.358  1.00  0.00    -0.364 C  
HETATM    7  C   UNL     2     -10.998   9.447  69.834  1.00  0.00    -0.229 C  
HETATM    8  O   UNL     2     -10.680   8.998  70.927  1.00  0.00    -0.216 OA 
BRANCH   6   9
HETATM    9  C   UNL     2     -10.097  12.113  68.366  1.00  0.00    -0.210 C  
HETATM   10  C   UNL     2     -10.142  13.629  68.256  1.00  0.00    -0.240 C  
ENDBRANCH   6   9
BRANCH   7  11
HETATM   11  O   UNL     2     -10.717   8.832  68.653  1.00  0.00    -0.175 OA 
BRANCH  11  12
HETATM   12  C   UNL     2     -10.115   7.511  68.615  1.00  0.00    -0.184 C  
HETATM   13  C   UNL     2      -8.886   7.297  69.563  1.00  0.00    -0.137 C  
HETATM   14  C   UNL     2      -8.345   5.781  69.499  1.00  0.00    -0.112 C  
HETATM   15  C   UNL     2      -8.146   4.678  68.386  1.00  0.00    -0.083 C  
HETATM   16  C   UNL     2      -9.563   4.494  67.776  1.00  0.00    -0.208 C  
HETATM   17  C   UNL     2     -10.571   4.968  68.855  1.00  0.00     0.140 C  
HETATM   18  C   UNL     2     -11.158   6.377  68.645  1.00  0.00    -0.393 C  
HETATM   19  N   UNL     2      -9.689   4.994  70.105  1.00  0.00    -0.190 N  
HETATM   20  C   UNL     2     -10.264   5.607  71.388  1.00  0.00    -0.214 C  
HETATM   21  C   UNL     2      -9.438   3.517  70.563  1.00  0.00    -0.179 C  
ENDBRANCH  11  12
ENDBRANCH   7  11
ENDBRANCH   3   4
TORSDOF 4
ENDMDL
MODEL      187
REMARK 921   NORMALIZED FREE ENERGY PREDICTED BY IDOCK:   -3.14 KCAL/MOL
REMARK 922        TOTAL FREE ENERGY PREDICTED BY IDOCK:   -4.43 KCAL/MOL
REMARK 923 INTER-LIGAND FREE ENERGY PREDICTED BY IDOCK:   -4.07 KCAL/MOL
REMARK 924 INTRA-LIGAND FREE ENERGY PREDICTED BY IDOCK:   -0.36 KCAL/MOL
REMARK 927      BINDING AFFINITY PREDICTED BY RF-SCORE:    0.00 PKD
ROOT
HETATM    1 BR   UNL     1      -6.609  19.762  69.240  1.00  0.00    -0.385 Br 
HETATM    2  C   UNL     2      -5.617   6.376  69.019  1.00  0.00    -0.016 C  
HETATM    3  C   UNL     2      -5.289   7.784  69.496  1.00  0.00    -0.023 C  
ENDROOT
BRANCH   3   4
HETATM    4  C   UNL     2      -5.580   8.836  68.419  1.00  0.00    -0.038 C  
HETATM    5  C   UNL     2      -6.933   8.643  67.689  1.00  0.00    -0.075 C  
HETATM    6  C   UNL     2      -8.145   8.614  68.646  1.00  0.00    -0.117 C  
HETATM    7  C   UNL     2      -7.071   9.676  66.557  1.00  0.00    -0.089 C  
HETATM    8  O   UNL     2      -6.126  10.268  66.054  1.00  0.00    -0.075 OA 
BRANCH   6   9
HETATM    9  C   UNL     2      -8.320   9.895  69.467  1.00  0.00    -0.174 C  
HETATM   10  C   UNL     2      -9.544   9.827  70.366  1.00  0.00    -0.223 C  
ENDBRANCH   6   9
BRANCH   7  11
HETATM   11  O   UNL     2      -8.354   9.788  66.117  1.00  0.00    -0.118 OA 
BRANCH  11  12
HETATM   12  C   UNL     2      -8.991  11.084  65.970  1.00  0.00    -0.197 C  
HETATM   13  C   UNL     2     -10.438  11.065  65.369  1.00  0.00    -0.306 C  
HETATM   14  C   UNL     2     -11.079  12.543  65.321  1.00  0.00    -0.297 C  
HETATM   15  C   UNL     2     -10.571  14.006  65.009  1.00  0.00    -0.426 C  
HETATM   16  C   UNL     2      -9.421  14.234  66.028  1.00  0.00    -0.213 C  
HETATM   17  C   UNL     2      -9.678  13.259  67.207  1.00  0.00    -0.231 C  
HETATM   18  C   UNL     2      -8.820  11.979  67.212  1.00  0.00    -0.183 C  
HETATM   19  N   UNL     2     -11.134  12.861  66.960  1.00  0.00    -0.266 N  
HETATM   20  C   UNL     2     -11.734  11.734  67.809  1.00  0.00    -0.267 C  
HETATM   21  C   UNL     2     -12.051  14.065  67.368  1.00  0.00    -0.349 C  
ENDBRANCH  11  12
ENDBRANCH   7  11
ENDBRANCH   3   4
TORSDOF 4
ENDMDL
MODEL      188
REMARK 921   NORMALIZED FREE ENERGY PREDICTED BY IDOCK:   -3.14 KCAL/MOL
REMARK 922        TOTAL FREE ENERGY PREDICTED BY IDOCK:   -4.43 KCAL/MOL
REMARK 923 INTER-LIGAND FREE ENERGY PREDICTED BY IDOCK:   -4.23 KCAL/MOL
REMARK 924 INTRA-LIGAND FREE ENERGY PREDICTED BY IDOCK:   -0.20 KCAL/MOL
REMARK 927      BINDING AFFINITY PREDICTED BY RF-SCORE:    0.00 PKD
ROOT
HETATM    1 BR   UNL     1      -7.275   3.111  62.610  1.00  0.00    -0.041 Br 
HETATM    2  C   UNL     2     -11.434  15.538  65.526  1.00  0.00    -0.001 C  
HETATM    3  C   UNL     2     -10.815  14.449  64.660  1.00  0.00    -0.363 C  
ENDROOT
BRANCH   3   4
HETATM    4  C   UNL     2     -10.232  13.309  65.504  1.00  0.00    -0.298 C  
HETATM    5  C   UNL     2     -10.916  11.937  65.280  1.00  0.00    -0.354 C  
HETATM    6  C   UNL     2     -10.897  11.478  63.806  1.00  0.00    -0.486 C  
HETATM    7  C   UNL     2     -10.336  10.897  66.254  1.00  0.00    -0.250 C  
HETATM    8  O   UNL     2      -9.747  11.182  67.288  1.00  0.00    -0.165 OA 
BRANCH   6   9
HETATM    9  C   UNL     2      -9.490  11.315  63.224  1.00  0.00    -0.339 C  
HETATM   10  C   UNL     2      -9.197   9.871  62.849  1.00  0.00    -0.287 C  
ENDBRANCH   6   9
BRANCH   7  11
HETATM   11  O   UNL     2     -10.633   9.622  65.881  1.00  0.00    -0.031 OA 
BRANCH  11  12
HETATM   12  C   UNL     2     -10.150   8.482  66.639  1.00  0.00    -0.294 C  
HETATM   13  C   UNL     2      -8.696   8.007  66.298  1.00  0.00    -0.174 C  
HETATM   14  C   UNL     2      -8.232   6.789  67.246  1.00  0.00    -0.121 C  
HETATM   15  C   UNL     2      -8.902   5.503  67.873  1.00  0.00    -0.105 C  
HETATM   16  C   UNL     2     -10.095   6.058  68.696  1.00  0.00    -0.208 C  
HETATM   17  C   UNL     2      -9.756   7.536  69.022  1.00  0.00    -0.162 C  
HETATM   18  C   UNL     2     -10.457   8.590  68.144  1.00  0.00    -0.236 C  
HETATM   19  N   UNL     2      -8.257   7.577  68.720  1.00  0.00    -0.127 N  
HETATM   20  C   UNL     2      -7.550   8.938  68.728  1.00  0.00    -0.091 C  
HETATM   21  C   UNL     2      -7.499   6.838  69.875  1.00  0.00    -0.095 C  
ENDBRANCH  11  12
ENDBRANCH   7  11
ENDBRANCH   3   4
TORSDOF 4
ENDMDL
MODEL      189
REMARK 921   NORMALIZED FREE ENERGY PREDICTED BY IDOCK:   -3.12 KCAL/MOL
REMARK 922        TOTAL FREE ENERGY PREDICTED BY IDOCK:   -4.41 KCAL/MOL
REMARK 923 INTER-LIGAND FREE ENERGY PREDICTED BY IDOCK:   -3.59 KCAL/MOL
REMARK 924 INTRA-LIGAND FREE ENERGY PREDICTED BY IDOCK:   -0.82 KCAL/MOL
REMARK 927      BINDING AFFINITY PREDICTED BY RF-SCORE:    0.00 PKD
ROOT
HETATM    1 BR   UNL     1      -6.596  15.481  68.917  1.00  0.00    -0.119 Br 
HETATM    2  C   UNL     2      -7.398   2.178  67.309  1.00  0.00    -0.056 C  
HETATM    3  C   UNL     2      -7.037   3.603  66.916  1.00  0.00    -0.063 C  
ENDROOT
BRANCH   3   4
HETATM    4  C   UNL     2      -7.927   4.634  67.622  1.00  0.00    -0.093 C  
HETATM    5  C   UNL     2      -8.301   5.857  66.747  1.00  0.00    -0.109 C  
HETATM    6  C   UNL     2      -8.998   5.473  65.424  1.00  0.00    -0.106 C  
HETATM    7  C   UNL     2      -9.093   6.878  67.584  1.00  0.00    -0.118 C  
HETATM    8  O   UNL     2      -9.076   6.918  68.807  1.00  0.00    -0.134 OA 
BRANCH   6   9
HETATM    9  C   UNL     2     -10.312   4.709  65.613  1.00  0.00    -0.266 C  
HETATM   10  C   UNL     2     -10.648   3.855  64.402  1.00  0.00    -0.224 C  
ENDBRANCH   6   9
BRANCH   7  11
HETATM   11  O   UNL     2      -9.739   7.789  66.806  1.00  0.00    -0.193 OA 
BRANCH  11  12
HETATM   12  C   UNL     2      -9.468   9.210  66.926  1.00  0.00    -0.171 C  
HETATM   13  C   UNL     2      -8.569   9.827  65.801  1.00  0.00    -0.147 C  
HETATM   14  C   UNL     2      -8.395  11.418  65.987  1.00  0.00    -0.019 C  
HETATM   15  C   UNL     2      -8.212  12.420  67.195  1.00  0.00    -0.176 C  
HETATM   16  C   UNL     2      -9.457  12.169  68.088  1.00  0.00    -0.205 C  
HETATM   17  C   UNL     2     -10.545  11.558  67.167  1.00  0.00    -0.237 C  
HETATM   18  C   UNL     2     -10.725  10.032  67.271  1.00  0.00    -0.309 C  
HETATM   19  N   UNL     2      -9.986  11.884  65.780  1.00  0.00    -0.231 N  
HETATM   20  C   UNL     2     -10.677  11.272  64.556  1.00  0.00    -0.323 C  
HETATM   21  C   UNL     2     -10.196  13.414  65.511  1.00  0.00    -0.290 C  
ENDBRANCH  11  12
ENDBRANCH   7  11
ENDBRANCH   3   4
TORSDOF 4
ENDMDL
MODEL      190
REMARK 921   NORMALIZED FREE ENERGY PREDICTED BY IDOCK:   -3.11 KCAL/MOL
REMARK 922        TOTAL FREE ENERGY PREDICTED BY IDOCK:   -4.40 KCAL/MOL
REMARK 923 INTER-LIGAND FREE ENERGY PREDICTED BY IDOCK:   -3.58 KCAL/MOL
REMARK 924 INTRA-LIGAND FREE ENERGY PREDICTED BY IDOCK:   -0.82 KCAL/MOL
REMARK 927      BINDING AFFINITY PREDICTED BY RF-SCORE:    0.00 PKD
ROOT
HETATM    1 BR   UNL     1     -11.013   2.617  62.967  1.00  0.00    -0.160 Br 
HETATM    2  C   UNL     2     -11.129  14.398  69.402  1.00  0.00    -0.294 C  
HETATM    3  C   UNL     2     -10.760  13.430  68.287  1.00  0.00    -0.273 C  
ENDROOT
BRANCH   3   4
HETATM    4  C   UNL     2     -10.794  11.971  68.760  1.00  0.00    -0.267 C  
HETATM    5  C   UNL     2     -10.788  10.930  67.613  1.00  0.00    -0.317 C  
HETATM    6  C   UNL     2      -9.583  11.078  66.659  1.00  0.00    -0.216 C  
HETATM    7  C   UNL     2     -10.941   9.512  68.192  1.00  0.00    -0.089 C  
HETATM    8  O   UNL     2     -11.397   9.273  69.301  1.00  0.00     0.007 OA 
BRANCH   6   9
HETATM    9  C   UNL     2      -8.223  10.916  67.345  1.00  0.00    -0.117 C  
HETATM   10  C   UNL     2      -7.412  12.201  67.303  1.00  0.00    -0.152 C  
ENDBRANCH   6   9
BRANCH   7  11
HETATM   11  O   UNL     2     -10.597   8.550  67.292  1.00  0.00    -0.295 OA 
BRANCH  11  12
HETATM   12  C   UNL     2      -9.867   7.363  67.699  1.00  0.00    -0.154 C  
HETATM   13  C   UNL     2     -10.670   6.019  67.639  1.00  0.00    -0.377 C  
HETATM   14  C   UNL     2      -9.747   4.759  68.036  1.00  0.00    -0.147 C  
HETATM   15  C   UNL     2      -8.603   4.458  69.084  1.00  0.00    -0.106 C  
HETATM   16  C   UNL     2      -7.511   5.515  68.768  1.00  0.00    -0.079 C  
HETATM   17  C   UNL     2      -7.730   5.949  67.295  1.00  0.00    -0.101 C  
HETATM   18  C   UNL     2      -8.451   7.296  67.097  1.00  0.00    -0.118 C  
HETATM   19  N   UNL     2      -8.644   4.834  66.783  1.00  0.00    -0.109 N  
HETATM   20  C   UNL     2      -9.268   4.986  65.391  1.00  0.00    -0.138 C  
HETATM   21  C   UNL     2      -7.781   3.540  66.586  1.00  0.00    -0.081 C  
ENDBRANCH  11  12
ENDBRANCH   7  11
ENDBRANCH   3   4
TORSDOF 4
ENDMDL
MODEL      191
REMARK 921   NORMALIZED FREE ENERGY PREDICTED BY IDOCK:   -3.10 KCAL/MOL
REMARK 922        TOTAL FREE ENERGY PREDICTED BY IDOCK:   -4.39 KCAL/MOL
REMARK 923 INTER-LIGAND FREE ENERGY PREDICTED BY IDOCK:   -4.13 KCAL/MOL
REMARK 924 INTRA-LIGAND FREE ENERGY PREDICTED BY IDOCK:   -0.26 KCAL/MOL
REMARK 927      BINDING AFFINITY PREDICTED BY RF-SCORE:    0.00 PKD
ROOT
HETATM    1 BR   UNL     1     -10.928  15.941  64.877  1.00  0.00    -0.325 Br 
HETATM    2  C   UNL     2      -5.462   5.269  70.916  1.00  0.00    -0.005 C  
HETATM    3  C   UNL     2      -6.171   6.017  69.795  1.00  0.00    -0.027 C  
ENDROOT
BRANCH   3   4
HETATM    4  C   UNL     2      -6.914   7.254  70.314  1.00  0.00    -0.060 C  
HETATM    5  C   UNL     2      -7.944   7.842  69.317  1.00  0.00    -0.117 C  
HETATM    6  C   UNL     2      -9.009   6.820  68.864  1.00  0.00    -0.131 C  
HETATM    7  C   UNL     2      -8.545   9.139  69.888  1.00  0.00    -0.150 C  
HETATM    8  O   UNL     2      -8.016   9.808  70.765  1.00  0.00    -0.288 OA 
BRANCH   6   9
HETATM    9  C   UNL     2      -9.850   6.250  70.009  1.00  0.00    -0.200 C  
HETATM   10  C   UNL     2      -9.864   4.729  69.999  1.00  0.00    -0.297 C  
ENDBRANCH   6   9
BRANCH   7  11
HETATM   11  O   UNL     2      -9.683   9.507  69.239  1.00  0.00    -0.163 OA 
BRANCH  11  12
HETATM   12  C   UNL     2     -10.115  10.893  69.200  1.00  0.00    -0.177 C  
HETATM   13  C   UNL     2      -9.358  11.811  68.181  1.00  0.00    -0.190 C  
HETATM   14  C   UNL     2      -9.965  13.304  68.164  1.00  0.00    -0.234 C  
HETATM   15  C   UNL     2     -10.533  14.325  69.227  1.00  0.00    -0.112 C  
HETATM   16  C   UNL     2     -11.700  13.557  69.905  1.00  0.00    -0.341 C  
HETATM   17  C   UNL     2     -12.154  12.468  68.899  1.00  0.00    -0.122 C  
HETATM   18  C   UNL     2     -11.648  11.042  69.187  1.00  0.00    -0.389 C  
HETATM   19  N   UNL     2     -11.501  12.959  67.605  1.00  0.00    -0.313 N  
HETATM   20  C   UNL     2     -11.542  12.043  66.376  1.00  0.00    -0.313 C  
HETATM   21  C   UNL     2     -12.307  14.198  67.084  1.00  0.00    -0.178 C  
ENDBRANCH  11  12
ENDBRANCH   7  11
ENDBRANCH   3   4
TORSDOF 4
ENDMDL
MODEL      192
REMARK 921   NORMALIZED FREE ENERGY PREDICTED BY IDOCK:   -3.10 KCAL/MOL
REMARK 922        TOTAL FREE ENERGY PREDICTED BY IDOCK:   -4.39 KCAL/MOL
REMARK 923 INTER-LIGAND FREE ENERGY PREDICTED BY IDOCK:   -4.01 KCAL/MOL
REMARK 924 INTRA-LIGAND FREE ENERGY PREDICTED BY IDOCK:   -0.37 KCAL/MOL
REMARK 927      BINDING AFFINITY PREDICTED BY RF-SCORE:    0.00 PKD
ROOT
HETATM    1 BR   UNL     1     -12.434  15.765  74.227  1.00  0.00    -0.761 Br 
HETATM    2  C   UNL     2      -9.134  10.488  62.333  1.00  0.00    -0.313 C  
HETATM    3  C   UNL     2     -10.014  10.714  63.554  1.00  0.00    -0.347 C  
ENDROOT
BRANCH   3   4
HETATM    4  C   UNL     2      -9.196  11.148  64.777  1.00  0.00    -0.157 C  
HETATM    5  C   UNL     2      -8.839   9.994  65.746  1.00  0.00    -0.172 C  
HETATM    6  C   UNL     2      -8.075   8.838  65.065  1.00  0.00    -0.144 C  
HETATM    7  C   UNL     2      -8.123  10.554  66.988  1.00  0.00    -0.118 C  
HETATM    8  O   UNL     2      -8.190  11.722  67.345  1.00  0.00    -0.145 OA 
BRANCH   6   9
HETATM    9  C   UNL     2      -6.739   9.257  64.444  1.00  0.00    -0.086 C  
HETATM   10  C   UNL     2      -6.280   8.277  63.376  1.00  0.00    -0.073 C  
ENDBRANCH   6   9
BRANCH   7  11
HETATM   11  O   UNL     2      -7.485   9.582  67.695  1.00  0.00    -0.090 OA 
BRANCH  11  12
HETATM   12  C   UNL     2      -8.156   8.861  68.762  1.00  0.00    -0.114 C  
HETATM   13  C   UNL     2      -9.721   8.872  68.709  1.00  0.00    -0.170 C  
HETATM   14  C   UNL     2     -10.361   7.982  69.891  1.00  0.00    -0.221 C  
HETATM   15  C   UNL     2     -10.047   7.697  71.412  1.00  0.00    -0.204 C  
HETATM   16  C   UNL     2      -8.595   7.146  71.403  1.00  0.00    -0.116 C  
HETATM   17  C   UNL     2      -8.347   6.579  69.981  1.00  0.00    -0.134 C  
HETATM   18  C   UNL     2      -7.529   7.481  69.037  1.00  0.00    -0.096 C  
HETATM   19  N   UNL     2      -9.775   6.484  69.440  1.00  0.00    -0.146 N  
HETATM   20  C   UNL     2      -9.970   6.141  67.958  1.00  0.00    -0.141 C  
HETATM   21  C   UNL     2     -10.483   5.265  70.125  1.00  0.00    -0.268 C  
ENDBRANCH  11  12
ENDBRANCH   7  11
ENDBRANCH   3   4
TORSDOF 4
ENDMDL
MODEL      193
REMARK 921   NORMALIZED FREE ENERGY PREDICTED BY IDOCK:   -3.08 KCAL/MOL
REMARK 922        TOTAL FREE ENERGY PREDICTED BY IDOCK:   -4.36 KCAL/MOL
REMARK 923 INTER-LIGAND FREE ENERGY PREDICTED BY IDOCK:   -3.53 KCAL/MOL
REMARK 924 INTRA-LIGAND FREE ENERGY PREDICTED BY IDOCK:   -0.83 KCAL/MOL
REMARK 927      BINDING AFFINITY PREDICTED BY RF-SCORE:    0.00 PKD
ROOT
HETATM    1 BR   UNL     1      -9.784   2.825  71.693  1.00  0.00    -0.212 Br 
HETATM    2  C   UNL     2      -9.159  15.149  66.405  1.00  0.00    -0.331 C  
HETATM    3  C   UNL     2      -9.836  13.849  66.819  1.00  0.00    -0.274 C  
ENDROOT
BRANCH   3   4
HETATM    4  C   UNL     2      -8.840  12.685  66.897  1.00  0.00    -0.201 C  
HETATM    5  C   UNL     2      -9.461  11.346  67.366  1.00  0.00    -0.174 C  
HETATM    6  C   UNL     2     -10.647  10.882  66.492  1.00  0.00    -0.295 C  
HETATM    7  C   UNL     2      -8.360  10.282  67.520  1.00  0.00    -0.114 C  
HETATM    8  O   UNL     2      -7.172  10.543  67.651  1.00  0.00    -0.084 OA 
BRANCH   6   9
HETATM    9  C   UNL     2     -10.283  10.653  65.023  1.00  0.00    -0.380 C  
HETATM   10  C   UNL     2     -11.007  11.624  64.103  1.00  0.00    -0.442 C  
ENDBRANCH   6   9
BRANCH   7  11
HETATM   11  O   UNL     2      -8.870   9.021  67.587  1.00  0.00    -0.124 OA 
BRANCH  11  12
HETATM   12  C   UNL     2      -8.229   7.912  66.904  1.00  0.00    -0.116 C  
HETATM   13  C   UNL     2      -7.321   6.998  67.796  1.00  0.00    -0.097 C  
HETATM   14  C   UNL     2      -6.722   5.758  66.959  1.00  0.00    -0.062 C  
HETATM   15  C   UNL     2      -6.163   5.520  65.501  1.00  0.00    -0.034 C  
HETATM   16  C   UNL     2      -7.332   5.946  64.571  1.00  0.00    -0.067 C  
HETATM   17  C   UNL     2      -8.630   5.828  65.412  1.00  0.00    -0.143 C  
HETATM   18  C   UNL     2      -9.187   7.152  65.968  1.00  0.00    -0.069 C  
HETATM   19  N   UNL     2      -8.152   4.975  66.589  1.00  0.00    -0.107 N  
HETATM   20  C   UNL     2      -9.099   4.780  67.778  1.00  0.00    -0.116 C  
HETATM   21  C   UNL     2      -7.984   3.497  66.092  1.00  0.00    -0.092 C  
ENDBRANCH  11  12
ENDBRANCH   7  11
ENDBRANCH   3   4
TORSDOF 4
ENDMDL
MODEL      194
REMARK 921   NORMALIZED FREE ENERGY PREDICTED BY IDOCK:   -3.07 KCAL/MOL
REMARK 922        TOTAL FREE ENERGY PREDICTED BY IDOCK:   -4.35 KCAL/MOL
REMARK 923 INTER-LIGAND FREE ENERGY PREDICTED BY IDOCK:   -3.74 KCAL/MOL
REMARK 924 INTRA-LIGAND FREE ENERGY PREDICTED BY IDOCK:   -0.61 KCAL/MOL
REMARK 927      BINDING AFFINITY PREDICTED BY RF-SCORE:    0.00 PKD
ROOT
HETATM    1 BR   UNL     1      -9.110   8.406  65.166  1.00  0.00     0.219 Br 
HETATM    2  C   UNL     2     -12.397  17.487  74.491  1.00  0.00     0.660 C  
HETATM    3  C   UNL     2     -12.310  16.096  73.879  1.00  0.00    -0.676 C  
ENDROOT
BRANCH   3   4
HETATM    4  C   UNL     2     -12.201  16.149  72.350  1.00  0.00    -0.592 C  
HETATM    5  C   UNL     2     -11.330  15.025  71.735  1.00  0.00    -0.302 C  
HETATM    6  C   UNL     2     -11.805  13.606  72.115  1.00  0.00     1.275 C  
HETATM    7  C   UNL     2     -11.193  15.239  70.217  1.00  0.00    -0.297 C  
HETATM    8  O   UNL     2     -11.382  16.311  69.659  1.00  0.00    -0.317 OA 
BRANCH   6   9
HETATM    9  C   UNL     2     -13.234  13.287  71.665  1.00  0.00    -0.446 C  
HETATM   10  C   UNL     2     -13.528  11.797  71.734  1.00  0.00    -0.192 C  
ENDBRANCH   6   9
BRANCH   7  11
HETATM   11  O   UNL     2     -10.747  14.123  69.579  1.00  0.00    -0.153 OA 
BRANCH  11  12
HETATM   12  C   UNL     2     -11.050  13.882  68.179  1.00  0.00    -0.256 C  
HETATM   13  C   UNL     2     -10.106  14.588  67.148  1.00  0.00    -0.252 C  
HETATM   14  C   UNL     2     -10.483  14.194  65.632  1.00  0.00    -0.321 C  
HETATM   15  C   UNL     2     -11.805  13.942  64.806  1.00  0.00    -0.414 C  
HETATM   16  C   UNL     2     -12.523  12.801  65.577  1.00  0.00    -0.419 C  
HETATM   17  C   UNL     2     -11.426  12.053  66.378  1.00  0.00    -0.353 C  
HETATM   18  C   UNL     2     -11.342  12.400  67.877  1.00  0.00    -0.344 C  
HETATM   19  N   UNL     2     -10.154  12.557  65.695  1.00  0.00    -0.268 N  
HETATM   20  C   UNL     2      -8.801  12.201  66.323  1.00  0.00    -0.040 C  
HETATM   21  C   UNL     2     -10.031  11.854  64.299  1.00  0.00    -0.246 C  
ENDBRANCH  11  12
ENDBRANCH   7  11
ENDBRANCH   3   4
TORSDOF 4
ENDMDL
MODEL      195
REMARK 921   NORMALIZED FREE ENERGY PREDICTED BY IDOCK:   -3.07 KCAL/MOL
REMARK 922        TOTAL FREE ENERGY PREDICTED BY IDOCK:   -4.34 KCAL/MOL
REMARK 923 INTER-LIGAND FREE ENERGY PREDICTED BY IDOCK:   -3.63 KCAL/MOL
REMARK 924 INTRA-LIGAND FREE ENERGY PREDICTED BY IDOCK:   -0.71 KCAL/MOL
REMARK 927      BINDING AFFINITY PREDICTED BY RF-SCORE:    0.00 PKD
ROOT
HETATM    1 BR   UNL     1      -8.186   6.850  66.412  1.00  0.00    -0.122 Br 
HETATM    2  C   UNL     2      -5.454  19.573  69.709  1.00  0.00    -0.240 C  
HETATM    3  C   UNL     2      -5.428  18.060  69.877  1.00  0.00    -0.233 C  
ENDROOT
BRANCH   3   4
HETATM    4  C   UNL     2      -6.612  17.386  69.173  1.00  0.00    -0.246 C  
HETATM    5  C   UNL     2      -6.236  16.116  68.370  1.00  0.00    -0.113 C  
HETATM    6  C   UNL     2      -5.531  15.039  69.223  1.00  0.00    -0.094 C  
HETATM    7  C   UNL     2      -7.469  15.589  67.614  1.00  0.00    -0.167 C  
HETATM    8  O   UNL     2      -8.454  16.268  67.357  1.00  0.00    -0.165 OA 
BRANCH   6   9
HETATM    9  C   UNL     2      -6.372  14.527  70.396  1.00  0.00    -0.155 C  
HETATM   10  C   UNL     2      -5.517  14.239  71.620  1.00  0.00    -0.203 C  
ENDBRANCH   6   9
BRANCH   7  11
HETATM   11  O   UNL     2      -7.299  14.310  67.182  1.00  0.00    -0.099 OA 
BRANCH  11  12
HETATM   12  C   UNL     2      -8.401  13.364  67.173  1.00  0.00    -0.139 C  
HETATM   13  C   UNL     2      -8.058  11.928  66.650  1.00  0.00    -0.063 C  
HETATM   14  C   UNL     2      -9.328  10.940  66.753  1.00  0.00    -0.165 C  
HETATM   15  C   UNL     2     -10.888  11.050  66.532  1.00  0.00    -0.269 C  
HETATM   16  C   UNL     2     -11.332  12.177  67.504  1.00  0.00    -0.392 C  
HETATM   17  C   UNL     2     -10.250  12.253  68.613  1.00  0.00    -0.165 C  
HETATM   18  C   UNL     2      -9.229  13.398  68.471  1.00  0.00    -0.082 C  
HETATM   19  N   UNL     2      -9.516  10.925  68.413  1.00  0.00    -0.171 N  
HETATM   20  C   UNL     2      -8.223  10.683  69.201  1.00  0.00    -0.139 C  
HETATM   21  C   UNL     2     -10.424   9.772  68.963  1.00  0.00    -0.213 C  
ENDBRANCH  11  12
ENDBRANCH   7  11
ENDBRANCH   3   4
TORSDOF 4
ENDMDL
MODEL      196
REMARK 921   NORMALIZED FREE ENERGY PREDICTED BY IDOCK:   -3.05 KCAL/MOL
REMARK 922        TOTAL FREE ENERGY PREDICTED BY IDOCK:   -4.33 KCAL/MOL
REMARK 923 INTER-LIGAND FREE ENERGY PREDICTED BY IDOCK:   -3.67 KCAL/MOL
REMARK 924 INTRA-LIGAND FREE ENERGY PREDICTED BY IDOCK:   -0.65 KCAL/MOL
REMARK 927      BINDING AFFINITY PREDICTED BY RF-SCORE:    0.00 PKD
ROOT
HETATM    1 BR   UNL     1     -12.272  12.491  63.703  1.00  0.00    -0.656 Br 
HETATM    2  C   UNL     2      -6.075   2.139  69.590  1.00  0.00    -0.024 C  
HETATM    3  C   UNL     2      -7.271   2.955  69.121  1.00  0.00    -0.045 C  
ENDROOT
BRANCH   3   4
HETATM    4  C   UNL     2      -6.927   4.442  68.972  1.00  0.00    -0.051 C  
HETATM    5  C   UNL     2      -7.665   5.154  67.811  1.00  0.00    -0.088 C  
HETATM    6  C   UNL     2      -9.203   5.043  67.904  1.00  0.00    -0.135 C  
HETATM    7  C   UNL     2      -7.163   6.603  67.680  1.00  0.00    -0.090 C  
HETATM    8  O   UNL     2      -6.095   6.998  68.126  1.00  0.00    -0.031 OA 
BRANCH   6   9
HETATM    9  C   UNL     2      -9.794   5.652  69.179  1.00  0.00    -0.216 C  
HETATM   10  C   UNL     2     -11.261   6.012  69.005  1.00  0.00    -0.298 C  
ENDBRANCH   6   9
BRANCH   7  11
HETATM   11  O   UNL     2      -7.999   7.370  66.929  1.00  0.00    -0.111 OA 
BRANCH  11  12
HETATM   12  C   UNL     2      -8.780   8.439  67.525  1.00  0.00    -0.136 C  
HETATM   13  C   UNL     2      -7.996   9.758  67.841  1.00  0.00    -0.104 C  
HETATM   14  C   UNL     2      -8.970  10.901  68.427  1.00  0.00    -0.154 C  
HETATM   15  C   UNL     2     -10.206  10.964  69.408  1.00  0.00    -0.151 C  
HETATM   16  C   UNL     2     -11.250  10.011  68.764  1.00  0.00    -0.173 C  
HETATM   17  C   UNL     2     -10.894   9.919  67.258  1.00  0.00    -0.199 C  
HETATM   18  C   UNL     2     -10.138   8.648  66.828  1.00  0.00    -0.366 C  
HETATM   19  N   UNL     2      -9.955  11.116  67.094  1.00  0.00    -0.183 N  
HETATM   20  C   UNL     2      -9.207  11.278  65.766  1.00  0.00    -0.219 C  
HETATM   21  C   UNL     2     -10.816  12.426  67.116  1.00  0.00    -0.245 C  
ENDBRANCH  11  12
ENDBRANCH   7  11
ENDBRANCH   3   4
TORSDOF 4
ENDMDL
MODEL      197
REMARK 921   NORMALIZED FREE ENERGY PREDICTED BY IDOCK:   -3.05 KCAL/MOL
REMARK 922        TOTAL FREE ENERGY PREDICTED BY IDOCK:   -4.32 KCAL/MOL
REMARK 923 INTER-LIGAND FREE ENERGY PREDICTED BY IDOCK:   -4.19 KCAL/MOL
REMARK 924 INTRA-LIGAND FREE ENERGY PREDICTED BY IDOCK:   -0.13 KCAL/MOL
REMARK 927      BINDING AFFINITY PREDICTED BY RF-SCORE:    0.00 PKD
ROOT
HETATM    1 BR   UNL     1      -8.918   8.096  67.912  1.00  0.00    -0.136 Br 
HETATM    2  C   UNL     2      -5.485  20.990  66.435  1.00  0.00    -0.260 C  
HETATM    3  C   UNL     2      -5.440  19.606  67.068  1.00  0.00    -0.170 C  
ENDROOT
BRANCH   3   4
HETATM    4  C   UNL     2      -6.745  18.831  66.844  1.00  0.00    -0.207 C  
HETATM    5  C   UNL     2      -6.555  17.305  66.657  1.00  0.00    -0.268 C  
HETATM    6  C   UNL     2      -5.814  16.632  67.833  1.00  0.00    -0.140 C  
HETATM    7  C   UNL     2      -7.906  16.645  66.326  1.00  0.00    -0.274 C  
HETATM    8  O   UNL     2      -8.872  17.252  65.883  1.00  0.00    -0.528 OA 
BRANCH   6   9
HETATM    9  C   UNL     2      -6.526  16.778  69.181  1.00  0.00    -0.208 C  
HETATM   10  C   UNL     2      -6.531  15.473  69.961  1.00  0.00    -0.105 C  
ENDBRANCH   6   9
BRANCH   7  11
HETATM   11  O   UNL     2      -7.873  15.295  66.494  1.00  0.00    -0.011 OA 
BRANCH  11  12
HETATM   12  C   UNL     2      -9.081  14.540  66.771  1.00  0.00    -0.261 C  
HETATM   13  C   UNL     2     -10.318  15.383  67.232  1.00  0.00    -0.271 C  
HETATM   14  C   UNL     2     -11.623  14.459  67.439  1.00  0.00    -0.375 C  
HETATM   15  C   UNL     2     -11.930  13.017  68.005  1.00  0.00    -0.335 C  
HETATM   16  C   UNL     2     -11.054  12.073  67.137  1.00  0.00    -0.344 C  
HETATM   17  C   UNL     2     -10.776  12.827  65.810  1.00  0.00    -0.272 C  
HETATM   18  C   UNL     2      -9.386  13.482  65.694  1.00  0.00     0.237 C  
HETATM   19  N   UNL     2     -11.828  13.936  65.865  1.00  0.00    -0.363 N  
HETATM   20  C   UNL     2     -11.770  15.047  64.810  1.00  0.00    -0.370 C  
HETATM   21  C   UNL     2     -13.229  13.304  65.558  1.00  0.00     0.468 C  
ENDBRANCH  11  12
ENDBRANCH   7  11
ENDBRANCH   3   4
TORSDOF 4
ENDMDL
MODEL      198
REMARK 921   NORMALIZED FREE ENERGY PREDICTED BY IDOCK:   -3.05 KCAL/MOL
REMARK 922        TOTAL FREE ENERGY PREDICTED BY IDOCK:   -4.32 KCAL/MOL
REMARK 923 INTER-LIGAND FREE ENERGY PREDICTED BY IDOCK:   -3.94 KCAL/MOL
REMARK 924 INTRA-LIGAND FREE ENERGY PREDICTED BY IDOCK:   -0.38 KCAL/MOL
REMARK 927      BINDING AFFINITY PREDICTED BY RF-SCORE:    0.00 PKD
ROOT
HETATM    1 BR   UNL     1      -9.865   6.955  67.966  1.00  0.00    -0.165 Br 
HETATM    2  C   UNL     2      -5.667  19.639  69.273  1.00  0.00    -0.264 C  
HETATM    3  C   UNL     2      -5.631  18.135  69.504  1.00  0.00    -0.218 C  
ENDROOT
BRANCH   3   4
HETATM    4  C   UNL     2      -7.015  17.497  69.334  1.00  0.00    -0.098 C  
HETATM    5  C   UNL     2      -7.221  16.775  67.979  1.00  0.00    -0.163 C  
HETATM    6  C   UNL     2      -6.168  15.678  67.704  1.00  0.00    -0.179 C  
HETATM    7  C   UNL     2      -8.671  16.274  67.866  1.00  0.00    -0.175 C  
HETATM    8  O   UNL     2      -9.600  16.717  68.528  1.00  0.00    -0.225 OA 
BRANCH   6   9
HETATM    9  C   UNL     2      -6.152  14.558  68.748  1.00  0.00    -0.087 C  
HETATM   10  C   UNL     2      -5.374  13.345  68.262  1.00  0.00    -0.095 C  
ENDBRANCH   6   9
BRANCH   7  11
HETATM   11  O   UNL     2      -8.820  15.348  66.879  1.00  0.00    -0.215 OA 
BRANCH  11  12
HETATM   12  C   UNL     2      -9.490  14.084  67.126  1.00  0.00    -0.241 C  
HETATM   13  C   UNL     2      -8.899  13.217  68.290  1.00  0.00    -0.168 C  
HETATM   14  C   UNL     2      -9.760  11.876  68.528  1.00  0.00    -0.169 C  
HETATM   15  C   UNL     2     -10.511  10.818  67.626  1.00  0.00    -0.252 C  
HETATM   16  C   UNL     2     -11.530  11.665  66.815  1.00  0.00    -0.299 C  
HETATM   17  C   UNL     2     -11.774  12.961  67.631  1.00  0.00    -0.370 C  
HETATM   18  C   UNL     2     -11.025  14.212  67.134  1.00  0.00    -0.304 C  
HETATM   19  N   UNL     2     -11.206  12.572  68.997  1.00  0.00    -0.264 N  
HETATM   20  C   UNL     2     -11.072  13.661  70.067  1.00  0.00     0.238 C  
HETATM   21  C   UNL     2     -12.214  11.592  69.690  1.00  0.00    -0.229 C  
ENDBRANCH  11  12
ENDBRANCH   7  11
ENDBRANCH   3   4
TORSDOF 4
ENDMDL
MODEL      199
REMARK 921   NORMALIZED FREE ENERGY PREDICTED BY IDOCK:   -3.05 KCAL/MOL
REMARK 922        TOTAL FREE ENERGY PREDICTED BY IDOCK:   -4.32 KCAL/MOL
REMARK 923 INTER-LIGAND FREE ENERGY PREDICTED BY IDOCK:   -4.24 KCAL/MOL
REMARK 924 INTRA-LIGAND FREE ENERGY PREDICTED BY IDOCK:   -0.08 KCAL/MOL
REMARK 927      BINDING AFFINITY PREDICTED BY RF-SCORE:    0.00 PKD
ROOT
HETATM    1 BR   UNL     1      -6.090   5.085  62.678  1.00  0.00    -0.017 Br 
HETATM    2  C   UNL     2     -13.281  11.419  72.079  1.00  0.00    -0.432 C  
HETATM    3  C   UNL     2     -12.833  10.228  71.243  1.00  0.00    -0.522 C  
ENDROOT
BRANCH   3   4
HETATM    4  C   UNL     2     -12.246  10.664  69.895  1.00  0.00    -0.346 C  
HETATM    5  C   UNL     2     -10.698  10.696  69.855  1.00  0.00    -0.260 C  
HETATM    6  C   UNL     2     -10.049   9.344  70.226  1.00  0.00    -0.288 C  
HETATM    7  C   UNL     2     -10.219  11.254  68.503  1.00  0.00    -0.205 C  
HETATM    8  O   UNL     2     -10.915  11.933  67.760  1.00  0.00    -0.206 OA 
BRANCH   6   9
HETATM    9  C   UNL     2     -10.443   8.190  69.299  1.00  0.00    -0.221 C  
HETATM   10  C   UNL     2     -11.185   7.094  70.047  1.00  0.00    -0.271 C  
ENDBRANCH   6   9
BRANCH   7  11
HETATM   11  O   UNL     2      -8.905  10.985  68.272  1.00  0.00    -0.132 OA 
BRANCH  11  12
HETATM   12  C   UNL     2      -8.439  10.567  66.962  1.00  0.00    -0.128 C  
HETATM   13  C   UNL     2      -7.186   9.627  66.955  1.00  0.00    -0.087 C  
HETATM   14  C   UNL     2      -6.800   9.163  65.461  1.00  0.00    -0.073 C  
HETATM   15  C   UNL     2      -6.775   9.821  64.025  1.00  0.00    -0.120 C  
HETATM   16  C   UNL     2      -8.235  10.301  63.800  1.00  0.00    -0.153 C  
HETATM   17  C   UNL     2      -9.129   9.440  64.730  1.00  0.00    -0.193 C  
HETATM   18  C   UNL     2      -9.585  10.121  66.034  1.00  0.00    -0.265 C  
HETATM   19  N   UNL     2      -8.180   8.295  65.090  1.00  0.00    -0.148 N  
HETATM   20  C   UNL     2      -8.618   7.300  66.171  1.00  0.00    -0.149 C  
HETATM   21  C   UNL     2      -8.050   7.351  63.846  1.00  0.00    -0.023 C  
ENDBRANCH  11  12
ENDBRANCH   7  11
ENDBRANCH   3   4
TORSDOF 4
ENDMDL
MODEL      200
REMARK 921   NORMALIZED FREE ENERGY PREDICTED BY IDOCK:   -3.03 KCAL/MOL
REMARK 922        TOTAL FREE ENERGY PREDICTED BY IDOCK:   -4.30 KCAL/MOL
REMARK 923 INTER-LIGAND FREE ENERGY PREDICTED BY IDOCK:   -4.51 KCAL/MOL
REMARK 924 INTRA-LIGAND FREE ENERGY PREDICTED BY IDOCK:    0.20 KCAL/MOL
REMARK 927      BINDING AFFINITY PREDICTED BY RF-SCORE:    0.00 PKD
ROOT
HETATM    1 BR   UNL     1      -8.764   7.796  73.612  1.00  0.00    -0.333 Br 
HETATM    2  C   UNL     2      -7.512  19.728  67.589  1.00  0.00    -0.314 C  
HETATM    3  C   UNL     2      -8.171  18.689  68.485  1.00  0.00    -0.370 C  
ENDROOT
BRANCH   3   4
HETATM    4  C   UNL     2      -7.790  17.259  68.079  1.00  0.00    -0.205 C  
HETATM    5  C   UNL     2      -8.370  16.160  69.004  1.00  0.00    -0.247 C  
HETATM    6  C   UNL     2      -9.909  16.212  69.126  1.00  0.00    -0.250 C  
HETATM    7  C   UNL     2      -7.836  14.781  68.578  1.00  0.00    -0.130 C  
HETATM    8  O   UNL     2      -6.826  14.618  67.907  1.00  0.00    -0.129 OA 
BRANCH   6   9
HETATM    9  C   UNL     2     -10.644  16.034  67.795  1.00  0.00    -0.309 C  
HETATM   10  C   UNL     2     -11.909  15.207  67.954  1.00  0.00    -0.192 C  
ENDBRANCH   6   9
BRANCH   7  11
HETATM   11  O   UNL     2      -8.562  13.761  69.111  1.00  0.00     0.181 OA 
BRANCH  11  12
HETATM   12  C   UNL     2      -8.955  12.615  68.310  1.00  0.00    -0.176 C  
HETATM   13  C   UNL     2     -10.493  12.455  68.062  1.00  0.00    -0.227 C  
HETATM   14  C   UNL     2     -10.812  11.200  67.103  1.00  0.00    -0.273 C  
HETATM   15  C   UNL     2     -10.253   9.736  66.902  1.00  0.00    -0.310 C  
HETATM   16  C   UNL     2      -8.744   9.944  66.598  1.00  0.00    -0.138 C  
HETATM   17  C   UNL     2      -8.600  11.389  66.052  1.00  0.00    -0.094 C  
HETATM   18  C   UNL     2      -8.077  12.432  67.057  1.00  0.00    -0.124 C  
HETATM   19  N   UNL     2     -10.052  11.731  65.712  1.00  0.00    -0.228 N  
HETATM   20  C   UNL     2     -10.385  13.174  65.314  1.00  0.00    -0.305 C  
HETATM   21  C   UNL     2     -10.450  10.960  64.407  1.00  0.00    -0.333 C  
ENDBRANCH  11  12
ENDBRANCH   7  11
ENDBRANCH   3   4
TORSDOF 4
ENDMDL
MODEL      201
REMARK 921   NORMALIZED FREE ENERGY PREDICTED BY IDOCK:   -3.03 KCAL/MOL
REMARK 922        TOTAL FREE ENERGY PREDICTED BY IDOCK:   -4.29 KCAL/MOL
REMARK 923 INTER-LIGAND FREE ENERGY PREDICTED BY IDOCK:   -3.95 KCAL/MOL
REMARK 924 INTRA-LIGAND FREE ENERGY PREDICTED BY IDOCK:   -0.34 KCAL/MOL
REMARK 927      BINDING AFFINITY PREDICTED BY RF-SCORE:    0.00 PKD
ROOT
HETATM    1 BR   UNL     1     -11.200  15.684  64.725  1.00  0.00    -0.320 Br 
HETATM    2  C   UNL     2      -6.394   4.243  69.847  1.00  0.00    -0.028 C  
HETATM    3  C   UNL     2      -7.466   5.178  69.304  1.00  0.00    -0.058 C  
ENDROOT
BRANCH   3   4
HETATM    4  C   UNL     2      -7.081   6.652  69.477  1.00  0.00    -0.076 C  
HETATM    5  C   UNL     2      -8.287   7.622  69.538  1.00  0.00    -0.130 C  
HETATM    6  C   UNL     2      -9.296   7.274  70.654  1.00  0.00    -0.157 C  
HETATM    7  C   UNL     2      -7.788   9.077  69.595  1.00  0.00    -0.088 C  
HETATM    8  O   UNL     2      -6.671   9.430  69.241  1.00  0.00    -0.048 OA 
BRANCH   6   9
HETATM    9  C   UNL     2      -8.697   7.302  72.063  1.00  0.00    -0.129 C  
HETATM   10  C   UNL     2      -9.334   8.379  72.927  1.00  0.00    -0.283 C  
ENDBRANCH   6   9
BRANCH   7  11
HETATM   11  O   UNL     2      -8.762   9.939  69.996  1.00  0.00    -0.201 OA 
BRANCH  11  12
HETATM   12  C   UNL     2      -9.428  10.817  69.051  1.00  0.00    -0.166 C  
HETATM   13  C   UNL     2      -8.510  11.456  67.954  1.00  0.00    -0.139 C  
HETATM   14  C   UNL     2      -9.359  12.349  66.916  1.00  0.00    -0.213 C  
HETATM   15  C   UNL     2     -10.587  13.340  66.990  1.00  0.00    -0.259 C  
HETATM   16  C   UNL     2     -11.723  12.491  67.622  1.00  0.00    -0.423 C  
HETATM   17  C   UNL     2     -11.371  11.006  67.342  1.00  0.00    -0.230 C  
HETATM   18  C   UNL     2     -10.752  10.234  68.523  1.00  0.00    -0.262 C  
HETATM   19  N   UNL     2     -10.309  11.146  66.250  1.00  0.00    -0.242 N  
HETATM   20  C   UNL     2      -9.541   9.892  65.816  1.00  0.00    -0.250 C  
HETATM   21  C   UNL     2     -11.026  11.538  64.912  1.00  0.00    -0.254 C  
ENDBRANCH  11  12
ENDBRANCH   7  11
ENDBRANCH   3   4
TORSDOF 4
ENDMDL
MODEL      202
REMARK 921   NORMALIZED FREE ENERGY PREDICTED BY IDOCK:   -3.01 KCAL/MOL
REMARK 922        TOTAL FREE ENERGY PREDICTED BY IDOCK:   -4.27 KCAL/MOL
REMARK 923 INTER-LIGAND FREE ENERGY PREDICTED BY IDOCK:   -3.75 KCAL/MOL
REMARK 924 INTRA-LIGAND FREE ENERGY PREDICTED BY IDOCK:   -0.52 KCAL/MOL
REMARK 927      BINDING AFFINITY PREDICTED BY RF-SCORE:    0.00 PKD
ROOT
HETATM    1 BR   UNL     1     -12.500  14.451  63.989  1.00  0.00     0.111 Br 
HETATM    2  C   UNL     2     -10.971   4.623  73.006  1.00  0.00    -0.329 C  
HETATM    3  C   UNL     2     -10.807   6.029  72.444  1.00  0.00    -0.288 C  
ENDROOT
BRANCH   3   4
HETATM    4  C   UNL     2     -10.900   6.048  70.914  1.00  0.00    -0.349 C  
HETATM    5  C   UNL     2     -10.264   7.296  70.252  1.00  0.00    -0.205 C  
HETATM    6  C   UNL     2      -8.779   7.497  70.627  1.00  0.00    -0.141 C  
HETATM    7  C   UNL     2     -10.514   7.271  68.734  1.00  0.00    -0.200 C  
HETATM    8  O   UNL     2     -11.398   6.616  68.199  1.00  0.00    -0.182 OA 
BRANCH   6   9
HETATM    9  C   UNL     2      -7.873   6.331  70.221  1.00  0.00    -0.103 C  
HETATM   10  C   UNL     2      -6.410   6.742  70.179  1.00  0.00    -0.039 C  
ENDBRANCH   6   9
BRANCH   7  11
HETATM   11  O   UNL     2      -9.700   8.132  68.065  1.00  0.00    -0.153 OA 
BRANCH  11  12
HETATM   12  C   UNL     2      -9.897   9.569  68.140  1.00  0.00    -0.155 C  
HETATM   13  C   UNL     2      -8.594  10.436  68.080  1.00  0.00    -0.125 C  
HETATM   14  C   UNL     2      -8.930  12.012  68.094  1.00  0.00    -0.190 C  
HETATM   15  C   UNL     2      -9.969  12.959  68.816  1.00  0.00    -0.010 C  
HETATM   16  C   UNL     2     -11.353  12.382  68.410  1.00  0.00    -0.330 C  
HETATM   17  C   UNL     2     -11.133  11.595  67.092  1.00  0.00    -0.299 C  
HETATM   18  C   UNL     2     -11.043  10.063  67.238  1.00  0.00    -0.116 C  
HETATM   19  N   UNL     2      -9.765  12.117  66.651  1.00  0.00    -0.213 N  
HETATM   20  C   UNL     2      -9.075  11.436  65.463  1.00  0.00    -0.137 C  
HETATM   21  C   UNL     2      -9.947  13.573  66.099  1.00  0.00    -0.304 C  
ENDBRANCH  11  12
ENDBRANCH   7  11
ENDBRANCH   3   4
TORSDOF 4
ENDMDL
MODEL      203
REMARK 921   NORMALIZED FREE ENERGY PREDICTED BY IDOCK:   -2.95 KCAL/MOL
REMARK 922        TOTAL FREE ENERGY PREDICTED BY IDOCK:   -4.20 KCAL/MOL
REMARK 923 INTER-LIGAND FREE ENERGY PREDICTED BY IDOCK:   -3.76 KCAL/MOL
REMARK 924 INTRA-LIGAND FREE ENERGY PREDICTED BY IDOCK:   -0.45 KCAL/MOL
REMARK 927      BINDING AFFINITY PREDICTED BY RF-SCORE:    0.00 PKD
ROOT
HETATM    1 BR   UNL     1      -5.605   2.194  65.872  1.00  0.00    -0.017 Br 
HETATM    2  C   UNL     2     -11.396  13.884  69.037  1.00  0.00    -0.324 C  
HETATM    3  C   UNL     2     -10.921  12.779  68.104  1.00  0.00    -0.273 C  
ENDROOT
BRANCH   3   4
HETATM    4  C   UNL     2      -9.754  11.985  68.705  1.00  0.00    -0.104 C  
HETATM    5  C   UNL     2      -9.965  10.451  68.712  1.00  0.00    -0.196 C  
HETATM    6  C   UNL     2     -10.249   9.866  67.312  1.00  0.00    -0.277 C  
HETATM    7  C   UNL     2      -8.793   9.764  69.437  1.00  0.00    -0.182 C  
HETATM    8  O   UNL     2      -8.048  10.334  70.221  1.00  0.00    -0.090 OA 
BRANCH   6   9
HETATM    9  C   UNL     2      -9.125  10.103  66.299  1.00  0.00    -0.180 C  
HETATM   10  C   UNL     2      -8.546   8.797  65.782  1.00  0.00    -0.185 C  
ENDBRANCH   6   9
BRANCH   7  11
HETATM   11  O   UNL     2      -8.740   8.429  69.177  1.00  0.00    -0.139 OA 
BRANCH  11  12
HETATM   12  C   UNL     2      -9.310   7.458  70.094  1.00  0.00    -0.158 C  
HETATM   13  C   UNL     2      -8.316   6.381  70.647  1.00  0.00    -0.133 C  
HETATM   14  C   UNL     2      -9.032   5.404  71.711  1.00  0.00    -0.135 C  
HETATM   15  C   UNL     2     -10.445   4.716  71.868  1.00  0.00    -0.172 C  
HETATM   16  C   UNL     2     -11.448   5.901  71.859  1.00  0.00    -0.287 C  
HETATM   17  C   UNL     2     -10.650   7.157  72.295  1.00  0.00    -0.215 C  
HETATM   18  C   UNL     2     -10.220   8.103  71.157  1.00  0.00    -0.234 C  
HETATM   19  N   UNL     2      -9.393   6.525  72.897  1.00  0.00    -0.136 N  
HETATM   20  C   UNL     2      -8.229   7.445  73.282  1.00  0.00    -0.116 C  
HETATM   21  C   UNL     2      -9.767   5.913  74.290  1.00  0.00    -0.204 C  
ENDBRANCH  11  12
ENDBRANCH   7  11
ENDBRANCH   3   4
TORSDOF 4
ENDMDL
MODEL      204
REMARK 921   NORMALIZED FREE ENERGY PREDICTED BY IDOCK:   -2.93 KCAL/MOL
REMARK 922        TOTAL FREE ENERGY PREDICTED BY IDOCK:   -4.18 KCAL/MOL
REMARK 923 INTER-LIGAND FREE ENERGY PREDICTED BY IDOCK:   -3.98 KCAL/MOL
REMARK 924 INTRA-LIGAND FREE ENERGY PREDICTED BY IDOCK:   -0.20 KCAL/MOL
REMARK 927      BINDING AFFINITY PREDICTED BY RF-SCORE:    0.00 PKD
ROOT
HETATM    1 BR   UNL     1     -10.748  15.517  66.283  1.00  0.00    -0.289 Br 
HETATM    2  C   UNL     2      -7.485   2.499  65.955  1.00  0.00    -0.068 C  
HETATM    3  C   UNL     2      -7.441   3.952  65.503  1.00  0.00    -0.081 C  
ENDROOT
BRANCH   3   4
HETATM    4  C   UNL     2      -8.722   4.707  65.879  1.00  0.00    -0.121 C  
HETATM    5  C   UNL     2      -8.568   5.654  67.096  1.00  0.00    -0.109 C  
HETATM    6  C   UNL     2      -7.449   6.703  66.917  1.00  0.00    -0.087 C  
HETATM    7  C   UNL     2      -9.932   6.269  67.457  1.00  0.00    -0.134 C  
HETATM    8  O   UNL     2     -11.007   5.791  67.122  1.00  0.00    -0.268 OA 
BRANCH   6   9
HETATM    9  C   UNL     2      -7.654   7.633  65.719  1.00  0.00    -0.088 C  
HETATM   10  C   UNL     2      -7.098   9.023  65.981  1.00  0.00    -0.085 C  
ENDBRANCH   6   9
BRANCH   7  11
HETATM   11  O   UNL     2      -9.807   7.352  68.272  1.00  0.00    -0.153 OA 
BRANCH  11  12
HETATM   12  C   UNL     2     -10.300   7.330  69.637  1.00  0.00    -0.221 C  
HETATM   13  C   UNL     2      -9.882   8.548  70.530  1.00  0.00    -0.206 C  
HETATM   14  C   UNL     2     -10.542   8.462  71.998  1.00  0.00    -0.317 C  
HETATM   15  C   UNL     2     -10.860   7.327  73.049  1.00  0.00    -0.399 C  
HETATM   16  C   UNL     2     -11.771   6.336  72.275  1.00  0.00    -0.344 C  
HETATM   17  C   UNL     2     -12.420   7.143  71.121  1.00  0.00    -0.359 C  
HETATM   18  C   UNL     2     -11.788   6.943  69.730  1.00  0.00    -0.068 C  
HETATM   19  N   UNL     2     -12.153   8.581  71.569  1.00  0.00    -0.292 N  
HETATM   20  C   UNL     2     -12.471   9.719  70.592  1.00  0.00    -0.142 C  
HETATM   21  C   UNL     2     -13.126   8.919  72.750  1.00  0.00    -0.146 C  
ENDBRANCH  11  12
ENDBRANCH   7  11
ENDBRANCH   3   4
TORSDOF 4
ENDMDL
MODEL      205
REMARK 921   NORMALIZED FREE ENERGY PREDICTED BY IDOCK:   -2.92 KCAL/MOL
REMARK 922        TOTAL FREE ENERGY PREDICTED BY IDOCK:   -4.17 KCAL/MOL
REMARK 923 INTER-LIGAND FREE ENERGY PREDICTED BY IDOCK:   -3.95 KCAL/MOL
REMARK 924 INTRA-LIGAND FREE ENERGY PREDICTED BY IDOCK:   -0.21 KCAL/MOL
REMARK 927      BINDING AFFINITY PREDICTED BY RF-SCORE:    0.00 PKD
ROOT
HETATM    1 BR   UNL     1      -7.043  18.507  68.792  1.00  0.00    -0.312 Br 
HETATM    2  C   UNL     2      -6.506   5.778  64.561  1.00  0.00    -0.037 C  
HETATM    3  C   UNL     2      -5.943   7.148  64.913  1.00  0.00    -0.037 C  
ENDROOT
BRANCH   3   4
HETATM    4  C   UNL     2      -7.008   8.248  64.810  1.00  0.00    -0.075 C  
HETATM    5  C   UNL     2      -8.265   7.999  65.680  1.00  0.00    -0.135 C  
HETATM    6  C   UNL     2      -7.944   7.804  67.178  1.00  0.00    -0.117 C  
HETATM    7  C   UNL     2      -9.311   9.096  65.415  1.00  0.00    -0.191 C  
HETATM    8  O   UNL     2      -9.328   9.796  64.411  1.00  0.00    -0.263 OA 
BRANCH   6   9
HETATM    9  C   UNL     2      -7.250   9.005  67.826  1.00  0.00    -0.083 C  
HETATM   10  C   UNL     2      -7.276   8.922  69.343  1.00  0.00    -0.061 C  
ENDBRANCH   6   9
BRANCH   7  11
HETATM   11  O   UNL     2     -10.271   9.136  66.380  1.00  0.00    -0.281 OA 
BRANCH  11  12
HETATM   12  C   UNL     2     -10.704  10.393  66.962  1.00  0.00    -0.235 C  
HETATM   13  C   UNL     2     -10.457  10.549  68.501  1.00  0.00    -0.210 C  
HETATM   14  C   UNL     2     -10.903  12.005  69.029  1.00  0.00    -0.177 C  
HETATM   15  C   UNL     2     -12.078  13.021  68.740  1.00  0.00    -0.197 C  
HETATM   16  C   UNL     2     -11.975  13.296  67.215  1.00  0.00    -0.393 C  
HETATM   17  C   UNL     2     -10.513  12.976  66.807  1.00  0.00    -0.259 C  
HETATM   18  C   UNL     2     -10.297  11.615  66.117  1.00  0.00    -0.280 C  
HETATM   19  N   UNL     2      -9.818  12.941  68.169  1.00  0.00    -0.223 N  
HETATM   20  C   UNL     2      -8.365  12.455  68.232  1.00  0.00    -0.169 C  
HETATM   21  C   UNL     2      -9.665  14.414  68.683  1.00  0.00    -0.216 C  
ENDBRANCH  11  12
ENDBRANCH   7  11
ENDBRANCH   3   4
TORSDOF 4
ENDMDL
MODEL      206
REMARK 921   NORMALIZED FREE ENERGY PREDICTED BY IDOCK:   -2.91 KCAL/MOL
REMARK 922        TOTAL FREE ENERGY PREDICTED BY IDOCK:   -4.15 KCAL/MOL
REMARK 923 INTER-LIGAND FREE ENERGY PREDICTED BY IDOCK:   -3.45 KCAL/MOL
REMARK 924 INTRA-LIGAND FREE ENERGY PREDICTED BY IDOCK:   -0.71 KCAL/MOL
REMARK 927      BINDING AFFINITY PREDICTED BY RF-SCORE:    0.00 PKD
ROOT
HETATM    1 BR   UNL     1     -13.780  13.766  72.401  1.00  0.00    -0.692 Br 
HETATM    2  C   UNL     2      -5.975   6.646  64.118  1.00  0.00    -0.035 C  
HETATM    3  C   UNL     2      -7.291   7.165  64.681  1.00  0.00    -0.079 C  
ENDROOT
BRANCH   3   4
HETATM    4  C   UNL     2      -7.159   7.585  66.150  1.00  0.00    -0.070 C  
HETATM    5  C   UNL     2      -8.509   7.881  66.850  1.00  0.00    -0.128 C  
HETATM    6  C   UNL     2      -9.499   6.697  66.795  1.00  0.00    -0.194 C  
HETATM    7  C   UNL     2      -8.257   8.402  68.276  1.00  0.00    -0.124 C  
HETATM    8  O   UNL     2      -7.197   8.887  68.648  1.00  0.00    -0.070 OA 
BRANCH   6   9
HETATM    9  C   UNL     2      -8.981   5.421  67.463  1.00  0.00    -0.108 C  
HETATM   10  C   UNL     2     -10.113   4.582  68.034  1.00  0.00    -0.038 C  
ENDBRANCH   6   9
BRANCH   7  11
HETATM   11  O   UNL     2      -9.376   8.347  69.049  1.00  0.00    -0.147 OA 
BRANCH  11  12
HETATM   12  C   UNL     2      -9.333   7.825  70.403  1.00  0.00    -0.160 C  
HETATM   13  C   UNL     2      -8.259   6.716  70.669  1.00  0.00    -0.124 C  
HETATM   14  C   UNL     2      -8.245   6.262  72.216  1.00  0.00    -0.108 C  
HETATM   15  C   UNL     2      -9.318   6.014  73.349  1.00  0.00    -0.134 C  
HETATM   16  C   UNL     2     -10.071   7.368  73.462  1.00  0.00    -0.390 C  
HETATM   17  C   UNL     2      -9.110   8.454  72.910  1.00  0.00    -0.212 C  
HETATM   18  C   UNL     2      -9.399   8.930  71.473  1.00  0.00    -0.335 C  
HETATM   19  N   UNL     2      -7.775   7.707  72.911  1.00  0.00    -0.092 N  
HETATM   20  C   UNL     2      -6.568   8.375  72.242  1.00  0.00    -0.084 C  
HETATM   21  C   UNL     2      -7.274   7.594  74.392  1.00  0.00    -0.125 C  
ENDBRANCH  11  12
ENDBRANCH   7  11
ENDBRANCH   3   4
TORSDOF 4
ENDMDL
MODEL      207
REMARK 921   NORMALIZED FREE ENERGY PREDICTED BY IDOCK:   -2.91 KCAL/MOL
REMARK 922        TOTAL FREE ENERGY PREDICTED BY IDOCK:   -4.15 KCAL/MOL
REMARK 923 INTER-LIGAND FREE ENERGY PREDICTED BY IDOCK:   -3.45 KCAL/MOL
REMARK 924 INTRA-LIGAND FREE ENERGY PREDICTED BY IDOCK:   -0.70 KCAL/MOL
REMARK 927      BINDING AFFINITY PREDICTED BY RF-SCORE:    0.00 PKD
ROOT
HETATM    1 BR   UNL     1     -13.110  12.001  71.851  1.00  0.00    -0.348 Br 
HETATM    2  C   UNL     2      -8.402   3.280  62.797  1.00  0.00    -0.074 C  
HETATM    3  C   UNL     2      -9.368   3.796  63.853  1.00  0.00    -0.143 C  
ENDROOT
BRANCH   3   4
HETATM    4  C   UNL     2      -8.694   4.789  64.809  1.00  0.00    -0.153 C  
HETATM    5  C   UNL     2      -8.871   4.448  66.310  1.00  0.00    -0.114 C  
HETATM    6  C   UNL     2      -8.369   3.035  66.680  1.00  0.00    -0.094 C  
HETATM    7  C   UNL     2      -8.260   5.563  67.177  1.00  0.00    -0.101 C  
HETATM    8  O   UNL     2      -8.045   6.699  66.776  1.00  0.00    -0.110 OA 
BRANCH   6   9
HETATM    9  C   UNL     2      -6.880   2.813  66.399  1.00  0.00    -0.044 C  
HETATM   10  C   UNL     2      -6.132   2.359  67.643  1.00  0.00    -0.024 C  
ENDBRANCH   6   9
BRANCH   7  11
HETATM   11  O   UNL     2      -8.072   5.167  68.465  1.00  0.00    -0.086 OA 
BRANCH  11  12
HETATM   12  C   UNL     2      -8.966   5.600  69.525  1.00  0.00    -0.118 C  
HETATM   13  C   UNL     2      -8.478   6.830  70.364  1.00  0.00    -0.135 C  
HETATM   14  C   UNL     2      -9.575   7.273  71.459  1.00  0.00    -0.156 C  
HETATM   15  C   UNL     2     -10.589   6.546  72.427  1.00  0.00    -0.242 C  
HETATM   16  C   UNL     2     -11.472   5.689  71.479  1.00  0.00    -0.023 C  
HETATM   17  C   UNL     2     -11.386   6.351  70.079  1.00  0.00    -0.430 C  
HETATM   18  C   UNL     2     -10.438   5.667  69.076  1.00  0.00    -0.321 C  
HETATM   19  N   UNL     2     -10.810   7.725  70.428  1.00  0.00    -0.242 N  
HETATM   20  C   UNL     2     -10.379   8.645  69.280  1.00  0.00    -0.221 C  
HETATM   21  C   UNL     2     -11.942   8.581  71.091  1.00  0.00    -0.272 C  
ENDBRANCH  11  12
ENDBRANCH   7  11
ENDBRANCH   3   4
TORSDOF 4
ENDMDL
MODEL      208
REMARK 921   NORMALIZED FREE ENERGY PREDICTED BY IDOCK:   -2.87 KCAL/MOL
REMARK 922        TOTAL FREE ENERGY PREDICTED BY IDOCK:   -4.10 KCAL/MOL
REMARK 923 INTER-LIGAND FREE ENERGY PREDICTED BY IDOCK:   -3.70 KCAL/MOL
REMARK 924 INTRA-LIGAND FREE ENERGY PREDICTED BY IDOCK:   -0.40 KCAL/MOL
REMARK 927      BINDING AFFINITY PREDICTED BY RF-SCORE:    0.00 PKD
ROOT
HETATM    1 BR   UNL     1      -7.122  16.990  68.452  1.00  0.00    -0.197 Br 
HETATM    2  C   UNL     2      -8.310   3.653  69.424  1.00  0.00    -0.083 C  
HETATM    3  C   UNL     2      -7.613   4.963  69.083  1.00  0.00    -0.064 C  
ENDROOT
BRANCH   3   4
HETATM    4  C   UNL     2      -8.615   6.092  68.815  1.00  0.00    -0.120 C  
HETATM    5  C   UNL     2      -8.074   7.220  67.901  1.00  0.00    -0.119 C  
HETATM    6  C   UNL     2      -7.575   6.710  66.531  1.00  0.00    -0.090 C  
HETATM    7  C   UNL     2      -9.112   8.351  67.793  1.00  0.00    -0.135 C  
HETATM    8  O   UNL     2     -10.015   8.528  68.598  1.00  0.00    -0.173 OA 
BRANCH   6   9
HETATM    9  C   UNL     2      -8.653   6.011  65.698  1.00  0.00    -0.154 C  
HETATM   10  C   UNL     2      -8.181   4.661  65.182  1.00  0.00    -0.118 C  
ENDBRANCH   6   9
BRANCH   7  11
HETATM   11  O   UNL     2      -8.854   9.187  66.750  1.00  0.00    -0.124 OA 
BRANCH  11  12
HETATM   12  C   UNL     2      -9.382  10.539  66.719  1.00  0.00    -0.157 C  
HETATM   13  C   UNL     2     -10.944  10.658  66.745  1.00  0.00    -0.182 C  
HETATM   14  C   UNL     2     -11.421  12.197  66.784  1.00  0.00    -0.356 C  
HETATM   15  C   UNL     2     -10.960  13.559  66.131  1.00  0.00    -0.289 C  
HETATM   16  C   UNL     2      -9.481  13.714  66.580  1.00  0.00    -0.285 C  
HETATM   17  C   UNL     2      -9.321  12.864  67.868  1.00  0.00    -0.208 C  
HETATM   18  C   UNL     2      -8.647  11.491  67.681  1.00  0.00    -0.135 C  
HETATM   19  N   UNL     2     -10.781  12.634  68.264  1.00  0.00    -0.223 N  
HETATM   20  C   UNL     2     -11.080  11.654  69.404  1.00  0.00    -0.206 C  
HETATM   21  C   UNL     2     -11.347  13.969  68.859  1.00  0.00    -0.280 C  
ENDBRANCH  11  12
ENDBRANCH   7  11
ENDBRANCH   3   4
TORSDOF 4
ENDMDL
MODEL      209
REMARK 921   NORMALIZED FREE ENERGY PREDICTED BY IDOCK:   -2.87 KCAL/MOL
REMARK 922        TOTAL FREE ENERGY PREDICTED BY IDOCK:   -4.10 KCAL/MOL
REMARK 923 INTER-LIGAND FREE ENERGY PREDICTED BY IDOCK:   -3.82 KCAL/MOL
REMARK 924 INTRA-LIGAND FREE ENERGY PREDICTED BY IDOCK:   -0.28 KCAL/MOL
REMARK 927      BINDING AFFINITY PREDICTED BY RF-SCORE:    0.00 PKD
ROOT
HETATM    1 BR   UNL     1     -11.090   2.059  74.366  1.00  0.00     0.049 Br 
HETATM    2  C   UNL     2     -10.432  12.938  66.529  1.00  0.00    -0.275 C  
HETATM    3  C   UNL     2     -10.819  12.142  67.767  1.00  0.00    -0.263 C  
ENDROOT
BRANCH   3   4
HETATM    4  C   UNL     2     -10.907  10.639  67.476  1.00  0.00    -0.351 C  
HETATM    5  C   UNL     2      -9.974   9.766  68.352  1.00  0.00    -0.176 C  
HETATM    6  C   UNL     2     -10.202   9.957  69.867  1.00  0.00    -0.298 C  
HETATM    7  C   UNL     2     -10.054   8.296  67.901  1.00  0.00    -0.202 C  
HETATM    8  O   UNL     2     -10.454   7.941  66.801  1.00  0.00    -0.327 OA 
BRANCH   6   9
HETATM    9  C   UNL     2     -11.618   9.608  70.332  1.00  0.00    -0.299 C  
HETATM   10  C   UNL     2     -11.605   8.673  71.531  1.00  0.00    -0.368 C  
ENDBRANCH   6   9
BRANCH   7  11
HETATM   11  O   UNL     2      -9.543   7.445  68.832  1.00  0.00    -0.148 OA 
BRANCH  11  12
HETATM   12  C   UNL     2      -9.039   6.135  68.459  1.00  0.00    -0.117 C  
HETATM   13  C   UNL     2     -10.102   4.986  68.414  1.00  0.00    -0.176 C  
HETATM   14  C   UNL     2      -9.453   3.596  67.918  1.00  0.00    -0.169 C  
HETATM   15  C   UNL     2      -8.089   2.827  68.125  1.00  0.00    -0.070 C  
HETATM   16  C   UNL     2      -7.009   3.831  67.636  1.00  0.00    -0.055 C  
HETATM   17  C   UNL     2      -7.722   4.806  66.663  1.00  0.00    -0.095 C  
HETATM   18  C   UNL     2      -8.088   6.183  67.248  1.00  0.00    -0.106 C  
HETATM   19  N   UNL     2      -9.018   4.047  66.368  1.00  0.00    -0.122 N  
HETATM   20  C   UNL     2     -10.118   4.766  65.580  1.00  0.00    -0.136 C  
HETATM   21  C   UNL     2      -8.685   2.857  65.404  1.00  0.00    -0.124 C  
ENDBRANCH  11  12
ENDBRANCH   7  11
ENDBRANCH   3   4
TORSDOF 4
ENDMDL
MODEL      210
REMARK 921   NORMALIZED FREE ENERGY PREDICTED BY IDOCK:   -2.84 KCAL/MOL
REMARK 922        TOTAL FREE ENERGY PREDICTED BY IDOCK:   -4.06 KCAL/MOL
REMARK 923 INTER-LIGAND FREE ENERGY PREDICTED BY IDOCK:   -3.80 KCAL/MOL
REMARK 924 INTRA-LIGAND FREE ENERGY PREDICTED BY IDOCK:   -0.26 KCAL/MOL
REMARK 927      BINDING AFFINITY PREDICTED BY RF-SCORE:    0.00 PKD
ROOT
HETATM    1 BR   UNL     1     -10.750   6.614  73.093  1.00  0.00    -0.311 Br 
HETATM    2  C   UNL     2      -8.505  18.054  66.437  1.00  0.00    -0.262 C  
HETATM    3  C   UNL     2      -9.348  16.914  66.991  1.00  0.00    -0.245 C  
ENDROOT
BRANCH   3   4
HETATM    4  C   UNL     2      -8.518  15.642  67.209  1.00  0.00    -0.214 C  
HETATM    5  C   UNL     2      -9.356  14.388  67.561  1.00  0.00    -0.198 C  
HETATM    6  C   UNL     2     -10.436  14.059  66.508  1.00  0.00    -0.281 C  
HETATM    7  C   UNL     2      -8.423  13.204  67.872  1.00  0.00    -0.181 C  
HETATM    8  O   UNL     2      -7.248  13.326  68.190  1.00  0.00    -0.087 OA 
BRANCH   6   9
HETATM    9  C   UNL     2      -9.877  13.779  65.110  1.00  0.00    -0.125 C  
HETATM   10  C   UNL     2     -10.781  12.852  64.315  1.00  0.00    -0.430 C  
ENDBRANCH   6   9
BRANCH   7  11
HETATM   11  O   UNL     2      -9.079  12.012  67.844  1.00  0.00    -0.169 OA 
BRANCH  11  12
HETATM   12  C   UNL     2      -8.478  10.834  67.243  1.00  0.00    -0.124 C  
HETATM   13  C   UNL     2      -9.475   9.697  66.834  1.00  0.00    -0.198 C  
HETATM   14  C   UNL     2      -8.715   8.474  66.111  1.00  0.00    -0.152 C  
HETATM   15  C   UNL     2      -7.340   7.714  66.281  1.00  0.00    -0.079 C  
HETATM   16  C   UNL     2      -6.269   8.830  66.141  1.00  0.00    -0.059 C  
HETATM   17  C   UNL     2      -6.934   9.981  65.341  1.00  0.00    -0.127 C  
HETATM   18  C   UNL     2      -7.421  11.179  66.178  1.00  0.00    -0.022 C  
HETATM   19  N   UNL     2      -8.158   9.275  64.754  1.00  0.00    -0.126 N  
HETATM   20  C   UNL     2      -9.213  10.124  64.036  1.00  0.00    -0.272 C  
HETATM   21  C   UNL     2      -7.678   8.343  63.589  1.00  0.00    -0.144 C  
ENDBRANCH  11  12
ENDBRANCH   7  11
ENDBRANCH   3   4
TORSDOF 4
ENDMDL
MODEL      211
REMARK 921   NORMALIZED FREE ENERGY PREDICTED BY IDOCK:   -2.84 KCAL/MOL
REMARK 922        TOTAL FREE ENERGY PREDICTED BY IDOCK:   -4.06 KCAL/MOL
REMARK 923 INTER-LIGAND FREE ENERGY PREDICTED BY IDOCK:   -3.59 KCAL/MOL
REMARK 924 INTRA-LIGAND FREE ENERGY PREDICTED BY IDOCK:   -0.47 KCAL/MOL
REMARK 927      BINDING AFFINITY PREDICTED BY RF-SCORE:    0.00 PKD
ROOT
HETATM    1 BR   UNL     1     -11.611  14.855  67.025  1.00  0.00    -0.261 Br 
HETATM    2  C   UNL     2     -11.320   3.404  74.025  1.00  0.00     0.090 C  
HETATM    3  C   UNL     2     -10.817   4.769  73.577  1.00  0.00    -0.369 C  
ENDROOT
BRANCH   3   4
HETATM    4  C   UNL     2     -11.324   5.134  72.177  1.00  0.00     0.005 C  
HETATM    5  C   UNL     2     -10.254   5.777  71.259  1.00  0.00    -0.270 C  
HETATM    6  C   UNL     2      -8.995   4.900  71.081  1.00  0.00    -0.167 C  
HETATM    7  C   UNL     2     -10.894   6.207  69.928  1.00  0.00    -0.353 C  
HETATM    8  O   UNL     2     -12.094   6.392  69.775  1.00  0.00    -0.111 OA 
BRANCH   6   9
HETATM    9  C   UNL     2      -9.276   3.529  70.458  1.00  0.00    -0.213 C  
HETATM   10  C   UNL     2      -8.479   3.315  69.181  1.00  0.00    -0.096 C  
ENDBRANCH   6   9
BRANCH   7  11
HETATM   11  O   UNL     2      -9.964   6.450  68.965  1.00  0.00    -0.142 OA 
BRANCH  11  12
HETATM   12  C   UNL     2      -9.589   7.805  68.602  1.00  0.00    -0.154 C  
HETATM   13  C   UNL     2     -10.459   8.474  67.484  1.00  0.00    -0.328 C  
HETATM   14  C   UNL     2     -10.008   9.998  67.213  1.00  0.00    -0.197 C  
HETATM   15  C   UNL     2      -8.648  10.799  67.149  1.00  0.00    -0.128 C  
HETATM   16  C   UNL     2      -8.000  10.559  68.540  1.00  0.00    -0.118 C  
HETATM   17  C   UNL     2      -9.157  10.197  69.509  1.00  0.00    -0.195 C  
HETATM   18  C   UNL     2      -9.315   8.698  69.827  1.00  0.00    -0.165 C  
HETATM   19  N   UNL     2     -10.378  10.651  68.706  1.00  0.00    -0.182 N  
HETATM   20  C   UNL     2     -11.771  10.290  69.235  1.00  0.00    -0.070 C  
HETATM   21  C   UNL     2     -10.439  12.217  68.744  1.00  0.00    -0.162 C  
ENDBRANCH  11  12
ENDBRANCH   7  11
ENDBRANCH   3   4
TORSDOF 4
ENDMDL
MODEL      212
REMARK 921   NORMALIZED FREE ENERGY PREDICTED BY IDOCK:   -2.82 KCAL/MOL
REMARK 922        TOTAL FREE ENERGY PREDICTED BY IDOCK:   -4.04 KCAL/MOL
REMARK 923 INTER-LIGAND FREE ENERGY PREDICTED BY IDOCK:   -3.49 KCAL/MOL
REMARK 924 INTRA-LIGAND FREE ENERGY PREDICTED BY IDOCK:   -0.55 KCAL/MOL
REMARK 927      BINDING AFFINITY PREDICTED BY RF-SCORE:    0.00 PKD
ROOT
HETATM    1 BR   UNL     1      -6.170   6.750  73.994  1.00  0.00    -0.064 Br 
HETATM    2  C   UNL     2      -9.965  16.795  65.937  1.00  0.00    -0.299 C  
HETATM    3  C   UNL     2     -10.171  15.660  66.930  1.00  0.00    -0.281 C  
ENDROOT
BRANCH   3   4
HETATM    4  C   UNL     2      -9.036  14.631  66.866  1.00  0.00    -0.275 C  
HETATM    5  C   UNL     2      -8.970  13.679  68.087  1.00  0.00    -0.191 C  
HETATM    6  C   UNL     2     -10.284  12.904  68.329  1.00  0.00    -0.245 C  
HETATM    7  C   UNL     2      -7.734  12.769  67.977  1.00  0.00    -0.137 C  
HETATM    8  O   UNL     2      -6.760  13.023  67.282  1.00  0.00    -0.148 OA 
BRANCH   6   9
HETATM    9  C   UNL     2     -10.705  12.012  67.157  1.00  0.00    -0.277 C  
HETATM   10  C   UNL     2     -11.860  12.616  66.375  1.00  0.00    -0.466 C  
ENDBRANCH   6   9
BRANCH   7  11
HETATM   11  O   UNL     2      -7.808  11.698  68.813  1.00  0.00    -0.136 OA 
BRANCH  11  12
HETATM   12  C   UNL     2      -7.891  10.343  68.298  1.00  0.00    -0.105 C  
HETATM   13  C   UNL     2      -6.520   9.635  68.026  1.00  0.00    -0.057 C  
HETATM   14  C   UNL     2      -6.725   8.115  67.531  1.00  0.00    -0.062 C  
HETATM   15  C   UNL     2      -7.733   7.339  66.594  1.00  0.00    -0.101 C  
HETATM   16  C   UNL     2      -9.126   7.620  67.219  1.00  0.00    -0.142 C  
HETATM   17  C   UNL     2      -8.877   7.979  68.707  1.00  0.00    -0.138 C  
HETATM   18  C   UNL     2      -8.924   9.481  69.047  1.00  0.00    -0.144 C  
HETATM   19  N   UNL     2      -7.442   7.486  68.903  1.00  0.00    -0.094 N  
HETATM   20  C   UNL     2      -6.726   7.831  70.213  1.00  0.00    -0.038 C  
HETATM   21  C   UNL     2      -7.464   5.920  68.976  1.00  0.00    -0.085 C  
ENDBRANCH  11  12
ENDBRANCH   7  11
ENDBRANCH   3   4
TORSDOF 4
ENDMDL
MODEL      213
REMARK 921   NORMALIZED FREE ENERGY PREDICTED BY IDOCK:   -2.79 KCAL/MOL
REMARK 922        TOTAL FREE ENERGY PREDICTED BY IDOCK:   -4.00 KCAL/MOL
REMARK 923 INTER-LIGAND FREE ENERGY PREDICTED BY IDOCK:   -3.40 KCAL/MOL
REMARK 924 INTRA-LIGAND FREE ENERGY PREDICTED BY IDOCK:   -0.60 KCAL/MOL
REMARK 927      BINDING AFFINITY PREDICTED BY RF-SCORE:    0.00 PKD
ROOT
HETATM    1 BR   UNL     1      -8.888   9.716  62.343  1.00  0.00    -0.282 Br 
HETATM    2  C   UNL     2     -10.779   4.167  74.420  1.00  0.00    -0.206 C  
HETATM    3  C   UNL     2     -11.186   4.912  73.156  1.00  0.00    -0.403 C  
ENDROOT
BRANCH   3   4
HETATM    4  C   UNL     2      -9.992   5.610  72.493  1.00  0.00    -0.194 C  
HETATM    5  C   UNL     2     -10.180   5.896  70.983  1.00  0.00    -0.266 C  
HETATM    6  C   UNL     2     -11.437   6.736  70.671  1.00  0.00    -0.403 C  
HETATM    7  C   UNL     2      -8.886   6.488  70.396  1.00  0.00    -0.151 C  
HETATM    8  O   UNL     2      -7.785   6.372  70.916  1.00  0.00    -0.097 OA 
BRANCH   6   9
HETATM    9  C   UNL     2     -11.443   8.116  71.336  1.00  0.00    -0.301 C  
HETATM   10  C   UNL     2     -12.829   8.499  71.830  1.00  0.00    -0.399 C  
ENDBRANCH   6   9
BRANCH   7  11
HETATM   11  O   UNL     2      -9.093   7.075  69.185  1.00  0.00    -0.137 OA 
BRANCH  11  12
HETATM   12  C   UNL     2      -8.013   7.227  68.227  1.00  0.00    -0.124 C  
HETATM   13  C   UNL     2      -7.552   5.913  67.509  1.00  0.00    -0.093 C  
HETATM   14  C   UNL     2      -6.405   6.206  66.415  1.00  0.00    -0.045 C  
HETATM   15  C   UNL     2      -5.145   7.151  66.297  1.00  0.00    -0.023 C  
HETATM   16  C   UNL     2      -5.723   8.581  66.485  1.00  0.00    -0.047 C  
HETATM   17  C   UNL     2      -7.225   8.502  66.109  1.00  0.00    -0.081 C  
HETATM   18  C   UNL     2      -8.207   8.438  67.295  1.00  0.00    -0.112 C  
HETATM   19  N   UNL     2      -7.282   7.166  65.364  1.00  0.00    -0.067 N  
HETATM   20  C   UNL     2      -8.656   6.604  64.982  1.00  0.00     0.086 C  
HETATM   21  C   UNL     2      -6.633   7.361  63.951  1.00  0.00    -0.052 C  
ENDBRANCH  11  12
ENDBRANCH   7  11
ENDBRANCH   3   4
TORSDOF 4
ENDMDL
MODEL      214
REMARK 921   NORMALIZED FREE ENERGY PREDICTED BY IDOCK:   -2.76 KCAL/MOL
REMARK 922        TOTAL FREE ENERGY PREDICTED BY IDOCK:   -3.97 KCAL/MOL
REMARK 923 INTER-LIGAND FREE ENERGY PREDICTED BY IDOCK:   -3.80 KCAL/MOL
REMARK 924 INTRA-LIGAND FREE ENERGY PREDICTED BY IDOCK:   -0.17 KCAL/MOL
REMARK 927      BINDING AFFINITY PREDICTED BY RF-SCORE:    0.00 PKD
ROOT
HETATM    1 BR   UNL     1     -10.862  14.797  65.237  1.00  0.00    -0.428 Br 
HETATM    2  C   UNL     2      -6.020   5.233  73.318  1.00  0.00    -0.027 C  
HETATM    3  C   UNL     2      -7.082   5.943  72.491  1.00  0.00    -0.085 C  
ENDROOT
BRANCH   3   4
HETATM    4  C   UNL     2      -6.773   7.436  72.324  1.00  0.00    -0.058 C  
HETATM    5  C   UNL     2      -7.545   8.121  71.168  1.00  0.00    -0.082 C  
HETATM    6  C   UNL     2      -9.078   7.976  71.286  1.00  0.00    -0.168 C  
HETATM    7  C   UNL     2      -7.078   9.579  71.016  1.00  0.00     0.003 C  
HETATM    8  O   UNL     2      -6.012  10.002  71.443  1.00  0.00    -0.252 OA 
BRANCH   6   9
HETATM    9  C   UNL     2      -9.663   8.584  72.564  1.00  0.00    -0.326 C  
HETATM   10  C   UNL     2     -11.156   8.324  72.682  1.00  0.00    -0.400 C  
ENDBRANCH   6   9
BRANCH   7  11
HETATM   11  O   UNL     2      -7.942  10.321  70.272  1.00  0.00    -0.122 OA 
BRANCH  11  12
HETATM   12  C   UNL     2      -8.529   9.797  69.052  1.00  0.00    -0.137 C  
HETATM   13  C   UNL     2      -9.957  10.337  68.699  1.00  0.00    -0.183 C  
HETATM   14  C   UNL     2     -10.482   9.751  67.292  1.00  0.00    -0.261 C  
HETATM   15  C   UNL     2     -10.409   8.373  66.523  1.00  0.00    -0.199 C  
HETATM   16  C   UNL     2      -8.887   8.090  66.393  1.00  0.00    -0.183 C  
HETATM   17  C   UNL     2      -8.173   9.462  66.504  1.00  0.00    -0.115 C  
HETATM   18  C   UNL     2      -7.538   9.775  67.873  1.00  0.00    -0.086 C  
HETATM   19  N   UNL     2      -9.337  10.430  66.280  1.00  0.00    -0.162 N  
HETATM   20  C   UNL     2      -9.093  11.926  66.506  1.00  0.00    -0.211 C  
HETATM   21  C   UNL     2      -9.709  10.412  64.758  1.00  0.00    -0.320 C  
ENDBRANCH  11  12
ENDBRANCH   7  11
ENDBRANCH   3   4
TORSDOF 4
ENDMDL
MODEL      215
REMARK 921   NORMALIZED FREE ENERGY PREDICTED BY IDOCK:   -2.76 KCAL/MOL
REMARK 922        TOTAL FREE ENERGY PREDICTED BY IDOCK:   -3.97 KCAL/MOL
REMARK 923 INTER-LIGAND FREE ENERGY PREDICTED BY IDOCK:   -3.32 KCAL/MOL
REMARK 924 INTRA-LIGAND FREE ENERGY PREDICTED BY IDOCK:   -0.65 KCAL/MOL
REMARK 927      BINDING AFFINITY PREDICTED BY RF-SCORE:    0.00 PKD
ROOT
HETATM    1 BR   UNL     1     -11.915  14.809  67.861  1.00  0.00    -0.160 Br 
HETATM    2  C   UNL     2     -10.896   3.068  74.290  1.00  0.00    -0.147 C  
HETATM    3  C   UNL     2     -10.540   4.515  73.979  1.00  0.00    -0.338 C  
ENDROOT
BRANCH   3   4
HETATM    4  C   UNL     2     -10.909   4.899  72.541  1.00  0.00    -0.234 C  
HETATM    5  C   UNL     2      -9.782   5.627  71.767  1.00  0.00    -0.192 C  
HETATM    6  C   UNL     2      -8.465   4.824  71.707  1.00  0.00    -0.120 C  
HETATM    7  C   UNL     2     -10.295   6.068  70.385  1.00  0.00    -0.223 C  
HETATM    8  O   UNL     2     -11.479   6.194  70.104  1.00  0.00    -0.391 OA 
BRANCH   6   9
HETATM    9  C   UNL     2      -8.598   3.462  71.019  1.00  0.00    -0.112 C  
HETATM   10  C   UNL     2      -7.491   2.508  71.437  1.00  0.00    -0.040 C  
ENDBRANCH   6   9
BRANCH   7  11
HETATM   11  O   UNL     2      -9.279   6.391  69.539  1.00  0.00    -0.143 OA 
BRANCH  11  12
HETATM   12  C   UNL     2      -9.212   5.844  68.196  1.00  0.00    -0.116 C  
HETATM   13  C   UNL     2      -7.819   5.952  67.487  1.00  0.00    -0.098 C  
HETATM   14  C   UNL     2      -7.836   5.248  66.037  1.00  0.00    -0.103 C  
HETATM   15  C   UNL     2      -8.852   5.121  64.834  1.00  0.00    -0.118 C  
HETATM   16  C   UNL     2     -10.114   4.478  65.470  1.00  0.00    -0.240 C  
HETATM   17  C   UNL     2      -9.637   3.735  66.745  1.00  0.00    -0.180 C  
HETATM   18  C   UNL     2      -9.892   4.466  68.077  1.00  0.00    -0.135 C  
HETATM   19  N   UNL     2      -8.126   3.672  66.511  1.00  0.00    -0.095 N  
HETATM   20  C   UNL     2      -7.233   3.175  67.654  1.00  0.00    -0.054 C  
HETATM   21  C   UNL     2      -7.841   2.590  65.414  1.00  0.00    -0.078 C  
ENDBRANCH  11  12
ENDBRANCH   7  11
ENDBRANCH   3   4
TORSDOF 4
ENDMDL
MODEL      216
REMARK 921   NORMALIZED FREE ENERGY PREDICTED BY IDOCK:   -2.73 KCAL/MOL
REMARK 922        TOTAL FREE ENERGY PREDICTED BY IDOCK:   -3.93 KCAL/MOL
REMARK 923 INTER-LIGAND FREE ENERGY PREDICTED BY IDOCK:   -3.24 KCAL/MOL
REMARK 924 INTRA-LIGAND FREE ENERGY PREDICTED BY IDOCK:   -0.69 KCAL/MOL
REMARK 927      BINDING AFFINITY PREDICTED BY RF-SCORE:    0.00 PKD
ROOT
HETATM    1 BR   UNL     1     -10.103  17.425  68.217  1.00  0.00    -0.361 Br 
HETATM    2  C   UNL     2     -10.231   5.350  74.082  1.00  0.00    -0.282 C  
HETATM    3  C   UNL     2     -10.600   6.818  73.921  1.00  0.00    -0.269 C  
ENDROOT
BRANCH   3   4
HETATM    4  C   UNL     2      -9.541   7.590  73.124  1.00  0.00    -0.286 C  
HETATM    5  C   UNL     2      -9.447   7.184  71.632  1.00  0.00    -0.159 C  
HETATM    6  C   UNL     2     -10.786   7.321  70.875  1.00  0.00    -0.251 C  
HETATM    7  C   UNL     2      -8.283   7.932  70.958  1.00  0.00    -0.100 C  
HETATM    8  O   UNL     2      -7.349   8.434  71.568  1.00  0.00    -0.079 OA 
BRANCH   6   9
HETATM    9  C   UNL     2     -11.349   8.745  70.861  1.00  0.00    -0.322 C  
HETATM   10  C   UNL     2     -12.682   8.832  71.586  1.00  0.00    -0.394 C  
ENDBRANCH   6   9
BRANCH   7  11
HETATM   11  O   UNL     2      -8.363   7.891  69.600  1.00  0.00    -0.127 OA 
BRANCH  11  12
HETATM   12  C   UNL     2      -7.973   6.706  68.857  1.00  0.00    -0.112 C  
HETATM   13  C   UNL     2      -8.522   6.611  67.392  1.00  0.00    -0.120 C  
HETATM   14  C   UNL     2      -7.968   5.301  66.635  1.00  0.00    -0.104 C  
HETATM   15  C   UNL     2      -7.668   3.797  67.013  1.00  0.00    -0.080 C  
HETATM   16  C   UNL     2      -6.650   3.895  68.182  1.00  0.00    -0.042 C  
HETATM   17  C   UNL     2      -5.962   5.278  68.052  1.00  0.00    -0.022 C  
HETATM   18  C   UNL     2      -6.477   6.372  69.008  1.00  0.00    -0.043 C  
HETATM   19  N   UNL     2      -6.339   5.672  66.622  1.00  0.00    -0.037 N  
HETATM   20  C   UNL     2      -6.011   7.093  66.148  1.00  0.00    -0.036 C  
HETATM   21  C   UNL     2      -5.476   4.818  65.631  1.00  0.00    -0.013 C  
ENDBRANCH  11  12
ENDBRANCH   7  11
ENDBRANCH   3   4
TORSDOF 4
ENDMDL
MODEL      217
REMARK 921   NORMALIZED FREE ENERGY PREDICTED BY IDOCK:   -2.72 KCAL/MOL
REMARK 922        TOTAL FREE ENERGY PREDICTED BY IDOCK:   -3.91 KCAL/MOL
REMARK 923 INTER-LIGAND FREE ENERGY PREDICTED BY IDOCK:   -4.23 KCAL/MOL
REMARK 924 INTRA-LIGAND FREE ENERGY PREDICTED BY IDOCK:    0.32 KCAL/MOL
REMARK 927      BINDING AFFINITY PREDICTED BY RF-SCORE:    0.00 PKD
ROOT
HETATM    1 BR   UNL     1      -9.775   8.370  66.470  1.00  0.00    -0.326 Br 
HETATM    2  C   UNL     2      -5.358  20.943  68.094  1.00  0.00    -0.341 C  
HETATM    3  C   UNL     2      -5.278  19.424  68.166  1.00  0.00    -0.184 C  
ENDROOT
BRANCH   3   4
HETATM    4  C   UNL     2      -6.669  18.781  68.227  1.00  0.00    -0.248 C  
HETATM    5  C   UNL     2      -6.694  17.281  67.842  1.00  0.00    -0.172 C  
HETATM    6  C   UNL     2      -5.746  16.414  68.699  1.00  0.00    -0.109 C  
HETATM    7  C   UNL     2      -8.145  16.768  67.824  1.00  0.00    -0.179 C  
HETATM    8  O   UNL     2      -9.125  17.494  67.723  1.00  0.00    -0.243 OA 
BRANCH   6   9
HETATM    9  C   UNL     2      -6.063  16.440  70.197  1.00  0.00    -0.087 C  
HETATM   10  C   UNL     2      -5.303  17.543  70.915  1.00  0.00    -0.176 C  
ENDBRANCH   6   9
BRANCH   7  11
HETATM   11  O   UNL     2      -8.210  15.408  67.838  1.00  0.00    -0.137 OA 
BRANCH  11  12
HETATM   12  C   UNL     2      -8.944  14.677  66.822  1.00  0.00    -0.257 C  
HETATM   13  C   UNL     2      -8.904  13.116  66.946  1.00  0.00    -0.184 C  
HETATM   14  C   UNL     2      -9.811  12.407  65.817  1.00  0.00    -0.240 C  
HETATM   15  C   UNL     2     -10.137  12.646  64.290  1.00  0.00    -0.292 C  
HETATM   16  C   UNL     2     -10.712  14.088  64.246  1.00  0.00    -0.067 C  
HETATM   17  C   UNL     2     -11.250  14.392  65.668  1.00  0.00    -0.323 C  
HETATM   18  C   UNL     2     -10.341  15.267  66.552  1.00  0.00    -0.289 C  
HETATM   19  N   UNL     2     -11.308  12.990  66.277  1.00  0.00    -0.305 N  
HETATM   20  C   UNL     2     -11.612  12.858  67.774  1.00  0.00    -0.343 C  
HETATM   21  C   UNL     2     -12.530  12.231  65.655  1.00  0.00     0.273 C  
ENDBRANCH  11  12
ENDBRANCH   7  11
ENDBRANCH   3   4
TORSDOF 4
ENDMDL
MODEL      218
REMARK 921   NORMALIZED FREE ENERGY PREDICTED BY IDOCK:   -2.69 KCAL/MOL
REMARK 922        TOTAL FREE ENERGY PREDICTED BY IDOCK:   -3.88 KCAL/MOL
REMARK 923 INTER-LIGAND FREE ENERGY PREDICTED BY IDOCK:   -3.32 KCAL/MOL
REMARK 924 INTRA-LIGAND FREE ENERGY PREDICTED BY IDOCK:   -0.56 KCAL/MOL
REMARK 927      BINDING AFFINITY PREDICTED BY RF-SCORE:    0.00 PKD
ROOT
HETATM    1 BR   UNL     1     -13.142   9.319  71.616  1.00  0.00    -0.484 Br 
HETATM    2  C   UNL     2      -8.715  20.696  66.033  1.00  0.00     0.319 C  
HETATM    3  C   UNL     2      -9.499  19.393  66.090  1.00  0.00    -0.361 C  
ENDROOT
BRANCH   3   4
HETATM    4  C   UNL     2      -8.884  18.399  67.084  1.00  0.00    -0.264 C  
HETATM    5  C   UNL     2      -9.898  17.397  67.691  1.00  0.00    -0.282 C  
HETATM    6  C   UNL     2     -10.659  16.577  66.628  1.00  0.00    -0.216 C  
HETATM    7  C   UNL     2      -9.203  16.528  68.754  1.00  0.00    -0.252 C  
HETATM    8  O   UNL     2      -8.161  16.838  69.315  1.00  0.00    -0.167 OA 
BRANCH   6   9
HETATM    9  C   UNL     2      -9.754  15.725  65.734  1.00  0.00    -0.372 C  
HETATM   10  C   UNL     2     -10.557  14.799  64.834  1.00  0.00    -0.431 C  
ENDBRANCH   6   9
BRANCH   7  11
HETATM   11  O   UNL     2      -9.929  15.420  69.067  1.00  0.00    -0.206 OA 
BRANCH  11  12
HETATM   12  C   UNL     2     -10.986  15.466  70.062  1.00  0.00    -0.299 C  
HETATM   13  C   UNL     2     -12.443  15.290  69.513  1.00  0.00    -0.122 C  
HETATM   14  C   UNL     2     -13.528  15.281  70.705  1.00  0.00    -0.208 C  
HETATM   15  C   UNL     2     -13.740  16.045  72.071  1.00  0.00     0.046 C  
HETATM   16  C   UNL     2     -12.442  15.755  72.873  1.00  0.00    -0.566 C  
HETATM   17  C   UNL     2     -11.845  14.449  72.288  1.00  0.00     0.229 C  
HETATM   18  C   UNL     2     -10.664  14.633  71.316  1.00  0.00     0.868 C  
HETATM   19  N   UNL     2     -13.035  13.897  71.500  1.00  0.00    -0.342 N  
HETATM   20  C   UNL     2     -12.806  12.684  70.591  1.00  0.00     0.056 C  
HETATM   21  C   UNL     2     -14.075  13.316  72.519  1.00  0.00    -0.262 C  
ENDBRANCH  11  12
ENDBRANCH   7  11
ENDBRANCH   3   4
TORSDOF 4
ENDMDL
MODEL      219
REMARK 921   NORMALIZED FREE ENERGY PREDICTED BY IDOCK:   -2.61 KCAL/MOL
REMARK 922        TOTAL FREE ENERGY PREDICTED BY IDOCK:   -3.78 KCAL/MOL
REMARK 923 INTER-LIGAND FREE ENERGY PREDICTED BY IDOCK:   -3.55 KCAL/MOL
REMARK 924 INTRA-LIGAND FREE ENERGY PREDICTED BY IDOCK:   -0.24 KCAL/MOL
REMARK 927      BINDING AFFINITY PREDICTED BY RF-SCORE:    0.00 PKD
ROOT
HETATM    1 BR   UNL     1      -8.747  17.351  67.684  1.00  0.00    -0.224 Br 
HETATM    2  C   UNL     2     -10.940   5.282  73.140  1.00  0.00    -0.362 C  
HETATM    3  C   UNL     2     -10.098   6.462  72.675  1.00  0.00    -0.193 C  
ENDROOT
BRANCH   3   4
HETATM    4  C   UNL     2     -10.791   7.255  71.559  1.00  0.00    -0.248 C  
HETATM    5  C   UNL     2     -10.437   8.763  71.537  1.00  0.00    -0.373 C  
HETATM    6  C   UNL     2      -8.922   9.035  71.424  1.00  0.00    -0.243 C  
HETATM    7  C   UNL     2     -11.270   9.481  70.460  1.00  0.00    -0.287 C  
HETATM    8  O   UNL     2     -12.311   9.037  69.993  1.00  0.00     0.480 OA 
BRANCH   6   9
HETATM    9  C   UNL     2      -8.280   8.462  70.157  1.00  0.00    -0.117 C  
HETATM   10  C   UNL     2      -6.955   7.778  70.454  1.00  0.00    -0.046 C  
ENDBRANCH   6   9
BRANCH   7  11
HETATM   11  O   UNL     2     -10.768  10.708  70.155  1.00  0.00    -0.238 OA 
BRANCH  11  12
HETATM   12  C   UNL     2     -10.652  11.155  68.778  1.00  0.00    -0.202 C  
HETATM   13  C   UNL     2      -9.240  11.682  68.351  1.00  0.00    -0.182 C  
HETATM   14  C   UNL     2      -9.202  12.079  66.790  1.00  0.00    -0.201 C  
HETATM   15  C   UNL     2     -10.179  12.767  65.756  1.00  0.00    -0.302 C  
HETATM   16  C   UNL     2     -11.452  11.878  65.787  1.00  0.00    -0.326 C  
HETATM   17  C   UNL     2     -11.004  10.484  66.297  1.00  0.00     0.101 C  
HETATM   18  C   UNL     2     -11.309  10.186  67.778  1.00  0.00    -0.060 C  
HETATM   19  N   UNL     2      -9.486  10.572  66.127  1.00  0.00    -0.173 N  
HETATM   20  C   UNL     2      -8.622   9.446  66.708  1.00  0.00    -0.127 C  
HETATM   21  C   UNL     2      -9.152  10.450  64.600  1.00  0.00    -0.222 C  
ENDBRANCH  11  12
ENDBRANCH   7  11
ENDBRANCH   3   4
TORSDOF 4
ENDMDL
MODEL      220
REMARK 921   NORMALIZED FREE ENERGY PREDICTED BY IDOCK:   -2.61 KCAL/MOL
REMARK 922        TOTAL FREE ENERGY PREDICTED BY IDOCK:   -3.78 KCAL/MOL
REMARK 923 INTER-LIGAND FREE ENERGY PREDICTED BY IDOCK:   -4.28 KCAL/MOL
REMARK 924 INTRA-LIGAND FREE ENERGY PREDICTED BY IDOCK:    0.51 KCAL/MOL
REMARK 927      BINDING AFFINITY PREDICTED BY RF-SCORE:    0.00 PKD
ROOT
HETATM    1 BR   UNL     1     -12.715  16.134  73.582  1.00  0.00    -0.677 Br 
HETATM    2  C   UNL     2      -7.430   8.181  64.146  1.00  0.00    -0.106 C  
HETATM    3  C   UNL     2      -8.295   9.314  64.680  1.00  0.00    -0.167 C  
ENDROOT
BRANCH   3   4
HETATM    4  C   UNL     2      -8.690   9.091  66.145  1.00  0.00    -0.169 C  
HETATM    5  C   UNL     2      -9.639   7.888  66.372  1.00  0.00    -0.251 C  
HETATM    6  C   UNL     2      -9.075   6.554  65.837  1.00  0.00    -0.065 C  
HETATM    7  C   UNL     2     -10.062   7.825  67.851  1.00  0.00    -0.185 C  
HETATM    8  O   UNL     2     -10.001   8.775  68.619  1.00  0.00    -0.171 OA 
BRANCH   6   9
HETATM    9  C   UNL     2      -7.751   6.136  66.481  1.00  0.00    -0.103 C  
HETATM   10  C   UNL     2      -7.205   4.855  65.871  1.00  0.00    -0.076 C  
ENDBRANCH   6   9
BRANCH   7  11
HETATM   11  O   UNL     2     -10.599   6.619  68.181  1.00  0.00    -0.195 OA 
BRANCH  11  12
HETATM   12  C   UNL     2     -10.511   6.099  69.534  1.00  0.00    -0.254 C  
HETATM   13  C   UNL     2      -9.089   6.147  70.189  1.00  0.00    -0.156 C  
HETATM   14  C   UNL     2      -9.119   5.619  71.711  1.00  0.00    -0.135 C  
HETATM   15  C   UNL     2      -9.856   4.477  72.516  1.00  0.00    -0.212 C  
HETATM   16  C   UNL     2     -11.365   4.767  72.292  1.00  0.00     0.186 C  
HETATM   17  C   UNL     2     -11.476   6.273  71.936  1.00  0.00    -0.309 C  
HETATM   18  C   UNL     2     -11.655   6.592  70.439  1.00  0.00    -0.457 C  
HETATM   19  N   UNL     2     -10.106   6.791  72.378  1.00  0.00    -0.170 N  
HETATM   20  C   UNL     2      -9.721   8.231  72.017  1.00  0.00    -0.252 C  
HETATM   21  C   UNL     2     -10.085   6.858  73.944  1.00  0.00    -0.357 C  
ENDBRANCH  11  12
ENDBRANCH   7  11
ENDBRANCH   3   4
TORSDOF 4
ENDMDL
MODEL      221
REMARK 921   NORMALIZED FREE ENERGY PREDICTED BY IDOCK:   -2.60 KCAL/MOL
REMARK 922        TOTAL FREE ENERGY PREDICTED BY IDOCK:   -3.77 KCAL/MOL
REMARK 923 INTER-LIGAND FREE ENERGY PREDICTED BY IDOCK:   -3.55 KCAL/MOL
REMARK 924 INTRA-LIGAND FREE ENERGY PREDICTED BY IDOCK:   -0.22 KCAL/MOL
REMARK 927      BINDING AFFINITY PREDICTED BY RF-SCORE:    0.00 PKD
ROOT
HETATM    1 BR   UNL     1     -10.976  11.849  63.539  1.00  0.00    -0.505 Br 
HETATM    2  C   UNL     2      -9.065   1.988  72.446  1.00  0.00    -0.111 C  
HETATM    3  C   UNL     2      -9.757   2.700  71.292  1.00  0.00    -0.202 C  
ENDROOT
BRANCH   3   4
HETATM    4  C   UNL     2      -9.524   4.216  71.333  1.00  0.00    -0.229 C  
HETATM    5  C   UNL     2      -8.330   4.699  70.471  1.00  0.00    -0.096 C  
HETATM    6  C   UNL     2      -8.442   4.289  68.987  1.00  0.00    -0.099 C  
HETATM    7  C   UNL     2      -8.115   6.209  70.675  1.00  0.00    -0.116 C  
HETATM    8  O   UNL     2      -8.531   6.834  71.641  1.00  0.00    -0.115 OA 
BRANCH   6   9
HETATM    9  C   UNL     2      -9.684   4.839  68.281  1.00  0.00    -0.200 C  
HETATM   10  C   UNL     2      -9.867   4.228  66.901  1.00  0.00    -0.224 C  
ENDBRANCH   6   9
BRANCH   7  11
HETATM   11  O   UNL     2      -7.329   6.752  69.705  1.00  0.00    -0.082 OA 
BRANCH  11  12
HETATM   12  C   UNL     2      -7.676   8.009  69.068  1.00  0.00    -0.100 C  
HETATM   13  C   UNL     2      -7.790   7.971  67.506  1.00  0.00    -0.118 C  
HETATM   14  C   UNL     2      -8.253   9.395  66.909  1.00  0.00    -0.116 C  
HETATM   15  C   UNL     2      -7.967  10.917  67.220  1.00  0.00    -0.123 C  
HETATM   16  C   UNL     2      -8.387  11.087  68.705  1.00  0.00    -0.144 C  
HETATM   17  C   UNL     2      -9.397   9.950  69.011  1.00  0.00    -0.174 C  
HETATM   18  C   UNL     2      -8.828   8.743  69.781  1.00  0.00    -0.142 C  
HETATM   19  N   UNL     2      -9.771   9.490  67.601  1.00  0.00    -0.149 N  
HETATM   20  C   UNL     2     -10.621   8.223  67.451  1.00  0.00    -0.253 C  
HETATM   21  C   UNL     2     -10.719  10.565  66.966  1.00  0.00    -0.250 C  
ENDBRANCH  11  12
ENDBRANCH   7  11
ENDBRANCH   3   4
TORSDOF 4
ENDMDL
MODEL      222
REMARK 921   NORMALIZED FREE ENERGY PREDICTED BY IDOCK:   -2.58 KCAL/MOL
REMARK 922        TOTAL FREE ENERGY PREDICTED BY IDOCK:   -3.75 KCAL/MOL
REMARK 923 INTER-LIGAND FREE ENERGY PREDICTED BY IDOCK:   -3.19 KCAL/MOL
REMARK 924 INTRA-LIGAND FREE ENERGY PREDICTED BY IDOCK:   -0.56 KCAL/MOL
REMARK 927      BINDING AFFINITY PREDICTED BY RF-SCORE:    0.00 PKD
ROOT
HETATM    1 BR   UNL     1     -10.475  17.990  67.197  1.00  0.00    -0.352 Br 
HETATM    2  C   UNL     2     -10.271   6.538  74.199  1.00  0.00    -0.380 C  
HETATM    3  C   UNL     2      -9.785   7.920  73.785  1.00  0.00     0.007 C  
ENDROOT
BRANCH   3   4
HETATM    4  C   UNL     2     -10.211   8.272  72.355  1.00  0.00    -0.397 C  
HETATM    5  C   UNL     2      -9.035   8.609  71.404  1.00  0.00    -0.286 C  
HETATM    6  C   UNL     2      -7.983   7.483  71.309  1.00  0.00    -0.095 C  
HETATM    7  C   UNL     2      -9.578   9.058  70.036  1.00  0.00    -0.186 C  
HETATM    8  O   UNL     2     -10.715   9.471  69.855  1.00  0.00    -0.216 OA 
BRANCH   6   9
HETATM    9  C   UNL     2      -8.540   6.154  70.789  1.00  0.00    -0.135 C  
HETATM   10  C   UNL     2      -7.464   5.084  70.705  1.00  0.00    -0.069 C  
ENDBRANCH   6   9
BRANCH   7  11
HETATM   11  O   UNL     2      -8.620   9.030  69.069  1.00  0.00    -0.130 OA 
BRANCH  11  12
HETATM   12  C   UNL     2      -8.569   7.961  68.088  1.00  0.00    -0.123 C  
HETATM   13  C   UNL     2      -9.651   8.025  66.957  1.00  0.00    -0.252 C  
HETATM   14  C   UNL     2      -9.457   6.839  65.883  1.00  0.00     0.176 C  
HETATM   15  C   UNL     2      -9.053   5.313  65.919  1.00  0.00    -0.159 C  
HETATM   16  C   UNL     2      -7.656   5.305  66.597  1.00  0.00    -0.088 C  
HETATM   17  C   UNL     2      -7.056   6.720  66.386  1.00  0.00    -0.071 C  
HETATM   18  C   UNL     2      -7.139   7.667  67.598  1.00  0.00    -0.085 C  
HETATM   19  N   UNL     2      -7.959   7.271  65.281  1.00  0.00    -0.121 N  
HETATM   20  C   UNL     2      -7.825   8.750  64.901  1.00  0.00    -0.120 C  
HETATM   21  C   UNL     2      -7.567   6.578  63.931  1.00  0.00    -0.103 C  
ENDBRANCH  11  12
ENDBRANCH   7  11
ENDBRANCH   3   4
TORSDOF 4
ENDMDL
MODEL      223
REMARK 921   NORMALIZED FREE ENERGY PREDICTED BY IDOCK:   -2.58 KCAL/MOL
REMARK 922        TOTAL FREE ENERGY PREDICTED BY IDOCK:   -3.74 KCAL/MOL
REMARK 923 INTER-LIGAND FREE ENERGY PREDICTED BY IDOCK:   -2.92 KCAL/MOL
REMARK 924 INTRA-LIGAND FREE ENERGY PREDICTED BY IDOCK:   -0.82 KCAL/MOL
REMARK 927      BINDING AFFINITY PREDICTED BY RF-SCORE:    0.00 PKD
ROOT
HETATM    1 BR   UNL     1      -6.612   1.784  73.772  1.00  0.00    -0.018 Br 
HETATM    2  C   UNL     2      -9.417  10.739  64.173  1.00  0.00    -0.309 C  
HETATM    3  C   UNL     2      -8.562   9.717  64.910  1.00  0.00    -0.183 C  
ENDROOT
BRANCH   3   4
HETATM    4  C   UNL     2      -8.961   9.597  66.386  1.00  0.00    -0.179 C  
HETATM    5  C   UNL     2      -8.912   8.152  66.942  1.00  0.00    -0.163 C  
HETATM    6  C   UNL     2      -7.531   7.480  66.780  1.00  0.00    -0.093 C  
HETATM    7  C   UNL     2      -9.438   8.129  68.388  1.00  0.00    -0.142 C  
HETATM    8  O   UNL     2     -10.148   9.000  68.871  1.00  0.00    -0.184 OA 
BRANCH   6   9
HETATM    9  C   UNL     2      -6.394   8.216  67.495  1.00  0.00    -0.056 C  
HETATM   10  C   UNL     2      -5.415   7.249  68.142  1.00  0.00    -0.025 C  
ENDBRANCH   6   9
BRANCH   7  11
HETATM   11  O   UNL     2      -9.101   6.982  69.039  1.00  0.00    -0.137 OA 
BRANCH  11  12
HETATM   12  C   UNL     2      -9.084   6.915  70.490  1.00  0.00    -0.156 C  
HETATM   13  C   UNL     2      -9.255   5.485  71.105  1.00  0.00    -0.173 C  
HETATM   14  C   UNL     2      -9.145   5.514  72.713  1.00  0.00    -0.133 C  
HETATM   15  C   UNL     2      -9.610   6.474  73.879  1.00  0.00    -0.222 C  
HETATM   16  C   UNL     2      -8.957   7.839  73.529  1.00  0.00    -0.327 C  
HETATM   17  C   UNL     2      -7.739   7.526  72.622  1.00  0.00    -0.095 C  
HETATM   18  C   UNL     2      -7.954   7.756  71.114  1.00  0.00    -0.090 C  
HETATM   19  N   UNL     2      -7.561   6.025  72.860  1.00  0.00    -0.101 N  
HETATM   20  C   UNL     2      -6.560   5.263  71.984  1.00  0.00    -0.051 C  
HETATM   21  C   UNL     2      -6.932   5.822  74.282  1.00  0.00    -0.081 C  
ENDBRANCH  11  12
ENDBRANCH   7  11
ENDBRANCH   3   4
TORSDOF 4
ENDMDL
MODEL      224
REMARK 921   NORMALIZED FREE ENERGY PREDICTED BY IDOCK:   -2.57 KCAL/MOL
REMARK 922        TOTAL FREE ENERGY PREDICTED BY IDOCK:   -3.73 KCAL/MOL
REMARK 923 INTER-LIGAND FREE ENERGY PREDICTED BY IDOCK:   -3.03 KCAL/MOL
REMARK 924 INTRA-LIGAND FREE ENERGY PREDICTED BY IDOCK:   -0.69 KCAL/MOL
REMARK 927      BINDING AFFINITY PREDICTED BY RF-SCORE:    0.00 PKD
ROOT
HETATM    1 BR   UNL     1      -5.154   6.553  62.444  1.00  0.00    -0.023 Br 
HETATM    2  C   UNL     2     -13.300   8.872  72.860  1.00  0.00    -0.055 C  
HETATM    3  C   UNL     2     -12.656   8.038  71.761  1.00  0.00    -0.353 C  
ENDROOT
BRANCH   3   4
HETATM    4  C   UNL     2     -12.157   8.908  70.600  1.00  0.00    -0.045 C  
HETATM    5  C   UNL     2     -10.633   8.812  70.342  1.00  0.00    -0.251 C  
HETATM    6  C   UNL     2     -10.146   7.370  70.081  1.00  0.00    -0.197 C  
HETATM    7  C   UNL     2     -10.223   9.805  69.241  1.00  0.00    -0.204 C  
HETATM    8  O   UNL     2     -10.890  10.779  68.918  1.00  0.00    -0.196 OA 
BRANCH   6   9
HETATM    9  C   UNL     2     -10.794   6.706  68.862  1.00  0.00    -0.326 C  
HETATM   10  C   UNL     2     -10.121   5.389  68.512  1.00  0.00    -0.242 C  
ENDBRANCH   6   9
BRANCH   7  11
HETATM   11  O   UNL     2      -8.992   9.529  68.731  1.00  0.00    -0.129 OA 
BRANCH  11  12
HETATM   12  C   UNL     2      -8.685   9.759  67.331  1.00  0.00    -0.132 C  
HETATM   13  C   UNL     2      -9.621   9.035  66.304  1.00  0.00    -0.327 C  
HETATM   14  C   UNL     2      -9.242   9.417  64.785  1.00  0.00    -0.156 C  
HETATM   15  C   UNL     2      -7.918   9.673  63.961  1.00  0.00    -0.140 C  
HETATM   16  C   UNL     2      -7.213  10.827  64.723  1.00  0.00     0.283 C  
HETATM   17  C   UNL     2      -8.319  11.574  65.514  1.00  0.00     0.344 C  
HETATM   18  C   UNL     2      -8.405  11.241  67.015  1.00  0.00    -0.153 C  
HETATM   19  N   UNL     2      -9.585  11.052  64.831  1.00  0.00    -0.232 N  
HETATM   20  C   UNL     2     -10.943  11.403  65.450  1.00  0.00    -0.184 C  
HETATM   21  C   UNL     2      -9.708  11.740  63.428  1.00  0.00    -0.318 C  
ENDBRANCH  11  12
ENDBRANCH   7  11
ENDBRANCH   3   4
TORSDOF 4
ENDMDL
MODEL      225
REMARK 921   NORMALIZED FREE ENERGY PREDICTED BY IDOCK:   -2.39 KCAL/MOL
REMARK 922        TOTAL FREE ENERGY PREDICTED BY IDOCK:   -3.51 KCAL/MOL
REMARK 923 INTER-LIGAND FREE ENERGY PREDICTED BY IDOCK:   -3.04 KCAL/MOL
REMARK 924 INTRA-LIGAND FREE ENERGY PREDICTED BY IDOCK:   -0.47 KCAL/MOL
REMARK 927      BINDING AFFINITY PREDICTED BY RF-SCORE:    0.00 PKD
ROOT
HETATM    1 BR   UNL     1      -9.816  19.711  70.167  1.00  0.00     0.917 Br 
HETATM    2  C   UNL     2      -7.584   6.571  71.769  1.00  0.00    -0.094 C  
HETATM    3  C   UNL     2      -7.730   8.018  72.218  1.00  0.00    -0.140 C  
ENDROOT
BRANCH   3   4
HETATM    4  C   UNL     2      -7.447   9.002  71.076  1.00  0.00    -0.132 C  
HETATM    5  C   UNL     2      -8.266   8.736  69.788  1.00  0.00    -0.117 C  
HETATM    6  C   UNL     2      -9.791   8.728  70.025  1.00  0.00    -0.187 C  
HETATM    7  C   UNL     2      -7.822   9.703  68.676  1.00  0.00    -0.081 C  
HETATM    8  O   UNL     2      -6.749  10.290  68.669  1.00  0.00    -0.052 OA 
BRANCH   6   9
HETATM    9  C   UNL     2     -10.342  10.047  70.575  1.00  0.00    -0.215 C  
HETATM   10  C   UNL     2     -11.695   9.860  71.243  1.00  0.00    -0.472 C  
ENDBRANCH   6   9
BRANCH   7  11
HETATM   11  O   UNL     2      -8.721   9.758  67.655  1.00  0.00    -0.125 OA 
BRANCH  11  12
HETATM   12  C   UNL     2      -9.581  10.913  67.470  1.00  0.00    -0.155 C  
HETATM   13  C   UNL     2      -8.937  12.125  66.715  1.00  0.00    -0.203 C  
HETATM   14  C   UNL     2      -9.998  13.319  66.496  1.00  0.00    -0.280 C  
HETATM   15  C   UNL     2     -11.168  13.982  67.325  1.00  0.00    -0.328 C  
HETATM   16  C   UNL     2     -12.133  12.803  67.629  1.00  0.00    -0.200 C  
HETATM   17  C   UNL     2     -11.866  11.725  66.547  1.00  0.00     0.075 C  
HETATM   18  C   UNL     2     -10.996  10.534  66.993  1.00  0.00    -0.247 C  
HETATM   19  N   UNL     2     -11.085  12.527  65.504  1.00  0.00    -0.291 N  
HETATM   20  C   UNL     2     -10.448  11.772  64.332  1.00  0.00    -0.311 C  
HETATM   21  C   UNL     2     -12.090  13.463  64.748  1.00  0.00    -0.406 C  
ENDBRANCH  11  12
ENDBRANCH   7  11
ENDBRANCH   3   4
TORSDOF 4
ENDMDL
MODEL      226
REMARK 921   NORMALIZED FREE ENERGY PREDICTED BY IDOCK:   -2.37 KCAL/MOL
REMARK 922        TOTAL FREE ENERGY PREDICTED BY IDOCK:   -3.48 KCAL/MOL
REMARK 923 INTER-LIGAND FREE ENERGY PREDICTED BY IDOCK:   -2.64 KCAL/MOL
REMARK 924 INTRA-LIGAND FREE ENERGY PREDICTED BY IDOCK:   -0.84 KCAL/MOL
REMARK 927      BINDING AFFINITY PREDICTED BY RF-SCORE:    0.00 PKD
ROOT
HETATM    1 BR   UNL     1      -5.979  13.669  70.592  1.00  0.00    -0.093 Br 
HETATM    2  C   UNL     2      -6.238   3.011  62.433  1.00  0.00    -0.013 C  
HETATM    3  C   UNL     2      -6.378   4.482  62.799  1.00  0.00    -0.025 C  
ENDROOT
BRANCH   3   4
HETATM    4  C   UNL     2      -6.685   4.675  64.289  1.00  0.00    -0.044 C  
HETATM    5  C   UNL     2      -7.979   5.477  64.574  1.00  0.00    -0.119 C  
HETATM    6  C   UNL     2      -9.236   4.864  63.920  1.00  0.00     0.096 C  
HETATM    7  C   UNL     2      -8.129   5.711  66.088  1.00  0.00    -0.108 C  
HETATM    8  O   UNL     2      -7.202   5.643  66.884  1.00  0.00    -0.075 OA 
BRANCH   6   9
HETATM    9  C   UNL     2      -9.546   3.439  64.385  1.00  0.00    -0.159 C  
HETATM   10  C   UNL     2     -10.130   2.593  63.265  1.00  0.00    -0.129 C  
ENDBRANCH   6   9
BRANCH   7  11
HETATM   11  O   UNL     2      -9.390   6.092  66.427  1.00  0.00    -0.151 OA 
BRANCH  11  12
HETATM   12  C   UNL     2      -9.666   7.426  66.928  1.00  0.00    -0.205 C  
HETATM   13  C   UNL     2      -9.427   7.638  68.462  1.00  0.00    -0.147 C  
HETATM   14  C   UNL     2      -9.689   9.168  68.898  1.00  0.00    -0.162 C  
HETATM   15  C   UNL     2     -10.717  10.308  68.525  1.00  0.00    -0.262 C  
HETATM   16  C   UNL     2     -10.554  10.479  66.990  1.00  0.00    -0.310 C  
HETATM   17  C   UNL     2      -9.140   9.950  66.635  1.00  0.00    -0.147 C  
HETATM   18  C   UNL     2      -9.091   8.535  66.027  1.00  0.00    -0.246 C  
HETATM   19  N   UNL     2      -8.478   9.905  68.013  1.00  0.00    -0.117 N  
HETATM   20  C   UNL     2      -7.102   9.241  68.138  1.00  0.00    -0.077 C  
HETATM   21  C   UNL     2      -8.144  11.373  68.449  1.00  0.00    -0.145 C  
ENDBRANCH  11  12
ENDBRANCH   7  11
ENDBRANCH   3   4
TORSDOF 4
ENDMDL
MODEL      227
REMARK 921   NORMALIZED FREE ENERGY PREDICTED BY IDOCK:   -2.36 KCAL/MOL
REMARK 922        TOTAL FREE ENERGY PREDICTED BY IDOCK:   -3.47 KCAL/MOL
REMARK 923 INTER-LIGAND FREE ENERGY PREDICTED BY IDOCK:   -3.13 KCAL/MOL
REMARK 924 INTRA-LIGAND FREE ENERGY PREDICTED BY IDOCK:   -0.35 KCAL/MOL
REMARK 927      BINDING AFFINITY PREDICTED BY RF-SCORE:    0.00 PKD
ROOT
HETATM    1 BR   UNL     1      -9.776  14.974  66.935  1.00  0.00    -0.259 Br 
HETATM    2  C   UNL     2      -8.401   1.651  66.017  1.00  0.00    -0.091 C  
HETATM    3  C   UNL     2      -8.361   3.088  65.515  1.00  0.00    -0.097 C  
ENDROOT
BRANCH   3   4
HETATM    4  C   UNL     2      -9.313   3.996  66.303  1.00  0.00    -0.180 C  
HETATM    5  C   UNL     2      -8.601   5.001  67.244  1.00  0.00    -0.104 C  
HETATM    6  C   UNL     2      -7.591   5.912  66.514  1.00  0.00    -0.095 C  
HETATM    7  C   UNL     2      -9.643   5.777  68.067  1.00  0.00    -0.119 C  
HETATM    8  O   UNL     2     -10.790   5.393  68.254  1.00  0.00    -0.090 OA 
BRANCH   6   9
HETATM    9  C   UNL     2      -8.215   6.777  65.416  1.00  0.00    -0.134 C  
HETATM   10  C   UNL     2      -7.382   6.765  64.144  1.00  0.00    -0.085 C  
ENDBRANCH   6   9
BRANCH   7  11
HETATM   11  O   UNL     2      -9.117   6.893  68.642  1.00  0.00    -0.133 OA 
BRANCH  11  12
HETATM   12  C   UNL     2      -8.840   6.950  70.066  1.00  0.00    -0.142 C  
HETATM   13  C   UNL     2      -9.315   8.251  70.799  1.00  0.00    -0.183 C  
HETATM   14  C   UNL     2      -9.029   8.178  72.383  1.00  0.00    -0.201 C  
HETATM   15  C   UNL     2      -7.880   7.628  73.318  1.00  0.00    -0.149 C  
HETATM   16  C   UNL     2      -7.774   6.124  72.945  1.00  0.00    -0.105 C  
HETATM   17  C   UNL     2      -9.141   5.724  72.332  1.00  0.00    -0.141 C  
HETATM   18  C   UNL     2      -9.183   5.637  70.795  1.00  0.00    -0.175 C  
HETATM   19  N   UNL     2     -10.025   6.893  72.772  1.00  0.00    -0.167 N  
HETATM   20  C   UNL     2     -11.444   6.989  72.200  1.00  0.00    -0.274 C  
HETATM   21  C   UNL     2     -10.328   6.735  74.302  1.00  0.00    -0.203 C  
ENDBRANCH  11  12
ENDBRANCH   7  11
ENDBRANCH   3   4
TORSDOF 4
ENDMDL
MODEL      228
REMARK 921   NORMALIZED FREE ENERGY PREDICTED BY IDOCK:   -2.36 KCAL/MOL
REMARK 922        TOTAL FREE ENERGY PREDICTED BY IDOCK:   -3.47 KCAL/MOL
REMARK 923 INTER-LIGAND FREE ENERGY PREDICTED BY IDOCK:   -3.51 KCAL/MOL
REMARK 924 INTRA-LIGAND FREE ENERGY PREDICTED BY IDOCK:    0.04 KCAL/MOL
REMARK 927      BINDING AFFINITY PREDICTED BY RF-SCORE:    0.00 PKD
ROOT
HETATM    1 BR   UNL     1     -12.270  12.592  63.414  1.00  0.00    -0.529 Br 
HETATM    2  C   UNL     2      -9.322   4.236  73.499  1.00  0.00    -0.112 C  
HETATM    3  C   UNL     2     -10.221   4.900  72.466  1.00  0.00    -0.248 C  
ENDROOT
BRANCH   3   4
HETATM    4  C   UNL     2      -9.698   6.283  72.057  1.00  0.00    -0.164 C  
HETATM    5  C   UNL     2      -8.794   6.274  70.799  1.00  0.00    -0.144 C  
HETATM    6  C   UNL     2      -9.475   5.653  69.561  1.00  0.00    -0.174 C  
HETATM    7  C   UNL     2      -8.233   7.685  70.547  1.00  0.00    -0.121 C  
HETATM    8  O   UNL     2      -8.170   8.558  71.402  1.00  0.00    -0.121 OA 
BRANCH   6   9
HETATM    9  C   UNL     2     -10.751   6.379  69.123  1.00  0.00    -0.339 C  
HETATM   10  C   UNL     2     -10.964   6.292  67.621  1.00  0.00    -0.438 C  
ENDBRANCH   6   9
BRANCH   7  11
HETATM   11  O   UNL     2      -7.730   7.821  69.289  1.00  0.00    -0.096 OA 
BRANCH  11  12
HETATM   12  C   UNL     2      -7.706   9.109  68.621  1.00  0.00    -0.092 C  
HETATM   13  C   UNL     2      -8.392  10.287  69.393  1.00  0.00    -0.169 C  
HETATM   14  C   UNL     2      -8.242  11.683  68.601  1.00  0.00    -0.110 C  
HETATM   15  C   UNL     2      -8.282  12.158  67.095  1.00  0.00    -0.182 C  
HETATM   16  C   UNL     2      -7.169  11.324  66.404  1.00  0.00    -0.052 C  
HETATM   17  C   UNL     2      -6.181  10.896  67.520  1.00  0.00    -0.053 C  
HETATM   18  C   UNL     2      -6.328   9.447  68.021  1.00  0.00    -0.057 C  
HETATM   19  N   UNL     2      -6.579  11.841  68.656  1.00  0.00    -0.060 N  
HETATM   20  C   UNL     2      -5.962  11.614  70.041  1.00  0.00    -0.152 C  
HETATM   21  C   UNL     2      -6.042  13.274  68.318  1.00  0.00    -0.093 C  
ENDBRANCH  11  12
ENDBRANCH   7  11
ENDBRANCH   3   4
TORSDOF 4
ENDMDL
MODEL      229
REMARK 921   NORMALIZED FREE ENERGY PREDICTED BY IDOCK:   -2.36 KCAL/MOL
REMARK 922        TOTAL FREE ENERGY PREDICTED BY IDOCK:   -3.47 KCAL/MOL
REMARK 923 INTER-LIGAND FREE ENERGY PREDICTED BY IDOCK:   -4.59 KCAL/MOL
REMARK 924 INTRA-LIGAND FREE ENERGY PREDICTED BY IDOCK:    1.12 KCAL/MOL
REMARK 927      BINDING AFFINITY PREDICTED BY RF-SCORE:    0.00 PKD
ROOT
HETATM    1 BR   UNL     1      -8.982   2.281  72.964  1.00  0.00    -0.086 Br 
HETATM    2  C   UNL     2     -10.673  13.426  65.674  1.00  0.00    -0.283 C  
HETATM    3  C   UNL     2     -10.839  11.952  66.012  1.00  0.00    -0.342 C  
ENDROOT
BRANCH   3   4
HETATM    4  C   UNL     2      -9.697  11.435  66.896  1.00  0.00    -0.213 C  
HETATM    5  C   UNL     2      -9.997  10.088  67.601  1.00  0.00    -0.214 C  
HETATM    6  C   UNL     2     -10.372   8.955  66.621  1.00  0.00    -0.294 C  
HETATM    7  C   UNL     2      -8.840   9.722  68.547  1.00  0.00    -0.121 C  
HETATM    8  O   UNL     2      -8.031  10.531  68.981  1.00  0.00    -0.116 OA 
BRANCH   6   9
HETATM    9  C   UNL     2      -9.278   8.630  65.600  1.00  0.00    -0.204 C  
HETATM   10  C   UNL     2      -7.887   8.799  66.189  1.00  0.00    -0.102 C  
ENDBRANCH   6   9
BRANCH   7  11
HETATM   11  O   UNL     2      -8.876   8.414  68.920  1.00  0.00    -0.141 OA 
BRANCH  11  12
HETATM   12  C   UNL     2      -9.638   7.979  70.077  1.00  0.00    -0.171 C  
HETATM   13  C   UNL     2      -9.447   6.481  70.493  1.00  0.00    -0.173 C  
HETATM   14  C   UNL     2     -10.276   6.126  71.828  1.00  0.00    -0.202 C  
HETATM   15  C   UNL     2     -11.684   6.500  72.440  1.00  0.00    -0.271 C  
HETATM   16  C   UNL     2     -11.658   8.050  72.531  1.00  0.00    -0.464 C  
HETATM   17  C   UNL     2     -10.164   8.465  72.571  1.00  0.00    -0.299 C  
HETATM   18  C   UNL     2      -9.581   8.985  71.242  1.00  0.00    -0.361 C  
HETATM   19  N   UNL     2      -9.488   7.133  72.904  1.00  0.00    -0.145 N  
HETATM   20  C   UNL     2      -7.958   7.059  72.845  1.00  0.00    -0.105 C  
HETATM   21  C   UNL     2      -9.747   6.814  74.417  1.00  0.00    -0.278 C  
ENDBRANCH  11  12
ENDBRANCH   7  11
ENDBRANCH   3   4
TORSDOF 4
ENDMDL
MODEL      230
REMARK 921   NORMALIZED FREE ENERGY PREDICTED BY IDOCK:   -2.28 KCAL/MOL
REMARK 922        TOTAL FREE ENERGY PREDICTED BY IDOCK:   -3.37 KCAL/MOL
REMARK 923 INTER-LIGAND FREE ENERGY PREDICTED BY IDOCK:   -2.82 KCAL/MOL
REMARK 924 INTRA-LIGAND FREE ENERGY PREDICTED BY IDOCK:   -0.55 KCAL/MOL
REMARK 927      BINDING AFFINITY PREDICTED BY RF-SCORE:    0.00 PKD
ROOT
HETATM    1 BR   UNL     1     -13.129  12.474  72.199  1.00  0.00    -0.310 Br 
HETATM    2  C   UNL     2      -5.363   1.523  72.254  1.00  0.00     0.000 C  
HETATM    3  C   UNL     2      -6.656   2.308  72.430  1.00  0.00    -0.014 C  
ENDROOT
BRANCH   3   4
HETATM    4  C   UNL     2      -6.390   3.789  72.728  1.00  0.00    -0.013 C  
HETATM    5  C   UNL     2      -7.445   4.757  72.137  1.00  0.00    -0.083 C  
HETATM    6  C   UNL     2      -8.886   4.445  72.596  1.00  0.00    -0.117 C  
HETATM    7  C   UNL     2      -7.023   6.214  72.393  1.00  0.00    -0.079 C  
HETATM    8  O   UNL     2      -5.876   6.558  72.645  1.00  0.00    -0.038 OA 
BRANCH   6   9
HETATM    9  C   UNL     2      -9.086   4.523  74.112  1.00  0.00    -0.108 C  
HETATM   10  C   UNL     2     -10.311   3.743  74.561  1.00  0.00    -0.261 C  
ENDBRANCH   6   9
BRANCH   7  11
HETATM   11  O   UNL     2      -8.053   7.087  72.216  1.00  0.00    -0.096 OA 
BRANCH  11  12
HETATM   12  C   UNL     2      -8.309   7.699  70.925  1.00  0.00    -0.112 C  
HETATM   13  C   UNL     2      -7.769   6.914  69.682  1.00  0.00    -0.110 C  
HETATM   14  C   UNL     2      -8.172   7.640  68.300  1.00  0.00    -0.125 C  
HETATM   15  C   UNL     2      -8.288   9.126  67.775  1.00  0.00    -0.117 C  
HETATM   16  C   UNL     2      -9.297   9.795  68.748  1.00  0.00    -0.150 C  
HETATM   17  C   UNL     2     -10.146   8.650  69.359  1.00  0.00    -0.204 C  
HETATM   18  C   UNL     2      -9.752   8.217  70.784  1.00  0.00    -0.189 C  
HETATM   19  N   UNL     2      -9.834   7.497  68.402  1.00  0.00    -0.160 N  
HETATM   20  C   UNL     2     -10.333   6.094  68.767  1.00  0.00    -0.209 C  
HETATM   21  C   UNL     2     -10.601   7.749  67.059  1.00  0.00    -0.326 C  
ENDBRANCH  11  12
ENDBRANCH   7  11
ENDBRANCH   3   4
TORSDOF 4
ENDMDL
MODEL      231
REMARK 921   NORMALIZED FREE ENERGY PREDICTED BY IDOCK:   -2.28 KCAL/MOL
REMARK 922        TOTAL FREE ENERGY PREDICTED BY IDOCK:   -3.37 KCAL/MOL
REMARK 923 INTER-LIGAND FREE ENERGY PREDICTED BY IDOCK:   -4.28 KCAL/MOL
REMARK 924 INTRA-LIGAND FREE ENERGY PREDICTED BY IDOCK:    0.91 KCAL/MOL
REMARK 927      BINDING AFFINITY PREDICTED BY RF-SCORE:    0.00 PKD
ROOT
HETATM    1 BR   UNL     1     -10.233  16.762  68.356  1.00  0.00    -0.317 Br 
HETATM    2  C   UNL     2      -6.061   4.112  66.683  1.00  0.00    -0.031 C  
HETATM    3  C   UNL     2      -6.665   5.442  66.254  1.00  0.00    -0.057 C  
ENDROOT
BRANCH   3   4
HETATM    4  C   UNL     2      -7.278   6.201  67.438  1.00  0.00    -0.076 C  
HETATM    5  C   UNL     2      -8.553   7.006  67.086  1.00  0.00    -0.121 C  
HETATM    6  C   UNL     2      -9.671   6.141  66.463  1.00  0.00    -0.184 C  
HETATM    7  C   UNL     2      -9.016   7.817  68.310  1.00  0.00    -0.131 C  
HETATM    8  O   UNL     2      -8.291   8.103  69.253  1.00  0.00    -0.126 OA 
BRANCH   6   9
HETATM    9  C   UNL     2     -10.159   5.009  67.371  1.00  0.00    -0.213 C  
HETATM   10  C   UNL     2      -9.193   4.746  68.516  1.00  0.00    -0.165 C  
ENDBRANCH   6   9
BRANCH   7  11
HETATM   11  O   UNL     2     -10.296   8.259  68.179  1.00  0.00    -0.204 OA 
BRANCH  11  12
HETATM   12  C   UNL     2     -10.586   9.623  67.774  1.00  0.00    -0.264 C  
HETATM   13  C   UNL     2     -10.449  10.708  68.896  1.00  0.00    -0.232 C  
HETATM   14  C   UNL     2     -10.717  12.190  68.324  1.00  0.00    -0.223 C  
HETATM   15  C   UNL     2     -11.701  12.859  67.284  1.00  0.00    -0.431 C  
HETATM   16  C   UNL     2     -11.432  12.093  65.960  1.00  0.00    -0.427 C  
HETATM   17  C   UNL     2     -10.005  11.497  66.078  1.00  0.00    -0.224 C  
HETATM   18  C   UNL     2      -9.935   9.999  66.430  1.00  0.00    -0.300 C  
HETATM   19  N   UNL     2      -9.438  12.295  67.253  1.00  0.00    -0.182 N  
HETATM   20  C   UNL     2      -8.083  11.873  67.834  1.00  0.00    -0.147 C  
HETATM   21  C   UNL     2      -9.114  13.745  66.755  1.00  0.00    -0.221 C  
ENDBRANCH  11  12
ENDBRANCH   7  11
ENDBRANCH   3   4
TORSDOF 4
ENDMDL
MODEL      232
REMARK 921   NORMALIZED FREE ENERGY PREDICTED BY IDOCK:   -2.27 KCAL/MOL
REMARK 922        TOTAL FREE ENERGY PREDICTED BY IDOCK:   -3.36 KCAL/MOL
REMARK 923 INTER-LIGAND FREE ENERGY PREDICTED BY IDOCK:   -4.05 KCAL/MOL
REMARK 924 INTRA-LIGAND FREE ENERGY PREDICTED BY IDOCK:    0.68 KCAL/MOL
REMARK 927      BINDING AFFINITY PREDICTED BY RF-SCORE:    0.00 PKD
ROOT
HETATM    1 BR   UNL     1      -8.085   3.598  74.227  1.00  0.00    -0.078 Br 
HETATM    2  C   UNL     2      -8.655  10.853  62.947  1.00  0.00    -0.181 C  
HETATM    3  C   UNL     2      -7.979  10.029  64.033  1.00  0.00    -0.151 C  
ENDROOT
BRANCH   3   4
HETATM    4  C   UNL     2      -8.760  10.071  65.353  1.00  0.00    -0.176 C  
HETATM    5  C   UNL     2      -9.482   8.747  65.708  1.00  0.00    -0.239 C  
HETATM    6  C   UNL     2      -8.533   7.531  65.771  1.00  0.00    -0.151 C  
HETATM    7  C   UNL     2     -10.324   8.934  66.982  1.00  0.00    -0.269 C  
HETATM    8  O   UNL     2     -10.690  10.023  67.405  1.00  0.00    -0.268 OA 
BRANCH   6   9
HETATM    9  C   UNL     2      -7.421   7.664  66.814  1.00  0.00    -0.093 C  
HETATM   10  C   UNL     2      -6.041   7.521  66.191  1.00  0.00    -0.038 C  
ENDBRANCH   6   9
BRANCH   7  11
HETATM   11  O   UNL     2     -10.694   7.746  67.533  1.00  0.00    -0.250 OA 
BRANCH  11  12
HETATM   12  C   UNL     2     -10.658   7.537  68.969  1.00  0.00    -0.180 C  
HETATM   13  C   UNL     2     -11.324   6.214  69.480  1.00  0.00    -0.426 C  
HETATM   14  C   UNL     2     -11.162   6.045  71.074  1.00  0.00    -0.263 C  
HETATM   15  C   UNL     2     -11.205   6.990  72.339  1.00  0.00    -0.305 C  
HETATM   16  C   UNL     2     -10.107   8.051  72.058  1.00  0.00    -0.280 C  
HETATM   17  C   UNL     2      -9.118   7.406  71.053  1.00  0.00    -0.152 C  
HETATM   18  C   UNL     2      -9.280   7.844  69.585  1.00  0.00    -0.153 C  
HETATM   19  N   UNL     2      -9.498   5.927  71.159  1.00  0.00    -0.160 N  
HETATM   20  C   UNL     2      -8.875   4.943  70.163  1.00  0.00    -0.101 C  
HETATM   21  C   UNL     2      -8.944   5.372  72.517  1.00  0.00    -0.133 C  
ENDBRANCH  11  12
ENDBRANCH   7  11
ENDBRANCH   3   4
TORSDOF 4
ENDMDL
MODEL      233
REMARK 921   NORMALIZED FREE ENERGY PREDICTED BY IDOCK:   -2.26 KCAL/MOL
REMARK 922        TOTAL FREE ENERGY PREDICTED BY IDOCK:   -3.35 KCAL/MOL
REMARK 923 INTER-LIGAND FREE ENERGY PREDICTED BY IDOCK:   -4.62 KCAL/MOL
REMARK 924 INTRA-LIGAND FREE ENERGY PREDICTED BY IDOCK:    1.28 KCAL/MOL
REMARK 927      BINDING AFFINITY PREDICTED BY RF-SCORE:    0.00 PKD
ROOT
HETATM    1 BR   UNL     1      -6.017   4.540  70.365  1.00  0.00    -0.014 Br 
HETATM    2  C   UNL     2     -10.654  16.381  66.065  1.00  0.00    -0.275 C  
HETATM    3  C   UNL     2      -9.588  15.352  66.410  1.00  0.00    -0.319 C  
ENDROOT
BRANCH   3   4
HETATM    4  C   UNL     2     -10.081  14.345  67.456  1.00  0.00    -0.232 C  
HETATM    5  C   UNL     2     -10.667  13.041  66.858  1.00  0.00    -0.273 C  
HETATM    6  C   UNL     2      -9.682  12.298  65.929  1.00  0.00    -0.247 C  
HETATM    7  C   UNL     2     -11.235  12.157  67.982  1.00  0.00    -0.264 C  
HETATM    8  O   UNL     2     -11.546  12.576  69.089  1.00  0.00    -0.281 OA 
BRANCH   6   9
HETATM    9  C   UNL     2      -8.385  11.866  66.618  1.00  0.00    -0.117 C  
HETATM   10  C   UNL     2      -7.961  12.852  67.695  1.00  0.00    -0.167 C  
ENDBRANCH   6   9
BRANCH   7  11
HETATM   11  O   UNL     2     -11.441  10.875  67.573  1.00  0.00    -0.483 OA 
BRANCH  11  12
HETATM   12  C   UNL     2     -11.092   9.748  68.420  1.00  0.00    -0.088 C  
HETATM   13  C   UNL     2     -10.069   8.732  67.809  1.00  0.00    -0.261 C  
HETATM   14  C   UNL     2      -9.694   7.565  68.857  1.00  0.00    -0.151 C  
HETATM   15  C   UNL     2     -10.457   6.711  69.945  1.00  0.00    -0.247 C  
HETATM   16  C   UNL     2     -11.055   7.771  70.909  1.00  0.00    -0.270 C  
HETATM   17  C   UNL     2     -10.192   9.050  70.750  1.00  0.00    -0.244 C  
HETATM   18  C   UNL     2     -10.801  10.161  69.875  1.00  0.00    -0.347 C  
HETATM   19  N   UNL     2      -8.958   8.495  70.035  1.00  0.00    -0.140 N  
HETATM   20  C   UNL     2      -7.916   9.488  69.506  1.00  0.00    -0.110 C  
HETATM   21  C   UNL     2      -8.105   7.689  71.074  1.00  0.00    -0.095 C  
ENDBRANCH  11  12
ENDBRANCH   7  11
ENDBRANCH   3   4
TORSDOF 4
ENDMDL
MODEL      234
REMARK 921   NORMALIZED FREE ENERGY PREDICTED BY IDOCK:   -2.21 KCAL/MOL
REMARK 922        TOTAL FREE ENERGY PREDICTED BY IDOCK:   -3.29 KCAL/MOL
REMARK 923 INTER-LIGAND FREE ENERGY PREDICTED BY IDOCK:   -2.66 KCAL/MOL
REMARK 924 INTRA-LIGAND FREE ENERGY PREDICTED BY IDOCK:   -0.63 KCAL/MOL
REMARK 927      BINDING AFFINITY PREDICTED BY RF-SCORE:    0.00 PKD
ROOT
HETATM    1 BR   UNL     1      -5.791  13.551  70.230  1.00  0.00    -0.149 Br 
HETATM    2  C   UNL     2      -5.972   1.547  64.222  1.00  0.00    -0.013 C  
HETATM    3  C   UNL     2      -5.928   3.067  64.283  1.00  0.00    -0.014 C  
ENDROOT
BRANCH   3   4
HETATM    4  C   UNL     2      -6.550   3.606  65.577  1.00  0.00    -0.037 C  
HETATM    5  C   UNL     2      -7.393   4.892  65.391  1.00  0.00    -0.072 C  
HETATM    6  C   UNL     2      -8.534   4.732  64.362  1.00  0.00    -0.134 C  
HETATM    7  C   UNL     2      -7.871   5.410  66.759  1.00  0.00    -0.101 C  
HETATM    8  O   UNL     2      -7.347   5.110  67.823  1.00  0.00    -0.073 OA 
BRANCH   6   9
HETATM    9  C   UNL     2      -9.549   3.645  64.724  1.00  0.00    -0.173 C  
HETATM   10  C   UNL     2     -10.883   3.862  64.026  1.00  0.00    -0.171 C  
ENDBRANCH   6   9
BRANCH   7  11
HETATM   11  O   UNL     2      -8.884   6.311  66.642  1.00  0.00    -0.124 OA 
BRANCH  11  12
HETATM   12  C   UNL     2      -9.160   7.276  67.692  1.00  0.00    -0.124 C  
HETATM   13  C   UNL     2      -8.447   8.663  67.545  1.00  0.00    -0.124 C  
HETATM   14  C   UNL     2      -8.880   9.680  68.718  1.00  0.00    -0.130 C  
HETATM   15  C   UNL     2      -9.186   9.586  70.265  1.00  0.00    -0.303 C  
HETATM   16  C   UNL     2     -10.332   8.542  70.363  1.00  0.00    -0.222 C  
HETATM   17  C   UNL     2     -11.033   8.526  68.980  1.00  0.00     0.111 C  
HETATM   18  C   UNL     2     -10.655   7.354  68.054  1.00  0.00    -0.235 C  
HETATM   19  N   UNL     2     -10.506   9.821  68.357  1.00  0.00    -0.208 N  
HETATM   20  C   UNL     2     -10.811  10.094  66.880  1.00  0.00    -0.106 C  
HETATM   21  C   UNL     2     -11.231  11.030  69.043  1.00  0.00    -0.258 C  
ENDBRANCH  11  12
ENDBRANCH   7  11
ENDBRANCH   3   4
TORSDOF 4
ENDMDL
MODEL      235
REMARK 921   NORMALIZED FREE ENERGY PREDICTED BY IDOCK:   -2.20 KCAL/MOL
REMARK 922        TOTAL FREE ENERGY PREDICTED BY IDOCK:   -3.27 KCAL/MOL
REMARK 923 INTER-LIGAND FREE ENERGY PREDICTED BY IDOCK:   -2.79 KCAL/MOL
REMARK 924 INTRA-LIGAND FREE ENERGY PREDICTED BY IDOCK:   -0.48 KCAL/MOL
REMARK 927      BINDING AFFINITY PREDICTED BY RF-SCORE:    0.00 PKD
ROOT
HETATM    1 BR   UNL     1     -12.459  12.289  63.604  1.00  0.00    -0.604 Br 
HETATM    2  C   UNL     2      -8.747   2.571  72.088  1.00  0.00    -0.096 C  
HETATM    3  C   UNL     2      -9.706   3.330  71.182  1.00  0.00    -0.212 C  
ENDROOT
BRANCH   3   4
HETATM    4  C   UNL     2      -9.302   4.801  71.025  1.00  0.00    -0.208 C  
HETATM    5  C   UNL     2      -8.054   5.026  70.134  1.00  0.00    -0.081 C  
HETATM    6  C   UNL     2      -8.200   4.432  68.716  1.00  0.00    -0.083 C  
HETATM    7  C   UNL     2      -7.670   6.516  70.138  1.00  0.00    -0.102 C  
HETATM    8  O   UNL     2      -8.020   7.310  71.001  1.00  0.00    -0.096 OA 
BRANCH   6   9
HETATM    9  C   UNL     2      -9.366   5.017  67.914  1.00  0.00    -0.147 C  
HETATM   10  C   UNL     2      -9.579   4.275  66.604  1.00  0.00    -0.218 C  
ENDBRANCH   6   9
BRANCH   7  11
HETATM   11  O   UNL     2      -6.819   6.830  69.123  1.00  0.00    -0.060 OA 
BRANCH  11  12
HETATM   12  C   UNL     2      -7.280   7.546  67.947  1.00  0.00    -0.090 C  
HETATM   13  C   UNL     2      -7.650   9.052  68.170  1.00  0.00    -0.092 C  
HETATM   14  C   UNL     2      -8.075   9.769  66.791  1.00  0.00    -0.120 C  
HETATM   15  C   UNL     2      -8.893   9.378  65.497  1.00  0.00    -0.220 C  
HETATM   16  C   UNL     2      -8.156   8.127  64.946  1.00  0.00    -0.153 C  
HETATM   17  C   UNL     2      -6.708   8.189  65.499  1.00  0.00    -0.052 C  
HETATM   18  C   UNL     2      -6.415   7.272  66.702  1.00  0.00    -0.052 C  
HETATM   19  N   UNL     2      -6.625   9.642  65.970  1.00  0.00    -0.077 N  
HETATM   20  C   UNL     2      -5.395  10.077  66.775  1.00  0.00    -0.041 C  
HETATM   21  C   UNL     2      -6.499  10.563  64.708  1.00  0.00     0.012 C  
ENDBRANCH  11  12
ENDBRANCH   7  11
ENDBRANCH   3   4
TORSDOF 4
ENDMDL
MODEL      236
REMARK 921   NORMALIZED FREE ENERGY PREDICTED BY IDOCK:   -2.11 KCAL/MOL
REMARK 922        TOTAL FREE ENERGY PREDICTED BY IDOCK:   -3.16 KCAL/MOL
REMARK 923 INTER-LIGAND FREE ENERGY PREDICTED BY IDOCK:   -3.10 KCAL/MOL
REMARK 924 INTRA-LIGAND FREE ENERGY PREDICTED BY IDOCK:   -0.05 KCAL/MOL
REMARK 927      BINDING AFFINITY PREDICTED BY RF-SCORE:    0.00 PKD
ROOT
HETATM    1 BR   UNL     1      -5.169   3.457  73.109  1.00  0.00     0.000 Br 
HETATM    2  C   UNL     2     -10.004  11.575  63.573  1.00  0.00    -0.429 C  
HETATM    3  C   UNL     2      -9.651  10.237  64.208  1.00  0.00    -0.375 C  
ENDROOT
BRANCH   3   4
HETATM    4  C   UNL     2      -8.511  10.370  65.226  1.00  0.00    -0.173 C  
HETATM    5  C   UNL     2      -8.961  10.856  66.626  1.00  0.00    -0.173 C  
HETATM    6  C   UNL     2     -10.047   9.963  67.264  1.00  0.00    -0.264 C  
HETATM    7  C   UNL     2      -7.732  11.065  67.529  1.00  0.00    -0.114 C  
HETATM    8  O   UNL     2      -6.594  11.221  67.107  1.00  0.00    -0.086 OA 
BRANCH   6   9
HETATM    9  C   UNL     2      -9.612   8.509  67.472  1.00  0.00    -0.194 C  
HETATM   10  C   UNL     2     -10.525   7.536  66.743  1.00  0.00    -0.319 C  
ENDBRANCH   6   9
BRANCH   7  11
HETATM   11  O   UNL     2      -8.069  11.149  68.845  1.00  0.00    -0.144 OA 
BRANCH  11  12
HETATM   12  C   UNL     2      -7.425  10.314  69.843  1.00  0.00    -0.158 C  
HETATM   13  C   UNL     2      -8.344   9.247  70.530  1.00  0.00    -0.237 C  
HETATM   14  C   UNL     2      -7.515   8.327  71.562  1.00  0.00    -0.090 C  
HETATM   15  C   UNL     2      -6.350   8.538  72.608  1.00  0.00    -0.090 C  
HETATM   16  C   UNL     2      -5.188   9.132  71.768  1.00  0.00    -0.052 C  
HETATM   17  C   UNL     2      -5.442   8.705  70.299  1.00  0.00    -0.021 C  
HETATM   18  C   UNL     2      -6.052   9.786  69.386  1.00  0.00    -0.040 C  
HETATM   19  N   UNL     2      -6.474   7.590  70.482  1.00  0.00    -0.038 N  
HETATM   20  C   UNL     2      -7.152   7.015  69.233  1.00  0.00    -0.083 C  
HETATM   21  C   UNL     2      -5.738   6.322  71.036  1.00  0.00    -0.026 C  
ENDBRANCH  11  12
ENDBRANCH   7  11
ENDBRANCH   3   4
TORSDOF 4
ENDMDL
MODEL      237
REMARK 921   NORMALIZED FREE ENERGY PREDICTED BY IDOCK:   -1.93 KCAL/MOL
REMARK 922        TOTAL FREE ENERGY PREDICTED BY IDOCK:   -2.94 KCAL/MOL
REMARK 923 INTER-LIGAND FREE ENERGY PREDICTED BY IDOCK:   -2.24 KCAL/MOL
REMARK 924 INTRA-LIGAND FREE ENERGY PREDICTED BY IDOCK:   -0.70 KCAL/MOL
REMARK 927      BINDING AFFINITY PREDICTED BY RF-SCORE:    0.00 PKD
ROOT
HETATM    1 BR   UNL     1      -5.939   2.684  73.278  1.00  0.00    -0.008 Br 
HETATM    2  C   UNL     2     -10.106  12.024  64.582  1.00  0.00    -0.291 C  
HETATM    3  C   UNL     2      -9.705  10.625  65.029  1.00  0.00    -0.336 C  
ENDROOT
BRANCH   3   4
HETATM    4  C   UNL     2      -8.764  10.659  66.240  1.00  0.00    -0.163 C  
HETATM    5  C   UNL     2      -9.455  10.358  67.593  1.00  0.00    -0.165 C  
HETATM    6  C   UNL     2     -10.189   8.999  67.616  1.00  0.00    -0.300 C  
HETATM    7  C   UNL     2      -8.451  10.531  68.745  1.00  0.00    -0.141 C  
HETATM    8  O   UNL     2      -7.419  11.182  68.660  1.00  0.00    -0.102 OA 
BRANCH   6   9
HETATM    9  C   UNL     2      -9.277   7.796  67.364  1.00  0.00    -0.156 C  
HETATM   10  C   UNL     2      -9.748   6.967  66.180  1.00  0.00     0.047 C  
ENDBRANCH   6   9
BRANCH   7  11
HETATM   11  O   UNL     2      -8.887   9.954  69.898  1.00  0.00    -0.203 OA 
BRANCH  11  12
HETATM   12  C   UNL     2      -8.095   8.950  70.586  1.00  0.00    -0.144 C  
HETATM   13  C   UNL     2      -7.462   9.399  71.947  1.00  0.00     0.636 C  
HETATM   14  C   UNL     2      -6.671   8.190  72.661  1.00  0.00    -0.086 C  
HETATM   15  C   UNL     2      -5.747   6.994  72.203  1.00  0.00    -0.037 C  
HETATM   16  C   UNL     2      -6.626   6.198  71.200  1.00  0.00    -0.050 C  
HETATM   17  C   UNL     2      -8.100   6.537  71.540  1.00  0.00    -0.112 C  
HETATM   18  C   UNL     2      -8.777   7.569  70.617  1.00  0.00    -0.141 C  
HETATM   19  N   UNL     2      -7.956   7.157  72.931  1.00  0.00    -0.100 N  
HETATM   20  C   UNL     2      -9.186   7.819  73.564  1.00  0.00    -0.290 C  
HETATM   21  C   UNL     2      -7.672   6.007  73.957  1.00  0.00    -0.097 C  
ENDBRANCH  11  12
ENDBRANCH   7  11
ENDBRANCH   3   4
TORSDOF 4
ENDMDL
MODEL      238
REMARK 921   NORMALIZED FREE ENERGY PREDICTED BY IDOCK:   -1.92 KCAL/MOL
REMARK 922        TOTAL FREE ENERGY PREDICTED BY IDOCK:   -2.92 KCAL/MOL
REMARK 923 INTER-LIGAND FREE ENERGY PREDICTED BY IDOCK:   -4.44 KCAL/MOL
REMARK 924 INTRA-LIGAND FREE ENERGY PREDICTED BY IDOCK:    1.52 KCAL/MOL
REMARK 927      BINDING AFFINITY PREDICTED BY RF-SCORE:    0.00 PKD
ROOT
HETATM    1 BR   UNL     1      -8.668   7.261  65.971  1.00  0.00    -0.154 Br 
HETATM    2  C   UNL     2     -11.927  17.248  74.329  1.00  0.00     0.096 C  
HETATM    3  C   UNL     2     -11.952  15.823  73.794  1.00  0.00    -0.458 C  
ENDROOT
BRANCH   3   4
HETATM    4  C   UNL     2     -11.621  15.769  72.297  1.00  0.00    -0.522 C  
HETATM    5  C   UNL     2     -11.659  14.344  71.689  1.00  0.00     0.164 C  
HETATM    6  C   UNL     2     -13.013  13.629  71.890  1.00  0.00    -0.432 C  
HETATM    7  C   UNL     2     -11.202  14.389  70.220  1.00  0.00    -0.051 C  
HETATM    8  O   UNL     2     -10.539  15.298  69.739  1.00  0.00    -0.256 OA 
BRANCH   6   9
HETATM    9  C   UNL     2     -14.201  14.359  71.257  1.00  0.00    -0.248 C  
HETATM   10  C   UNL     2     -14.303  15.797  71.739  1.00  0.00    -0.167 C  
ENDBRANCH   6   9
BRANCH   7  11
HETATM   11  O   UNL     2     -11.540  13.258  69.542  1.00  0.00    -0.283 OA 
BRANCH  11  12
HETATM   12  C   UNL     2     -11.055  13.013  68.196  1.00  0.00    -0.256 C  
HETATM   13  C   UNL     2     -11.769  11.856  67.417  1.00  0.00    -0.326 C  
HETATM   14  C   UNL     2     -11.209  11.718  65.913  1.00  0.00    -0.290 C  
HETATM   15  C   UNL     2      -9.806  11.833  65.195  1.00  0.00    -0.263 C  
HETATM   16  C   UNL     2      -9.316  13.265  65.546  1.00  0.00     0.308 C  
HETATM   17  C   UNL     2     -10.582  14.093  65.885  1.00  0.00    -0.298 C  
HETATM   18  C   UNL     2     -10.856  14.308  67.386  1.00  0.00    -0.288 C  
HETATM   19  N   UNL     2     -11.689  13.203  65.316  1.00  0.00    -0.329 N  
HETATM   20  C   UNL     2     -13.146  13.572  65.617  1.00  0.00     0.037 C  
HETATM   21  C   UNL     2     -11.665  13.325  63.753  1.00  0.00    -0.421 C  
ENDBRANCH  11  12
ENDBRANCH   7  11
ENDBRANCH   3   4
TORSDOF 4
ENDMDL
MODEL      239
REMARK 921   NORMALIZED FREE ENERGY PREDICTED BY IDOCK:   -1.88 KCAL/MOL
REMARK 922        TOTAL FREE ENERGY PREDICTED BY IDOCK:   -2.88 KCAL/MOL
REMARK 923 INTER-LIGAND FREE ENERGY PREDICTED BY IDOCK:   -3.02 KCAL/MOL
REMARK 924 INTRA-LIGAND FREE ENERGY PREDICTED BY IDOCK:    0.14 KCAL/MOL
REMARK 927      BINDING AFFINITY PREDICTED BY RF-SCORE:    0.00 PKD
ROOT
HETATM    1 BR   UNL     1      -6.142  13.538  70.657  1.00  0.00     0.033 Br 
HETATM    2  C   UNL     2      -6.392   2.629  62.836  1.00  0.00    -0.014 C  
HETATM    3  C   UNL     2      -6.550   4.108  63.159  1.00  0.00    -0.034 C  
ENDROOT
BRANCH   3   4
HETATM    4  C   UNL     2      -6.828   4.342  64.649  1.00  0.00    -0.046 C  
HETATM    5  C   UNL     2      -8.221   4.950  64.949  1.00  0.00    -0.124 C  
HETATM    6  C   UNL     2      -9.389   4.111  64.387  1.00  0.00    -0.160 C  
HETATM    7  C   UNL     2      -8.350   5.250  66.453  1.00  0.00    -0.109 C  
HETATM    8  O   UNL     2      -7.395   5.376  67.208  1.00  0.00    -0.080 OA 
BRANCH   6   9
HETATM    9  C   UNL     2      -9.454   2.685  64.944  1.00  0.00    -0.094 C  
HETATM   10  C   UNL     2      -9.919   1.689  63.894  1.00  0.00    -0.111 C  
ENDBRANCH   6   9
BRANCH   7  11
HETATM   11  O   UNL     2      -9.642   5.451  66.828  1.00  0.00    -0.130 OA 
BRANCH  11  12
HETATM   12  C   UNL     2      -9.998   5.681  68.217  1.00  0.00    -0.155 C  
HETATM   13  C   UNL     2      -8.912   5.278  69.272  1.00  0.00    -0.126 C  
HETATM   14  C   UNL     2      -9.376   5.645  70.771  1.00  0.00    -0.163 C  
HETATM   15  C   UNL     2     -10.722   5.610  71.597  1.00  0.00    -0.313 C  
HETATM   16  C   UNL     2     -11.694   6.502  70.778  1.00  0.00    -0.427 C  
HETATM   17  C   UNL     2     -10.811   7.453  69.929  1.00  0.00    -0.246 C  
HETATM   18  C   UNL     2     -10.642   7.061  68.449  1.00  0.00    -0.240 C  
HETATM   19  N   UNL     2      -9.455   7.308  70.624  1.00  0.00    -0.165 N  
HETATM   20  C   UNL     2      -8.228   7.949  69.965  1.00  0.00    -0.119 C  
HETATM   21  C   UNL     2      -9.510   8.088  71.982  1.00  0.00    -0.197 C  
ENDBRANCH  11  12
ENDBRANCH   7  11
ENDBRANCH   3   4
TORSDOF 4
ENDMDL
MODEL      240
REMARK 921   NORMALIZED FREE ENERGY PREDICTED BY IDOCK:   -1.75 KCAL/MOL
REMARK 922        TOTAL FREE ENERGY PREDICTED BY IDOCK:   -2.72 KCAL/MOL
REMARK 923 INTER-LIGAND FREE ENERGY PREDICTED BY IDOCK:   -4.00 KCAL/MOL
REMARK 924 INTRA-LIGAND FREE ENERGY PREDICTED BY IDOCK:    1.27 KCAL/MOL
REMARK 927      BINDING AFFINITY PREDICTED BY RF-SCORE:    0.00 PKD
ROOT
HETATM    1 BR   UNL     1      -5.956  10.534  62.464  1.00  0.00    -0.142 Br 
HETATM    2  C   UNL     2     -11.059   4.695  73.423  1.00  0.00    -0.418 C  
HETATM    3  C   UNL     2     -11.109   5.461  72.108  1.00  0.00    -0.234 C  
ENDROOT
BRANCH   3   4
HETATM    4  C   UNL     2      -9.791   6.192  71.821  1.00  0.00    -0.185 C  
HETATM    5  C   UNL     2      -9.634   6.670  70.356  1.00  0.00    -0.173 C  
HETATM    6  C   UNL     2     -10.784   7.588  69.886  1.00  0.00    -0.254 C  
HETATM    7  C   UNL     2      -8.238   7.283  70.151  1.00  0.00    -0.134 C  
HETATM    8  O   UNL     2      -7.281   7.063  70.882  1.00  0.00    -0.069 OA 
BRANCH   6   9
HETATM    9  C   UNL     2     -10.927   8.873  70.706  1.00  0.00    -0.305 C  
HETATM   10  C   UNL     2     -12.238   8.910  71.475  1.00  0.00    -0.388 C  
ENDBRANCH   6   9
BRANCH   7  11
HETATM   11  O   UNL     2      -8.164   8.023  69.011  1.00  0.00    -0.124 OA 
BRANCH  11  12
HETATM   12  C   UNL     2      -8.964   9.222  68.836  1.00  0.00    -0.136 C  
HETATM   13  C   UNL     2      -8.331  10.547  69.381  1.00  0.00    -0.117 C  
HETATM   14  C   UNL     2      -9.264  11.823  69.069  1.00  0.00     0.238 C  
HETATM   15  C   UNL     2     -10.813  12.136  69.051  1.00  0.00    -0.208 C  
HETATM   16  C   UNL     2     -11.396  11.109  68.042  1.00  0.00    -0.380 C  
HETATM   17  C   UNL     2     -10.227  10.692  67.112  1.00  0.00    -0.216 C  
HETATM   18  C   UNL     2      -9.578   9.331  67.428  1.00  0.00    -0.190 C  
HETATM   19  N   UNL     2      -9.203  11.792  67.399  1.00  0.00    -0.171 N  
HETATM   20  C   UNL     2      -7.794  11.645  66.814  1.00  0.00    -0.130 C  
HETATM   21  C   UNL     2      -9.684  13.109  66.697  1.00  0.00    -0.261 C  
ENDBRANCH  11  12
ENDBRANCH   7  11
ENDBRANCH   3   4
TORSDOF 4
ENDMDL
MODEL      241
REMARK 921   NORMALIZED FREE ENERGY PREDICTED BY IDOCK:   -1.62 KCAL/MOL
REMARK 922        TOTAL FREE ENERGY PREDICTED BY IDOCK:   -2.56 KCAL/MOL
REMARK 923 INTER-LIGAND FREE ENERGY PREDICTED BY IDOCK:   -2.52 KCAL/MOL
REMARK 924 INTRA-LIGAND FREE ENERGY PREDICTED BY IDOCK:   -0.04 KCAL/MOL
REMARK 927      BINDING AFFINITY PREDICTED BY RF-SCORE:    0.00 PKD
ROOT
HETATM    1 BR   UNL     1     -12.989  12.777  71.353  1.00  0.00    -0.270 Br 
HETATM    2  C   UNL     2      -5.619   1.596  70.408  1.00  0.00    -0.016 C  
HETATM    3  C   UNL     2      -6.872   2.412  70.697  1.00  0.00    -0.033 C  
ENDROOT
BRANCH   3   4
HETATM    4  C   UNL     2      -6.538   3.866  71.054  1.00  0.00    -0.031 C  
HETATM    5  C   UNL     2      -7.599   4.895  70.589  1.00  0.00    -0.066 C  
HETATM    6  C   UNL     2      -9.015   4.600  71.131  1.00  0.00    -0.162 C  
HETATM    7  C   UNL     2      -7.113   6.323  70.892  1.00  0.00    -0.070 C  
HETATM    8  O   UNL     2      -5.941   6.620  71.081  1.00  0.00    -0.034 OA 
BRANCH   6   9
HETATM    9  C   UNL     2      -9.109   4.601  72.659  1.00  0.00    -0.140 C  
HETATM   10  C   UNL     2      -9.481   5.971  73.201  1.00  0.00    -0.142 C  
ENDBRANCH   6   9
BRANCH   7  11
HETATM   11  O   UNL     2      -8.123   7.233  70.834  1.00  0.00    -0.104 OA 
BRANCH  11  12
HETATM   12  C   UNL     2      -8.476   7.889  69.588  1.00  0.00    -0.132 C  
HETATM   13  C   UNL     2      -9.414   9.137  69.719  1.00  0.00    -0.191 C  
HETATM   14  C   UNL     2      -9.680   9.833  68.290  1.00  0.00    -0.145 C  
HETATM   15  C   UNL     2      -9.917   9.350  66.804  1.00  0.00    -0.305 C  
HETATM   16  C   UNL     2      -8.655   8.507  66.474  1.00  0.00    -0.130 C  
HETATM   17  C   UNL     2      -7.538   8.990  67.434  1.00  0.00    -0.088 C  
HETATM   18  C   UNL     2      -7.268   8.086  68.652  1.00  0.00    -0.081 C  
HETATM   19  N   UNL     2      -8.119  10.313  67.936  1.00  0.00    -0.102 N  
HETATM   20  C   UNL     2      -7.399  11.038  69.079  1.00  0.00    -0.123 C  
HETATM   21  C   UNL     2      -8.001  11.372  66.786  1.00  0.00    -0.160 C  
ENDBRANCH  11  12
ENDBRANCH   7  11
ENDBRANCH   3   4
TORSDOF 4
ENDMDL
MODEL      242
REMARK 921   NORMALIZED FREE ENERGY PREDICTED BY IDOCK:   -1.60 KCAL/MOL
REMARK 922        TOTAL FREE ENERGY PREDICTED BY IDOCK:   -2.53 KCAL/MOL
REMARK 923 INTER-LIGAND FREE ENERGY PREDICTED BY IDOCK:   -1.64 KCAL/MOL
REMARK 924 INTRA-LIGAND FREE ENERGY PREDICTED BY IDOCK:   -0.89 KCAL/MOL
REMARK 927      BINDING AFFINITY PREDICTED BY RF-SCORE:    0.00 PKD
ROOT
HETATM    1 BR   UNL     1      -5.676  14.742  70.667  1.00  0.00    -0.143 Br 
HETATM    2  C   UNL     2      -5.188   3.156  63.904  1.00  0.00    -0.008 C  
HETATM    3  C   UNL     2      -5.542   4.620  64.124  1.00  0.00    -0.014 C  
ENDROOT
BRANCH   3   4
HETATM    4  C   UNL     2      -5.650   4.965  65.614  1.00  0.00    -0.014 C  
HETATM    5  C   UNL     2      -6.755   5.998  65.950  1.00  0.00    -0.052 C  
HETATM    6  C   UNL     2      -8.159   5.568  65.472  1.00  0.00    -0.120 C  
HETATM    7  C   UNL     2      -6.700   6.357  67.445  1.00  0.00    -0.060 C  
HETATM    8  O   UNL     2      -5.717   6.185  68.153  1.00  0.00    -0.011 OA 
BRANCH   6   9
HETATM    9  C   UNL     2      -8.649   4.253  66.087  1.00  0.00    -0.113 C  
HETATM   10  C   UNL     2      -9.017   3.234  65.021  1.00  0.00    -0.137 C  
ENDBRANCH   6   9
BRANCH   7  11
HETATM   11  O   UNL     2      -7.837   6.974  67.868  1.00  0.00    -0.110 OA 
BRANCH  11  12
HETATM   12  C   UNL     2      -7.880   8.409  68.088  1.00  0.00    -0.111 C  
HETATM   13  C   UNL     2      -7.246   9.288  66.957  1.00  0.00    -0.087 C  
HETATM   14  C   UNL     2      -7.414  10.861  67.265  1.00  0.00    -0.104 C  
HETATM   15  C   UNL     2      -7.351  11.796  68.537  1.00  0.00    -0.103 C  
HETATM   16  C   UNL     2      -8.424  11.208  69.493  1.00  0.00     0.413 C  
HETATM   17  C   UNL     2      -9.427  10.426  68.605  1.00  0.00    -0.167 C  
HETATM   18  C   UNL     2      -9.252   8.896  68.591  1.00  0.00    -0.137 C  
HETATM   19  N   UNL     2      -9.082  10.963  67.214  1.00  0.00    -0.141 N  
HETATM   20  C   UNL     2      -9.726  10.292  65.995  1.00  0.00    -0.218 C  
HETATM   21  C   UNL     2      -9.650  12.418  67.091  1.00  0.00    -0.206 C  
ENDBRANCH  11  12
ENDBRANCH   7  11
ENDBRANCH   3   4
TORSDOF 4
ENDMDL
MODEL      243
REMARK 921   NORMALIZED FREE ENERGY PREDICTED BY IDOCK:   -1.59 KCAL/MOL
REMARK 922        TOTAL FREE ENERGY PREDICTED BY IDOCK:   -2.53 KCAL/MOL
REMARK 923 INTER-LIGAND FREE ENERGY PREDICTED BY IDOCK:   -2.80 KCAL/MOL
REMARK 924 INTRA-LIGAND FREE ENERGY PREDICTED BY IDOCK:    0.27 KCAL/MOL
REMARK 927      BINDING AFFINITY PREDICTED BY RF-SCORE:    0.00 PKD
ROOT
HETATM    1 BR   UNL     1     -10.571  18.660  66.331  1.00  0.00    -0.332 Br 
HETATM    2  C   UNL     2     -10.760   5.268  67.253  1.00  0.00    -0.111 C  
HETATM    3  C   UNL     2     -10.519   6.689  67.743  1.00  0.00    -0.275 C  
ENDROOT
BRANCH   3   4
HETATM    4  C   UNL     2     -10.276   7.661  66.581  1.00  0.00    -0.272 C  
HETATM    5  C   UNL     2      -9.118   8.662  66.820  1.00  0.00    -0.183 C  
HETATM    6  C   UNL     2      -7.772   7.974  67.136  1.00  0.00    -0.101 C  
HETATM    7  C   UNL     2      -9.037   9.659  65.650  1.00  0.00    -0.189 C  
HETATM    8  O   UNL     2      -9.962   9.887  64.883  1.00  0.00    -0.306 OA 
BRANCH   6   9
HETATM    9  C   UNL     2      -7.270   7.050  66.023  1.00  0.00    -0.074 C  
HETATM   10  C   UNL     2      -5.753   6.951  66.012  1.00  0.00    -0.030 C  
ENDBRANCH   6   9
BRANCH   7  11
HETATM   11  O   UNL     2      -7.851  10.326  65.625  1.00  0.00    -0.139 OA 
BRANCH  11  12
HETATM   12  C   UNL     2      -7.194  10.744  66.851  1.00  0.00    -0.115 C  
HETATM   13  C   UNL     2      -5.833  11.497  66.669  1.00  0.00    -0.137 C  
HETATM   14  C   UNL     2      -5.229  11.981  68.083  1.00  0.00    -0.048 C  
HETATM   15  C   UNL     2      -5.135  11.402  69.550  1.00  0.00    -0.045 C  
HETATM   16  C   UNL     2      -6.613  11.145  69.951  1.00  0.00    -0.129 C  
HETATM   17  C   UNL     2      -7.480  12.072  69.061  1.00  0.00     0.017 C  
HETATM   18  C   UNL     2      -8.162  11.394  67.857  1.00  0.00    -0.132 C  
HETATM   19  N   UNL     2      -6.431  13.052  68.531  1.00  0.00    -0.077 N  
HETATM   20  C   UNL     2      -6.846  14.041  67.435  1.00  0.00    -0.001 C  
HETATM   21  C   UNL     2      -6.041  14.033  69.689  1.00  0.00    -0.122 C  
ENDBRANCH  11  12
ENDBRANCH   7  11
ENDBRANCH   3   4
TORSDOF 4
ENDMDL
MODEL      244
REMARK 921   NORMALIZED FREE ENERGY PREDICTED BY IDOCK:   -1.56 KCAL/MOL
REMARK 922        TOTAL FREE ENERGY PREDICTED BY IDOCK:   -2.48 KCAL/MOL
REMARK 923 INTER-LIGAND FREE ENERGY PREDICTED BY IDOCK:   -1.85 KCAL/MOL
REMARK 924 INTRA-LIGAND FREE ENERGY PREDICTED BY IDOCK:   -0.63 KCAL/MOL
REMARK 927      BINDING AFFINITY PREDICTED BY RF-SCORE:    0.00 PKD
ROOT
HETATM    1 BR   UNL     1     -11.833  11.802  63.075  1.00  0.00     0.233 Br 
HETATM    2  C   UNL     2      -6.425   4.556  72.998  1.00  0.00    -0.042 C  
HETATM    3  C   UNL     2      -7.465   4.904  71.942  1.00  0.00    -0.085 C  
ENDROOT
BRANCH   3   4
HETATM    4  C   UNL     2      -7.467   6.402  71.613  1.00  0.00    -0.093 C  
HETATM    5  C   UNL     2      -7.175   6.727  70.126  1.00  0.00    -0.076 C  
HETATM    6  C   UNL     2      -8.149   6.037  69.147  1.00  0.00    -0.111 C  
HETATM    7  C   UNL     2      -7.086   8.251  69.931  1.00  0.00    -0.055 C  
HETATM    8  O   UNL     2      -6.872   9.044  70.837  1.00  0.00    -0.069 OA 
BRANCH   6   9
HETATM    9  C   UNL     2      -9.616   6.424  69.353  1.00  0.00    -0.152 C  
HETATM   10  C   UNL     2     -10.556   5.282  69.001  1.00  0.00    -0.150 C  
ENDBRANCH   6   9
BRANCH   7  11
HETATM   11  O   UNL     2      -7.181   8.607  68.621  1.00  0.00    -0.074 OA 
BRANCH  11  12
HETATM   12  C   UNL     2      -7.926   9.784  68.211  1.00  0.00    -0.096 C  
HETATM   13  C   UNL     2      -8.255   9.880  66.682  1.00  0.00    -0.121 C  
HETATM   14  C   UNL     2      -9.147  11.181  66.348  1.00  0.00    -0.187 C  
HETATM   15  C   UNL     2      -9.214  12.683  66.834  1.00  0.00    -0.216 C  
HETATM   16  C   UNL     2      -9.439  12.576  68.367  1.00  0.00    -0.167 C  
HETATM   17  C   UNL     2     -10.071  11.183  68.624  1.00  0.00    -0.200 C  
HETATM   18  C   UNL     2      -9.108  10.100  69.147  1.00  0.00    -0.189 C  
HETATM   19  N   UNL     2     -10.521  10.789  67.216  1.00  0.00    -0.223 N  
HETATM   20  C   UNL     2     -11.034   9.362  66.988  1.00  0.00     0.126 C  
HETATM   21  C   UNL     2     -11.793  11.628  66.851  1.00  0.00     0.093 C  
ENDBRANCH  11  12
ENDBRANCH   7  11
ENDBRANCH   3   4
TORSDOF 4
ENDMDL
MODEL      245
REMARK 921   NORMALIZED FREE ENERGY PREDICTED BY IDOCK:   -1.49 KCAL/MOL
REMARK 922        TOTAL FREE ENERGY PREDICTED BY IDOCK:   -2.40 KCAL/MOL
REMARK 923 INTER-LIGAND FREE ENERGY PREDICTED BY IDOCK:   -2.93 KCAL/MOL
REMARK 924 INTRA-LIGAND FREE ENERGY PREDICTED BY IDOCK:    0.53 KCAL/MOL
REMARK 927      BINDING AFFINITY PREDICTED BY RF-SCORE:    0.00 PKD
ROOT
HETATM    1 BR   UNL     1     -10.094  20.311  69.119  1.00  0.00     0.121 Br 
HETATM    2  C   UNL     2      -5.149   7.835  69.438  1.00  0.00    -0.015 C  
HETATM    3  C   UNL     2      -5.213   9.291  68.999  1.00  0.00    -0.037 C  
ENDROOT
BRANCH   3   4
HETATM    4  C   UNL     2      -6.629   9.866  69.127  1.00  0.00    -0.052 C  
HETATM    5  C   UNL     2      -7.251  10.330  67.787  1.00  0.00    -0.086 C  
HETATM    6  C   UNL     2      -7.299   9.217  66.717  1.00  0.00    -0.086 C  
HETATM    7  C   UNL     2      -8.616  10.992  68.044  1.00  0.00    -0.134 C  
HETATM    8  O   UNL     2      -8.963  11.444  69.127  1.00  0.00     0.024 OA 
BRANCH   6   9
HETATM    9  C   UNL     2      -8.122   7.993  67.130  1.00  0.00    -0.117 C  
HETATM   10  C   UNL     2      -9.595   8.331  67.291  1.00  0.00    -0.215 C  
ENDBRANCH   6   9
BRANCH   7  11
HETATM   11  O   UNL     2      -9.357  11.101  66.907  1.00  0.00    -0.171 OA 
BRANCH  11  12
HETATM   12  C   UNL     2     -10.201  12.258  66.664  1.00  0.00    -0.216 C  
HETATM   13  C   UNL     2     -11.530  12.313  67.492  1.00  0.00    -0.414 C  
HETATM   14  C   UNL     2     -12.351  13.670  67.203  1.00  0.00    -0.190 C  
HETATM   15  C   UNL     2     -12.659  14.582  65.951  1.00  0.00    -0.157 C  
HETATM   16  C   UNL     2     -11.256  14.987  65.422  1.00  0.00    -0.356 C  
HETATM   17  C   UNL     2     -10.278  14.851  66.618  1.00  0.00    -0.261 C  
HETATM   18  C   UNL     2      -9.409  13.579  66.626  1.00  0.00    -0.254 C  
HETATM   19  N   UNL     2     -11.250  14.777  67.798  1.00  0.00    -0.300 N  
HETATM   20  C   UNL     2     -10.687  14.437  69.183  1.00  0.00    -0.238 C  
HETATM   21  C   UNL     2     -11.828  16.211  68.052  1.00  0.00     0.223 C  
ENDBRANCH  11  12
ENDBRANCH   7  11
ENDBRANCH   3   4
TORSDOF 4
ENDMDL
MODEL      246
REMARK 921   NORMALIZED FREE ENERGY PREDICTED BY IDOCK:   -1.48 KCAL/MOL
REMARK 922        TOTAL FREE ENERGY PREDICTED BY IDOCK:   -2.38 KCAL/MOL
REMARK 923 INTER-LIGAND FREE ENERGY PREDICTED BY IDOCK:   -2.09 KCAL/MOL
REMARK 924 INTRA-LIGAND FREE ENERGY PREDICTED BY IDOCK:   -0.29 KCAL/MOL
REMARK 927      BINDING AFFINITY PREDICTED BY RF-SCORE:    0.00 PKD
ROOT
HETATM    1 BR   UNL     1     -11.860  15.829  68.584  1.00  0.00    -0.160 Br 
HETATM    2  C   UNL     2      -9.510   3.873  74.219  1.00  0.00    -0.123 C  
HETATM    3  C   UNL     2      -9.381   5.382  74.061  1.00  0.00    -0.133 C  
ENDROOT
BRANCH   3   4
HETATM    4  C   UNL     2      -9.651   5.832  72.620  1.00  0.00    -0.165 C  
HETATM    5  C   UNL     2      -8.381   6.241  71.833  1.00  0.00    -0.117 C  
HETATM    6  C   UNL     2      -7.310   5.130  71.778  1.00  0.00    -0.085 C  
HETATM    7  C   UNL     2      -8.774   6.783  70.447  1.00  0.00    -0.151 C  
HETATM    8  O   UNL     2      -9.889   7.202  70.169  1.00  0.00    -0.178 OA 
BRANCH   6   9
HETATM    9  C   UNL     2      -7.789   3.839  71.108  1.00  0.00    -0.059 C  
HETATM   10  C   UNL     2      -6.852   2.675  71.388  1.00  0.00    -0.031 C  
ENDBRANCH   6   9
BRANCH   7  11
HETATM   11  O   UNL     2      -7.715   6.828  69.594  1.00  0.00    -0.105 OA 
BRANCH  11  12
HETATM   12  C   UNL     2      -7.784   6.231  68.272  1.00  0.00    -0.104 C  
HETATM   13  C   UNL     2      -8.200   4.721  68.231  1.00  0.00    -0.088 C  
HETATM   14  C   UNL     2      -8.320   4.181  66.717  1.00  0.00    -0.101 C  
HETATM   15  C   UNL     2      -7.538   4.384  65.360  1.00  0.00    -0.085 C  
HETATM   16  C   UNL     2      -7.595   5.917  65.114  1.00  0.00    -0.088 C  
HETATM   17  C   UNL     2      -8.821   6.444  65.904  1.00  0.00    -0.131 C  
HETATM   18  C   UNL     2      -8.505   7.128  67.248  1.00  0.00    -0.122 C  
HETATM   19  N   UNL     2      -9.579   5.146  66.191  1.00  0.00    -0.157 N  
HETATM   20  C   UNL     2     -10.782   5.200  67.140  1.00  0.00     0.014 C  
HETATM   21  C   UNL     2     -10.264   4.670  64.864  1.00  0.00     0.078 C  
ENDBRANCH  11  12
ENDBRANCH   7  11
ENDBRANCH   3   4
TORSDOF 4
ENDMDL
MODEL      247
REMARK 921   NORMALIZED FREE ENERGY PREDICTED BY IDOCK:   -1.37 KCAL/MOL
REMARK 922        TOTAL FREE ENERGY PREDICTED BY IDOCK:   -2.25 KCAL/MOL
REMARK 923 INTER-LIGAND FREE ENERGY PREDICTED BY IDOCK:   -1.93 KCAL/MOL
REMARK 924 INTRA-LIGAND FREE ENERGY PREDICTED BY IDOCK:   -0.33 KCAL/MOL
REMARK 927      BINDING AFFINITY PREDICTED BY RF-SCORE:    0.00 PKD
ROOT
HETATM    1 BR   UNL     1      -5.650  14.338  74.354  1.00  0.00     0.495 Br 
HETATM    2  C   UNL     2     -12.960  12.245  63.290  1.00  0.00    -0.097 C  
HETATM    3  C   UNL     2     -12.507  11.994  64.722  1.00  0.00    -0.113 C  
ENDROOT
BRANCH   3   4
HETATM    4  C   UNL     2     -11.068  12.471  64.959  1.00  0.00    -0.335 C  
HETATM    5  C   UNL     2     -10.122  11.382  65.524  1.00  0.00    -0.293 C  
HETATM    6  C   UNL     2     -10.050  10.116  64.642  1.00  0.00    -0.210 C  
HETATM    7  C   UNL     2      -8.744  11.993  65.831  1.00  0.00     0.207 C  
HETATM    8  O   UNL     2      -8.549  13.190  65.994  1.00  0.00     0.462 OA 
BRANCH   6   9
HETATM    9  C   UNL     2      -9.545  10.377  63.221  1.00  0.00    -0.353 C  
HETATM   10  C   UNL     2      -8.901   9.140  62.614  1.00  0.00    -0.170 C  
ENDBRANCH   6   9
BRANCH   7  11
HETATM   11  O   UNL     2      -7.784  11.042  65.994  1.00  0.00    -0.139 OA 
BRANCH  11  12
HETATM   12  C   UNL     2      -7.643  10.319  67.245  1.00  0.00    -0.095 C  
HETATM   13  C   UNL     2      -7.551  11.204  68.534  1.00  0.00    -0.120 C  
HETATM   14  C   UNL     2      -7.474  10.303  69.868  1.00  0.00    -0.158 C  
HETATM   15  C   UNL     2      -6.784   8.949  70.301  1.00  0.00    -0.043 C  
HETATM   16  C   UNL     2      -7.329   7.904  69.290  1.00  0.00    -0.082 C  
HETATM   17  C   UNL     2      -8.668   8.470  68.750  1.00  0.00    -0.139 C  
HETATM   18  C   UNL     2      -8.603   9.119  67.354  1.00  0.00    -0.115 C  
HETATM   19  N   UNL     2      -8.971   9.565  69.775  1.00  0.00    -0.183 N  
HETATM   20  C   UNL     2     -10.137  10.520  69.497  1.00  0.00    -0.178 C  
HETATM   21  C   UNL     2      -9.452   8.880  71.101  1.00  0.00    -0.265 C  
ENDBRANCH  11  12
ENDBRANCH   7  11
ENDBRANCH   3   4
TORSDOF 4
ENDMDL
MODEL      248
REMARK 921   NORMALIZED FREE ENERGY PREDICTED BY IDOCK:   -1.27 KCAL/MOL
REMARK 922        TOTAL FREE ENERGY PREDICTED BY IDOCK:   -2.12 KCAL/MOL
REMARK 923 INTER-LIGAND FREE ENERGY PREDICTED BY IDOCK:   -3.67 KCAL/MOL
REMARK 924 INTRA-LIGAND FREE ENERGY PREDICTED BY IDOCK:    1.55 KCAL/MOL
REMARK 927      BINDING AFFINITY PREDICTED BY RF-SCORE:    0.00 PKD
ROOT
HETATM    1 BR   UNL     1      -9.996   6.422  66.602  1.00  0.00    -0.179 Br 
HETATM    2  C   UNL     2     -11.898  17.424  74.056  1.00  0.00     0.263 C  
HETATM    3  C   UNL     2     -12.140  15.986  73.618  1.00  0.00    -0.550 C  
ENDROOT
BRANCH   3   4
HETATM    4  C   UNL     2     -11.753  15.763  72.150  1.00  0.00    -0.573 C  
HETATM    5  C   UNL     2     -11.838  14.287  71.688  1.00  0.00    -0.033 C  
HETATM    6  C   UNL     2     -13.233  13.659  71.898  1.00  0.00    -0.497 C  
HETATM    7  C   UNL     2     -11.320  14.159  70.244  1.00  0.00    -0.034 C  
HETATM    8  O   UNL     2     -10.593  14.981  69.704  1.00  0.00    -0.248 OA 
BRANCH   6   9
HETATM    9  C   UNL     2     -14.357  14.374  71.142  1.00  0.00    -0.053 C  
HETATM   10  C   UNL     2     -14.032  15.840  70.901  1.00  0.00     0.560 C  
ENDBRANCH   6   9
BRANCH   7  11
HETATM   11  O   UNL     2     -11.688  12.981  69.669  1.00  0.00    -0.296 OA 
BRANCH  11  12
HETATM   12  C   UNL     2     -11.109  12.543  68.411  1.00  0.00    -0.258 C  
HETATM   13  C   UNL     2      -9.599  12.901  68.197  1.00  0.00    -0.223 C  
HETATM   14  C   UNL     2      -9.039  12.305  66.808  1.00  0.00    -0.211 C  
HETATM   15  C   UNL     2      -9.584  12.114  65.338  1.00  0.00    -0.112 C  
HETATM   16  C   UNL     2     -10.864  11.253  65.516  1.00  0.00    -0.244 C  
HETATM   17  C   UNL     2     -10.706  10.501  66.863  1.00  0.00    -0.219 C  
HETATM   18  C   UNL     2     -11.486  11.094  68.052  1.00  0.00    -0.366 C  
HETATM   19  N   UNL     2      -9.210  10.674  67.134  1.00  0.00    -0.147 N  
HETATM   20  C   UNL     2      -8.662  10.234  68.496  1.00  0.00    -0.130 C  
HETATM   21  C   UNL     2      -8.421   9.723  66.170  1.00  0.00    -0.124 C  
ENDBRANCH  11  12
ENDBRANCH   7  11
ENDBRANCH   3   4
TORSDOF 4
ENDMDL
MODEL      249
REMARK 921   NORMALIZED FREE ENERGY PREDICTED BY IDOCK:   -0.47 KCAL/MOL
REMARK 922        TOTAL FREE ENERGY PREDICTED BY IDOCK:   -1.14 KCAL/MOL
REMARK 923 INTER-LIGAND FREE ENERGY PREDICTED BY IDOCK:   -1.09 KCAL/MOL
REMARK 924 INTRA-LIGAND FREE ENERGY PREDICTED BY IDOCK:   -0.04 KCAL/MOL
REMARK 927      BINDING AFFINITY PREDICTED BY RF-SCORE:    0.00 PKD
ROOT
HETATM    1 BR   UNL     1      -8.637  10.557  62.345  1.00  0.00    -0.305 Br 
HETATM    2  C   UNL     2     -12.361  16.293  73.896  1.00  0.00    -0.645 C  
HETATM    3  C   UNL     2     -12.469  15.960  72.415  1.00  0.00    -0.558 C  
ENDROOT
BRANCH   3   4
HETATM    4  C   UNL     2     -11.106  15.603  71.808  1.00  0.00    -0.182 C  
HETATM    5  C   UNL     2     -11.117  15.447  70.267  1.00  0.00    -0.331 C  
HETATM    6  C   UNL     2     -11.637  16.700  69.529  1.00  0.00     0.309 C  
HETATM    7  C   UNL     2      -9.736  14.977  69.777  1.00  0.00     0.010 C  
HETATM    8  O   UNL     2      -8.908  14.430  70.493  1.00  0.00     1.663 OA 
BRANCH   6   9
HETATM    9  C   UNL     2     -10.811  17.963  69.791  1.00  0.00     1.188 C  
HETATM   10  C   UNL     2     -10.193  18.508  68.514  1.00  0.00    -0.389 C  
ENDBRANCH   6   9
BRANCH   7  11
HETATM   11  O   UNL     2      -9.577  15.156  68.438  1.00  0.00    -0.202 OA 
BRANCH  11  12
HETATM   12  C   UNL     2      -9.987  14.138  67.487  1.00  0.00    -0.236 C  
HETATM   13  C   UNL     2      -9.226  14.143  66.117  1.00  0.00    -0.088 C  
HETATM   14  C   UNL     2      -9.704  12.930  65.169  1.00  0.00     0.041 C  
HETATM   15  C   UNL     2     -11.066  12.205  64.831  1.00  0.00    -0.367 C  
HETATM   16  C   UNL     2     -11.581  11.703  66.207  1.00  0.00    -0.120 C  
HETATM   17  C   UNL     2     -10.339  11.593  67.130  1.00  0.00    -0.217 C  
HETATM   18  C   UNL     2     -10.148  12.749  68.131  1.00  0.00    -0.239 C  
HETATM   19  N   UNL     2      -9.199  11.645  66.111  1.00  0.00    -0.219 N  
HETATM   20  C   UNL     2      -7.762  11.761  66.632  1.00  0.00    -0.023 C  
HETATM   21  C   UNL     2      -9.138  10.267  65.367  1.00  0.00    -0.185 C  
ENDBRANCH  11  12
ENDBRANCH   7  11
ENDBRANCH   3   4
TORSDOF 4
ENDMDL
MODEL      250
REMARK 921   NORMALIZED FREE ENERGY PREDICTED BY IDOCK:   -0.29 KCAL/MOL
REMARK 922        TOTAL FREE ENERGY PREDICTED BY IDOCK:   -0.91 KCAL/MOL
REMARK 923 INTER-LIGAND FREE ENERGY PREDICTED BY IDOCK:   -0.35 KCAL/MOL
REMARK 924 INTRA-LIGAND FREE ENERGY PREDICTED BY IDOCK:   -0.56 KCAL/MOL
REMARK 927      BINDING AFFINITY PREDICTED BY RF-SCORE:    0.00 PKD
ROOT
HETATM    1 BR   UNL     1     -10.636  18.876  66.385  1.00  0.00    -0.411 Br 
HETATM    2  C   UNL     2     -11.504   6.770  72.121  1.00  0.00    -0.319 C  
HETATM    3  C   UNL     2     -11.244   8.269  72.078  1.00  0.00    -0.389 C  
ENDROOT
BRANCH   3   4
HETATM    4  C   UNL     2     -10.856   8.742  70.672  1.00  0.00    -0.273 C  
HETATM    5  C   UNL     2      -9.445   9.375  70.579  1.00  0.00    -0.327 C  
HETATM    6  C   UNL     2      -8.322   8.439  71.079  1.00  0.00    -0.155 C  
HETATM    7  C   UNL     2      -9.205   9.917  69.159  1.00  0.00    -0.180 C  
HETATM    8  O   UNL     2     -10.100  10.178  68.368  1.00  0.00    -0.155 OA 
BRANCH   6   9
HETATM    9  C   UNL     2      -8.216   7.125  70.300  1.00  0.00    -0.131 C  
HETATM   10  C   UNL     2      -6.794   6.588  70.289  1.00  0.00    -0.058 C  
ENDBRANCH   6   9
BRANCH   7  11
HETATM   11  O   UNL     2      -7.888  10.161  68.919  1.00  0.00    -0.087 OA 
BRANCH  11  12
HETATM   12  C   UNL     2      -7.263  11.405  69.333  1.00  0.00    -0.030 C  
HETATM   13  C   UNL     2      -5.877  11.721  68.676  1.00  0.00    -0.049 C  
HETATM   14  C   UNL     2      -5.310  13.154  69.145  1.00  0.00    -0.070 C  
HETATM   15  C   UNL     2      -5.284  13.998  70.481  1.00  0.00    -0.106 C  
HETATM   16  C   UNL     2      -6.782  14.150  70.863  1.00  0.00     0.544 C  
HETATM   17  C   UNL     2      -7.592  13.969  69.552  1.00  0.00     0.294 C  
HETATM   18  C   UNL     2      -8.248  12.589  69.360  1.00  0.00     0.998 C  
HETATM   19  N   UNL     2      -6.498  14.133  68.495  1.00  0.00    -0.088 N  
HETATM   20  C   UNL     2      -6.848  13.828  67.033  1.00  0.00     0.744 C  
HETATM   21  C   UNL     2      -6.124  15.653  68.403  1.00  0.00    -0.104 C  
ENDBRANCH  11  12
ENDBRANCH   7  11
ENDBRANCH   3   4
TORSDOF 4
ENDMDL
MODEL      251
REMARK 921   NORMALIZED FREE ENERGY PREDICTED BY IDOCK:   -0.10 KCAL/MOL
REMARK 922        TOTAL FREE ENERGY PREDICTED BY IDOCK:   -0.68 KCAL/MOL
REMARK 923 INTER-LIGAND FREE ENERGY PREDICTED BY IDOCK:   -0.01 KCAL/MOL
REMARK 924 INTRA-LIGAND FREE ENERGY PREDICTED BY IDOCK:   -0.67 KCAL/MOL
REMARK 927      BINDING AFFINITY PREDICTED BY RF-SCORE:    0.00 PKD
ROOT
HETATM    1 BR   UNL     1     -10.659  18.713  71.475  1.00  0.00     3.982 Br 
HETATM    2  C   UNL     2     -10.289   5.418  73.299  1.00  0.00    -0.235 C  
HETATM    3  C   UNL     2     -10.620   6.859  73.660  1.00  0.00    -0.371 C  
ENDROOT
BRANCH   3   4
HETATM    4  C   UNL     2      -9.680   7.854  72.967  1.00  0.00    -0.349 C  
HETATM    5  C   UNL     2      -9.956   8.043  71.455  1.00  0.00    -0.221 C  
HETATM    6  C   UNL     2     -11.404   8.484  71.148  1.00  0.00    -0.319 C  
HETATM    7  C   UNL     2      -8.890   8.966  70.838  1.00  0.00    -0.219 C  
HETATM    8  O   UNL     2      -7.796   9.178  71.344  1.00  0.00    -0.310 OA 
BRANCH   6   9
HETATM    9  C   UNL     2     -11.795   9.819  71.789  1.00  0.00    -0.335 C  
HETATM   10  C   UNL     2     -12.308  10.812  70.758  1.00  0.00    -0.480 C  
ENDBRANCH   6   9
BRANCH   7  11
HETATM   11  O   UNL     2      -9.266   9.444  69.621  1.00  0.00    -0.161 OA 
BRANCH  11  12
HETATM   12  C   UNL     2      -8.508   9.136  68.422  1.00  0.00    -0.128 C  
HETATM   13  C   UNL     2      -9.018   7.907  67.594  1.00  0.00    -0.133 C  
HETATM   14  C   UNL     2      -8.156   7.700  66.248  1.00  0.00    -0.112 C  
HETATM   15  C   UNL     2      -6.639   7.824  65.826  1.00  0.00    -0.045 C  
HETATM   16  C   UNL     2      -6.266   9.291  66.173  1.00  0.00    -0.064 C  
HETATM   17  C   UNL     2      -7.595  10.091  66.190  1.00  0.00    -0.109 C  
HETATM   18  C   UNL     2      -8.178  10.386  67.585  1.00  0.00    -0.110 C  
HETATM   19  N   UNL     2      -8.538   9.127  65.467  1.00  0.00    -0.160 N  
HETATM   20  C   UNL     2     -10.035   9.458  65.439  1.00  0.00     0.042 C  
HETATM   21  C   UNL     2      -8.196   9.154  63.938  1.00  0.00    -0.172 C  
ENDBRANCH  11  12
ENDBRANCH   7  11
ENDBRANCH   3   4
TORSDOF 4
ENDMDL
MODEL      252
REMARK 921   NORMALIZED FREE ENERGY PREDICTED BY IDOCK:   -0.05 KCAL/MOL
REMARK 922        TOTAL FREE ENERGY PREDICTED BY IDOCK:   -0.62 KCAL/MOL
REMARK 923 INTER-LIGAND FREE ENERGY PREDICTED BY IDOCK:   -1.38 KCAL/MOL
REMARK 924 INTRA-LIGAND FREE ENERGY PREDICTED BY IDOCK:    0.77 KCAL/MOL
REMARK 927      BINDING AFFINITY PREDICTED BY RF-SCORE:    0.00 PKD
ROOT
HETATM    1 BR   UNL     1     -13.335  11.801  72.457  1.00  0.00     0.933 Br 
HETATM    2  C   UNL     2      -8.354   1.903  64.878  1.00  0.00    -0.082 C  
HETATM    3  C   UNL     2      -8.680   2.625  66.178  1.00  0.00    -0.128 C  
ENDROOT
BRANCH   3   4
HETATM    4  C   UNL     2      -8.826   4.138  65.971  1.00  0.00    -0.121 C  
HETATM    5  C   UNL     2      -9.117   4.932  67.269  1.00  0.00    -0.122 C  
HETATM    6  C   UNL     2      -8.056   4.716  68.369  1.00  0.00    -0.083 C  
HETATM    7  C   UNL     2      -9.359   6.415  66.933  1.00  0.00    -0.134 C  
HETATM    8  O   UNL     2      -9.675   6.821  65.823  1.00  0.00     0.226 OA 
BRANCH   6   9
HETATM    9  C   UNL     2      -6.642   5.137  67.959  1.00  0.00    -0.050 C  
HETATM   10  C   UNL     2      -5.594   4.151  68.450  1.00  0.00    -0.013 C  
ENDBRANCH   6   9
BRANCH   7  11
HETATM   11  O   UNL     2      -9.273   7.211  68.033  1.00  0.00    -0.132 OA 
BRANCH  11  12
HETATM   12  C   UNL     2     -10.144   7.013  69.178  1.00  0.00    -0.180 C  
HETATM   13  C   UNL     2      -9.689   5.908  70.193  1.00  0.00    -0.211 C  
HETATM   14  C   UNL     2     -10.681   5.823  71.460  1.00  0.00    -0.258 C  
HETATM   15  C   UNL     2     -12.237   5.935  71.710  1.00  0.00     0.219 C  
HETATM   16  C   UNL     2     -12.611   7.337  71.157  1.00  0.00    -0.362 C  
HETATM   17  C   UNL     2     -11.311   8.181  71.179  1.00  0.00    -0.269 C  
HETATM   18  C   UNL     2     -10.593   8.336  69.825  1.00  0.00    -0.228 C  
HETATM   19  N   UNL     2     -10.421   7.344  72.102  1.00  0.00    -0.204 N  
HETATM   20  C   UNL     2      -8.945   7.735  72.240  1.00  0.00    -0.145 C  
HETATM   21  C   UNL     2     -10.922   7.533  73.575  1.00  0.00    -0.039 C  
ENDBRANCH  11  12
ENDBRANCH   7  11
ENDBRANCH   3   4
TORSDOF 4
ENDMDL
MODEL      253
REMARK 921   NORMALIZED FREE ENERGY PREDICTED BY IDOCK:    0.08 KCAL/MOL
REMARK 922        TOTAL FREE ENERGY PREDICTED BY IDOCK:   -0.46 KCAL/MOL
REMARK 923 INTER-LIGAND FREE ENERGY PREDICTED BY IDOCK:   -3.23 KCAL/MOL
REMARK 924 INTRA-LIGAND FREE ENERGY PREDICTED BY IDOCK:    2.77 KCAL/MOL
REMARK 927      BINDING AFFINITY PREDICTED BY RF-SCORE:    0.00 PKD
ROOT
HETATM    1 BR   UNL     1      -5.125  10.676  63.463  1.00  0.00    -0.162 Br 
HETATM    2  C   UNL     2     -10.919   4.527  73.896  1.00  0.00    -0.326 C  
HETATM    3  C   UNL     2     -10.877   5.394  72.646  1.00  0.00    -0.307 C  
ENDROOT
BRANCH   3   4
HETATM    4  C   UNL     2      -9.491   6.013  72.425  1.00  0.00    -0.153 C  
HETATM    5  C   UNL     2      -9.009   5.987  70.953  1.00  0.00    -0.146 C  
HETATM    6  C   UNL     2      -9.985   6.681  69.978  1.00  0.00    -0.189 C  
HETATM    7  C   UNL     2      -7.569   6.523  70.863  1.00  0.00    -0.089 C  
HETATM    8  O   UNL     2      -6.798   6.570  71.811  1.00  0.00    -0.062 OA 
BRANCH   6   9
HETATM    9  C   UNL     2     -10.225   8.161  70.288  1.00  0.00    -0.200 C  
HETATM   10  C   UNL     2     -11.696   8.456  70.536  1.00  0.00    -0.076 C  
ENDBRANCH   6   9
BRANCH   7  11
HETATM   11  O   UNL     2      -7.221   6.850  69.588  1.00  0.00    -0.076 OA 
BRANCH  11  12
HETATM   12  C   UNL     2      -8.143   7.548  68.710  1.00  0.00    -0.128 C  
HETATM   13  C   UNL     2      -7.958   9.102  68.629  1.00  0.00    -0.101 C  
HETATM   14  C   UNL     2      -8.978   9.766  67.573  1.00  0.00    -0.131 C  
HETATM   15  C   UNL     2     -10.482   9.552  67.138  1.00  0.00    -0.322 C  
HETATM   16  C   UNL     2     -10.537   8.067  66.683  1.00  0.00    -0.074 C  
HETATM   17  C   UNL     2      -9.088   7.670  66.297  1.00  0.00    -0.162 C  
HETATM   18  C   UNL     2      -8.320   6.848  67.350  1.00  0.00    -0.122 C  
HETATM   19  N   UNL     2      -8.420   9.041  66.175  1.00  0.00    -0.123 N  
HETATM   20  C   UNL     2      -6.899   9.095  65.991  1.00  0.00    -0.084 C  
HETATM   21  C   UNL     2      -8.907   9.711  64.845  1.00  0.00    -0.199 C  
ENDBRANCH  11  12
ENDBRANCH   7  11
ENDBRANCH   3   4
TORSDOF 4
ENDMDL
MODEL      254
REMARK 921   NORMALIZED FREE ENERGY PREDICTED BY IDOCK:    0.80 KCAL/MOL
REMARK 922        TOTAL FREE ENERGY PREDICTED BY IDOCK:    0.42 KCAL/MOL
REMARK 923 INTER-LIGAND FREE ENERGY PREDICTED BY IDOCK:   -2.22 KCAL/MOL
REMARK 924 INTRA-LIGAND FREE ENERGY PREDICTED BY IDOCK:    2.64 KCAL/MOL
REMARK 927      BINDING AFFINITY PREDICTED BY RF-SCORE:    0.00 PKD
ROOT
HETATM    1 BR   UNL     1      -7.621   5.592  65.485  1.00  0.00    -0.086 Br 
HETATM    2  C   UNL     2      -5.279  18.183  69.511  1.00  0.00    -0.186 C  
HETATM    3  C   UNL     2      -5.153  16.666  69.555  1.00  0.00    -0.133 C  
ENDROOT
BRANCH   3   4
HETATM    4  C   UNL     2      -6.363  15.973  68.916  1.00  0.00    -0.129 C  
HETATM    5  C   UNL     2      -6.003  14.754  68.030  1.00  0.00    -0.158 C  
HETATM    6  C   UNL     2      -5.193  13.673  68.778  1.00  0.00    -0.074 C  
HETATM    7  C   UNL     2      -7.271  14.208  67.350  1.00  0.00    -0.101 C  
HETATM    8  O   UNL     2      -8.298  14.855  67.200  1.00  0.00    -0.195 OA 
BRANCH   6   9
HETATM    9  C   UNL     2      -5.918  13.079  69.989  1.00  0.00    -0.140 C  
HETATM   10  C   UNL     2      -6.082  14.099  71.105  1.00  0.00    -0.094 C  
ENDBRANCH   6   9
BRANCH   7  11
HETATM   11  O   UNL     2      -7.087  12.955  66.851  1.00  0.00     0.084 OA 
BRANCH  11  12
HETATM   12  C   UNL     2      -7.371  11.776  67.649  1.00  0.00    -0.119 C  
HETATM   13  C   UNL     2      -8.725  11.053  67.336  1.00  0.00    -0.132 C  
HETATM   14  C   UNL     2      -8.904   9.719  68.222  1.00  0.00    -0.119 C  
HETATM   15  C   UNL     2      -8.582   9.272  69.703  1.00  0.00    -0.151 C  
HETATM   16  C   UNL     2      -7.052   9.498  69.844  1.00  0.00    -0.084 C  
HETATM   17  C   UNL     2      -6.468   9.465  68.408  1.00  0.00    -0.053 C  
HETATM   18  C   UNL     2      -6.155  10.839  67.784  1.00  0.00    -0.047 C  
HETATM   19  N   UNL     2      -7.619   8.831  67.625  1.00  0.00    -0.096 N  
HETATM   20  C   UNL     2      -7.526   8.793  66.096  1.00  0.00    -0.090 C  
HETATM   21  C   UNL     2      -7.662   7.301  67.962  1.00  0.00    -0.117 C  
ENDBRANCH  11  12
ENDBRANCH   7  11
ENDBRANCH   3   4
TORSDOF 4
ENDMDL
MODEL      255
REMARK 921   NORMALIZED FREE ENERGY PREDICTED BY IDOCK:    0.98 KCAL/MOL
REMARK 922        TOTAL FREE ENERGY PREDICTED BY IDOCK:    0.65 KCAL/MOL
REMARK 923 INTER-LIGAND FREE ENERGY PREDICTED BY IDOCK:    1.35 KCAL/MOL
REMARK 924 INTRA-LIGAND FREE ENERGY PREDICTED BY IDOCK:   -0.70 KCAL/MOL
REMARK 927      BINDING AFFINITY PREDICTED BY RF-SCORE:    0.00 PKD
ROOT
HETATM    1 BR   UNL     1      -5.736   1.988  73.492  1.00  0.00     0.000 Br 
HETATM    2  C   UNL     2      -9.905   9.021  62.844  1.00  0.00     2.402 C  
HETATM    3  C   UNL     2      -8.903   8.249  63.691  1.00  0.00     0.527 C  
ENDROOT
BRANCH   3   4
HETATM    4  C   UNL     2      -9.272   8.274  65.180  1.00  0.00     0.299 C  
HETATM    5  C   UNL     2      -9.251   6.885  65.864  1.00  0.00     0.004 C  
HETATM    6  C   UNL     2      -7.894   6.160  65.736  1.00  0.00    -0.105 C  
HETATM    7  C   UNL     2      -9.746   7.008  67.316  1.00  0.00    -0.149 C  
HETATM    8  O   UNL     2     -10.420   7.941  67.731  1.00  0.00    -0.220 OA 
BRANCH   6   9
HETATM    9  C   UNL     2      -6.721   6.922  66.359  1.00  0.00    -0.052 C  
HETATM   10  C   UNL     2      -5.754   5.989  67.070  1.00  0.00    -0.017 C  
ENDBRANCH   6   9
BRANCH   7  11
HETATM   11  O   UNL     2      -9.427   5.916  68.063  1.00  0.00    -0.108 OA 
BRANCH  11  12
HETATM   12  C   UNL     2      -8.943   6.048  69.425  1.00  0.00    -0.126 C  
HETATM   13  C   UNL     2     -10.038   6.332  70.509  1.00  0.00    -0.230 C  
HETATM   14  C   UNL     2      -9.405   6.384  71.991  1.00  0.00    -0.151 C  
HETATM   15  C   UNL     2      -8.080   6.929  72.655  1.00  0.00    -0.109 C  
HETATM   16  C   UNL     2      -6.943   6.195  71.892  1.00  0.00    -0.077 C  
HETATM   17  C   UNL     2      -7.570   4.903  71.305  1.00  0.00    -0.082 C  
HETATM   18  C   UNL     2      -7.925   4.957  69.807  1.00  0.00    -0.070 C  
HETATM   19  N   UNL     2      -8.870   4.805  72.105  1.00  0.00    -0.123 N  
HETATM   20  C   UNL     2      -9.902   3.750  71.691  1.00  0.00    -0.170 C  
HETATM   21  C   UNL     2      -8.521   4.331  73.558  1.00  0.00    -0.093 C  
ENDBRANCH  11  12
ENDBRANCH   7  11
ENDBRANCH   3   4
TORSDOF 4
ENDMDL
MODEL      256
REMARK 921   NORMALIZED FREE ENERGY PREDICTED BY IDOCK:    1.79 KCAL/MOL
REMARK 922        TOTAL FREE ENERGY PREDICTED BY IDOCK:    1.65 KCAL/MOL
REMARK 923 INTER-LIGAND FREE ENERGY PREDICTED BY IDOCK:    1.26 KCAL/MOL
REMARK 924 INTRA-LIGAND FREE ENERGY PREDICTED BY IDOCK:    0.39 KCAL/MOL
REMARK 927      BINDING AFFINITY PREDICTED BY RF-SCORE:    0.00 PKD
ROOT
HETATM    1 BR   UNL     1      -8.739  16.354  70.394  1.00  0.00     2.795 Br 
HETATM    2  C   UNL     2      -8.512   4.617  63.882  1.00  0.00    -0.126 C  
HETATM    3  C   UNL     2      -9.116   5.936  64.344  1.00  0.00     0.583 C  
ENDROOT
BRANCH   3   4
HETATM    4  C   UNL     2      -8.487   6.425  65.655  1.00  0.00    -0.147 C  
HETATM    5  C   UNL     2      -9.095   5.786  66.929  1.00  0.00    -0.118 C  
HETATM    6  C   UNL     2      -9.027   4.243  66.931  1.00  0.00    -0.128 C  
HETATM    7  C   UNL     2      -8.476   6.428  68.183  1.00  0.00    -0.115 C  
HETATM    8  O   UNL     2      -7.921   7.518  68.189  1.00  0.00    -0.119 OA 
BRANCH   6   9
HETATM    9  C   UNL     2      -7.604   3.683  66.851  1.00  0.00    -0.080 C  
HETATM   10  C   UNL     2      -7.290   2.768  68.023  1.00  0.00    -0.052 C  
ENDBRANCH   6   9
BRANCH   7  11
HETATM   11  O   UNL     2      -8.700   5.688  69.303  1.00  0.00    -0.108 OA 
BRANCH  11  12
HETATM   12  C   UNL     2      -8.429   6.220  70.626  1.00  0.00    -0.134 C  
HETATM   13  C   UNL     2      -9.064   5.429  71.820  1.00  0.00    -0.152 C  
HETATM   14  C   UNL     2      -8.640   6.058  73.242  1.00  0.00    -0.117 C  
HETATM   15  C   UNL     2      -8.417   7.505  73.836  1.00  0.00    -0.250 C  
HETATM   16  C   UNL     2      -7.330   8.129  72.919  1.00  0.00    -0.154 C  
HETATM   17  C   UNL     2      -6.562   6.945  72.276  1.00  0.00    -0.057 C  
HETATM   18  C   UNL     2      -6.952   6.609  70.824  1.00  0.00    -0.067 C  
HETATM   19  N   UNL     2      -6.993   5.782  73.171  1.00  0.00    -0.083 N  
HETATM   20  C   UNL     2      -6.602   4.359  72.755  1.00  0.00    -0.045 C  
HETATM   21  C   UNL     2      -6.244   5.910  74.542  1.00  0.00    -0.069 C  
ENDBRANCH  11  12
ENDBRANCH   7  11
ENDBRANCH   3   4
TORSDOF 4
ENDMDL
MODEL      257
REMARK 921   NORMALIZED FREE ENERGY PREDICTED BY IDOCK:    1.85 KCAL/MOL
REMARK 922        TOTAL FREE ENERGY PREDICTED BY IDOCK:    1.73 KCAL/MOL
REMARK 923 INTER-LIGAND FREE ENERGY PREDICTED BY IDOCK:   -0.32 KCAL/MOL
REMARK 924 INTRA-LIGAND FREE ENERGY PREDICTED BY IDOCK:    2.05 KCAL/MOL
REMARK 927      BINDING AFFINITY PREDICTED BY RF-SCORE:    0.00 PKD
ROOT
HETATM    1 BR   UNL     1     -10.209   6.148  66.597  1.00  0.00    -0.216 Br 
HETATM    2  C   UNL     2     -11.712  17.021  74.327  1.00  0.00     0.216 C  
HETATM    3  C   UNL     2     -12.092  15.662  73.755  1.00  0.00    -0.608 C  
ENDROOT
BRANCH   3   4
HETATM    4  C   UNL     2     -11.476  15.433  72.369  1.00  0.00    -0.475 C  
HETATM    5  C   UNL     2     -11.914  14.111  71.689  1.00  0.00    -0.066 C  
HETATM    6  C   UNL     2     -13.445  13.977  71.542  1.00  0.00    -0.404 C  
HETATM    7  C   UNL     2     -11.153  13.926  70.364  1.00  0.00     0.431 C  
HETATM    8  O   UNL     2     -10.103  14.493  70.095  1.00  0.00     0.329 OA 
BRANCH   6   9
HETATM    9  C   UNL     2     -14.088  15.084  70.702  1.00  0.00     0.243 C  
HETATM   10  C   UNL     2     -13.063  15.814  69.848  1.00  0.00     0.648 C  
ENDBRANCH   6   9
BRANCH   7  11
HETATM   11  O   UNL     2     -11.732  12.988  69.566  1.00  0.00    -0.297 OA 
BRANCH  11  12
HETATM   12  C   UNL     2     -10.993  11.825  69.110  1.00  0.00    -0.209 C  
HETATM   13  C   UNL     2     -10.032  11.176  70.163  1.00  0.00     1.234 C  
HETATM   14  C   UNL     2      -9.321   9.852  69.580  1.00  0.00    -0.228 C  
HETATM   15  C   UNL     2      -8.718   9.386  68.196  1.00  0.00    -0.124 C  
HETATM   16  C   UNL     2      -9.901   9.530  67.200  1.00  0.00    -0.239 C  
HETATM   17  C   UNL     2     -11.200   9.468  68.045  1.00  0.00     0.148 C  
HETATM   18  C   UNL     2     -11.871  10.824  68.335  1.00  0.00    -0.126 C  
HETATM   19  N   UNL     2     -10.676   8.898  69.365  1.00  0.00    -0.214 N  
HETATM   20  C   UNL     2     -11.626   8.857  70.567  1.00  0.00    -0.160 C  
HETATM   21  C   UNL     2     -10.383   7.372  69.161  1.00  0.00    -0.208 C  
ENDBRANCH  11  12
ENDBRANCH   7  11
ENDBRANCH   3   4
TORSDOF 4
ENDMDL
MODEL      258
REMARK 921   NORMALIZED FREE ENERGY PREDICTED BY IDOCK:    1.93 KCAL/MOL
REMARK 922        TOTAL FREE ENERGY PREDICTED BY IDOCK:    1.82 KCAL/MOL
REMARK 923 INTER-LIGAND FREE ENERGY PREDICTED BY IDOCK:    2.45 KCAL/MOL
REMARK 924 INTRA-LIGAND FREE ENERGY PREDICTED BY IDOCK:   -0.63 KCAL/MOL
REMARK 927      BINDING AFFINITY PREDICTED BY RF-SCORE:    0.00 PKD
ROOT
HETATM    1 BR   UNL     1      -9.768  19.739  70.356  1.00  0.00     1.333 Br 
HETATM    2  C   UNL     2      -6.546   6.707  70.233  1.00  0.00    -0.045 C  
HETATM    3  C   UNL     2      -6.652   8.104  70.828  1.00  0.00    -0.037 C  
ENDROOT
BRANCH   3   4
HETATM    4  C   UNL     2      -6.704   9.186  69.742  1.00  0.00    -0.050 C  
HETATM    5  C   UNL     2      -7.913   9.065  68.780  1.00  0.00    -0.101 C  
HETATM    6  C   UNL     2      -9.276   9.073  69.506  1.00  0.00    -0.152 C  
HETATM    7  C   UNL     2      -7.806  10.123  67.667  1.00  0.00    -0.098 C  
HETATM    8  O   UNL     2      -6.763  10.680  67.354  1.00  0.00    -0.072 OA 
BRANCH   6   9
HETATM    9  C   UNL     2      -9.542  10.346  70.314  1.00  0.00     0.430 C  
HETATM   10  C   UNL     2     -10.561  10.113  71.418  1.00  0.00     0.805 C  
ENDBRANCH   6   9
BRANCH   7  11
HETATM   11  O   UNL     2      -8.984  10.298  67.010  1.00  0.00    -0.136 OA 
BRANCH  11  12
HETATM   12  C   UNL     2      -9.488  11.625  66.705  1.00  0.00    -0.201 C  
HETATM   13  C   UNL     2      -9.519  12.632  67.905  1.00  0.00    -0.204 C  
HETATM   14  C   UNL     2     -10.022  14.091  67.441  1.00  0.00    -0.243 C  
HETATM   15  C   UNL     2     -11.103  14.672  66.446  1.00  0.00    -0.334 C  
HETATM   16  C   UNL     2     -10.721  14.058  65.071  1.00  0.00    -0.409 C  
HETATM   17  C   UNL     2      -9.217  13.688  65.155  1.00  0.00     1.040 C  
HETATM   18  C   UNL     2      -8.910  12.198  65.397  1.00  0.00     0.537 C  
HETATM   19  N   UNL     2      -8.779  14.477  66.392  1.00  0.00    -0.047 N  
HETATM   20  C   UNL     2      -7.373  14.232  66.950  1.00  0.00     0.665 C  
HETATM   21  C   UNL     2      -8.690  15.993  66.004  1.00  0.00    -0.232 C  
ENDBRANCH  11  12
ENDBRANCH   7  11
ENDBRANCH   3   4
TORSDOF 4
ENDMDL
MODEL      259
REMARK 921   NORMALIZED FREE ENERGY PREDICTED BY IDOCK:    2.52 KCAL/MOL
REMARK 922        TOTAL FREE ENERGY PREDICTED BY IDOCK:    2.55 KCAL/MOL
REMARK 923 INTER-LIGAND FREE ENERGY PREDICTED BY IDOCK:   -1.26 KCAL/MOL
REMARK 924 INTRA-LIGAND FREE ENERGY PREDICTED BY IDOCK:    3.81 KCAL/MOL
REMARK 927      BINDING AFFINITY PREDICTED BY RF-SCORE:    0.00 PKD
ROOT
HETATM    1 BR   UNL     1     -13.348  11.802  72.549  1.00  0.00     0.933 Br 
HETATM    2  C   UNL     2      -8.506   1.548  65.363  1.00  0.00    -0.096 C  
HETATM    3  C   UNL     2      -8.817   2.327  66.633  1.00  0.00    -0.138 C  
ENDROOT
BRANCH   3   4
HETATM    4  C   UNL     2      -8.952   3.831  66.363  1.00  0.00    -0.139 C  
HETATM    5  C   UNL     2      -9.904   4.570  67.337  1.00  0.00    -0.204 C  
HETATM    6  C   UNL     2      -9.514   4.399  68.821  1.00  0.00    -0.227 C  
HETATM    7  C   UNL     2     -10.055   6.040  66.908  1.00  0.00    -0.185 C  
HETATM    8  O   UNL     2      -9.808   6.452  65.783  1.00  0.00     0.221 OA 
BRANCH   6   9
HETATM    9  C   UNL     2      -8.117   4.927  69.161  1.00  0.00    -0.079 C  
HETATM   10  C   UNL     2      -7.383   4.005  70.121  1.00  0.00    -0.045 C  
ENDBRANCH   6   9
BRANCH   7  11
HETATM   11  O   UNL     2     -10.583   6.812  67.897  1.00  0.00    -0.196 OA 
BRANCH  11  12
HETATM   12  C   UNL     2      -9.760   7.318  68.980  1.00  0.00    -0.152 C  
HETATM   13  C   UNL     2      -9.894   8.851  69.275  1.00  0.00    -0.176 C  
HETATM   14  C   UNL     2      -8.998   9.292  70.540  1.00  0.00    -0.250 C  
HETATM   15  C   UNL     2      -7.575   8.928  71.122  1.00  0.00    -0.143 C  
HETATM   16  C   UNL     2      -7.637   7.393  71.346  1.00  0.00    -0.082 C  
HETATM   17  C   UNL     2      -9.138   7.028  71.482  1.00  0.00    -0.139 C  
HETATM   18  C   UNL     2      -9.791   6.416  70.228  1.00  0.00    -0.192 C  
HETATM   19  N   UNL     2      -9.764   8.402  71.729  1.00  0.00    -0.211 N  
HETATM   20  C   UNL     2     -11.292   8.516  71.728  1.00  0.00    -0.307 C  
HETATM   21  C   UNL     2      -9.431   8.839  73.197  1.00  0.00     0.550 C  
ENDBRANCH  11  12
ENDBRANCH   7  11
ENDBRANCH   3   4
TORSDOF 4
ENDMDL
MODEL      260
REMARK 921   NORMALIZED FREE ENERGY PREDICTED BY IDOCK:    2.86 KCAL/MOL
REMARK 922        TOTAL FREE ENERGY PREDICTED BY IDOCK:    2.97 KCAL/MOL
REMARK 923 INTER-LIGAND FREE ENERGY PREDICTED BY IDOCK:    3.53 KCAL/MOL
REMARK 924 INTRA-LIGAND FREE ENERGY PREDICTED BY IDOCK:   -0.56 KCAL/MOL
REMARK 927      BINDING AFFINITY PREDICTED BY RF-SCORE:    0.00 PKD
ROOT
HETATM    1 BR   UNL     1     -13.118  14.771  62.847  1.00  0.00     4.487 Br 
HETATM    2  C   UNL     2      -5.388  21.133  71.790  1.00  0.00     0.237 C  
HETATM    3  C   UNL     2      -6.165  20.977  70.491  1.00  0.00     1.222 C  
ENDROOT
BRANCH   3   4
HETATM    4  C   UNL     2      -6.313  19.505  70.086  1.00  0.00    -0.224 C  
HETATM    5  C   UNL     2      -7.704  19.141  69.507  1.00  0.00     0.087 C  
HETATM    6  C   UNL     2      -8.103  19.999  68.287  1.00  0.00    -0.194 C  
HETATM    7  C   UNL     2      -7.782  17.627  69.244  1.00  0.00     0.095 C  
HETATM    8  O   UNL     2      -7.048  16.803  69.772  1.00  0.00    -0.021 OA 
BRANCH   6   9
HETATM    9  C   UNL     2      -7.140  19.879  67.102  1.00  0.00    -0.255 C  
HETATM   10  C   UNL     2      -7.882  19.689  65.789  1.00  0.00    -0.197 C  
ENDBRANCH   6   9
BRANCH   7  11
HETATM   11  O   UNL     2      -8.821  17.301  68.428  1.00  0.00    -0.253 OA 
BRANCH  11  12
HETATM   12  C   UNL     2      -9.132  15.916  68.119  1.00  0.00    -0.182 C  
HETATM   13  C   UNL     2      -9.851  15.112  69.254  1.00  0.00    -0.231 C  
HETATM   14  C   UNL     2     -10.217  13.615  68.781  1.00  0.00    -0.149 C  
HETATM   15  C   UNL     2      -9.536  12.489  67.907  1.00  0.00    -0.196 C  
HETATM   16  C   UNL     2      -9.299  13.167  66.530  1.00  0.00    -0.222 C  
HETATM   17  C   UNL     2     -10.314  14.336  66.435  1.00  0.00    -0.286 C  
HETATM   18  C   UNL     2      -9.743  15.739  66.716  1.00  0.00    -0.251 C  
HETATM   19  N   UNL     2     -11.293  13.981  67.556  1.00  0.00    -0.305 N  
HETATM   20  C   UNL     2     -12.368  15.007  67.936  1.00  0.00     0.381 C  
HETATM   21  C   UNL     2     -12.179  12.780  67.076  1.00  0.00    -0.013 C  
ENDBRANCH  11  12
ENDBRANCH   7  11
ENDBRANCH   3   4
TORSDOF 4
ENDMDL
MODEL      261
REMARK 921   NORMALIZED FREE ENERGY PREDICTED BY IDOCK:    2.91 KCAL/MOL
REMARK 922        TOTAL FREE ENERGY PREDICTED BY IDOCK:    3.03 KCAL/MOL
REMARK 923 INTER-LIGAND FREE ENERGY PREDICTED BY IDOCK:   -2.06 KCAL/MOL
REMARK 924 INTRA-LIGAND FREE ENERGY PREDICTED BY IDOCK:    5.10 KCAL/MOL
REMARK 927      BINDING AFFINITY PREDICTED BY RF-SCORE:    0.00 PKD
ROOT
HETATM    1 BR   UNL     1     -12.211  15.349  74.161  1.00  0.00    -0.692 Br 
HETATM    2  C   UNL     2      -5.918   8.507  64.475  1.00  0.00    -0.065 C  
HETATM    3  C   UNL     2      -6.571   9.726  65.113  1.00  0.00    -0.100 C  
ENDROOT
BRANCH   3   4
HETATM    4  C   UNL     2      -7.591   9.331  66.189  1.00  0.00    -0.096 C  
HETATM    5  C   UNL     2      -8.586   8.228  65.749  1.00  0.00    -0.182 C  
HETATM    6  C   UNL     2      -7.892   6.933  65.272  1.00  0.00    -0.118 C  
HETATM    7  C   UNL     2      -9.630   7.992  66.854  1.00  0.00    -0.204 C  
HETATM    8  O   UNL     2      -9.885   8.801  67.736  1.00  0.00    -0.159 OA 
BRANCH   6   9
HETATM    9  C   UNL     2      -7.015   6.269  66.337  1.00  0.00    -0.067 C  
HETATM   10  C   UNL     2      -5.653   6.937  66.445  1.00  0.00    -0.022 C  
ENDBRANCH   6   9
BRANCH   7  11
HETATM   11  O   UNL     2     -10.303   6.821  66.684  1.00  0.00    -0.211 OA 
BRANCH  11  12
HETATM   12  C   UNL     2     -10.107   5.701  67.586  1.00  0.00    -0.172 C  
HETATM   13  C   UNL     2      -9.821   4.320  66.903  1.00  0.00    -0.224 C  
HETATM   14  C   UNL     2      -9.545   3.165  67.992  1.00  0.00    -0.075 C  
HETATM   15  C   UNL     2     -10.116   2.762  69.408  1.00  0.00     0.917 C  
HETATM   16  C   UNL     2      -9.893   4.027  70.281  1.00  0.00    -0.205 C  
HETATM   17  C   UNL     2      -8.744   4.827  69.614  1.00  0.00    -0.085 C  
HETATM   18  C   UNL     2      -9.180   6.039  68.769  1.00  0.00    -0.123 C  
HETATM   19  N   UNL     2      -8.148   3.776  68.676  1.00  0.00    -0.073 N  
HETATM   20  C   UNL     2      -7.084   4.222  67.666  1.00  0.00    -0.064 C  
HETATM   21  C   UNL     2      -7.333   2.751  69.537  1.00  0.00    -0.044 C  
ENDBRANCH  11  12
ENDBRANCH   7  11
ENDBRANCH   3   4
TORSDOF 4
ENDMDL
MODEL      262
REMARK 921   NORMALIZED FREE ENERGY PREDICTED BY IDOCK:    3.06 KCAL/MOL
REMARK 922        TOTAL FREE ENERGY PREDICTED BY IDOCK:    3.22 KCAL/MOL
REMARK 923 INTER-LIGAND FREE ENERGY PREDICTED BY IDOCK:    3.49 KCAL/MOL
REMARK 924 INTRA-LIGAND FREE ENERGY PREDICTED BY IDOCK:   -0.28 KCAL/MOL
REMARK 927      BINDING AFFINITY PREDICTED BY RF-SCORE:    0.00 PKD
ROOT
HETATM    1 BR   UNL     1     -13.750  20.255  67.361  1.00  0.00     7.092 Br 
HETATM    2  C   UNL     2      -6.470   8.988  66.847  1.00  0.00    -0.064 C  
HETATM    3  C   UNL     2      -7.116  10.249  66.290  1.00  0.00    -0.117 C  
ENDROOT
BRANCH   3   4
HETATM    4  C   UNL     2      -8.340  10.675  67.111  1.00  0.00    -0.125 C  
HETATM    5  C   UNL     2      -8.919  12.057  66.719  1.00  0.00    -0.198 C  
HETATM    6  C   UNL     2      -9.305  12.158  65.227  1.00  0.00     0.110 C  
HETATM    7  C   UNL     2     -10.063  12.437  67.675  1.00  0.00    -0.198 C  
HETATM    8  O   UNL     2     -10.218  11.944  68.784  1.00  0.00    -0.207 OA 
BRANCH   6   9
HETATM    9  C   UNL     2     -10.370  11.148  64.791  1.00  0.00    -0.387 C  
HETATM   10  C   UNL     2      -9.997  10.460  63.488  1.00  0.00    -0.169 C  
ENDBRANCH   6   9
BRANCH   7  11
HETATM   11  O   UNL     2     -10.829  13.450  67.184  1.00  0.00    -0.271 OA 
BRANCH  11  12
HETATM   12  C   UNL     2     -10.289  14.786  67.008  1.00  0.00    -0.255 C  
HETATM   13  C   UNL     2     -11.327  15.956  67.108  1.00  0.00     0.036 C  
HETATM   14  C   UNL     2     -10.613  17.395  66.975  1.00  0.00    -0.238 C  
HETATM   15  C   UNL     2      -9.437  18.019  66.126  1.00  0.00    -0.161 C  
HETATM   16  C   UNL     2      -8.210  17.129  66.465  1.00  0.00    -0.308 C  
HETATM   17  C   UNL     2      -8.506  16.476  67.841  1.00  0.00    -0.181 C  
HETATM   18  C   UNL     2      -8.984  15.012  67.794  1.00  0.00    -0.179 C  
HETATM   19  N   UNL     2      -9.660  17.344  68.347  1.00  0.00    -0.281 N  
HETATM   20  C   UNL     2     -10.395  16.908  69.620  1.00  0.00    -0.111 C  
HETATM   21  C   UNL     2      -9.077  18.728  68.795  1.00  0.00    -0.293 C  
ENDBRANCH  11  12
ENDBRANCH   7  11
ENDBRANCH   3   4
TORSDOF 4
ENDMDL
MODEL      263
REMARK 921   NORMALIZED FREE ENERGY PREDICTED BY IDOCK:    3.23 KCAL/MOL
REMARK 922        TOTAL FREE ENERGY PREDICTED BY IDOCK:    3.43 KCAL/MOL
REMARK 923 INTER-LIGAND FREE ENERGY PREDICTED BY IDOCK:    4.01 KCAL/MOL
REMARK 924 INTRA-LIGAND FREE ENERGY PREDICTED BY IDOCK:   -0.59 KCAL/MOL
REMARK 927      BINDING AFFINITY PREDICTED BY RF-SCORE:    0.00 PKD
ROOT
HETATM    1 BR   UNL     1      -6.944  14.772  74.543  1.00  0.00     4.953 Br 
HETATM    2  C   UNL     2     -13.348  12.238  63.020  1.00  0.00     0.995 C  
HETATM    3  C   UNL     2     -13.005  12.038  64.489  1.00  0.00     0.181 C  
ENDROOT
BRANCH   3   4
HETATM    4  C   UNL     2     -11.595  12.540  64.821  1.00  0.00    -0.387 C  
HETATM    5  C   UNL     2     -10.648  11.452  65.387  1.00  0.00    -0.333 C  
HETATM    6  C   UNL     2     -10.496  10.230  64.455  1.00  0.00     0.210 C  
HETATM    7  C   UNL     2      -9.305  12.084  65.792  1.00  0.00    -0.125 C  
HETATM    8  O   UNL     2      -9.152  13.277  66.017  1.00  0.00     0.014 OA 
BRANCH   6   9
HETATM    9  C   UNL     2      -9.927  10.568  63.074  1.00  0.00    -0.160 C  
HETATM   10  C   UNL     2      -8.683   9.751  62.761  1.00  0.00    -0.227 C  
ENDBRANCH   6   9
BRANCH   7  11
HETATM   11  O   UNL     2      -8.329  11.151  65.962  1.00  0.00    -0.167 OA 
BRANCH  11  12
HETATM   12  C   UNL     2      -8.279  10.319  67.151  1.00  0.00    -0.121 C  
HETATM   13  C   UNL     2      -8.712   8.826  66.953  1.00  0.00    -0.136 C  
HETATM   14  C   UNL     2      -8.548   7.976  68.312  1.00  0.00    -0.130 C  
HETATM   15  C   UNL     2      -8.775   8.223  69.856  1.00  0.00    -0.134 C  
HETATM   16  C   UNL     2      -7.874   9.446  70.181  1.00  0.00    -0.148 C  
HETATM   17  C   UNL     2      -6.772   9.484  69.091  1.00  0.00    -0.049 C  
HETATM   18  C   UNL     2      -6.985  10.513  67.964  1.00  0.00    -0.074 C  
HETATM   19  N   UNL     2      -6.890   8.081  68.491  1.00  0.00    -0.066 N  
HETATM   20  C   UNL     2      -6.090   7.763  67.222  1.00  0.00    -0.049 C  
HETATM   21  C   UNL     2      -6.269   7.058  69.503  1.00  0.00    -0.034 C  
ENDBRANCH  11  12
ENDBRANCH   7  11
ENDBRANCH   3   4
TORSDOF 4
ENDMDL
MODEL      264
REMARK 921   NORMALIZED FREE ENERGY PREDICTED BY IDOCK:    3.81 KCAL/MOL
REMARK 922        TOTAL FREE ENERGY PREDICTED BY IDOCK:    4.14 KCAL/MOL
REMARK 923 INTER-LIGAND FREE ENERGY PREDICTED BY IDOCK:    3.53 KCAL/MOL
REMARK 924 INTRA-LIGAND FREE ENERGY PREDICTED BY IDOCK:    0.62 KCAL/MOL
REMARK 927      BINDING AFFINITY PREDICTED BY RF-SCORE:    0.00 PKD
ROOT
HETATM    1 BR   UNL     1      -8.461  11.938  62.392  1.00  0.00     1.658 Br 
HETATM    2  C   UNL     2     -12.370  16.426  74.425  1.00  0.00    -0.548 C  
HETATM    3  C   UNL     2     -12.428  16.288  72.910  1.00  0.00    -0.498 C  
ENDROOT
BRANCH   3   4
HETATM    4  C   UNL     2     -11.063  15.919  72.316  1.00  0.00     0.340 C  
HETATM    5  C   UNL     2     -11.069  15.719  70.780  1.00  0.00    -0.371 C  
HETATM    6  C   UNL     2     -11.594  16.948  70.006  1.00  0.00     0.883 C  
HETATM    7  C   UNL     2      -9.685  15.242  70.307  1.00  0.00     0.299 C  
HETATM    8  O   UNL     2      -8.857  14.719  71.040  1.00  0.00     2.069 OA 
BRANCH   6   9
HETATM    9  C   UNL     2     -10.774  18.222  70.233  1.00  0.00     1.903 C  
HETATM   10  C   UNL     2     -10.525  18.973  68.935  1.00  0.00     0.050 C  
ENDBRANCH   6   9
BRANCH   7  11
HETATM   11  O   UNL     2      -9.524  15.383  68.963  1.00  0.00    -0.206 OA 
BRANCH  11  12
HETATM   12  C   UNL     2      -8.871  16.551  68.400  1.00  0.00    -0.218 C  
HETATM   13  C   UNL     2      -7.576  17.029  69.142  1.00  0.00    -0.140 C  
HETATM   14  C   UNL     2      -6.891  18.280  68.393  1.00  0.00    -0.234 C  
HETATM   15  C   UNL     2      -7.384  19.579  67.641  1.00  0.00    -0.277 C  
HETATM   16  C   UNL     2      -8.293  19.037  66.505  1.00  0.00    -0.313 C  
HETATM   17  C   UNL     2      -7.851  17.574  66.245  1.00  0.00    -0.287 C  
HETATM   18  C   UNL     2      -8.748  16.486  66.866  1.00  0.00    -0.233 C  
HETATM   19  N   UNL     2      -6.493  17.538  66.950  1.00  0.00    -0.163 N  
HETATM   20  C   UNL     2      -5.787  16.185  67.100  1.00  0.00    -0.014 C  
HETATM   21  C   UNL     2      -5.459  18.320  66.069  1.00  0.00    -0.174 C  
ENDBRANCH  11  12
ENDBRANCH   7  11
ENDBRANCH   3   4
TORSDOF 4
ENDMDL
MODEL      265
REMARK 921   NORMALIZED FREE ENERGY PREDICTED BY IDOCK:    4.89 KCAL/MOL
REMARK 922        TOTAL FREE ENERGY PREDICTED BY IDOCK:    5.47 KCAL/MOL
REMARK 923 INTER-LIGAND FREE ENERGY PREDICTED BY IDOCK:    4.80 KCAL/MOL
REMARK 924 INTRA-LIGAND FREE ENERGY PREDICTED BY IDOCK:    0.67 KCAL/MOL
REMARK 927      BINDING AFFINITY PREDICTED BY RF-SCORE:    0.00 PKD
ROOT
HETATM    1 BR   UNL     1      -9.859  19.966  72.087  1.00  0.00     3.641 Br 
HETATM    2  C   UNL     2      -9.248   9.874  63.255  1.00  0.00    -0.274 C  
HETATM    3  C   UNL     2      -9.784  11.171  63.844  1.00  0.00    -0.325 C  
ENDROOT
BRANCH   3   4
HETATM    4  C   UNL     2      -9.515  11.269  65.351  1.00  0.00    -0.251 C  
HETATM    5  C   UNL     2      -9.883  12.638  65.975  1.00  0.00    -0.260 C  
HETATM    6  C   UNL     2     -11.355  13.041  65.741  1.00  0.00    -0.331 C  
HETATM    7  C   UNL     2      -9.468  12.668  67.457  1.00  0.00    -0.186 C  
HETATM    8  O   UNL     2      -8.633  11.919  67.947  1.00  0.00    -0.147 OA 
BRANCH   6   9
HETATM    9  C   UNL     2     -12.370  12.056  66.328  1.00  0.00     0.734 C  
HETATM   10  C   UNL     2     -12.143  11.829  67.814  1.00  0.00     0.068 C  
ENDBRANCH   6   9
BRANCH   7  11
HETATM   11  O   UNL     2     -10.066  13.683  68.138  1.00  0.00    -0.231 OA 
BRANCH  11  12
HETATM   12  C   UNL     2      -9.640  15.061  67.966  1.00  0.00    -0.208 C  
HETATM   13  C   UNL     2      -8.225  15.259  67.323  1.00  0.00    -0.230 C  
HETATM   14  C   UNL     2      -7.884  16.819  67.108  1.00  0.00    -0.177 C  
HETATM   15  C   UNL     2      -8.119  18.165  67.901  1.00  0.00    -0.251 C  
HETATM   16  C   UNL     2      -9.660  18.238  68.077  1.00  0.00    -0.314 C  
HETATM   17  C   UNL     2     -10.274  17.363  66.953  1.00  0.00    -0.322 C  
HETATM   18  C   UNL     2     -10.745  15.960  67.383  1.00  0.00    -0.313 C  
HETATM   19  N   UNL     2      -9.082  17.202  66.008  1.00  0.00    -0.167 N  
HETATM   20  C   UNL     2      -9.210  16.222  64.836  1.00  0.00     2.362 C  
HETATM   21  C   UNL     2      -8.870  18.556  65.247  1.00  0.00     1.980 C  
ENDBRANCH  11  12
ENDBRANCH   7  11
ENDBRANCH   3   4
TORSDOF 4
ENDMDL
MODEL      266
REMARK 921   NORMALIZED FREE ENERGY PREDICTED BY IDOCK:    6.28 KCAL/MOL
REMARK 922        TOTAL FREE ENERGY PREDICTED BY IDOCK:    7.19 KCAL/MOL
REMARK 923 INTER-LIGAND FREE ENERGY PREDICTED BY IDOCK:    7.17 KCAL/MOL
REMARK 924 INTRA-LIGAND FREE ENERGY PREDICTED BY IDOCK:    0.02 KCAL/MOL
REMARK 927      BINDING AFFINITY PREDICTED BY RF-SCORE:    0.00 PKD
ROOT
HETATM    1 BR   UNL     1     -12.896  14.273  64.977  1.00  0.00    -0.035 Br 
HETATM    2  C   UNL     2      -8.398   3.859  72.156  1.00  0.00    -0.094 C  
HETATM    3  C   UNL     2      -9.119   5.181  71.930  1.00  0.00    -0.154 C  
ENDROOT
BRANCH   3   4
HETATM    4  C   UNL     2      -8.579   5.926  70.703  1.00  0.00    -0.133 C  
HETATM    5  C   UNL     2      -9.131   7.363  70.537  1.00  0.00    -0.157 C  
HETATM    6  C   UNL     2      -8.882   8.260  71.769  1.00  0.00    -0.230 C  
HETATM    7  C   UNL     2      -8.618   7.973  69.220  1.00  0.00    -0.137 C  
HETATM    8  O   UNL     2      -8.195   7.313  68.281  1.00  0.00    -0.122 OA 
BRANCH   6   9
HETATM    9  C   UNL     2      -7.402   8.446  72.113  1.00  0.00    -0.127 C  
HETATM   10  C   UNL     2      -7.187   8.615  73.609  1.00  0.00     0.022 C  
ENDBRANCH   6   9
BRANCH   7  11
HETATM   11  O   UNL     2      -8.775   9.325  69.185  1.00  0.00    -0.132 OA 
BRANCH  11  12
HETATM   12  C   UNL     2      -7.804  10.213  69.799  1.00  0.00    -0.166 C  
HETATM   13  C   UNL     2      -6.396  10.259  69.113  1.00  0.00    -0.045 C  
HETATM   14  C   UNL     2      -5.424  11.329  69.825  1.00  0.00    -0.058 C  
HETATM   15  C   UNL     2      -5.129  11.809  71.301  1.00  0.00    -0.097 C  
HETATM   16  C   UNL     2      -6.509  12.293  71.825  1.00  0.00     3.545 C  
HETATM   17  C   UNL     2      -7.356  12.648  70.575  1.00  0.00     3.052 C  
HETATM   18  C   UNL     2      -8.394  11.591  70.152  1.00  0.00     2.556 C  
HETATM   19  N   UNL     2      -6.279  12.725  69.491  1.00  0.00    -0.116 N  
HETATM   20  C   UNL     2      -6.725  12.867  68.031  1.00  0.00    -0.109 C  
HETATM   21  C   UNL     2      -5.473  14.055  69.689  1.00  0.00    -0.094 C  
ENDBRANCH  11  12
ENDBRANCH   7  11
ENDBRANCH   3   4
TORSDOF 4
ENDMDL
MODEL      267
REMARK 921   NORMALIZED FREE ENERGY PREDICTED BY IDOCK:    6.93 KCAL/MOL
REMARK 922        TOTAL FREE ENERGY PREDICTED BY IDOCK:    7.99 KCAL/MOL
REMARK 923 INTER-LIGAND FREE ENERGY PREDICTED BY IDOCK:    8.71 KCAL/MOL
REMARK 924 INTRA-LIGAND FREE ENERGY PREDICTED BY IDOCK:   -0.72 KCAL/MOL
REMARK 927      BINDING AFFINITY PREDICTED BY RF-SCORE:    0.00 PKD
ROOT
HETATM    1 BR   UNL     1     -13.484   6.215  62.330  1.00  0.00    10.675 Br 
HETATM    2  C   UNL     2      -5.192  11.928  71.207  1.00  0.00    -0.070 C  
HETATM    3  C   UNL     2      -5.563  11.041  70.028  1.00  0.00    -0.075 C  
ENDROOT
BRANCH   3   4
HETATM    4  C   UNL     2      -7.023  10.576  70.098  1.00  0.00    -0.119 C  
HETATM    5  C   UNL     2      -7.233   9.083  69.743  1.00  0.00    -0.056 C  
HETATM    6  C   UNL     2      -6.399   8.123  70.618  1.00  0.00    -0.036 C  
HETATM    7  C   UNL     2      -8.737   8.753  69.732  1.00  0.00    -0.133 C  
HETATM    8  O   UNL     2      -9.619   9.593  69.615  1.00  0.00    -0.181 OA 
BRANCH   6   9
HETATM    9  C   UNL     2      -6.710   8.218  72.114  1.00  0.00    -0.084 C  
HETATM   10  C   UNL     2      -6.583   6.869  72.804  1.00  0.00    -0.065 C  
ENDBRANCH   6   9
BRANCH   7  11
HETATM   11  O   UNL     2      -8.969   7.413  69.773  1.00  0.00    -0.141 OA 
BRANCH  11  12
HETATM   12  C   UNL     2      -8.937   6.605  68.567  1.00  0.00    -0.120 C  
HETATM   13  C   UNL     2      -8.625   7.377  67.240  1.00  0.00    -0.118 C  
HETATM   14  C   UNL     2      -8.539   6.377  65.979  1.00  0.00    -0.147 C  
HETATM   15  C   UNL     2      -9.302   5.086  65.483  1.00  0.00    -0.149 C  
HETATM   16  C   UNL     2      -9.138   4.076  66.651  1.00  0.00    -0.149 C  
HETATM   17  C   UNL     2      -7.881   4.518  67.444  1.00  0.00    -0.089 C  
HETATM   18  C   UNL     2      -8.154   5.291  68.749  1.00  0.00    -0.090 C  
HETATM   19  N   UNL     2      -7.215   5.472  66.450  1.00  0.00    -0.076 N  
HETATM   20  C   UNL     2      -6.014   6.297  66.926  1.00  0.00    -0.024 C  
HETATM   21  C   UNL     2      -6.561   4.619  65.309  1.00  0.00    -0.047 C  
ENDBRANCH  11  12
ENDBRANCH   7  11
ENDBRANCH   3   4
TORSDOF 4
ENDMDL
MODEL      268
REMARK 921   NORMALIZED FREE ENERGY PREDICTED BY IDOCK:    7.29 KCAL/MOL
REMARK 922        TOTAL FREE ENERGY PREDICTED BY IDOCK:    8.44 KCAL/MOL
REMARK 923 INTER-LIGAND FREE ENERGY PREDICTED BY IDOCK:   -1.22 KCAL/MOL
REMARK 924 INTRA-LIGAND FREE ENERGY PREDICTED BY IDOCK:    9.65 KCAL/MOL
REMARK 927      BINDING AFFINITY PREDICTED BY RF-SCORE:    0.00 PKD
ROOT
HETATM    1 BR   UNL     1     -10.458  17.642  66.098  1.00  0.00    -0.213 Br 
HETATM    2  C   UNL     2      -9.607   4.258  65.496  1.00  0.00    -0.188 C  
HETATM    3  C   UNL     2      -9.610   5.618  66.179  1.00  0.00    -0.142 C  
ENDROOT
BRANCH   3   4
HETATM    4  C   UNL     2      -9.211   6.743  65.216  1.00  0.00     0.494 C  
HETATM    5  C   UNL     2      -8.378   7.875  65.869  1.00  0.00    -0.134 C  
HETATM    6  C   UNL     2      -7.088   7.369  66.551  1.00  0.00    -0.074 C  
HETATM    7  C   UNL     2      -8.132   9.000  64.849  1.00  0.00    -0.137 C  
HETATM    8  O   UNL     2      -8.809   9.171  63.844  1.00  0.00    -0.182 OA 
BRANCH   6   9
HETATM    9  C   UNL     2      -6.117   6.666  65.599  1.00  0.00    -0.038 C  
HETATM   10  C   UNL     2      -5.244   7.659  64.848  1.00  0.00    -0.029 C  
ENDBRANCH   6   9
BRANCH   7  11
HETATM   11  O   UNL     2      -7.135   9.840  65.241  1.00  0.00    -0.106 OA 
BRANCH  11  12
HETATM   12  C   UNL     2      -6.733   9.935  66.633  1.00  0.00    -0.080 C  
HETATM   13  C   UNL     2      -7.268  11.186  67.410  1.00  0.00    -0.107 C  
HETATM   14  C   UNL     2      -6.827  11.154  68.960  1.00  0.00    -0.092 C  
HETATM   15  C   UNL     2      -5.545  10.732  69.781  1.00  0.00    -0.044 C  
HETATM   16  C   UNL     2      -5.321   9.244  69.397  1.00  0.00    -0.035 C  
HETATM   17  C   UNL     2      -6.692   8.702  68.915  1.00  0.00    -0.053 C  
HETATM   18  C   UNL     2      -6.868   8.600  67.388  1.00  0.00    -0.071 C  
HETATM   19  N   UNL     2      -7.645   9.778  69.439  1.00  0.00    -0.093 N  
HETATM   20  C   UNL     2      -9.114   9.723  69.003  1.00  0.00    -0.157 C  
HETATM   21  C   UNL     2      -7.785   9.600  70.990  1.00  0.00     0.266 C  
ENDBRANCH  11  12
ENDBRANCH   7  11
ENDBRANCH   3   4
TORSDOF 4
ENDMDL
MODEL      269
REMARK 921   NORMALIZED FREE ENERGY PREDICTED BY IDOCK:    8.31 KCAL/MOL
REMARK 922        TOTAL FREE ENERGY PREDICTED BY IDOCK:    9.70 KCAL/MOL
REMARK 923 INTER-LIGAND FREE ENERGY PREDICTED BY IDOCK:    5.63 KCAL/MOL
REMARK 924 INTRA-LIGAND FREE ENERGY PREDICTED BY IDOCK:    4.07 KCAL/MOL
REMARK 927      BINDING AFFINITY PREDICTED BY RF-SCORE:    0.00 PKD
ROOT
HETATM    1 BR   UNL     1     -10.614  19.137  72.073  1.00  0.00     4.575 Br 
HETATM    2  C   UNL     2     -11.561   6.611  67.340  1.00  0.00     0.507 C  
HETATM    3  C   UNL     2     -12.031   7.850  68.088  1.00  0.00     2.932 C  
ENDROOT
BRANCH   3   4
HETATM    4  C   UNL     2     -10.854   8.706  68.573  1.00  0.00     0.003 C  
HETATM    5  C   UNL     2     -10.079   9.423  67.440  1.00  0.00    -0.271 C  
HETATM    6  C   UNL     2     -10.974  10.324  66.561  1.00  0.00     0.026 C  
HETATM    7  C   UNL     2      -8.857  10.156  68.022  1.00  0.00    -0.125 C  
HETATM    8  O   UNL     2      -8.352   9.887  69.104  1.00  0.00    -0.123 OA 
BRANCH   6   9
HETATM    9  C   UNL     2     -11.673  11.447  67.332  1.00  0.00    -0.172 C  
HETATM   10  C   UNL     2     -10.696  12.236  68.190  1.00  0.00    -0.241 C  
ENDBRANCH   6   9
BRANCH   7  11
HETATM   11  O   UNL     2      -8.347  11.073  67.156  1.00  0.00    -0.126 OA 
BRANCH  11  12
HETATM   12  C   UNL     2      -8.108  10.743  65.762  1.00  0.00    -0.135 C  
HETATM   13  C   UNL     2      -6.617  10.455  65.378  1.00  0.00    -0.109 C  
HETATM   14  C   UNL     2      -6.476  10.026  63.830  1.00  0.00    -0.132 C  
HETATM   15  C   UNL     2      -7.135  10.446  62.457  1.00  0.00    -0.152 C  
HETATM   16  C   UNL     2      -8.653  10.206  62.676  1.00  0.00    -0.200 C  
HETATM   17  C   UNL     2      -8.775   9.162  63.816  1.00  0.00    -0.125 C  
HETATM   18  C   UNL     2      -9.126   9.729  65.205  1.00  0.00    -0.270 C  
HETATM   19  N   UNL     2      -7.352   8.603  63.870  1.00  0.00    -0.097 N  
HETATM   20  C   UNL     2      -6.983   7.658  65.020  1.00  0.00    -0.058 C  
HETATM   21  C   UNL     2      -7.142   7.666  62.631  1.00  0.00    -0.078 C  
ENDBRANCH  11  12
ENDBRANCH   7  11
ENDBRANCH   3   4
TORSDOF 4
ENDMDL
MODEL      270
REMARK 921   NORMALIZED FREE ENERGY PREDICTED BY IDOCK:    8.45 KCAL/MOL
REMARK 922        TOTAL FREE ENERGY PREDICTED BY IDOCK:    9.86 KCAL/MOL
REMARK 923 INTER-LIGAND FREE ENERGY PREDICTED BY IDOCK:   10.47 KCAL/MOL
REMARK 924 INTRA-LIGAND FREE ENERGY PREDICTED BY IDOCK:   -0.60 KCAL/MOL
REMARK 927      BINDING AFFINITY PREDICTED BY RF-SCORE:    0.00 PKD
ROOT
HETATM    1 BR   UNL     1     -14.092   6.670  62.330  1.00  0.00    11.684 Br 
HETATM    2  C   UNL     2      -5.594  12.651  70.830  1.00  0.00    -0.163 C  
HETATM    3  C   UNL     2      -5.991  11.871  69.584  1.00  0.00    -0.114 C  
ENDROOT
BRANCH   3   4
HETATM    4  C   UNL     2      -7.321  11.131  69.772  1.00  0.00     0.126 C  
HETATM    5  C   UNL     2      -7.220   9.592  69.625  1.00  0.00    -0.084 C  
HETATM    6  C   UNL     2      -6.195   8.952  70.586  1.00  0.00    -0.042 C  
HETATM    7  C   UNL     2      -8.622   8.963  69.716  1.00  0.00    -0.134 C  
HETATM    8  O   UNL     2      -9.661   9.580  69.523  1.00  0.00    -0.167 OA 
BRANCH   6   9
HETATM    9  C   UNL     2      -6.503   9.186  72.068  1.00  0.00     0.080 C  
HETATM   10  C   UNL     2      -5.359   9.891  72.778  1.00  0.00     0.117 C  
ENDBRANCH   6   9
BRANCH   7  11
HETATM   11  O   UNL     2      -8.569   7.622  69.942  1.00  0.00    -0.136 OA 
BRANCH  11  12
HETATM   12  C   UNL     2      -8.098   6.702  68.922  1.00  0.00    -0.116 C  
HETATM   13  C   UNL     2      -7.881   5.223  69.390  1.00  0.00    -0.088 C  
HETATM   14  C   UNL     2      -7.433   4.274  68.167  1.00  0.00    -0.068 C  
HETATM   15  C   UNL     2      -6.499   4.400  66.898  1.00  0.00    -0.041 C  
HETATM   16  C   UNL     2      -7.083   5.607  66.115  1.00  0.00    -0.068 C  
HETATM   17  C   UNL     2      -8.564   5.744  66.556  1.00  0.00    -0.121 C  
HETATM   18  C   UNL     2      -8.852   6.853  67.587  1.00  0.00    -0.118 C  
HETATM   19  N   UNL     2      -8.808   4.390  67.225  1.00  0.00    -0.105 N  
HETATM   20  C   UNL     2     -10.123   4.181  67.986  1.00  0.00     0.174 C  
HETATM   21  C   UNL     2      -8.933   3.302  66.104  1.00  0.00    -0.147 C  
ENDBRANCH  11  12
ENDBRANCH   7  11
ENDBRANCH   3   4
TORSDOF 4
ENDMDL
MODEL      271
REMARK 921   NORMALIZED FREE ENERGY PREDICTED BY IDOCK:    8.48 KCAL/MOL
REMARK 922        TOTAL FREE ENERGY PREDICTED BY IDOCK:    9.90 KCAL/MOL
REMARK 923 INTER-LIGAND FREE ENERGY PREDICTED BY IDOCK:    9.83 KCAL/MOL
REMARK 924 INTRA-LIGAND FREE ENERGY PREDICTED BY IDOCK:    0.06 KCAL/MOL
REMARK 927      BINDING AFFINITY PREDICTED BY RF-SCORE:    0.00 PKD
ROOT
HETATM    1 BR   UNL     1     -14.301   9.086  72.022  1.00  0.00    -0.258 Br 
HETATM    2  C   UNL     2      -5.908  17.503  65.783  1.00  0.00     0.002 C  
HETATM    3  C   UNL     2      -7.215  17.080  66.439  1.00  0.00    -0.311 C  
ENDROOT
BRANCH   3   4
HETATM    4  C   UNL     2      -7.418  15.561  66.381  1.00  0.00     0.778 C  
HETATM    5  C   UNL     2      -8.777  15.079  66.948  1.00  0.00    -0.285 C  
HETATM    6  C   UNL     2      -9.994  15.735  66.260  1.00  0.00    -0.315 C  
HETATM    7  C   UNL     2      -8.829  13.541  66.948  1.00  0.00    -0.182 C  
HETATM    8  O   UNL     2      -7.839  12.824  66.903  1.00  0.00    -0.067 OA 
BRANCH   6   9
HETATM    9  C   UNL     2     -10.078  15.465  64.755  1.00  0.00     0.158 C  
HETATM   10  C   UNL     2     -10.631  16.661  63.997  1.00  0.00     2.798 C  
ENDBRANCH   6   9
BRANCH   7  11
HETATM   11  O   UNL     2     -10.097  13.070  67.099  1.00  0.00    -0.239 OA 
BRANCH  11  12
HETATM   12  C   UNL     2     -10.789  13.159  68.373  1.00  0.00    -0.262 C  
HETATM   13  C   UNL     2     -12.192  12.465  68.434  1.00  0.00     0.103 C  
HETATM   14  C   UNL     2     -12.836  12.559  69.909  1.00  0.00     0.658 C  
HETATM   15  C   UNL     2     -12.906  13.632  71.065  1.00  0.00    -0.360 C  
HETATM   16  C   UNL     2     -11.419  13.938  71.391  1.00  0.00     0.977 C  
HETATM   17  C   UNL     2     -10.602  12.706  70.920  1.00  0.00     4.618 C  
HETATM   18  C   UNL     2      -9.870  12.865  69.574  1.00  0.00     1.163 C  
HETATM   19  N   UNL     2     -11.705  11.659  70.748  1.00  0.00    -0.010 N  
HETATM   20  C   UNL     2     -11.342  10.320  70.095  1.00  0.00    -0.316 C  
HETATM   21  C   UNL     2     -12.163  11.185  72.170  1.00  0.00     1.183 C  
ENDBRANCH  11  12
ENDBRANCH   7  11
ENDBRANCH   3   4
TORSDOF 4
ENDMDL
MODEL      272
REMARK 921   NORMALIZED FREE ENERGY PREDICTED BY IDOCK:    8.94 KCAL/MOL
REMARK 922        TOTAL FREE ENERGY PREDICTED BY IDOCK:   10.48 KCAL/MOL
REMARK 923 INTER-LIGAND FREE ENERGY PREDICTED BY IDOCK:    5.20 KCAL/MOL
REMARK 924 INTRA-LIGAND FREE ENERGY PREDICTED BY IDOCK:    5.28 KCAL/MOL
REMARK 927      BINDING AFFINITY PREDICTED BY RF-SCORE:    0.00 PKD
ROOT
HETATM    1 BR   UNL     1     -10.610  19.172  72.117  1.00  0.00     4.612 Br 
HETATM    2  C   UNL     2      -8.962   6.062  69.742  1.00  0.00    -0.135 C  
HETATM    3  C   UNL     2      -9.702   7.303  70.221  1.00  0.00    -0.175 C  
ENDROOT
BRANCH   3   4
HETATM    4  C   UNL     2      -8.738   8.433  70.603  1.00  0.00    -0.158 C  
HETATM    5  C   UNL     2      -8.188   9.235  69.397  1.00  0.00    -0.114 C  
HETATM    6  C   UNL     2      -9.296   9.851  68.515  1.00  0.00    -0.143 C  
HETATM    7  C   UNL     2      -7.148  10.261  69.880  1.00  0.00    -0.152 C  
HETATM    8  O   UNL     2      -6.558  10.184  70.949  1.00  0.00    -0.310 OA 
BRANCH   6   9
HETATM    9  C   UNL     2     -10.207  10.832  69.258  1.00  0.00    -0.217 C  
HETATM   10  C   UNL     2      -9.410  11.834  70.077  1.00  0.00     2.599 C  
ENDBRANCH   6   9
BRANCH   7  11
HETATM   11  O   UNL     2      -6.893  11.214  68.942  1.00  0.00    -0.071 OA 
BRANCH  11  12
HETATM   12  C   UNL     2      -6.777  10.876  67.535  1.00  0.00    -0.074 C  
HETATM   13  C   UNL     2      -5.316  10.773  66.979  1.00  0.00    -0.047 C  
HETATM   14  C   UNL     2      -5.300  10.319  65.433  1.00  0.00    -0.085 C  
HETATM   15  C   UNL     2      -6.164  10.608  64.143  1.00  0.00     0.106 C  
HETATM   16  C   UNL     2      -7.601  10.178  64.545  1.00  0.00    -0.130 C  
HETATM   17  C   UNL     2      -7.449   9.162  65.707  1.00  0.00    -0.090 C  
HETATM   18  C   UNL     2      -7.708   9.722  67.119  1.00  0.00    -0.095 C  
HETATM   19  N   UNL     2      -5.968   8.796  65.598  1.00  0.00    -0.051 N  
HETATM   20  C   UNL     2      -5.345   7.943  66.709  1.00  0.00    -0.028 C  
HETATM   21  C   UNL     2      -5.781   7.857  64.357  1.00  0.00    -0.044 C  
ENDBRANCH  11  12
ENDBRANCH   7  11
ENDBRANCH   3   4
TORSDOF 4
ENDMDL
MODEL      273
REMARK 921   NORMALIZED FREE ENERGY PREDICTED BY IDOCK:   10.53 KCAL/MOL
REMARK 922        TOTAL FREE ENERGY PREDICTED BY IDOCK:   12.43 KCAL/MOL
REMARK 923 INTER-LIGAND FREE ENERGY PREDICTED BY IDOCK:   10.79 KCAL/MOL
REMARK 924 INTRA-LIGAND FREE ENERGY PREDICTED BY IDOCK:    1.64 KCAL/MOL
REMARK 927      BINDING AFFINITY PREDICTED BY RF-SCORE:    0.00 PKD
ROOT
HETATM    1 BR   UNL     1     -13.135  15.556  62.351  1.00  0.00     8.777 Br 
HETATM    2  C   UNL     2      -5.151  21.314  71.479  1.00  0.00     0.117 C  
HETATM    3  C   UNL     2      -5.985  21.253  70.207  1.00  0.00     1.433 C  
ENDROOT
BRANCH   3   4
HETATM    4  C   UNL     2      -6.116  19.819  69.677  1.00  0.00    -0.353 C  
HETATM    5  C   UNL     2      -7.536  19.216  69.816  1.00  0.00     0.247 C  
HETATM    6  C   UNL     2      -8.630  20.064  69.132  1.00  0.00     0.254 C  
HETATM    7  C   UNL     2      -7.528  17.745  69.365  1.00  0.00     0.141 C  
HETATM    8  O   UNL     2      -6.519  17.056  69.301  1.00  0.00    -0.208 OA 
BRANCH   6   9
HETATM    9  C   UNL     2      -8.425  20.243  67.625  1.00  0.00    -0.327 C  
HETATM   10  C   UNL     2      -7.323  19.341  67.093  1.00  0.00    -0.226 C  
ENDBRANCH   6   9
BRANCH   7  11
HETATM   11  O   UNL     2      -8.783  17.272  69.134  1.00  0.00    -0.134 OA 
BRANCH  11  12
HETATM   12  C   UNL     2      -9.082  16.466  67.963  1.00  0.00    -0.200 C  
HETATM   13  C   UNL     2      -7.851  16.071  67.079  1.00  0.00    -0.263 C  
HETATM   14  C   UNL     2      -8.283  15.118  65.853  1.00  0.00     1.516 C  
HETATM   15  C   UNL     2      -9.503  15.013  64.854  1.00  0.00     0.921 C  
HETATM   16  C   UNL     2     -10.740  14.856  65.780  1.00  0.00    -0.338 C  
HETATM   17  C   UNL     2     -10.215  14.288  67.124  1.00  0.00    -0.254 C  
HETATM   18  C   UNL     2     -10.057  15.313  68.264  1.00  0.00    -0.225 C  
HETATM   19  N   UNL     2      -8.822  13.797  66.723  1.00  0.00    -0.186 N  
HETATM   20  C   UNL     2      -7.869  13.329  67.830  1.00  0.00    -0.157 C  
HETATM   21  C   UNL     2      -8.985  12.480  65.889  1.00  0.00     0.258 C  
ENDBRANCH  11  12
ENDBRANCH   7  11
ENDBRANCH   3   4
TORSDOF 4
ENDMDL
MODEL      274
REMARK 921   NORMALIZED FREE ENERGY PREDICTED BY IDOCK:   10.75 KCAL/MOL
REMARK 922        TOTAL FREE ENERGY PREDICTED BY IDOCK:   12.71 KCAL/MOL
REMARK 923 INTER-LIGAND FREE ENERGY PREDICTED BY IDOCK:   13.06 KCAL/MOL
REMARK 924 INTRA-LIGAND FREE ENERGY PREDICTED BY IDOCK:   -0.35 KCAL/MOL
REMARK 927      BINDING AFFINITY PREDICTED BY RF-SCORE:    0.00 PKD
ROOT
HETATM    1 BR   UNL     1     -13.736   6.193  63.552  1.00  0.00    13.386 Br 
HETATM    2  C   UNL     2      -5.142  11.850  72.176  1.00  0.00     0.200 C  
HETATM    3  C   UNL     2      -5.552  11.103  70.915  1.00  0.00    -0.077 C  
ENDROOT
BRANCH   3   4
HETATM    4  C   UNL     2      -6.895  10.383  71.087  1.00  0.00     0.853 C  
HETATM    5  C   UNL     2      -6.806   8.839  70.991  1.00  0.00    -0.074 C  
HETATM    6  C   UNL     2      -5.817   8.220  72.003  1.00  0.00    -0.043 C  
HETATM    7  C   UNL     2      -8.217   8.227  71.061  1.00  0.00    -0.112 C  
HETATM    8  O   UNL     2      -9.243   8.848  70.819  1.00  0.00    -0.183 OA 
BRANCH   6   9
HETATM    9  C   UNL     2      -6.165   8.504  73.466  1.00  0.00    -0.124 C  
HETATM   10  C   UNL     2      -6.672   7.260  74.179  1.00  0.00    -0.083 C  
ENDBRANCH   6   9
BRANCH   7  11
HETATM   11  O   UNL     2      -8.186   6.894  71.332  1.00  0.00    -0.109 OA 
BRANCH  11  12
HETATM   12  C   UNL     2      -7.396   5.979  70.527  1.00  0.00    -0.085 C  
HETATM   13  C   UNL     2      -7.275   4.518  71.081  1.00  0.00    -0.044 C  
HETATM   14  C   UNL     2      -6.445   3.570  70.076  1.00  0.00    -0.032 C  
HETATM   15  C   UNL     2      -5.179   3.715  69.143  1.00  0.00    -0.011 C  
HETATM   16  C   UNL     2      -5.545   4.882  68.186  1.00  0.00    -0.016 C  
HETATM   17  C   UNL     2      -7.093   4.962  68.159  1.00  0.00    -0.062 C  
HETATM   18  C   UNL     2      -7.719   6.074  69.024  1.00  0.00    -0.092 C  
HETATM   19  N   UNL     2      -7.478   3.610  68.763  1.00  0.00    -0.053 N  
HETATM   20  C   UNL     2      -8.951   3.356  69.101  1.00  0.00    -0.122 C  
HETATM   21  C   UNL     2      -7.220   2.498  67.688  1.00  0.00    -0.052 C  
ENDBRANCH  11  12
ENDBRANCH   7  11
ENDBRANCH   3   4
TORSDOF 4
ENDMDL
MODEL      275
REMARK 921   NORMALIZED FREE ENERGY PREDICTED BY IDOCK:   11.14 KCAL/MOL
REMARK 922        TOTAL FREE ENERGY PREDICTED BY IDOCK:   13.19 KCAL/MOL
REMARK 923 INTER-LIGAND FREE ENERGY PREDICTED BY IDOCK:   10.79 KCAL/MOL
REMARK 924 INTRA-LIGAND FREE ENERGY PREDICTED BY IDOCK:    2.40 KCAL/MOL
REMARK 927      BINDING AFFINITY PREDICTED BY RF-SCORE:    0.00 PKD
ROOT
HETATM    1 BR   UNL     1     -14.183   6.068  62.805  1.00  0.00    14.464 Br 
HETATM    2  C   UNL     2      -5.542  11.039  71.796  1.00  0.00     0.417 C  
HETATM    3  C   UNL     2      -5.955  10.328  70.515  1.00  0.00    -0.106 C  
ENDROOT
BRANCH   3   4
HETATM    4  C   UNL     2      -7.354   9.710  70.629  1.00  0.00    -0.112 C  
HETATM    5  C   UNL     2      -8.306  10.070  69.461  1.00  0.00    -0.180 C  
HETATM    6  C   UNL     2      -7.744   9.688  68.075  1.00  0.00    -0.086 C  
HETATM    7  C   UNL     2      -9.709   9.498  69.733  1.00  0.00    -0.214 C  
HETATM    8  O   UNL     2     -10.113   9.179  70.842  1.00  0.00    -0.239 OA 
BRANCH   6   9
HETATM    9  C   UNL     2      -7.465   8.192  67.908  1.00  0.00    -0.098 C  
HETATM   10  C   UNL     2      -7.114   7.532  69.231  1.00  0.00    -0.077 C  
ENDBRANCH   6   9
BRANCH   7  11
HETATM   11  O   UNL     2     -10.480   9.475  68.611  1.00  0.00    -0.200 OA 
BRANCH  11  12
HETATM   12  C   UNL     2     -10.772  10.690  67.872  1.00  0.00    -0.248 C  
HETATM   13  C   UNL     2     -11.198  11.925  68.736  1.00  0.00    -0.314 C  
HETATM   14  C   UNL     2     -11.424  13.236  67.826  1.00  0.00    -0.317 C  
HETATM   15  C   UNL     2     -12.032  13.556  66.403  1.00  0.00    -0.459 C  
HETATM   16  C   UNL     2     -11.198  12.680  65.429  1.00  0.00    -0.334 C  
HETATM   17  C   UNL     2      -9.851  12.389  66.141  1.00  0.00    -0.252 C  
HETATM   18  C   UNL     2      -9.725  10.994  66.784  1.00  0.00    -0.222 C  
HETATM   19  N   UNL     2      -9.865  13.434  67.257  1.00  0.00    -0.229 N  
HETATM   20  C   UNL     2      -8.778  13.362  68.336  1.00  0.00    -0.134 C  
HETATM   21  C   UNL     2      -9.568  14.837  66.624  1.00  0.00    -0.272 C  
ENDBRANCH  11  12
ENDBRANCH   7  11
ENDBRANCH   3   4
TORSDOF 4
ENDMDL
MODEL      276
REMARK 921   NORMALIZED FREE ENERGY PREDICTED BY IDOCK:   11.58 KCAL/MOL
REMARK 922        TOTAL FREE ENERGY PREDICTED BY IDOCK:   13.73 KCAL/MOL
REMARK 923 INTER-LIGAND FREE ENERGY PREDICTED BY IDOCK:    3.14 KCAL/MOL
REMARK 924 INTRA-LIGAND FREE ENERGY PREDICTED BY IDOCK:   10.59 KCAL/MOL
REMARK 927      BINDING AFFINITY PREDICTED BY RF-SCORE:    0.00 PKD
ROOT
HETATM    1 BR   UNL     1     -10.641  19.168  72.122  1.00  0.00     4.612 Br 
HETATM    2  C   UNL     2     -11.456   5.940  69.979  1.00  0.00    -0.049 C  
HETATM    3  C   UNL     2     -11.905   7.287  70.529  1.00  0.00    -0.237 C  
ENDROOT
BRANCH   3   4
HETATM    4  C   UNL     2     -10.728   8.254  70.706  1.00  0.00    -0.244 C  
HETATM    5  C   UNL     2      -9.376   7.563  71.011  1.00  0.00    -0.157 C  
HETATM    6  C   UNL     2      -8.965   6.524  69.944  1.00  0.00    -0.143 C  
HETATM    7  C   UNL     2      -8.294   8.623  71.283  1.00  0.00    -0.168 C  
HETATM    8  O   UNL     2      -8.536   9.777  71.608  1.00  0.00     0.431 OA 
BRANCH   6   9
HETATM    9  C   UNL     2      -8.798   7.110  68.539  1.00  0.00    -0.125 C  
HETATM   10  C   UNL     2      -8.018   8.415  68.560  1.00  0.00    -0.121 C  
ENDBRANCH   6   9
BRANCH   7  11
HETATM   11  O   UNL     2      -7.037   8.105  71.212  1.00  0.00    -0.053 OA 
BRANCH  11  12
HETATM   12  C   UNL     2      -6.790   6.692  71.440  1.00  0.00    -0.062 C  
HETATM   13  C   UNL     2      -6.312   6.310  72.882  1.00  0.00    -0.063 C  
HETATM   14  C   UNL     2      -6.140   4.717  73.047  1.00  0.00    -0.021 C  
HETATM   15  C   UNL     2      -5.619   3.519  72.158  1.00  0.00    -0.008 C  
HETATM   16  C   UNL     2      -6.510   3.574  70.888  1.00  0.00    -0.030 C  
HETATM   17  C   UNL     2      -7.812   4.312  71.294  1.00  0.00    -0.072 C  
HETATM   18  C   UNL     2      -7.900   5.791  70.868  1.00  0.00    -0.105 C  
HETATM   19  N   UNL     2      -7.730   4.255  72.820  1.00  0.00    -0.080 N  
HETATM   20  C   UNL     2      -8.751   5.059  73.634  1.00  0.00    -0.106 C  
HETATM   21  C   UNL     2      -8.064   2.794  73.278  1.00  0.00    -0.060 C  
ENDBRANCH  11  12
ENDBRANCH   7  11
ENDBRANCH   3   4
TORSDOF 4
ENDMDL
MODEL      277
REMARK 921   NORMALIZED FREE ENERGY PREDICTED BY IDOCK:   11.97 KCAL/MOL
REMARK 922        TOTAL FREE ENERGY PREDICTED BY IDOCK:   14.21 KCAL/MOL
REMARK 923 INTER-LIGAND FREE ENERGY PREDICTED BY IDOCK:   13.22 KCAL/MOL
REMARK 924 INTRA-LIGAND FREE ENERGY PREDICTED BY IDOCK:    0.99 KCAL/MOL
REMARK 927      BINDING AFFINITY PREDICTED BY RF-SCORE:    0.00 PKD
ROOT
HETATM    1 BR   UNL     1     -10.524  13.145  65.074  1.00  0.00    -0.371 Br 
HETATM    2  C   UNL     2     -12.058   3.747  74.537  1.00  0.00     3.457 C  
HETATM    3  C   UNL     2     -12.189   4.348  73.144  1.00  0.00     0.339 C  
ENDROOT
BRANCH   3   4
HETATM    4  C   UNL     2     -12.162   5.881  73.177  1.00  0.00     0.776 C  
HETATM    5  C   UNL     2     -10.780   6.501  72.852  1.00  0.00    -0.280 C  
HETATM    6  C   UNL     2     -10.219   6.059  71.483  1.00  0.00    -0.249 C  
HETATM    7  C   UNL     2     -10.837   8.029  73.026  1.00  0.00    -0.247 C  
HETATM    8  O   UNL     2     -11.683   8.609  73.693  1.00  0.00     1.325 OA 
BRANCH   6   9
HETATM    9  C   UNL     2     -11.108   6.436  70.295  1.00  0.00    -0.416 C  
HETATM   10  C   UNL     2     -12.281   5.480  70.142  1.00  0.00     3.496 C  
ENDBRANCH   6   9
BRANCH   7  11
HETATM   11  O   UNL     2      -9.784   8.654  72.431  1.00  0.00    -0.295 OA 
BRANCH  11  12
HETATM   12  C   UNL     2      -9.986   9.642  71.387  1.00  0.00     0.259 C  
HETATM   13  C   UNL     2      -9.761   9.137  69.921  1.00  0.00    -0.206 C  
HETATM   14  C   UNL     2     -10.084  10.289  68.841  1.00  0.00    -0.204 C  
HETATM   15  C   UNL     2      -9.871  11.850  68.728  1.00  0.00    -0.078 C  
HETATM   16  C   UNL     2     -10.600  12.424  69.974  1.00  0.00     1.289 C  
HETATM   17  C   UNL     2     -11.652  11.365  70.395  1.00  0.00    -0.172 C  
HETATM   18  C   UNL     2     -11.263  10.478  71.593  1.00  0.00     1.228 C  
HETATM   19  N   UNL     2     -11.715  10.486  69.144  1.00  0.00    -0.228 N  
HETATM   20  C   UNL     2     -12.514   9.179  69.213  1.00  0.00     2.459 C  
HETATM   21  C   UNL     2     -12.504  11.262  68.034  1.00  0.00     1.336 C  
ENDBRANCH  11  12
ENDBRANCH   7  11
ENDBRANCH   3   4
TORSDOF 4
ENDMDL
MODEL      278
REMARK 921   NORMALIZED FREE ENERGY PREDICTED BY IDOCK:   12.89 KCAL/MOL
REMARK 922        TOTAL FREE ENERGY PREDICTED BY IDOCK:   15.35 KCAL/MOL
REMARK 923 INTER-LIGAND FREE ENERGY PREDICTED BY IDOCK:    6.80 KCAL/MOL
REMARK 924 INTRA-LIGAND FREE ENERGY PREDICTED BY IDOCK:    8.55 KCAL/MOL
REMARK 927      BINDING AFFINITY PREDICTED BY RF-SCORE:    0.00 PKD
ROOT
HETATM    1 BR   UNL     1     -14.267  19.159  67.681  1.00  0.00    10.242 Br 
HETATM    2  C   UNL     2      -8.239   7.306  69.524  1.00  0.00    -0.131 C  
HETATM    3  C   UNL     2      -8.646   8.550  68.745  1.00  0.00    -0.131 C  
ENDROOT
BRANCH   3   4
HETATM    4  C   UNL     2      -9.937   9.171  69.293  1.00  0.00    -0.187 C  
HETATM    5  C   UNL     2     -10.003  10.714  69.170  1.00  0.00    -0.228 C  
HETATM    6  C   UNL     2      -9.825  11.220  67.723  1.00  0.00    -0.186 C  
HETATM    7  C   UNL     2     -11.279  11.240  69.851  1.00  0.00    -0.187 C  
HETATM    8  O   UNL     2     -11.913  10.615  70.690  1.00  0.00    -0.307 OA 
BRANCH   6   9
HETATM    9  C   UNL     2     -10.887  10.702  66.748  1.00  0.00    -0.233 C  
HETATM   10  C   UNL     2     -10.316  10.482  65.356  1.00  0.00    -0.292 C  
ENDBRANCH   6   9
BRANCH   7  11
HETATM   11  O   UNL     2     -11.569  12.518  69.482  1.00  0.00    -0.284 OA 
BRANCH  11  12
HETATM   12  C   UNL     2     -10.676  13.275  68.623  1.00  0.00    -0.259 C  
HETATM   13  C   UNL     2     -10.590  12.789  67.136  1.00  0.00    -0.249 C  
HETATM   14  C   UNL     2      -9.635  13.743  66.255  1.00  0.00    -0.249 C  
HETATM   15  C   UNL     2      -8.275  14.518  66.468  1.00  0.00     0.389 C  
HETATM   16  C   UNL     2      -8.553  15.447  67.681  1.00  0.00    -0.176 C  
HETATM   17  C   UNL     2     -10.090  15.644  67.742  1.00  0.00    -0.226 C  
HETATM   18  C   UNL     2     -10.830  14.798  68.796  1.00  0.00    -0.259 C  
HETATM   19  N   UNL     2     -10.514  15.160  66.353  1.00  0.00    -0.288 N  
HETATM   20  C   UNL     2     -12.011  15.005  66.062  1.00  0.00     0.060 C  
HETATM   21  C   UNL     2     -10.115  16.257  65.306  1.00  0.00    -0.015 C  
ENDBRANCH  11  12
ENDBRANCH   7  11
ENDBRANCH   3   4
TORSDOF 4
ENDMDL
MODEL      279
REMARK 921   NORMALIZED FREE ENERGY PREDICTED BY IDOCK:   14.20 KCAL/MOL
REMARK 922        TOTAL FREE ENERGY PREDICTED BY IDOCK:   16.96 KCAL/MOL
REMARK 923 INTER-LIGAND FREE ENERGY PREDICTED BY IDOCK:   15.03 KCAL/MOL
REMARK 924 INTRA-LIGAND FREE ENERGY PREDICTED BY IDOCK:    1.93 KCAL/MOL
REMARK 927      BINDING AFFINITY PREDICTED BY RF-SCORE:    0.00 PKD
ROOT
HETATM    1 BR   UNL     1     -14.318   5.976  63.059  1.00  0.00    15.351 Br 
HETATM    2  C   UNL     2      -5.353  12.357  70.749  1.00  0.00    -0.163 C  
HETATM    3  C   UNL     2      -5.814  11.463  69.606  1.00  0.00    -0.087 C  
ENDROOT
BRANCH   3   4
HETATM    4  C   UNL     2      -7.186  10.837  69.887  1.00  0.00    -0.059 C  
HETATM    5  C   UNL     2      -8.314  11.326  68.944  1.00  0.00    -0.074 C  
HETATM    6  C   UNL     2      -8.000  11.102  67.448  1.00  0.00    -0.125 C  
HETATM    7  C   UNL     2      -9.661  10.727  69.384  1.00  0.00    -0.061 C  
HETATM    8  O   UNL     2      -9.879  10.286  70.504  1.00  0.00     0.092 OA 
BRANCH   6   9
HETATM    9  C   UNL     2      -7.783   9.633  67.072  1.00  0.00    -0.095 C  
HETATM   10  C   UNL     2      -7.268   8.819  68.248  1.00  0.00    -0.082 C  
ENDBRANCH   6   9
BRANCH   7  11
HETATM   11  O   UNL     2     -10.611  10.831  68.414  1.00  0.00    -0.175 OA 
BRANCH  11  12
HETATM   12  C   UNL     2     -10.588  11.915  67.449  1.00  0.00    -0.225 C  
HETATM   13  C   UNL     2     -10.839  11.503  65.958  1.00  0.00    -0.330 C  
HETATM   14  C   UNL     2     -10.869  12.787  64.985  1.00  0.00    -0.292 C  
HETATM   15  C   UNL     2     -10.085  14.153  64.861  1.00  0.00    -0.280 C  
HETATM   16  C   UNL     2     -10.302  14.841  66.237  1.00  0.00    -0.305 C  
HETATM   17  C   UNL     2     -11.593  14.228  66.838  1.00  0.00    -0.387 C  
HETATM   18  C   UNL     2     -11.380  13.150  67.918  1.00  0.00    -0.321 C  
HETATM   19  N   UNL     2     -12.213  13.560  65.608  1.00  0.00    -0.428 N  
HETATM   20  C   UNL     2     -13.434  12.655  65.809  1.00  0.00     2.864 C  
HETATM   21  C   UNL     2     -12.815  14.678  64.690  1.00  0.00     0.214 C  
ENDBRANCH  11  12
ENDBRANCH   7  11
ENDBRANCH   3   4
TORSDOF 4
ENDMDL
MODEL      280
REMARK 921   NORMALIZED FREE ENERGY PREDICTED BY IDOCK:   15.25 KCAL/MOL
REMARK 922        TOTAL FREE ENERGY PREDICTED BY IDOCK:   18.25 KCAL/MOL
REMARK 923 INTER-LIGAND FREE ENERGY PREDICTED BY IDOCK:   17.13 KCAL/MOL
REMARK 924 INTRA-LIGAND FREE ENERGY PREDICTED BY IDOCK:    1.12 KCAL/MOL
REMARK 927      BINDING AFFINITY PREDICTED BY RF-SCORE:    0.00 PKD
ROOT
HETATM    1 BR   UNL     1      -9.851   7.143  71.991  1.00  0.00    -0.178 Br 
HETATM    2  C   UNL     2     -12.993  19.410  67.534  1.00  0.00     6.067 C  
HETATM    3  C   UNL     2     -13.277  17.993  68.011  1.00  0.00     8.306 C  
ENDROOT
BRANCH   3   4
HETATM    4  C   UNL     2     -12.085  17.058  67.770  1.00  0.00     1.767 C  
HETATM    5  C   UNL     2     -10.836  17.385  68.626  1.00  0.00    -0.146 C  
HETATM    6  C   UNL     2     -11.120  17.390  70.144  1.00  0.00     1.131 C  
HETATM    7  C   UNL     2      -9.669  16.466  68.224  1.00  0.00    -0.224 C  
HETATM    8  O   UNL     2      -9.603  15.875  67.155  1.00  0.00    -0.215 OA 
BRANCH   6   9
HETATM    9  C   UNL     2     -11.629  16.050  70.686  1.00  0.00    -0.409 C  
HETATM   10  C   UNL     2     -13.023  15.727  70.174  1.00  0.00     0.240 C  
ENDBRANCH   6   9
BRANCH   7  11
HETATM   11  O   UNL     2      -8.676  16.460  69.154  1.00  0.00    -0.245 OA 
BRANCH  11  12
HETATM   12  C   UNL     2      -7.692  15.393  69.200  1.00  0.00    -0.207 C  
HETATM   13  C   UNL     2      -7.907  14.319  70.320  1.00  0.00     1.235 C  
HETATM   14  C   UNL     2      -6.808  13.144  70.234  1.00  0.00     0.782 C  
HETATM   15  C   UNL     2      -5.265  13.036  69.914  1.00  0.00    -0.089 C  
HETATM   16  C   UNL     2      -5.128  13.651  68.494  1.00  0.00    -0.090 C  
HETATM   17  C   UNL     2      -6.522  13.531  67.825  1.00  0.00    -0.170 C  
HETATM   18  C   UNL     2      -7.367  14.819  67.809  1.00  0.00    -0.186 C  
HETATM   19  N   UNL     2      -7.210  12.515  68.739  1.00  0.00    -0.106 N  
HETATM   20  C   UNL     2      -8.707  12.253  68.538  1.00  0.00    -0.071 C  
HETATM   21  C   UNL     2      -6.614  11.097  68.438  1.00  0.00    -0.058 C  
ENDBRANCH  11  12
ENDBRANCH   7  11
ENDBRANCH   3   4
TORSDOF 4
ENDMDL
MODEL      281
REMARK 921   NORMALIZED FREE ENERGY PREDICTED BY IDOCK:   15.72 KCAL/MOL
REMARK 922        TOTAL FREE ENERGY PREDICTED BY IDOCK:   18.84 KCAL/MOL
REMARK 923 INTER-LIGAND FREE ENERGY PREDICTED BY IDOCK:   18.78 KCAL/MOL
REMARK 924 INTRA-LIGAND FREE ENERGY PREDICTED BY IDOCK:    0.06 KCAL/MOL
REMARK 927      BINDING AFFINITY PREDICTED BY RF-SCORE:    0.00 PKD
ROOT
HETATM    1 BR   UNL     1     -13.029  10.803  62.530  1.00  0.00     5.142 Br 
HETATM    2  C   UNL     2      -5.145  18.707  69.986  1.00  0.00    -0.196 C  
HETATM    3  C   UNL     2      -5.542  17.913  68.749  1.00  0.00    -0.179 C  
ENDROOT
BRANCH   3   4
HETATM    4  C   UNL     2      -6.512  16.774  69.086  1.00  0.00    -0.208 C  
HETATM    5  C   UNL     2      -7.655  17.177  70.052  1.00  0.00     1.471 C  
HETATM    6  C   UNL     2      -8.497  18.366  69.542  1.00  0.00     0.613 C  
HETATM    7  C   UNL     2      -8.496  15.940  70.414  1.00  0.00     1.652 C  
HETATM    8  O   UNL     2      -8.101  14.788  70.299  1.00  0.00     0.440 OA 
BRANCH   6   9
HETATM    9  C   UNL     2      -9.190  18.106  68.201  1.00  0.00    -0.298 C  
HETATM   10  C   UNL     2     -10.703  18.179  68.323  1.00  0.00    -0.171 C  
ENDBRANCH   6   9
BRANCH   7  11
HETATM   11  O   UNL     2      -9.695  16.277  70.963  1.00  0.00     1.932 OA 
BRANCH  11  12
HETATM   12  C   UNL     2     -10.924  15.623  70.551  1.00  0.00    -0.350 C  
HETATM   13  C   UNL     2     -10.749  14.258  69.803  1.00  0.00     0.035 C  
HETATM   14  C   UNL     2     -12.172  13.583  69.459  1.00  0.00    -0.236 C  
HETATM   15  C   UNL     2     -13.595  14.081  68.987  1.00  0.00     4.370 C  
HETATM   16  C   UNL     2     -14.024  15.097  70.081  1.00  0.00     1.203 C  
HETATM   17  C   UNL     2     -13.223  14.733  71.358  1.00  0.00    -0.371 C  
HETATM   18  C   UNL     2     -12.000  15.622  71.653  1.00  0.00    -0.503 C  
HETATM   19  N   UNL     2     -12.726  13.328  71.015  1.00  0.00    -0.325 N  
HETATM   20  C   UNL     2     -11.710  12.666  71.954  1.00  0.00     2.760 C  
HETATM   21  C   UNL     2     -13.933  12.335  71.130  1.00  0.00     2.001 C  
ENDBRANCH  11  12
ENDBRANCH   7  11
ENDBRANCH   3   4
TORSDOF 4
ENDMDL
MODEL      282
REMARK 921   NORMALIZED FREE ENERGY PREDICTED BY IDOCK:   16.18 KCAL/MOL
REMARK 922        TOTAL FREE ENERGY PREDICTED BY IDOCK:   19.40 KCAL/MOL
REMARK 923 INTER-LIGAND FREE ENERGY PREDICTED BY IDOCK:   12.63 KCAL/MOL
REMARK 924 INTRA-LIGAND FREE ENERGY PREDICTED BY IDOCK:    6.77 KCAL/MOL
REMARK 927      BINDING AFFINITY PREDICTED BY RF-SCORE:    0.00 PKD
ROOT
HETATM    1 BR   UNL     1     -13.786   6.411  73.371  1.00  0.00     4.650 Br 
HETATM    2  C   UNL     2      -7.960  16.361  66.495  1.00  0.00    -0.342 C  
HETATM    3  C   UNL     2      -8.491  15.658  67.736  1.00  0.00    -0.158 C  
ENDROOT
BRANCH   3   4
HETATM    4  C   UNL     2      -9.590  14.645  67.394  1.00  0.00    -0.215 C  
HETATM    5  C   UNL     2     -10.663  14.472  68.499  1.00  0.00    -0.253 C  
HETATM    6  C   UNL     2     -11.358  15.795  68.888  1.00  0.00    -0.356 C  
HETATM    7  C   UNL     2     -11.646  13.356  68.105  1.00  0.00    -0.341 C  
HETATM    8  O   UNL     2     -11.397  12.486  67.281  1.00  0.00    -0.277 OA 
BRANCH   6   9
HETATM    9  C   UNL     2     -12.093  16.475  67.729  1.00  0.00     1.197 C  
HETATM   10  C   UNL     2     -13.403  15.776  67.403  1.00  0.00     4.938 C  
ENDBRANCH   6   9
BRANCH   7  11
HETATM   11  O   UNL     2     -12.788  13.392  68.845  1.00  0.00     0.613 OA 
BRANCH  11  12
HETATM   12  C   UNL     2     -12.936  14.311  69.958  1.00  0.00     0.161 C  
HETATM   13  C   UNL     2     -14.124  14.010  70.934  1.00  0.00     0.453 C  
HETATM   14  C   UNL     2     -14.152  15.042  72.172  1.00  0.00    -0.529 C  
HETATM   15  C   UNL     2     -13.881  16.583  72.388  1.00  0.00     1.504 C  
HETATM   16  C   UNL     2     -12.425  16.786  71.888  1.00  0.00     1.359 C  
HETATM   17  C   UNL     2     -11.730  15.403  71.979  1.00  0.00    -0.455 C  
HETATM   18  C   UNL     2     -11.599  14.634  70.651  1.00  0.00    -0.305 C  
HETATM   19  N   UNL     2     -12.696  14.637  72.885  1.00  0.00    -0.413 N  
HETATM   20  C   UNL     2     -12.476  13.132  73.077  1.00  0.00     1.802 C  
HETATM   21  C   UNL     2     -12.514  15.157  74.353  1.00  0.00    -0.403 C  
ENDBRANCH  11  12
ENDBRANCH   7  11
ENDBRANCH   3   4
TORSDOF 4
ENDMDL
MODEL      283
REMARK 921   NORMALIZED FREE ENERGY PREDICTED BY IDOCK:   16.20 KCAL/MOL
REMARK 922        TOTAL FREE ENERGY PREDICTED BY IDOCK:   19.43 KCAL/MOL
REMARK 923 INTER-LIGAND FREE ENERGY PREDICTED BY IDOCK:    9.98 KCAL/MOL
REMARK 924 INTRA-LIGAND FREE ENERGY PREDICTED BY IDOCK:    9.45 KCAL/MOL
REMARK 927      BINDING AFFINITY PREDICTED BY RF-SCORE:    0.00 PKD
ROOT
HETATM    1 BR   UNL     1     -10.443  19.915  72.798  1.00  0.00     5.310 Br 
HETATM    2  C   UNL     2     -13.005   7.091  69.765  1.00  0.00     2.442 C  
HETATM    3  C   UNL     2     -13.296   8.459  70.364  1.00  0.00     1.275 C  
ENDROOT
BRANCH   3   4
HETATM    4  C   UNL     2     -12.009   9.227  70.689  1.00  0.00    -0.206 C  
HETATM    5  C   UNL     2     -10.819   8.328  71.107  1.00  0.00    -0.276 C  
HETATM    6  C   UNL     2     -10.464   7.255  70.055  1.00  0.00    -0.234 C  
HETATM    7  C   UNL     2      -9.621   9.201  71.520  1.00  0.00    -0.208 C  
HETATM    8  O   UNL     2      -9.715  10.374  71.855  1.00  0.00     3.189 OA 
BRANCH   6   9
HETATM    9  C   UNL     2     -10.064   7.829  68.693  1.00  0.00    -0.211 C  
HETATM   10  C   UNL     2      -9.087   8.986  68.833  1.00  0.00    -0.140 C  
ENDBRANCH   6   9
BRANCH   7  11
HETATM   11  O   UNL     2      -8.459   8.494  71.560  1.00  0.00    -0.141 OA 
BRANCH  11  12
HETATM   12  C   UNL     2      -8.438   7.063  71.311  1.00  0.00    -0.118 C  
HETATM   13  C   UNL     2      -8.283   6.638  69.811  1.00  0.00    -0.127 C  
HETATM   14  C   UNL     2      -8.194   5.036  69.655  1.00  0.00    -0.088 C  
HETATM   15  C   UNL     2      -8.874   3.777  70.327  1.00  0.00    -0.145 C  
HETATM   16  C   UNL     2      -8.546   3.930  71.837  1.00  0.00    -0.115 C  
HETATM   17  C   UNL     2      -7.282   4.824  71.926  1.00  0.00    -0.063 C  
HETATM   18  C   UNL     2      -7.533   6.299  72.295  1.00  0.00    -0.094 C  
HETATM   19  N   UNL     2      -6.769   4.769  70.486  1.00  0.00    -0.035 N  
HETATM   20  C   UNL     2      -5.615   5.696  70.088  1.00  0.00    -0.009 C  
HETATM   21  C   UNL     2      -6.120   3.362  70.246  1.00  0.00    -0.023 C  
ENDBRANCH  11  12
ENDBRANCH   7  11
ENDBRANCH   3   4
TORSDOF 4
ENDMDL
MODEL      284
REMARK 921   NORMALIZED FREE ENERGY PREDICTED BY IDOCK:   17.23 KCAL/MOL
REMARK 922        TOTAL FREE ENERGY PREDICTED BY IDOCK:   20.71 KCAL/MOL
REMARK 923 INTER-LIGAND FREE ENERGY PREDICTED BY IDOCK:   20.25 KCAL/MOL
REMARK 924 INTRA-LIGAND FREE ENERGY PREDICTED BY IDOCK:    0.45 KCAL/MOL
REMARK 927      BINDING AFFINITY PREDICTED BY RF-SCORE:    0.00 PKD
ROOT
HETATM    1 BR   UNL     1     -13.030  10.802  62.531  1.00  0.00     5.142 Br 
HETATM    2  C   UNL     2      -5.199  18.559  70.194  1.00  0.00    -0.221 C  
HETATM    3  C   UNL     2      -5.585  17.785  68.941  1.00  0.00    -0.180 C  
ENDROOT
BRANCH   3   4
HETATM    4  C   UNL     2      -6.564  16.646  69.250  1.00  0.00    -0.214 C  
HETATM    5  C   UNL     2      -7.845  17.093  69.998  1.00  0.00     1.698 C  
HETATM    6  C   UNL     2      -8.635  18.192  69.254  1.00  0.00     0.272 C  
HETATM    7  C   UNL     2      -8.698  15.864  70.359  1.00  0.00     1.584 C  
HETATM    8  O   UNL     2      -8.260  14.723  70.419  1.00  0.00     0.665 OA 
BRANCH   6   9
HETATM    9  C   UNL     2      -9.117  17.777  67.861  1.00  0.00    -0.259 C  
HETATM   10  C   UNL     2      -8.041  17.981  66.807  1.00  0.00    -0.264 C  
ENDBRANCH   6   9
BRANCH   7  11
HETATM   11  O   UNL     2      -9.972  16.203  70.694  1.00  0.00     0.617 OA 
BRANCH  11  12
HETATM   12  C   UNL     2     -11.110  15.465  70.178  1.00  0.00    -0.307 C  
HETATM   13  C   UNL     2     -11.926  16.177  69.046  1.00  0.00    -0.060 C  
HETATM   14  C   UNL     2     -13.117  15.242  68.494  1.00  0.00     2.226 C  
HETATM   15  C   UNL     2     -14.155  14.223  69.109  1.00  0.00     6.883 C  
HETATM   16  C   UNL     2     -13.270  13.160  69.816  1.00  0.00     1.466 C  
HETATM   17  C   UNL     2     -11.880  13.218  69.133  1.00  0.00    -0.329 C  
HETATM   18  C   UNL     2     -10.788  13.983  69.906  1.00  0.00     0.152 C  
HETATM   19  N   UNL     2     -12.201  13.998  67.856  1.00  0.00    -0.253 N  
HETATM   20  C   UNL     2     -11.037  14.453  66.968  1.00  0.00    -0.313 C  
HETATM   21  C   UNL     2     -12.972  13.047  66.877  1.00  0.00     1.949 C  
ENDBRANCH  11  12
ENDBRANCH   7  11
ENDBRANCH   3   4
TORSDOF 4
ENDMDL
MODEL      285
REMARK 921   NORMALIZED FREE ENERGY PREDICTED BY IDOCK:   18.27 KCAL/MOL
REMARK 922        TOTAL FREE ENERGY PREDICTED BY IDOCK:   21.98 KCAL/MOL
REMARK 923 INTER-LIGAND FREE ENERGY PREDICTED BY IDOCK:   21.97 KCAL/MOL
REMARK 924 INTRA-LIGAND FREE ENERGY PREDICTED BY IDOCK:    0.01 KCAL/MOL
REMARK 927      BINDING AFFINITY PREDICTED BY RF-SCORE:    0.00 PKD
ROOT
HETATM    1 BR   UNL     1      -5.320  14.854  64.184  1.00  0.00    21.419 Br 
HETATM    2  C   UNL     2     -12.084   5.395  70.891  1.00  0.00     2.185 C  
HETATM    3  C   UNL     2     -11.866   6.434  69.801  1.00  0.00    -0.071 C  
ENDROOT
BRANCH   3   4
HETATM    4  C   UNL     2     -10.852   7.505  70.225  1.00  0.00    -0.257 C  
HETATM    5  C   UNL     2     -10.980   8.843  69.456  1.00  0.00    -0.097 C  
HETATM    6  C   UNL     2     -12.386   9.473  69.554  1.00  0.00     1.054 C  
HETATM    7  C   UNL     2      -9.849   9.799  69.874  1.00  0.00    -0.243 C  
HETATM    8  O   UNL     2      -8.806   9.434  70.400  1.00  0.00    -0.217 OA 
BRANCH   6   9
HETATM    9  C   UNL     2     -12.821   9.800  70.986  1.00  0.00    -0.374 C  
HETATM   10  C   UNL     2     -12.629  11.272  71.313  1.00  0.00    -0.487 C  
ENDBRANCH   6   9
BRANCH   7  11
HETATM   11  O   UNL     2     -10.101  11.085  69.509  1.00  0.00    -0.110 OA 
BRANCH  11  12
HETATM   12  C   UNL     2      -9.982  11.514  68.127  1.00  0.00    -0.192 C  
HETATM   13  C   UNL     2      -8.688  11.042  67.379  1.00  0.00    -0.132 C  
HETATM   14  C   UNL     2      -8.692  11.506  65.836  1.00  0.00    -0.058 C  
HETATM   15  C   UNL     2      -9.141  12.784  65.022  1.00  0.00     0.952 C  
HETATM   16  C   UNL     2     -10.648  12.943  65.365  1.00  0.00    -0.308 C  
HETATM   17  C   UNL     2     -11.148  11.544  65.810  1.00  0.00    -0.210 C  
HETATM   18  C   UNL     2     -11.288  11.338  67.330  1.00  0.00    -0.349 C  
HETATM   19  N   UNL     2     -10.020  10.643  65.303  1.00  0.00    -0.274 N  
HETATM   20  C   UNL     2     -10.028   9.166  65.715  1.00  0.00    -0.075 C  
HETATM   21  C   UNL     2     -10.146  10.521  63.746  1.00  0.00    -0.184 C  
ENDBRANCH  11  12
ENDBRANCH   7  11
ENDBRANCH   3   4
TORSDOF 4
ENDMDL
MODEL      286
REMARK 921   NORMALIZED FREE ENERGY PREDICTED BY IDOCK:   21.77 KCAL/MOL
REMARK 922        TOTAL FREE ENERGY PREDICTED BY IDOCK:   26.31 KCAL/MOL
REMARK 923 INTER-LIGAND FREE ENERGY PREDICTED BY IDOCK:   24.20 KCAL/MOL
REMARK 924 INTRA-LIGAND FREE ENERGY PREDICTED BY IDOCK:    2.11 KCAL/MOL
REMARK 927      BINDING AFFINITY PREDICTED BY RF-SCORE:    0.00 PKD
ROOT
HETATM    1 BR   UNL     1     -10.983  20.957  74.448  1.00  0.00    14.902 Br 
HETATM    2  C   UNL     2     -13.080  12.027  64.647  1.00  0.00     0.581 C  
HETATM    3  C   UNL     2     -13.396  12.770  65.937  1.00  0.00     2.186 C  
ENDROOT
BRANCH   3   4
HETATM    4  C   UNL     2     -12.130  13.327  66.601  1.00  0.00    -0.421 C  
HETATM    5  C   UNL     2     -10.932  12.345  66.611  1.00  0.00    -0.309 C  
HETATM    6  C   UNL     2     -10.535  11.850  65.203  1.00  0.00    -0.330 C  
HETATM    7  C   UNL     2      -9.759  12.956  67.398  1.00  0.00    -0.201 C  
HETATM    8  O   UNL     2      -9.882  13.859  68.214  1.00  0.00    -0.220 OA 
BRANCH   6   9
HETATM    9  C   UNL     2     -10.118  12.970  64.245  1.00  0.00    -0.216 C  
HETATM   10  C   UNL     2     -10.762  12.812  62.877  1.00  0.00     1.326 C  
ENDBRANCH   6   9
BRANCH   7  11
HETATM   11  O   UNL     2      -8.585  12.313  67.152  1.00  0.00    -0.174 OA 
BRANCH  11  12
HETATM   12  C   UNL     2      -7.692  11.934  68.232  1.00  0.00    -0.127 C  
HETATM   13  C   UNL     2      -7.972  12.613  69.616  1.00  0.00     1.392 C  
HETATM   14  C   UNL     2      -6.976  12.066  70.758  1.00  0.00     2.614 C  
HETATM   15  C   UNL     2      -5.454  11.653  70.853  1.00  0.00    -0.104 C  
HETATM   16  C   UNL     2      -5.296  10.535  69.786  1.00  0.00    -0.039 C  
HETATM   17  C   UNL     2      -6.709   9.936  69.564  1.00  0.00    -0.057 C  
HETATM   18  C   UNL     2      -7.445  10.415  68.298  1.00  0.00    -0.090 C  
HETATM   19  N   UNL     2      -7.460  10.467  70.787  1.00  0.00     0.720 N  
HETATM   20  C   UNL     2      -8.978  10.260  70.855  1.00  0.00     1.821 C  
HETATM   21  C   UNL     2      -6.990   9.658  72.045  1.00  0.00     0.942 C  
ENDBRANCH  11  12
ENDBRANCH   7  11
ENDBRANCH   3   4
TORSDOF 4
ENDMDL
MODEL      287
REMARK 921   NORMALIZED FREE ENERGY PREDICTED BY IDOCK:   24.43 KCAL/MOL
REMARK 922        TOTAL FREE ENERGY PREDICTED BY IDOCK:   29.59 KCAL/MOL
REMARK 923 INTER-LIGAND FREE ENERGY PREDICTED BY IDOCK:   24.24 KCAL/MOL
REMARK 924 INTRA-LIGAND FREE ENERGY PREDICTED BY IDOCK:    5.34 KCAL/MOL
REMARK 927      BINDING AFFINITY PREDICTED BY RF-SCORE:    0.00 PKD
ROOT
HETATM    1 BR   UNL     1     -14.318   6.010  63.345  1.00  0.00    15.253 Br 
HETATM    2  C   UNL     2      -7.597  14.617  71.152  1.00  0.00     2.319 C  
HETATM    3  C   UNL     2      -7.752  13.450  70.188  1.00  0.00     2.016 C  
ENDROOT
BRANCH   3   4
HETATM    4  C   UNL     2      -9.146  12.817  70.276  1.00  0.00     4.928 C  
HETATM    5  C   UNL     2     -10.041  13.075  69.038  1.00  0.00     0.157 C  
HETATM    6  C   UNL     2      -9.403  12.604  67.713  1.00  0.00    -0.198 C  
HETATM    7  C   UNL     2     -11.448  12.499  69.278  1.00  0.00    -0.293 C  
HETATM    8  O   UNL     2     -11.905  12.254  70.386  1.00  0.00    -0.303 OA 
BRANCH   6   9
HETATM    9  C   UNL     2      -9.094  11.105  67.670  1.00  0.00    -0.147 C  
HETATM   10  C   UNL     2      -8.855  10.537  69.060  1.00  0.00    -0.174 C  
ENDBRANCH   6   9
BRANCH   7  11
HETATM   11  O   UNL     2     -12.160  12.382  68.124  1.00  0.00    -0.362 OA 
BRANCH  11  12
HETATM   12  C   UNL     2     -11.743  13.059  66.909  1.00  0.00    -0.383 C  
HETATM   13  C   UNL     2     -10.845  12.220  65.938  1.00  0.00    -0.306 C  
HETATM   14  C   UNL     2     -10.504  13.036  64.591  1.00  0.00    -0.380 C  
HETATM   15  C   UNL     2     -10.162  14.531  64.209  1.00  0.00     0.923 C  
HETATM   16  C   UNL     2     -11.381  15.343  64.727  1.00  0.00    -0.381 C  
HETATM   17  C   UNL     2     -12.568  14.349  64.815  1.00  0.00    -0.265 C  
HETATM   18  C   UNL     2     -12.893  13.822  66.226  1.00  0.00    -0.081 C  
HETATM   19  N   UNL     2     -12.050  13.182  63.973  1.00  0.00    -0.431 N  
HETATM   20  C   UNL     2     -12.858  11.879  63.960  1.00  0.00    -0.171 C  
HETATM   21  C   UNL     2     -12.119  13.594  62.462  1.00  0.00     2.521 C  
ENDBRANCH  11  12
ENDBRANCH   7  11
ENDBRANCH   3   4
TORSDOF 4
ENDMDL
MODEL      288
REMARK 921   NORMALIZED FREE ENERGY PREDICTED BY IDOCK:   28.20 KCAL/MOL
REMARK 922        TOTAL FREE ENERGY PREDICTED BY IDOCK:   34.23 KCAL/MOL
REMARK 923 INTER-LIGAND FREE ENERGY PREDICTED BY IDOCK:   22.49 KCAL/MOL
REMARK 924 INTRA-LIGAND FREE ENERGY PREDICTED BY IDOCK:   11.75 KCAL/MOL
REMARK 927      BINDING AFFINITY PREDICTED BY RF-SCORE:    0.00 PKD
ROOT
HETATM    1 BR   UNL     1     -13.777   6.377  73.417  1.00  0.00     4.606 Br 
HETATM    2  C   UNL     2      -8.680  14.984  64.464  1.00  0.00     6.449 C  
HETATM    3  C   UNL     2      -8.988  14.451  65.857  1.00  0.00     0.384 C  
ENDROOT
BRANCH   3   4
HETATM    4  C   UNL     2     -10.230  13.550  65.863  1.00  0.00    -0.306 C  
HETATM    5  C   UNL     2     -10.788  13.246  67.275  1.00  0.00    -0.275 C  
HETATM    6  C   UNL     2     -11.134  14.516  68.083  1.00  0.00    -0.280 C  
HETATM    7  C   UNL     2     -11.955  12.248  67.174  1.00  0.00    -0.137 C  
HETATM    8  O   UNL     2     -12.142  11.512  66.215  1.00  0.00    -0.202 OA 
BRANCH   6   9
HETATM    9  C   UNL     2     -12.194  15.403  67.423  1.00  0.00     0.662 C  
HETATM   10  C   UNL     2     -13.592  14.827  67.584  1.00  0.00     6.034 C  
ENDBRANCH   6   9
BRANCH   7  11
HETATM   11  O   UNL     2     -12.700  12.211  68.313  1.00  0.00     0.499 OA 
BRANCH  11  12
HETATM   12  C   UNL     2     -12.257  12.874  69.526  1.00  0.00    -0.119 C  
HETATM   13  C   UNL     2     -11.966  14.408  69.395  1.00  0.00    -0.370 C  
HETATM   14  C   UNL     2     -11.555  15.058  70.811  1.00  0.00    -0.317 C  
HETATM   15  C   UNL     2     -10.699  14.627  72.067  1.00  0.00     1.761 C  
HETATM   16  C   UNL     2     -11.364  13.308  72.547  1.00  0.00     5.005 C  
HETATM   17  C   UNL     2     -12.821  13.331  72.017  1.00  0.00    -0.210 C  
HETATM   18  C   UNL     2     -13.087  12.479  70.761  1.00  0.00     0.175 C  
HETATM   19  N   UNL     2     -12.984  14.806  71.641  1.00  0.00    -0.314 N  
HETATM   20  C   UNL     2     -14.247  15.227  70.880  1.00  0.00    -0.021 C  
HETATM   21  C   UNL     2     -13.136  15.638  72.960  1.00  0.00    -0.536 C  
ENDBRANCH  11  12
ENDBRANCH   7  11
ENDBRANCH   3   4
TORSDOF 4
ENDMDL
MODEL      289
REMARK 921   NORMALIZED FREE ENERGY PREDICTED BY IDOCK:   30.04 KCAL/MOL
REMARK 922        TOTAL FREE ENERGY PREDICTED BY IDOCK:   36.51 KCAL/MOL
REMARK 923 INTER-LIGAND FREE ENERGY PREDICTED BY IDOCK:   36.20 KCAL/MOL
REMARK 924 INTRA-LIGAND FREE ENERGY PREDICTED BY IDOCK:    0.31 KCAL/MOL
REMARK 927      BINDING AFFINITY PREDICTED BY RF-SCORE:    0.00 PKD
ROOT
HETATM    1 BR   UNL     1      -5.232   2.032  72.761  1.00  0.00     0.000 Br 
HETATM    2  C   UNL     2     -13.451   6.302  63.043  1.00  0.00    11.050 C  
HETATM    3  C   UNL     2     -12.115   5.904  63.655  1.00  0.00     8.654 C  
ENDROOT
BRANCH   3   4
HETATM    4  C   UNL     2     -12.111   6.071  65.179  1.00  0.00     5.825 C  
HETATM    5  C   UNL     2     -11.611   4.826  65.955  1.00  0.00     1.646 C  
HETATM    6  C   UNL     2     -10.196   4.372  65.536  1.00  0.00    -0.260 C  
HETATM    7  C   UNL     2     -11.757   5.058  67.469  1.00  0.00     4.532 C  
HETATM    8  O   UNL     2     -12.506   5.890  67.963  1.00  0.00     4.521 OA 
BRANCH   6   9
HETATM    9  C   UNL     2      -9.113   5.433  65.755  1.00  0.00    -0.160 C  
HETATM   10  C   UNL     2      -7.818   4.821  66.263  1.00  0.00    -0.099 C  
ENDBRANCH   6   9
BRANCH   7  11
HETATM   11  O   UNL     2     -11.029   4.169  68.198  1.00  0.00     1.782 OA 
BRANCH  11  12
HETATM   12  C   UNL     2     -10.275   4.589  69.365  1.00  0.00     0.091 C  
HETATM   13  C   UNL     2      -8.746   4.838  69.132  1.00  0.00    -0.109 C  
HETATM   14  C   UNL     2      -8.021   5.372  70.469  1.00  0.00    -0.101 C  
HETATM   15  C   UNL     2      -8.114   5.083  72.019  1.00  0.00    -0.112 C  
HETATM   16  C   UNL     2      -9.599   5.374  72.371  1.00  0.00    -0.172 C  
HETATM   17  C   UNL     2     -10.131   6.336  71.277  1.00  0.00    -0.189 C  
HETATM   18  C   UNL     2     -10.990   5.685  70.177  1.00  0.00    -0.303 C  
HETATM   19  N   UNL     2      -8.827   6.826  70.643  1.00  0.00    -0.150 N  
HETATM   20  C   UNL     2      -8.911   7.667  69.364  1.00  0.00    -0.139 C  
HETATM   21  C   UNL     2      -8.150   7.841  71.627  1.00  0.00    -0.105 C  
ENDBRANCH  11  12
ENDBRANCH   7  11
ENDBRANCH   3   4
TORSDOF 4
ENDMDL
MODEL      290
REMARK 921   NORMALIZED FREE ENERGY PREDICTED BY IDOCK:   30.42 KCAL/MOL
REMARK 922        TOTAL FREE ENERGY PREDICTED BY IDOCK:   36.97 KCAL/MOL
REMARK 923 INTER-LIGAND FREE ENERGY PREDICTED BY IDOCK:   37.69 KCAL/MOL
REMARK 924 INTRA-LIGAND FREE ENERGY PREDICTED BY IDOCK:   -0.72 KCAL/MOL
REMARK 927      BINDING AFFINITY PREDICTED BY RF-SCORE:    0.00 PKD
ROOT
HETATM    1 BR   UNL     1      -5.232   2.032  72.761  1.00  0.00     0.000 Br 
HETATM    2  C   UNL     2     -13.451   6.302  63.043  1.00  0.00    11.050 C  
HETATM    3  C   UNL     2     -12.115   5.904  63.655  1.00  0.00     8.654 C  
ENDROOT
BRANCH   3   4
HETATM    4  C   UNL     2     -12.111   6.071  65.179  1.00  0.00     5.825 C  
HETATM    5  C   UNL     2     -11.611   4.826  65.955  1.00  0.00     1.646 C  
HETATM    6  C   UNL     2     -10.196   4.372  65.536  1.00  0.00    -0.260 C  
HETATM    7  C   UNL     2     -11.757   5.058  67.469  1.00  0.00     4.532 C  
HETATM    8  O   UNL     2     -12.506   5.890  67.963  1.00  0.00     4.521 OA 
BRANCH   6   9
HETATM    9  C   UNL     2      -9.113   5.433  65.755  1.00  0.00    -0.160 C  
HETATM   10  C   UNL     2      -7.818   4.821  66.263  1.00  0.00    -0.099 C  
ENDBRANCH   6   9
BRANCH   7  11
HETATM   11  O   UNL     2     -11.029   4.169  68.198  1.00  0.00     1.782 OA 
BRANCH  11  12
HETATM   12  C   UNL     2     -10.275   4.589  69.365  1.00  0.00     0.091 C  
HETATM   13  C   UNL     2     -11.110   4.802  70.673  1.00  0.00     1.122 C  
HETATM   14  C   UNL     2     -10.169   5.192  71.922  1.00  0.00    -0.209 C  
HETATM   15  C   UNL     2      -8.884   6.079  72.158  1.00  0.00    -0.135 C  
HETATM   16  C   UNL     2      -7.828   5.485  71.187  1.00  0.00    -0.109 C  
HETATM   17  C   UNL     2      -8.263   4.024  70.903  1.00  0.00    -0.067 C  
HETATM   18  C   UNL     2      -8.972   3.790  69.555  1.00  0.00    -0.168 C  
HETATM   19  N   UNL     2      -9.274   3.784  72.026  1.00  0.00    -0.116 N  
HETATM   20  C   UNL     2     -10.104   2.496  71.996  1.00  0.00    -0.125 C  
HETATM   21  C   UNL     2      -8.486   3.602  73.369  1.00  0.00    -0.083 C  
ENDBRANCH  11  12
ENDBRANCH   7  11
ENDBRANCH   3   4
TORSDOF 4
ENDMDL
MODEL      291
REMARK 921   NORMALIZED FREE ENERGY PREDICTED BY IDOCK:   31.07 KCAL/MOL
REMARK 922        TOTAL FREE ENERGY PREDICTED BY IDOCK:   37.78 KCAL/MOL
REMARK 923 INTER-LIGAND FREE ENERGY PREDICTED BY IDOCK:   24.41 KCAL/MOL
REMARK 924 INTRA-LIGAND FREE ENERGY PREDICTED BY IDOCK:   13.37 KCAL/MOL
REMARK 927      BINDING AFFINITY PREDICTED BY RF-SCORE:    0.00 PKD
ROOT
HETATM    1 BR   UNL     1     -14.384  18.834  68.765  1.00  0.00    17.232 Br 
HETATM    2  C   UNL     2      -7.813   8.001  64.329  1.00  0.00    -0.137 C  
HETATM    3  C   UNL     2      -8.202   9.473  64.357  1.00  0.00    -0.148 C  
ENDROOT
BRANCH   3   4
HETATM    4  C   UNL     2      -9.596   9.685  64.961  1.00  0.00    -0.284 C  
HETATM    5  C   UNL     2      -9.601  10.490  66.284  1.00  0.00    -0.232 C  
HETATM    6  C   UNL     2      -8.936  11.878  66.158  1.00  0.00    -0.116 C  
HETATM    7  C   UNL     2     -11.027  10.544  66.861  1.00  0.00    -0.131 C  
HETATM    8  O   UNL     2     -11.914   9.757  66.561  1.00  0.00     2.488 OA 
BRANCH   6   9
HETATM    9  C   UNL     2      -9.608  12.798  65.135  1.00  0.00     0.124 C  
HETATM   10  C   UNL     2      -8.630  13.805  64.551  1.00  0.00     5.754 C  
ENDBRANCH   6   9
BRANCH   7  11
HETATM   11  O   UNL     2     -11.161  11.509  67.811  1.00  0.00    -0.224 OA 
BRANCH  11  12
HETATM   12  C   UNL     2     -10.063  12.400  68.142  1.00  0.00    -0.224 C  
HETATM   13  C   UNL     2      -9.349  13.079  66.923  1.00  0.00    -0.241 C  
HETATM   14  C   UNL     2      -8.200  14.102  67.404  1.00  0.00    -0.193 C  
HETATM   15  C   UNL     2      -7.107  14.149  68.544  1.00  0.00    -0.103 C  
HETATM   16  C   UNL     2      -7.923  14.007  69.858  1.00  0.00     1.007 C  
HETATM   17  C   UNL     2      -9.365  14.475  69.534  1.00  0.00     0.305 C  
HETATM   18  C   UNL     2     -10.395  13.352  69.306  1.00  0.00     0.214 C  
HETATM   19  N   UNL     2      -9.156  15.212  68.209  1.00  0.00    -0.179 N  
HETATM   20  C   UNL     2     -10.392  15.674  67.430  1.00  0.00    -0.275 C  
HETATM   21  C   UNL     2      -8.460  16.583  68.512  1.00  0.00    -0.226 C  
ENDBRANCH  11  12
ENDBRANCH   7  11
ENDBRANCH   3   4
TORSDOF 4
ENDMDL
MODEL      292
REMARK 921   NORMALIZED FREE ENERGY PREDICTED BY IDOCK:   34.53 KCAL/MOL
REMARK 922        TOTAL FREE ENERGY PREDICTED BY IDOCK:   42.04 KCAL/MOL
REMARK 923 INTER-LIGAND FREE ENERGY PREDICTED BY IDOCK:   36.62 KCAL/MOL
REMARK 924 INTRA-LIGAND FREE ENERGY PREDICTED BY IDOCK:    5.42 KCAL/MOL
REMARK 927      BINDING AFFINITY PREDICTED BY RF-SCORE:    0.00 PKD
ROOT
HETATM    1 BR   UNL     1     -14.311   6.007  63.347  1.00  0.00    15.253 Br 
HETATM    2  C   UNL     2      -7.244  13.800  71.686  1.00  0.00     4.133 C  
HETATM    3  C   UNL     2      -7.453  12.676  70.680  1.00  0.00     3.954 C  
ENDROOT
BRANCH   3   4
HETATM    4  C   UNL     2      -8.898  12.160  70.692  1.00  0.00     7.306 C  
HETATM    5  C   UNL     2      -9.144  10.937  69.774  1.00  0.00     0.578 C  
HETATM    6  C   UNL     2      -8.223   9.739  70.091  1.00  0.00    -0.202 C  
HETATM    7  C   UNL     2     -10.640  10.576  69.771  1.00  0.00    -0.227 C  
HETATM    8  O   UNL     2     -11.530  11.350  70.095  1.00  0.00    -0.288 OA 
BRANCH   6   9
HETATM    9  C   UNL     2      -8.375   9.199  71.516  1.00  0.00     0.059 C  
HETATM   10  C   UNL     2      -8.853  10.273  72.480  1.00  0.00     7.798 C  
ENDBRANCH   6   9
BRANCH   7  11
HETATM   11  O   UNL     2     -10.866   9.328  69.278  1.00  0.00    -0.221 OA 
BRANCH  11  12
HETATM   12  C   UNL     2      -9.840   8.609  68.544  1.00  0.00    -0.169 C  
HETATM   13  C   UNL     2      -8.933   7.660  69.400  1.00  0.00    -0.139 C  
HETATM   14  C   UNL     2      -7.881   6.856  68.480  1.00  0.00    -0.118 C  
HETATM   15  C   UNL     2      -6.994   7.167  67.211  1.00  0.00    -0.078 C  
HETATM   16  C   UNL     2      -8.017   7.620  66.134  1.00  0.00    -0.110 C  
HETATM   17  C   UNL     2      -9.386   7.018  66.546  1.00  0.00    -0.159 C  
HETATM   18  C   UNL     2     -10.362   7.992  67.233  1.00  0.00    -0.371 C  
HETATM   19  N   UNL     2      -8.959   5.963  67.567  1.00  0.00    -0.109 N  
HETATM   20  C   UNL     2     -10.048   5.253  68.379  1.00  0.00    -0.159 C  
HETATM   21  C   UNL     2      -8.325   4.756  66.794  1.00  0.00    -0.106 C  
ENDBRANCH  11  12
ENDBRANCH   7  11
ENDBRANCH   3   4
TORSDOF 4
ENDMDL
MODEL      293
REMARK 921   NORMALIZED FREE ENERGY PREDICTED BY IDOCK:   37.90 KCAL/MOL
REMARK 922        TOTAL FREE ENERGY PREDICTED BY IDOCK:   46.21 KCAL/MOL
REMARK 923 INTER-LIGAND FREE ENERGY PREDICTED BY IDOCK:   44.69 KCAL/MOL
REMARK 924 INTRA-LIGAND FREE ENERGY PREDICTED BY IDOCK:    1.51 KCAL/MOL
REMARK 927      BINDING AFFINITY PREDICTED BY RF-SCORE:    0.00 PKD
ROOT
HETATM    1 BR   UNL     1      -9.856  19.965  72.076  1.00  0.00     3.577 Br 
HETATM    2  C   UNL     2      -8.890  10.156  62.962  1.00  0.00    -0.231 C  
HETATM    3  C   UNL     2      -9.462  11.424  63.580  1.00  0.00    -0.255 C  
ENDROOT
BRANCH   3   4
HETATM    4  C   UNL     2      -9.221  11.482  65.093  1.00  0.00    -0.065 C  
HETATM    5  C   UNL     2      -9.599  12.835  65.746  1.00  0.00    -0.102 C  
HETATM    6  C   UNL     2     -11.066  13.246  65.496  1.00  0.00    -0.299 C  
HETATM    7  C   UNL     2      -9.211  12.825  67.235  1.00  0.00    -0.203 C  
HETATM    8  O   UNL     2      -8.387  12.063  67.721  1.00  0.00    -0.139 OA 
BRANCH   6   9
HETATM    9  C   UNL     2     -12.093  12.248  66.038  1.00  0.00    -0.229 C  
HETATM   10  C   UNL     2     -11.892  11.980  67.521  1.00  0.00    -0.275 C  
ENDBRANCH   6   9
BRANCH   7  11
HETATM   11  O   UNL     2      -9.820  13.824  67.932  1.00  0.00    -0.220 OA 
BRANCH  11  12
HETATM   12  C   UNL     2      -9.539  14.042  69.339  1.00  0.00     0.492 C  
HETATM   13  C   UNL     2      -8.878  12.839  70.094  1.00  0.00     4.215 C  
HETATM   14  C   UNL     2      -8.540  13.213  71.625  1.00  0.00    14.536 C  
HETATM   15  C   UNL     2      -9.225  14.042  72.783  1.00  0.00    10.806 C  
HETATM   16  C   UNL     2      -9.400  15.462  72.181  1.00  0.00     5.668 C  
HETATM   17  C   UNL     2      -8.350  15.592  71.046  1.00  0.00     3.312 C  
HETATM   18  C   UNL     2      -8.891  15.411  69.614  1.00  0.00    -0.138 C  
HETATM   19  N   UNL     2      -7.417  14.421  71.360  1.00  0.00     2.449 N  
HETATM   20  C   UNL     2      -6.326  14.067  70.342  1.00  0.00    -0.073 C  
HETATM   21  C   UNL     2      -6.550  14.802  72.609  1.00  0.00     1.868 C  
ENDBRANCH  11  12
ENDBRANCH   7  11
ENDBRANCH   3   4
TORSDOF 4
ENDMDL
MODEL      294
REMARK 921   NORMALIZED FREE ENERGY PREDICTED BY IDOCK:   38.63 KCAL/MOL
REMARK 922        TOTAL FREE ENERGY PREDICTED BY IDOCK:   47.11 KCAL/MOL
REMARK 923 INTER-LIGAND FREE ENERGY PREDICTED BY IDOCK:   30.78 KCAL/MOL
REMARK 924 INTRA-LIGAND FREE ENERGY PREDICTED BY IDOCK:   16.33 KCAL/MOL
REMARK 927      BINDING AFFINITY PREDICTED BY RF-SCORE:    0.00 PKD
ROOT
HETATM    1 BR   UNL     1     -13.394   8.876  73.864  1.00  0.00     5.425 Br 
HETATM    2  C   UNL     2     -12.317  16.361  62.772  1.00  0.00     8.207 C  
HETATM    3  C   UNL     2     -13.052  15.592  63.860  1.00  0.00     1.801 C  
ENDROOT
BRANCH   3   4
HETATM    4  C   UNL     2     -12.173  14.501  64.483  1.00  0.00    -0.483 C  
HETATM    5  C   UNL     2     -11.449  14.931  65.784  1.00  0.00    -0.281 C  
HETATM    6  C   UNL     2     -12.412  15.433  66.882  1.00  0.00     1.261 C  
HETATM    7  C   UNL     2     -10.510  13.808  66.258  1.00  0.00    -0.291 C  
HETATM    8  O   UNL     2     -10.094  12.914  65.533  1.00  0.00    -0.278 OA 
BRANCH   6   9
HETATM    9  C   UNL     2     -13.440  14.390  67.331  1.00  0.00     4.752 C  
HETATM   10  C   UNL     2     -13.399  14.167  68.834  1.00  0.00     3.155 C  
ENDBRANCH   6   9
BRANCH   7  11
HETATM   11  O   UNL     2     -10.121  13.975  67.551  1.00  0.00    -0.233 OA 
BRANCH  11  12
HETATM   12  C   UNL     2     -10.722  13.206  68.625  1.00  0.00    -0.250 C  
HETATM   13  C   UNL     2     -10.768  13.912  70.023  1.00  0.00     0.472 C  
HETATM   14  C   UNL     2     -11.520  13.004  71.122  1.00  0.00     1.767 C  
HETATM   15  C   UNL     2     -11.599  11.468  71.483  1.00  0.00     1.720 C  
HETATM   16  C   UNL     2     -12.099  10.795  70.176  1.00  0.00    -0.427 C  
HETATM   17  C   UNL     2     -12.835  11.896  69.367  1.00  0.00     0.993 C  
HETATM   18  C   UNL     2     -12.034  12.517  68.207  1.00  0.00    -0.274 C  
HETATM   19  N   UNL     2     -13.044  12.970  70.437  1.00  0.00     0.316 N  
HETATM   20  C   UNL     2     -13.578  14.338  70.000  1.00  0.00     1.356 C  
HETATM   21  C   UNL     2     -14.188  12.493  71.398  1.00  0.00     2.075 C  
ENDBRANCH  11  12
ENDBRANCH   7  11
ENDBRANCH   3   4
TORSDOF 4
ENDMDL
MODEL      295
REMARK 921   NORMALIZED FREE ENERGY PREDICTED BY IDOCK:   44.67 KCAL/MOL
REMARK 922        TOTAL FREE ENERGY PREDICTED BY IDOCK:   54.55 KCAL/MOL
REMARK 923 INTER-LIGAND FREE ENERGY PREDICTED BY IDOCK:   55.17 KCAL/MOL
REMARK 924 INTRA-LIGAND FREE ENERGY PREDICTED BY IDOCK:   -0.61 KCAL/MOL
REMARK 927      BINDING AFFINITY PREDICTED BY RF-SCORE:    0.00 PKD
ROOT
HETATM    1 BR   UNL     1     -14.268   8.632  69.945  1.00  0.00     4.043 Br 
HETATM    2  C   UNL     2      -8.290  19.363  64.532  1.00  0.00     4.168 C  
HETATM    3  C   UNL     2      -9.279  18.207  64.588  1.00  0.00     5.560 C  
ENDROOT
BRANCH   3   4
HETATM    4  C   UNL     2      -8.788  17.079  65.504  1.00  0.00     0.767 C  
HETATM    5  C   UNL     2      -9.870  16.519  66.460  1.00  0.00    -0.292 C  
HETATM    6  C   UNL     2     -11.128  16.005  65.727  1.00  0.00    -0.032 C  
HETATM    7  C   UNL     2      -9.246  15.479  67.408  1.00  0.00    -0.202 C  
HETATM    8  O   UNL     2      -8.049  15.406  67.647  1.00  0.00    -0.133 OA 
BRANCH   6   9
HETATM    9  C   UNL     2     -10.851  14.869  64.739  1.00  0.00    -0.382 C  
HETATM   10  C   UNL     2     -11.976  14.711  63.728  1.00  0.00     0.160 C  
ENDBRANCH   6   9
BRANCH   7  11
HETATM   11  O   UNL     2     -10.188  14.712  68.020  1.00  0.00    -0.227 OA 
BRANCH  11  12
HETATM   12  C   UNL     2     -10.310  14.678  69.467  1.00  0.00    -0.063 C  
HETATM   13  C   UNL     2      -9.387  13.649  70.203  1.00  0.00     2.904 C  
HETATM   14  C   UNL     2      -9.546  13.748  71.803  1.00  0.00     9.601 C  
HETATM   15  C   UNL     2     -10.726  13.981  72.828  1.00  0.00     4.935 C  
HETATM   16  C   UNL     2     -11.334  15.345  72.402  1.00  0.00    -0.373 C  
HETATM   17  C   UNL     2     -10.221  16.103  71.633  1.00  0.00     2.664 C  
HETATM   18  C   UNL     2     -10.340  16.084  70.097  1.00  0.00    -0.119 C  
HETATM   19  N   UNL     2      -8.979  15.303  72.029  1.00  0.00     5.008 N  
HETATM   20  C   UNL     2      -7.657  15.610  71.316  1.00  0.00     3.471 C  
HETATM   21  C   UNL     2      -8.612  15.662  73.511  1.00  0.00    13.710 C  
ENDBRANCH  11  12
ENDBRANCH   7  11
ENDBRANCH   3   4
TORSDOF 4
ENDMDL
MODEL      296
REMARK 921   NORMALIZED FREE ENERGY PREDICTED BY IDOCK:   45.12 KCAL/MOL
REMARK 922        TOTAL FREE ENERGY PREDICTED BY IDOCK:   55.12 KCAL/MOL
REMARK 923 INTER-LIGAND FREE ENERGY PREDICTED BY IDOCK:   54.77 KCAL/MOL
REMARK 924 INTRA-LIGAND FREE ENERGY PREDICTED BY IDOCK:    0.35 KCAL/MOL
REMARK 927      BINDING AFFINITY PREDICTED BY RF-SCORE:    0.00 PKD
ROOT
HETATM    1 BR   UNL     1      -7.524  15.190  74.534  1.00  0.00     9.432 Br 
HETATM    2  C   UNL     2     -14.194  10.349  63.938  1.00  0.00     8.552 C  
HETATM    3  C   UNL     2     -13.651  10.335  65.360  1.00  0.00    14.866 C  
ENDROOT
BRANCH   3   4
HETATM    4  C   UNL     2     -12.407  11.220  65.506  1.00  0.00     2.141 C  
HETATM    5  C   UNL     2     -11.352  10.677  66.502  1.00  0.00     0.333 C  
HETATM    6  C   UNL     2     -10.867   9.251  66.161  1.00  0.00     0.742 C  
HETATM    7  C   UNL     2     -10.207  11.692  66.659  1.00  0.00    -0.216 C  
HETATM    8  O   UNL     2     -10.304  12.879  66.380  1.00  0.00    -0.259 OA 
BRANCH   6   9
HETATM    9  C   UNL     2     -10.207   9.132  64.784  1.00  0.00     1.860 C  
HETATM   10  C   UNL     2      -8.718   9.432  64.844  1.00  0.00    -0.220 C  
ENDBRANCH   6   9
BRANCH   7  11
HETATM   11  O   UNL     2      -9.104  11.138  67.232  1.00  0.00    -0.148 OA 
BRANCH  11  12
HETATM   12  C   UNL     2      -9.036  10.899  68.663  1.00  0.00    -0.162 C  
HETATM   13  C   UNL     2      -9.836   9.655  69.181  1.00  0.00    -0.189 C  
HETATM   14  C   UNL     2      -9.632   9.438  70.765  1.00  0.00    -0.255 C  
HETATM   15  C   UNL     2      -9.510  10.357  72.044  1.00  0.00     6.459 C  
HETATM   16  C   UNL     2      -8.304  11.284  71.732  1.00  0.00    11.225 C  
HETATM   17  C   UNL     2      -7.440  10.545  70.677  1.00  0.00     1.010 C  
HETATM   18  C   UNL     2      -7.607  11.027  69.224  1.00  0.00    -0.090 C  
HETATM   19  N   UNL     2      -7.991   9.121  70.779  1.00  0.00    -0.154 N  
HETATM   20  C   UNL     2      -7.531   8.088  69.743  1.00  0.00    -0.089 C  
HETATM   21  C   UNL     2      -7.454   8.477  72.104  1.00  0.00    -0.071 C  
ENDBRANCH  11  12
ENDBRANCH   7  11
ENDBRANCH   3   4
TORSDOF 4
ENDMDL
