MODEL        1
REMARK 921   NORMALIZED FREE ENERGY PREDICTED BY IDOCK:   -6.54 KCAL/MOL
REMARK 922        TOTAL FREE ENERGY PREDICTED BY IDOCK:   -7.86 KCAL/MOL
REMARK 923 INTER-LIGAND FREE ENERGY PREDICTED BY IDOCK:   -7.31 KCAL/MOL
REMARK 924 INTRA-LIGAND FREE ENERGY PREDICTED BY IDOCK:   -0.56 KCAL/MOL
REMARK 927      BINDING AFFINITY PREDICTED BY RF-SCORE:    0.00 PKD
ROOT
HETATM    1  C   UNL     1     -11.842  11.028  69.417  1.00  0.00    -0.335 C  
HETATM    2  O   UNL     1     -12.245  11.218  68.063  1.00  0.00    -0.621 OA 
ENDROOT
BRANCH   2   3
HETATM    3  C   UNL     1     -11.592  12.225  67.405  1.00  0.00    -0.355 A  
HETATM    4  C   UNL     1     -10.837  12.053  66.248  1.00  0.00    -0.316 A  
HETATM    5  C   UNL     1     -10.193  13.143  65.655  1.00  0.00    -0.294 A  
HETATM    6  C   UNL     1     -10.290  14.428  66.204  1.00  0.00    -0.305 A  
HETATM    7  C   UNL     1     -11.740  13.503  67.936  1.00  0.00    -0.392 A  
HETATM    8  C   UNL     1     -11.087  14.594  67.349  1.00  0.00    -0.331 A  
BRANCH   6   9
HETATM    9  C   UNL     1      -9.561  15.625  65.622  1.00  0.00    -0.319 C  
HETATM   10  C   UNL     1     -10.440  16.813  65.243  1.00  0.00    -0.131 C  
HETATM   11  O   UNL     1     -11.364  16.844  64.448  1.00  0.00    -1.133 OA 
HETATM   12  C   UNL     1     -10.005  17.984  66.001  1.00  0.00    -0.221 A  
HETATM   13  C   UNL     1     -10.541  19.259  65.998  1.00  0.00    -0.550 A  
HETATM   14  C   UNL     1      -9.937  20.215  66.820  1.00  0.00    -0.604 A  
HETATM   15  C   UNL     1      -8.826  19.881  67.618  1.00  0.00    -0.406 A  
HETATM   16  C   UNL     1      -8.300  18.586  67.606  1.00  0.00    -0.268 A  
HETATM   17  C   UNL     1      -8.914  17.654  66.789  1.00  0.00    -0.272 A  
HETATM   18  C   UNL     1      -8.567  16.248  66.595  1.00  0.00    -0.267 C  
HETATM   19  O   UNL     1      -7.607  15.720  67.127  1.00  0.00    -0.186 OA 
ENDBRANCH   6   9
ENDBRANCH   2   3
TORSDOF 2
ENDMDL
MODEL        2
REMARK 921   NORMALIZED FREE ENERGY PREDICTED BY IDOCK:   -6.50 KCAL/MOL
REMARK 922        TOTAL FREE ENERGY PREDICTED BY IDOCK:   -7.82 KCAL/MOL
REMARK 923 INTER-LIGAND FREE ENERGY PREDICTED BY IDOCK:   -7.45 KCAL/MOL
REMARK 924 INTRA-LIGAND FREE ENERGY PREDICTED BY IDOCK:   -0.37 KCAL/MOL
REMARK 927      BINDING AFFINITY PREDICTED BY RF-SCORE:    0.00 PKD
ROOT
HETATM    1  C   UNL     1     -12.470  11.719  63.104  1.00  0.00    -0.147 C  
HETATM    2  O   UNL     1     -12.530  13.065  63.568  1.00  0.00    -0.694 OA 
ENDROOT
BRANCH   2   3
HETATM    3  C   UNL     1     -12.212  13.232  64.889  1.00  0.00    -0.420 A  
HETATM    4  C   UNL     1     -12.503  14.372  65.634  1.00  0.00    -0.345 A  
HETATM    5  C   UNL     1     -12.125  14.455  66.977  1.00  0.00    -0.374 A  
HETATM    6  C   UNL     1     -11.449  13.400  67.606  1.00  0.00    -0.353 A  
HETATM    7  C   UNL     1     -11.586  12.156  65.511  1.00  0.00    -0.398 A  
HETATM    8  C   UNL     1     -11.198  12.241  66.854  1.00  0.00    -0.367 A  
BRANCH   6   9
HETATM    9  C   UNL     1     -10.974  13.475  69.045  1.00  0.00    -0.264 C  
HETATM   10  C   UNL     1     -10.868  14.878  69.634  1.00  0.00    -0.253 C  
HETATM   11  O   UNL     1     -10.188  15.810  69.241  1.00  0.00    -0.214 OA 
HETATM   12  C   UNL     1     -11.739  14.967  70.804  1.00  0.00    -0.371 A  
HETATM   13  C   UNL     1     -11.979  16.060  71.617  1.00  0.00    -0.569 A  
HETATM   14  C   UNL     1     -12.864  15.888  72.686  1.00  0.00    -0.548 A  
HETATM   15  C   UNL     1     -13.483  14.644  72.916  1.00  0.00    -0.528 A  
HETATM   16  C   UNL     1     -13.227  13.552  72.081  1.00  0.00    -0.551 A  
HETATM   17  C   UNL     1     -12.351  13.744  71.028  1.00  0.00    -0.452 A  
HETATM   18  C   UNL     1     -11.917  12.779  70.020  1.00  0.00    -0.301 C  
HETATM   19  O   UNL     1     -12.263  11.611  70.025  1.00  0.00    -0.296 OA 
ENDBRANCH   6   9
ENDBRANCH   2   3
TORSDOF 2
ENDMDL
MODEL        3
REMARK 921   NORMALIZED FREE ENERGY PREDICTED BY IDOCK:   -6.28 KCAL/MOL
REMARK 922        TOTAL FREE ENERGY PREDICTED BY IDOCK:   -7.56 KCAL/MOL
REMARK 923 INTER-LIGAND FREE ENERGY PREDICTED BY IDOCK:   -7.11 KCAL/MOL
REMARK 924 INTRA-LIGAND FREE ENERGY PREDICTED BY IDOCK:   -0.46 KCAL/MOL
REMARK 927      BINDING AFFINITY PREDICTED BY RF-SCORE:    0.00 PKD
ROOT
HETATM    1  C   UNL     1     -10.235  19.692  68.165  1.00  0.00    -0.461 C  
HETATM    2  O   UNL     1      -9.795  18.576  68.937  1.00  0.00    -0.377 OA 
ENDROOT
BRANCH   2   3
HETATM    3  C   UNL     1     -10.376  17.383  68.603  1.00  0.00    -0.364 A  
HETATM    4  C   UNL     1     -11.089  16.577  69.487  1.00  0.00    -0.245 A  
HETATM    5  C   UNL     1     -11.634  15.364  69.056  1.00  0.00    -0.361 A  
HETATM    6  C   UNL     1     -11.481  14.931  67.732  1.00  0.00    -0.353 A  
HETATM    7  C   UNL     1     -10.256  16.992  67.273  1.00  0.00    -0.310 A  
HETATM    8  C   UNL     1     -10.794  15.773  66.842  1.00  0.00    -0.265 A  
BRANCH   6   9
HETATM    9  C   UNL     1     -12.011  13.597  67.241  1.00  0.00    -0.420 C  
HETATM   10  C   UNL     1     -12.384  13.538  65.762  1.00  0.00    -0.468 C  
HETATM   11  O   UNL     1     -13.205  14.214  65.166  1.00  0.00    -0.743 OA 
HETATM   12  C   UNL     1     -11.584  12.503  65.113  1.00  0.00    -0.395 A  
HETATM   13  C   UNL     1     -11.570  12.136  63.779  1.00  0.00    -0.557 A  
HETATM   14  C   UNL     1     -10.706  11.103  63.403  1.00  0.00    -0.286 A  
HETATM   15  C   UNL     1      -9.884  10.468  64.354  1.00  0.00    -0.405 A  
HETATM   16  C   UNL     1      -9.914  10.855  65.697  1.00  0.00    -0.305 A  
HETATM   17  C   UNL     1     -10.773  11.880  66.048  1.00  0.00    -0.326 A  
HETATM   18  C   UNL     1     -10.993  12.469  67.368  1.00  0.00    -0.259 C  
HETATM   19  O   UNL     1     -10.446  12.062  68.377  1.00  0.00    -0.206 OA 
ENDBRANCH   6   9
ENDBRANCH   2   3
TORSDOF 2
ENDMDL
MODEL        4
REMARK 921   NORMALIZED FREE ENERGY PREDICTED BY IDOCK:   -6.26 KCAL/MOL
REMARK 922        TOTAL FREE ENERGY PREDICTED BY IDOCK:   -7.54 KCAL/MOL
REMARK 923 INTER-LIGAND FREE ENERGY PREDICTED BY IDOCK:   -7.09 KCAL/MOL
REMARK 924 INTRA-LIGAND FREE ENERGY PREDICTED BY IDOCK:   -0.45 KCAL/MOL
REMARK 927      BINDING AFFINITY PREDICTED BY RF-SCORE:    0.00 PKD
ROOT
HETATM    1  C   UNL     1     -12.599  16.085  74.205  1.00  0.00    -0.582 C  
HETATM    2  O   UNL     1     -13.456  15.595  73.176  1.00  0.00    -0.531 OA 
ENDROOT
BRANCH   2   3
HETATM    3  C   UNL     1     -12.821  15.260  72.011  1.00  0.00    -0.358 A  
HETATM    4  C   UNL     1     -13.255  14.274  71.129  1.00  0.00    -0.387 A  
HETATM    5  C   UNL     1     -12.529  13.993  69.968  1.00  0.00    -0.339 A  
HETATM    6  C   UNL     1     -11.354  14.693  69.662  1.00  0.00    -0.317 A  
HETATM    7  C   UNL     1     -11.683  15.998  71.697  1.00  0.00    -0.583 A  
HETATM    8  C   UNL     1     -10.949  15.712  70.539  1.00  0.00    -0.371 A  
BRANCH   6   9
HETATM    9  C   UNL     1     -10.509  14.380  68.440  1.00  0.00    -0.246 C  
HETATM   10  C   UNL     1     -10.610  12.951  67.915  1.00  0.00    -0.222 C  
HETATM   11  O   UNL     1     -10.352  11.914  68.501  1.00  0.00    -0.210 OA 
HETATM   12  C   UNL     1     -11.085  12.986  66.533  1.00  0.00    -0.315 A  
HETATM   13  C   UNL     1     -11.354  11.925  65.689  1.00  0.00    -0.339 A  
HETATM   14  C   UNL     1     -11.801  12.224  64.398  1.00  0.00    -0.464 A  
HETATM   15  C   UNL     1     -11.968  13.560  63.985  1.00  0.00    -0.501 A  
HETATM   16  C   UNL     1     -11.691  14.618  64.856  1.00  0.00    -0.403 A  
HETATM   17  C   UNL     1     -11.253  14.300  66.129  1.00  0.00    -0.331 A  
HETATM   18  C   UNL     1     -10.899  15.206  67.220  1.00  0.00    -0.316 C  
HETATM   19  O   UNL     1     -10.903  16.419  67.105  1.00  0.00    -0.279 OA 
ENDBRANCH   6   9
ENDBRANCH   2   3
TORSDOF 2
ENDMDL
MODEL        5
REMARK 921   NORMALIZED FREE ENERGY PREDICTED BY IDOCK:   -6.20 KCAL/MOL
REMARK 922        TOTAL FREE ENERGY PREDICTED BY IDOCK:   -7.49 KCAL/MOL
REMARK 923 INTER-LIGAND FREE ENERGY PREDICTED BY IDOCK:   -6.95 KCAL/MOL
REMARK 924 INTRA-LIGAND FREE ENERGY PREDICTED BY IDOCK:   -0.53 KCAL/MOL
REMARK 927      BINDING AFFINITY PREDICTED BY RF-SCORE:    0.00 PKD
ROOT
HETATM    1  C   UNL     1     -12.656  11.984  63.527  1.00  0.00    -0.507 C  
HETATM    2  O   UNL     1     -13.185  12.674  64.656  1.00  0.00    -0.828 OA 
ENDROOT
BRANCH   2   3
HETATM    3  C   UNL     1     -12.333  13.578  65.228  1.00  0.00    -0.467 A  
HETATM    4  C   UNL     1     -11.640  14.564  64.530  1.00  0.00    -0.385 A  
HETATM    5  C   UNL     1     -10.777  15.434  65.203  1.00  0.00    -0.460 A  
HETATM    6  C   UNL     1     -10.589  15.340  66.588  1.00  0.00    -0.304 A  
HETATM    7  C   UNL     1     -12.195  13.503  66.611  1.00  0.00    -0.411 A  
HETATM    8  C   UNL     1     -11.324  14.368  67.286  1.00  0.00    -0.357 A  
BRANCH   6   9
HETATM    9  C   UNL     1      -9.621  16.230  67.345  1.00  0.00    -0.230 C  
HETATM   10  C   UNL     1      -8.153  16.096  66.951  1.00  0.00    -0.240 C  
HETATM   11  O   UNL     1      -7.451  15.101  66.994  1.00  0.00    -0.184 OA 
HETATM   12  C   UNL     1      -7.666  17.393  66.488  1.00  0.00    -0.319 A  
HETATM   13  C   UNL     1      -6.412  17.719  66.004  1.00  0.00    -0.294 A  
HETATM   14  C   UNL     1      -6.192  19.046  65.623  1.00  0.00    -0.271 A  
HETATM   15  C   UNL     1      -7.216  20.006  65.730  1.00  0.00    -0.328 A  
HETATM   16  C   UNL     1      -8.477  19.655  66.222  1.00  0.00    -0.383 A  
HETATM   17  C   UNL     1      -8.675  18.337  66.591  1.00  0.00    -0.289 A  
HETATM   18  C   UNL     1      -9.885  17.716  67.128  1.00  0.00    -0.306 C  
HETATM   19  O   UNL     1     -10.901  18.342  67.372  1.00  0.00    -0.389 OA 
ENDBRANCH   6   9
ENDBRANCH   2   3
TORSDOF 2
ENDMDL
MODEL        6
REMARK 921   NORMALIZED FREE ENERGY PREDICTED BY IDOCK:   -6.15 KCAL/MOL
REMARK 922        TOTAL FREE ENERGY PREDICTED BY IDOCK:   -7.42 KCAL/MOL
REMARK 923 INTER-LIGAND FREE ENERGY PREDICTED BY IDOCK:   -6.89 KCAL/MOL
REMARK 924 INTRA-LIGAND FREE ENERGY PREDICTED BY IDOCK:   -0.53 KCAL/MOL
REMARK 927      BINDING AFFINITY PREDICTED BY RF-SCORE:    0.00 PKD
ROOT
HETATM    1  C   UNL     1     -12.618  11.861  63.247  1.00  0.00    -0.344 C  
HETATM    2  O   UNL     1     -13.209  12.363  64.443  1.00  0.00    -0.816 OA 
ENDROOT
BRANCH   2   3
HETATM    3  C   UNL     1     -12.368  13.094  65.238  1.00  0.00    -0.481 A  
HETATM    4  C   UNL     1     -11.844  12.653  66.450  1.00  0.00    -0.466 A  
HETATM    5  C   UNL     1     -11.002  13.479  67.199  1.00  0.00    -0.302 A  
HETATM    6  C   UNL     1     -10.664  14.764  66.754  1.00  0.00    -0.309 A  
HETATM    7  C   UNL     1     -12.003  14.348  64.756  1.00  0.00    -0.455 A  
HETATM    8  C   UNL     1     -11.167  15.181  65.511  1.00  0.00    -0.320 A  
BRANCH   6   9
HETATM    9  C   UNL     1      -9.798  15.710  67.565  1.00  0.00    -0.228 C  
HETATM   10  C   UNL     1      -8.755  16.493  66.773  1.00  0.00    -0.226 C  
HETATM   11  O   UNL     1      -7.842  16.057  66.094  1.00  0.00    -0.094 OA 
HETATM   12  C   UNL     1      -9.005  17.923  66.946  1.00  0.00    -0.265 A  
HETATM   13  C   UNL     1      -8.328  18.989  66.381  1.00  0.00    -0.315 A  
HETATM   14  C   UNL     1      -8.764  20.276  66.708  1.00  0.00    -0.353 A  
HETATM   15  C   UNL     1      -9.854  20.469  67.578  1.00  0.00    -0.534 A  
HETATM   16  C   UNL     1     -10.524  19.377  68.137  1.00  0.00    -0.476 A  
HETATM   17  C   UNL     1     -10.079  18.112  67.800  1.00  0.00    -0.371 A  
HETATM   18  C   UNL     1     -10.598  16.819  68.240  1.00  0.00    -0.352 C  
HETATM   19  O   UNL     1     -11.507  16.705  69.043  1.00  0.00    -0.183 OA 
ENDBRANCH   6   9
ENDBRANCH   2   3
TORSDOF 2
ENDMDL
MODEL        7
REMARK 921   NORMALIZED FREE ENERGY PREDICTED BY IDOCK:   -6.12 KCAL/MOL
REMARK 922        TOTAL FREE ENERGY PREDICTED BY IDOCK:   -7.39 KCAL/MOL
REMARK 923 INTER-LIGAND FREE ENERGY PREDICTED BY IDOCK:   -6.98 KCAL/MOL
REMARK 924 INTRA-LIGAND FREE ENERGY PREDICTED BY IDOCK:   -0.41 KCAL/MOL
REMARK 927      BINDING AFFINITY PREDICTED BY RF-SCORE:    0.00 PKD
ROOT
HETATM    1  C   UNL     1     -10.254  19.830  68.273  1.00  0.00    -0.447 C  
HETATM    2  O   UNL     1      -9.922  18.651  69.003  1.00  0.00    -0.385 OA 
ENDROOT
BRANCH   2   3
HETATM    3  C   UNL     1     -10.343  17.482  68.430  1.00  0.00    -0.378 A  
HETATM    4  C   UNL     1     -10.032  17.080  67.134  1.00  0.00    -0.281 A  
HETATM    5  C   UNL     1     -10.523  15.872  66.630  1.00  0.00    -0.306 A  
HETATM    6  C   UNL     1     -11.335  15.039  67.411  1.00  0.00    -0.338 A  
HETATM    7  C   UNL     1     -11.106  16.643  69.236  1.00  0.00    -0.199 A  
HETATM    8  C   UNL     1     -11.607  15.437  68.730  1.00  0.00    -0.382 A  
BRANCH   6   9
HETATM    9  C   UNL     1     -11.931  13.747  66.882  1.00  0.00    -0.460 C  
HETATM   10  C   UNL     1     -12.089  13.664  65.367  1.00  0.00    -0.403 C  
HETATM   11  O   UNL     1     -12.735  14.396  64.637  1.00  0.00    -0.655 OA 
HETATM   12  C   UNL     1     -11.321  12.524  64.872  1.00  0.00    -0.351 A  
HETATM   13  C   UNL     1     -11.154  12.101  63.566  1.00  0.00    -0.525 A  
HETATM   14  C   UNL     1     -10.363  10.968  63.352  1.00  0.00    -0.373 A  
HETATM   15  C   UNL     1      -9.764  10.292  64.432  1.00  0.00    -0.381 A  
HETATM   16  C   UNL     1      -9.946  10.737  65.744  1.00  0.00    -0.306 A  
HETATM   17  C   UNL     1     -10.729  11.861  65.935  1.00  0.00    -0.326 A  
HETATM   18  C   UNL     1     -11.073  12.525  67.190  1.00  0.00    -0.276 C  
HETATM   19  O   UNL     1     -10.727  12.107  68.281  1.00  0.00    -0.206 OA 
ENDBRANCH   6   9
ENDBRANCH   2   3
TORSDOF 2
ENDMDL
MODEL        8
REMARK 921   NORMALIZED FREE ENERGY PREDICTED BY IDOCK:   -6.01 KCAL/MOL
REMARK 922        TOTAL FREE ENERGY PREDICTED BY IDOCK:   -7.27 KCAL/MOL
REMARK 923 INTER-LIGAND FREE ENERGY PREDICTED BY IDOCK:   -6.79 KCAL/MOL
REMARK 924 INTRA-LIGAND FREE ENERGY PREDICTED BY IDOCK:   -0.48 KCAL/MOL
REMARK 927      BINDING AFFINITY PREDICTED BY RF-SCORE:    0.00 PKD
ROOT
HETATM    1  C   UNL     1     -11.421  12.648  63.634  1.00  0.00    -0.495 C  
HETATM    2  O   UNL     1     -12.361  13.557  64.202  1.00  0.00    -0.574 OA 
ENDROOT
BRANCH   2   3
HETATM    3  C   UNL     1     -11.870  14.331  65.218  1.00  0.00    -0.374 A  
HETATM    4  C   UNL     1     -12.150  14.135  66.568  1.00  0.00    -0.481 A  
HETATM    5  C   UNL     1     -11.612  14.991  67.533  1.00  0.00    -0.315 A  
HETATM    6  C   UNL     1     -10.781  16.060  67.172  1.00  0.00    -0.283 A  
HETATM    7  C   UNL     1     -11.007  15.358  64.846  1.00  0.00    -0.453 A  
HETATM    8  C   UNL     1     -10.475  16.222  65.811  1.00  0.00    -0.379 A  
BRANCH   6   9
HETATM    9  C   UNL     1     -10.223  17.041  68.186  1.00  0.00    -0.322 C  
HETATM   10  C   UNL     1      -8.766  16.822  68.584  1.00  0.00    -0.255 C  
HETATM   11  O   UNL     1      -8.265  15.835  69.094  1.00  0.00    -0.216 OA 
HETATM   12  C   UNL     1      -8.001  18.024  68.258  1.00  0.00    -0.294 A  
HETATM   13  C   UNL     1      -6.645  18.249  68.415  1.00  0.00    -0.213 A  
HETATM   14  C   UNL     1      -6.149  19.496  68.024  1.00  0.00    -0.234 A  
HETATM   15  C   UNL     1      -7.006  20.478  67.491  1.00  0.00    -0.370 A  
HETATM   16  C   UNL     1      -8.373  20.229  67.340  1.00  0.00    -0.396 A  
HETATM   17  C   UNL     1      -8.844  18.988  67.731  1.00  0.00    -0.326 A  
HETATM   18  C   UNL     1     -10.212  18.479  67.679  1.00  0.00    -0.387 C  
HETATM   19  O   UNL     1     -11.159  19.151  67.310  1.00  0.00    -0.417 OA 
ENDBRANCH   6   9
ENDBRANCH   2   3
TORSDOF 2
ENDMDL
MODEL        9
REMARK 921   NORMALIZED FREE ENERGY PREDICTED BY IDOCK:   -5.96 KCAL/MOL
REMARK 922        TOTAL FREE ENERGY PREDICTED BY IDOCK:   -7.21 KCAL/MOL
REMARK 923 INTER-LIGAND FREE ENERGY PREDICTED BY IDOCK:   -6.67 KCAL/MOL
REMARK 924 INTRA-LIGAND FREE ENERGY PREDICTED BY IDOCK:   -0.54 KCAL/MOL
REMARK 927      BINDING AFFINITY PREDICTED BY RF-SCORE:    0.00 PKD
ROOT
HETATM    1  C   UNL     1      -6.248  19.358  69.399  1.00  0.00    -0.297 C  
HETATM    2  O   UNL     1      -7.201  19.444  68.342  1.00  0.00    -0.284 OA 
ENDROOT
BRANCH   2   3
HETATM    3  C   UNL     1      -8.216  18.529  68.407  1.00  0.00    -0.328 A  
HETATM    4  C   UNL     1      -8.065  17.210  68.829  1.00  0.00    -0.252 A  
HETATM    5  C   UNL     1      -9.162  16.344  68.847  1.00  0.00    -0.259 A  
HETATM    6  C   UNL     1     -10.433  16.775  68.446  1.00  0.00    -0.339 A  
HETATM    7  C   UNL     1      -9.481  18.987  68.052  1.00  0.00    -0.370 A  
HETATM    8  C   UNL     1     -10.579  18.118  68.061  1.00  0.00    -0.359 A  
BRANCH   6   9
HETATM    9  C   UNL     1     -11.635  15.850  68.400  1.00  0.00    -0.317 C  
HETATM   10  C   UNL     1     -11.468  14.590  67.556  1.00  0.00    -0.356 C  
HETATM   11  O   UNL     1     -11.216  14.509  66.366  1.00  0.00    -0.328 OA 
HETATM   12  C   UNL     1     -11.661  13.420  68.409  1.00  0.00    -0.390 A  
HETATM   13  C   UNL     1     -11.565  12.082  68.069  1.00  0.00    -0.407 A  
HETATM   14  C   UNL     1     -11.800  11.142  69.077  1.00  0.00    -0.418 A  
HETATM   15  C   UNL     1     -12.120  11.553  70.385  1.00  0.00    -0.471 A  
HETATM   16  C   UNL     1     -12.211  12.910  70.707  1.00  0.00    -0.348 A  
HETATM   17  C   UNL     1     -11.973  13.824  69.697  1.00  0.00    -0.399 A  
HETATM   18  C   UNL     1     -12.003  15.283  69.767  1.00  0.00    -0.347 C  
HETATM   19  O   UNL     1     -12.310  15.895  70.775  1.00  0.00    -0.406 OA 
ENDBRANCH   6   9
ENDBRANCH   2   3
TORSDOF 2
ENDMDL
MODEL       10
REMARK 921   NORMALIZED FREE ENERGY PREDICTED BY IDOCK:   -5.95 KCAL/MOL
REMARK 922        TOTAL FREE ENERGY PREDICTED BY IDOCK:   -7.20 KCAL/MOL
REMARK 923 INTER-LIGAND FREE ENERGY PREDICTED BY IDOCK:   -6.79 KCAL/MOL
REMARK 924 INTRA-LIGAND FREE ENERGY PREDICTED BY IDOCK:   -0.42 KCAL/MOL
REMARK 927      BINDING AFFINITY PREDICTED BY RF-SCORE:    0.00 PKD
ROOT
HETATM    1  C   UNL     1     -10.276   6.545  74.055  1.00  0.00    -0.353 C  
HETATM    2  O   UNL     1      -9.592   7.058  72.914  1.00  0.00    -0.141 OA 
ENDROOT
BRANCH   2   3
HETATM    3  C   UNL     1     -10.260   8.042  72.239  1.00  0.00    -0.260 A  
HETATM    4  C   UNL     1      -9.668   8.929  71.342  1.00  0.00    -0.370 A  
HETATM    5  C   UNL     1     -10.433   9.913  70.710  1.00  0.00    -0.253 A  
HETATM    6  C   UNL     1     -11.807  10.032  70.958  1.00  0.00    -0.476 A  
HETATM    7  C   UNL     1     -11.633   8.115  72.458  1.00  0.00    -0.468 A  
HETATM    8  C   UNL     1     -12.399   9.107  71.832  1.00  0.00    -0.455 A  
BRANCH   6   9
HETATM    9  C   UNL     1     -12.660  11.121  70.333  1.00  0.00    -0.328 C  
HETATM   10  C   UNL     1     -12.785  12.409  71.141  1.00  0.00    -0.240 C  
HETATM   11  O   UNL     1     -13.228  12.550  72.268  1.00  0.00    -0.469 OA 
HETATM   12  C   UNL     1     -12.276  13.521  70.342  1.00  0.00    -0.426 A  
HETATM   13  C   UNL     1     -12.166  14.854  70.694  1.00  0.00    -0.379 A  
HETATM   14  C   UNL     1     -11.643  15.732  69.740  1.00  0.00    -0.359 A  
HETATM   15  C   UNL     1     -11.244  15.266  68.473  1.00  0.00    -0.308 A  
HETATM   16  C   UNL     1     -11.363  13.914  68.138  1.00  0.00    -0.324 A  
HETATM   17  C   UNL     1     -11.881  13.061  69.096  1.00  0.00    -0.360 A  
HETATM   18  C   UNL     1     -12.107  11.620  69.003  1.00  0.00    -0.225 C  
HETATM   19  O   UNL     1     -11.898  10.978  67.988  1.00  0.00    -0.593 OA 
ENDBRANCH   6   9
ENDBRANCH   2   3
TORSDOF 2
ENDMDL
MODEL       11
REMARK 921   NORMALIZED FREE ENERGY PREDICTED BY IDOCK:   -5.93 KCAL/MOL
REMARK 922        TOTAL FREE ENERGY PREDICTED BY IDOCK:   -7.18 KCAL/MOL
REMARK 923 INTER-LIGAND FREE ENERGY PREDICTED BY IDOCK:   -6.64 KCAL/MOL
REMARK 924 INTRA-LIGAND FREE ENERGY PREDICTED BY IDOCK:   -0.53 KCAL/MOL
REMARK 927      BINDING AFFINITY PREDICTED BY RF-SCORE:    0.00 PKD
ROOT
HETATM    1  C   UNL     1      -6.122  21.124  68.074  1.00  0.00    -0.319 C  
HETATM    2  O   UNL     1      -7.228  21.299  67.191  1.00  0.00    -0.475 OA 
ENDROOT
BRANCH   2   3
HETATM    3  C   UNL     1      -8.043  20.206  67.067  1.00  0.00    -0.326 A  
HETATM    4  C   UNL     1      -7.622  18.951  66.634  1.00  0.00    -0.252 A  
HETATM    5  C   UNL     1      -8.535  17.898  66.526  1.00  0.00    -0.284 A  
HETATM    6  C   UNL     1      -9.887  18.075  66.850  1.00  0.00    -0.330 A  
HETATM    7  C   UNL     1      -9.371  20.386  67.441  1.00  0.00    -0.536 A  
HETATM    8  C   UNL     1     -10.289  19.334  67.324  1.00  0.00    -0.538 A  
BRANCH   6   9
HETATM    9  C   UNL     1     -10.917  16.971  66.694  1.00  0.00     0.176 C  
HETATM   10  C   UNL     1     -10.974  16.310  65.320  1.00  0.00    -0.236 C  
HETATM   11  O   UNL     1     -11.201  16.832  64.243  1.00  0.00    -1.163 OA 
HETATM   12  C   UNL     1     -10.706  14.881  65.471  1.00  0.00    -0.369 A  
HETATM   13  C   UNL     1     -10.623  13.913  64.487  1.00  0.00    -0.375 A  
HETATM   14  C   UNL     1     -10.354  12.602  64.893  1.00  0.00    -0.330 A  
HETATM   15  C   UNL     1     -10.174  12.292  66.255  1.00  0.00    -0.251 A  
HETATM   16  C   UNL     1     -10.261  13.287  67.233  1.00  0.00    -0.240 A  
HETATM   17  C   UNL     1     -10.525  14.577  66.811  1.00  0.00    -0.270 A  
HETATM   18  C   UNL     1     -10.664  15.786  67.619  1.00  0.00    -0.310 C  
HETATM   19  O   UNL     1     -10.609  15.783  68.836  1.00  0.00    -0.214 OA 
ENDBRANCH   6   9
ENDBRANCH   2   3
TORSDOF 2
ENDMDL
MODEL       12
REMARK 921   NORMALIZED FREE ENERGY PREDICTED BY IDOCK:   -5.91 KCAL/MOL
REMARK 922        TOTAL FREE ENERGY PREDICTED BY IDOCK:   -7.15 KCAL/MOL
REMARK 923 INTER-LIGAND FREE ENERGY PREDICTED BY IDOCK:   -6.68 KCAL/MOL
REMARK 924 INTRA-LIGAND FREE ENERGY PREDICTED BY IDOCK:   -0.48 KCAL/MOL
REMARK 927      BINDING AFFINITY PREDICTED BY RF-SCORE:    0.00 PKD
ROOT
HETATM    1  C   UNL     1     -14.236   8.692  72.189  1.00  0.00    -0.439 C  
HETATM    2  O   UNL     1     -12.916   9.119  72.518  1.00  0.00    -0.407 OA 
ENDROOT
BRANCH   2   3
HETATM    3  C   UNL     1     -12.205   9.643  71.474  1.00  0.00    -0.399 A  
HETATM    4  C   UNL     1     -10.866   9.364  71.209  1.00  0.00    -0.431 A  
HETATM    5  C   UNL     1     -10.220   9.961  70.124  1.00  0.00    -0.326 A  
HETATM    6  C   UNL     1     -10.896  10.849  69.277  1.00  0.00    -0.286 A  
HETATM    7  C   UNL     1     -12.905  10.484  70.613  1.00  0.00    -0.407 A  
HETATM    8  C   UNL     1     -12.256  11.090  69.531  1.00  0.00    -0.352 A  
BRANCH   6   9
HETATM    9  C   UNL     1     -10.215  11.559  68.121  1.00  0.00    -0.205 C  
HETATM   10  C   UNL     1     -10.442  10.946  66.743  1.00  0.00    -0.251 C  
HETATM   11  O   UNL     1     -10.166   9.820  66.364  1.00  0.00    -0.242 OA 
HETATM   12  C   UNL     1     -11.071  11.943  65.879  1.00  0.00    -0.365 A  
HETATM   13  C   UNL     1     -11.485  11.806  64.567  1.00  0.00    -0.322 A  
HETATM   14  C   UNL     1     -12.064  12.921  63.953  1.00  0.00    -0.553 A  
HETATM   15  C   UNL     1     -12.217  14.132  64.655  1.00  0.00    -0.465 A  
HETATM   16  C   UNL     1     -11.792  14.248  65.982  1.00  0.00    -0.399 A  
HETATM   17  C   UNL     1     -11.224  13.134  66.571  1.00  0.00    -0.339 A  
HETATM   18  C   UNL     1     -10.704  12.990  67.930  1.00  0.00    -0.235 C  
HETATM   19  O   UNL     1     -10.665  13.909  68.728  1.00  0.00    -0.255 OA 
ENDBRANCH   6   9
ENDBRANCH   2   3
TORSDOF 2
ENDMDL
MODEL       13
REMARK 921   NORMALIZED FREE ENERGY PREDICTED BY IDOCK:   -5.89 KCAL/MOL
REMARK 922        TOTAL FREE ENERGY PREDICTED BY IDOCK:   -7.14 KCAL/MOL
REMARK 923 INTER-LIGAND FREE ENERGY PREDICTED BY IDOCK:   -6.60 KCAL/MOL
REMARK 924 INTRA-LIGAND FREE ENERGY PREDICTED BY IDOCK:   -0.53 KCAL/MOL
REMARK 927      BINDING AFFINITY PREDICTED BY RF-SCORE:    0.00 PKD
ROOT
HETATM    1  C   UNL     1     -12.715  15.098  73.491  1.00  0.00    -0.547 C  
HETATM    2  O   UNL     1     -13.332  14.178  72.594  1.00  0.00    -0.480 OA 
ENDROOT
BRANCH   2   3
HETATM    3  C   UNL     1     -12.774  14.129  71.346  1.00  0.00    -0.364 A  
HETATM    4  C   UNL     1     -12.448  12.955  70.671  1.00  0.00    -0.333 A  
HETATM    5  C   UNL     1     -11.865  13.008  69.401  1.00  0.00    -0.380 A  
HETATM    6  C   UNL     1     -11.596  14.233  68.778  1.00  0.00    -0.357 A  
HETATM    7  C   UNL     1     -12.559  15.353  70.720  1.00  0.00    -0.497 A  
HETATM    8  C   UNL     1     -11.966  15.408  69.453  1.00  0.00    -0.351 A  
BRANCH   6   9
HETATM    9  C   UNL     1     -10.915  14.332  67.425  1.00  0.00    -0.301 C  
HETATM   10  C   UNL     1      -9.700  13.429  67.230  1.00  0.00    -0.232 C  
HETATM   11  O   UNL     1      -8.667  13.407  67.876  1.00  0.00    -0.166 OA 
HETATM   12  C   UNL     1      -9.948  12.541  66.096  1.00  0.00    -0.267 A  
HETATM   13  C   UNL     1      -9.135  11.542  65.592  1.00  0.00    -0.136 A  
HETATM   14  C   UNL     1      -9.604  10.825  64.487  1.00  0.00    -0.322 A  
HETATM   15  C   UNL     1     -10.858  11.117  63.918  1.00  0.00    -0.346 A  
HETATM   16  C   UNL     1     -11.665  12.130  64.444  1.00  0.00    -0.430 A  
HETATM   17  C   UNL     1     -11.184  12.826  65.538  1.00  0.00    -0.329 A  
HETATM   18  C   UNL     1     -11.821  13.918  66.271  1.00  0.00    -0.408 C  
HETATM   19  O   UNL     1     -12.891  14.402  65.947  1.00  0.00    -0.359 OA 
ENDBRANCH   6   9
ENDBRANCH   2   3
TORSDOF 2
ENDMDL
MODEL       14
REMARK 921   NORMALIZED FREE ENERGY PREDICTED BY IDOCK:   -5.87 KCAL/MOL
REMARK 922        TOTAL FREE ENERGY PREDICTED BY IDOCK:   -7.12 KCAL/MOL
REMARK 923 INTER-LIGAND FREE ENERGY PREDICTED BY IDOCK:   -7.15 KCAL/MOL
REMARK 924 INTRA-LIGAND FREE ENERGY PREDICTED BY IDOCK:    0.04 KCAL/MOL
REMARK 927      BINDING AFFINITY PREDICTED BY RF-SCORE:    0.00 PKD
ROOT
HETATM    1  C   UNL     1     -14.314   8.335  71.992  1.00  0.00    -0.450 C  
HETATM    2  O   UNL     1     -13.378   9.271  72.522  1.00  0.00    -0.457 OA 
ENDROOT
BRANCH   2   3
HETATM    3  C   UNL     1     -12.743  10.040  71.586  1.00  0.00    -0.435 A  
HETATM    4  C   UNL     1     -12.870  11.423  71.481  1.00  0.00    -0.508 A  
HETATM    5  C   UNL     1     -12.190  12.122  70.480  1.00  0.00    -0.392 A  
HETATM    6  C   UNL     1     -11.368  11.456  69.561  1.00  0.00    -0.357 A  
HETATM    7  C   UNL     1     -11.891   9.369  70.714  1.00  0.00    -0.323 A  
HETATM    8  C   UNL     1     -11.217  10.066  69.703  1.00  0.00    -0.285 A  
BRANCH   6   9
HETATM    9  C   UNL     1     -10.658  12.172  68.428  1.00  0.00    -0.243 C  
HETATM   10  C   UNL     1     -10.083  11.275  67.335  1.00  0.00    -0.188 C  
HETATM   11  O   UNL     1      -9.254  10.389  67.448  1.00  0.00    -0.141 OA 
HETATM   12  C   UNL     1     -10.692  11.636  66.057  1.00  0.00    -0.328 A  
HETATM   13  C   UNL     1     -10.492  11.060  64.816  1.00  0.00    -0.384 A  
HETATM   14  C   UNL     1     -11.200  11.595  63.735  1.00  0.00    -0.498 A  
HETATM   15  C   UNL     1     -12.082  12.678  63.915  1.00  0.00    -0.567 A  
HETATM   16  C   UNL     1     -12.270  13.244  65.180  1.00  0.00    -0.487 A  
HETATM   17  C   UNL     1     -11.562  12.699  66.236  1.00  0.00    -0.440 A  
HETATM   18  C   UNL     1     -11.577  13.100  67.641  1.00  0.00    -0.349 C  
HETATM   19  O   UNL     1     -12.217  14.050  68.056  1.00  0.00    -0.321 OA 
ENDBRANCH   6   9
ENDBRANCH   2   3
TORSDOF 2
ENDMDL
MODEL       15
REMARK 921   NORMALIZED FREE ENERGY PREDICTED BY IDOCK:   -5.85 KCAL/MOL
REMARK 922        TOTAL FREE ENERGY PREDICTED BY IDOCK:   -7.08 KCAL/MOL
REMARK 923 INTER-LIGAND FREE ENERGY PREDICTED BY IDOCK:   -7.16 KCAL/MOL
REMARK 924 INTRA-LIGAND FREE ENERGY PREDICTED BY IDOCK:    0.08 KCAL/MOL
REMARK 927      BINDING AFFINITY PREDICTED BY RF-SCORE:    0.00 PKD
ROOT
HETATM    1  C   UNL     1     -12.740  16.280  72.967  1.00  0.00    -0.343 C  
HETATM    2  O   UNL     1     -13.473  15.732  71.874  1.00  0.00    -0.464 OA 
ENDROOT
BRANCH   2   3
HETATM    3  C   UNL     1     -13.081  14.478  71.491  1.00  0.00    -0.343 A  
HETATM    4  C   UNL     1     -12.255  14.206  70.403  1.00  0.00    -0.427 A  
HETATM    5  C   UNL     1     -11.921  12.888  70.080  1.00  0.00    -0.373 A  
HETATM    6  C   UNL     1     -12.402  11.812  70.838  1.00  0.00    -0.420 A  
HETATM    7  C   UNL     1     -13.527  13.425  72.284  1.00  0.00    -0.683 A  
HETATM    8  C   UNL     1     -13.201  12.103  71.956  1.00  0.00    -0.496 A  
BRANCH   6   9
HETATM    9  C   UNL     1     -12.106  10.366  70.488  1.00  0.00    -0.423 C  
HETATM   10  C   UNL     1     -10.644  10.042  70.195  1.00  0.00    -0.296 C  
HETATM   11  O   UNL     1      -9.926  10.518  69.333  1.00  0.00    -0.222 OA 
HETATM   12  C   UNL     1     -10.186   9.025  71.139  1.00  0.00    -0.363 A  
HETATM   13  C   UNL     1      -8.926   8.468  71.258  1.00  0.00    -0.244 A  
HETATM   14  C   UNL     1      -8.740   7.501  72.251  1.00  0.00    -0.148 A  
HETATM   15  C   UNL     1      -9.802   7.118  73.093  1.00  0.00    -0.251 A  
HETATM   16  C   UNL     1     -11.068   7.695  72.955  1.00  0.00    -0.448 A  
HETATM   17  C   UNL     1     -11.230   8.651  71.969  1.00  0.00    -0.434 A  
HETATM   18  C   UNL     1     -12.436   9.399  71.620  1.00  0.00    -0.378 C  
HETATM   19  O   UNL     1     -13.513   9.216  72.160  1.00  0.00    -0.405 OA 
ENDBRANCH   6   9
ENDBRANCH   2   3
TORSDOF 2
ENDMDL
MODEL       16
REMARK 921   NORMALIZED FREE ENERGY PREDICTED BY IDOCK:   -5.71 KCAL/MOL
REMARK 922        TOTAL FREE ENERGY PREDICTED BY IDOCK:   -6.93 KCAL/MOL
REMARK 923 INTER-LIGAND FREE ENERGY PREDICTED BY IDOCK:   -6.46 KCAL/MOL
REMARK 924 INTRA-LIGAND FREE ENERGY PREDICTED BY IDOCK:   -0.47 KCAL/MOL
REMARK 927      BINDING AFFINITY PREDICTED BY RF-SCORE:    0.00 PKD
ROOT
HETATM    1  C   UNL     1     -13.624  13.211  72.403  1.00  0.00    -0.567 C  
HETATM    2  O   UNL     1     -13.132  12.578  71.224  1.00  0.00    -0.272 OA 
ENDROOT
BRANCH   2   3
HETATM    3  C   UNL     1     -12.298  13.351  70.463  1.00  0.00    -0.329 A  
HETATM    4  C   UNL     1     -12.062  14.706  70.676  1.00  0.00    -0.385 A  
HETATM    5  C   UNL     1     -11.202  15.416  69.833  1.00  0.00    -0.310 A  
HETATM    6  C   UNL     1     -10.558  14.787  68.759  1.00  0.00    -0.251 A  
HETATM    7  C   UNL     1     -11.628  12.699  69.431  1.00  0.00    -0.369 A  
HETATM    8  C   UNL     1     -10.774  13.411  68.580  1.00  0.00    -0.278 A  
BRANCH   6   9
HETATM    9  C   UNL     1      -9.661  15.535  67.790  1.00  0.00    -0.211 C  
HETATM   10  C   UNL     1     -10.377  16.278  66.666  1.00  0.00    -0.302 C  
HETATM   11  O   UNL     1     -11.113  15.819  65.810  1.00  0.00    -0.248 OA 
HETATM   12  C   UNL     1     -10.046  17.699  66.752  1.00  0.00    -0.334 A  
HETATM   13  C   UNL     1     -10.501  18.738  65.960  1.00  0.00    -0.483 A  
HETATM   14  C   UNL     1     -10.030  20.022  66.247  1.00  0.00    -0.597 A  
HETATM   15  C   UNL     1      -9.128  20.239  67.307  1.00  0.00    -0.504 A  
HETATM   16  C   UNL     1      -8.682  19.175  68.096  1.00  0.00    -0.360 A  
HETATM   17  C   UNL     1      -9.162  17.913  67.797  1.00  0.00    -0.258 A  
HETATM   18  C   UNL     1      -8.858  16.645  68.459  1.00  0.00    -0.235 C  
HETATM   19  O   UNL     1      -8.059  16.547  69.373  1.00  0.00    -0.162 OA 
ENDBRANCH   6   9
ENDBRANCH   2   3
TORSDOF 2
ENDMDL
MODEL       17
REMARK 921   NORMALIZED FREE ENERGY PREDICTED BY IDOCK:   -5.70 KCAL/MOL
REMARK 922        TOTAL FREE ENERGY PREDICTED BY IDOCK:   -6.92 KCAL/MOL
REMARK 923 INTER-LIGAND FREE ENERGY PREDICTED BY IDOCK:   -6.56 KCAL/MOL
REMARK 924 INTRA-LIGAND FREE ENERGY PREDICTED BY IDOCK:   -0.36 KCAL/MOL
REMARK 927      BINDING AFFINITY PREDICTED BY RF-SCORE:    0.00 PKD
ROOT
HETATM    1  C   UNL     1     -12.744  15.834  73.940  1.00  0.00    -0.605 C  
HETATM    2  O   UNL     1     -13.142  15.794  72.571  1.00  0.00    -0.429 OA 
ENDROOT
BRANCH   2   3
HETATM    3  C   UNL     1     -12.851  14.625  71.923  1.00  0.00    -0.328 A  
HETATM    4  C   UNL     1     -11.964  14.513  70.855  1.00  0.00    -0.389 A  
HETATM    5  C   UNL     1     -11.743  13.274  70.246  1.00  0.00    -0.217 A  
HETATM    6  C   UNL     1     -12.403  12.121  70.690  1.00  0.00    -0.385 A  
HETATM    7  C   UNL     1     -13.476  13.481  72.409  1.00  0.00    -0.685 A  
HETATM    8  C   UNL     1     -13.263  12.241  71.794  1.00  0.00    -0.428 A  
BRANCH   6   9
HETATM    9  C   UNL     1     -12.231  10.770  70.021  1.00  0.00    -0.409 C  
HETATM   10  C   UNL     1     -11.656  10.801  68.607  1.00  0.00    -0.272 C  
HETATM   11  O   UNL     1     -12.109  11.360  67.623  1.00  0.00    -0.630 OA 
HETATM   12  C   UNL     1     -10.418  10.026  68.582  1.00  0.00    -0.228 A  
HETATM   13  C   UNL     1      -9.553   9.820  67.523  1.00  0.00    -0.178 A  
HETATM   14  C   UNL     1      -8.424   9.030  67.756  1.00  0.00    -0.117 A  
HETATM   15  C   UNL     1      -8.184   8.471  69.026  1.00  0.00    -0.116 A  
HETATM   16  C   UNL     1      -9.071   8.694  70.084  1.00  0.00    -0.163 A  
HETATM   17  C   UNL     1     -10.181   9.480  69.833  1.00  0.00    -0.261 A  
HETATM   18  C   UNL     1     -11.249   9.862  70.754  1.00  0.00    -0.353 C  
HETATM   19  O   UNL     1     -11.311   9.464  71.904  1.00  0.00    -0.370 OA 
ENDBRANCH   6   9
ENDBRANCH   2   3
TORSDOF 2
ENDMDL
MODEL       18
REMARK 921   NORMALIZED FREE ENERGY PREDICTED BY IDOCK:   -5.69 KCAL/MOL
REMARK 922        TOTAL FREE ENERGY PREDICTED BY IDOCK:   -6.91 KCAL/MOL
REMARK 923 INTER-LIGAND FREE ENERGY PREDICTED BY IDOCK:   -6.56 KCAL/MOL
REMARK 924 INTRA-LIGAND FREE ENERGY PREDICTED BY IDOCK:   -0.35 KCAL/MOL
REMARK 927      BINDING AFFINITY PREDICTED BY RF-SCORE:    0.00 PKD
ROOT
HETATM    1  C   UNL     1     -12.134  13.737  64.011  1.00  0.00    -0.403 C  
HETATM    2  O   UNL     1     -12.335  14.395  65.260  1.00  0.00    -0.404 OA 
ENDROOT
BRANCH   2   3
HETATM    3  C   UNL     1     -12.037  13.639  66.361  1.00  0.00    -0.433 A  
HETATM    4  C   UNL     1     -11.845  12.260  66.345  1.00  0.00    -0.382 A  
HETATM    5  C   UNL     1     -11.558  11.571  67.528  1.00  0.00    -0.322 A  
HETATM    6  C   UNL     1     -11.456  12.246  68.752  1.00  0.00    -0.360 A  
HETATM    7  C   UNL     1     -11.890  14.330  67.560  1.00  0.00    -0.429 A  
HETATM    8  C   UNL     1     -11.613  13.641  68.747  1.00  0.00    -0.359 A  
BRANCH   6   9
HETATM    9  C   UNL     1     -11.200  11.527  70.063  1.00  0.00    -0.108 C  
HETATM   10  C   UNL     1     -12.438  11.222  70.902  1.00  0.00    -0.394 C  
HETATM   11  O   UNL     1     -13.250  12.008  71.359  1.00  0.00    -0.280 OA 
HETATM   12  C   UNL     1     -12.531   9.777  71.102  1.00  0.00    -0.443 A  
HETATM   13  C   UNL     1     -13.510   9.062  71.767  1.00  0.00    -0.467 A  
HETATM   14  C   UNL     1     -13.369   7.672  71.821  1.00  0.00    -0.364 A  
HETATM   15  C   UNL     1     -12.269   7.035  71.215  1.00  0.00    -0.419 A  
HETATM   16  C   UNL     1     -11.292   7.778  70.546  1.00  0.00    -0.253 A  
HETATM   17  C   UNL     1     -11.450   9.151  70.503  1.00  0.00    -0.271 A  
HETATM   18  C   UNL     1     -10.583  10.145  69.875  1.00  0.00    -0.285 C  
HETATM   19  O   UNL     1      -9.531   9.862  69.329  1.00  0.00    -0.184 OA 
ENDBRANCH   6   9
ENDBRANCH   2   3
TORSDOF 2
ENDMDL
MODEL       19
REMARK 921   NORMALIZED FREE ENERGY PREDICTED BY IDOCK:   -5.69 KCAL/MOL
REMARK 922        TOTAL FREE ENERGY PREDICTED BY IDOCK:   -6.91 KCAL/MOL
REMARK 923 INTER-LIGAND FREE ENERGY PREDICTED BY IDOCK:   -6.47 KCAL/MOL
REMARK 924 INTRA-LIGAND FREE ENERGY PREDICTED BY IDOCK:   -0.44 KCAL/MOL
REMARK 927      BINDING AFFINITY PREDICTED BY RF-SCORE:    0.00 PKD
ROOT
HETATM    1  C   UNL     1      -9.985  18.727  68.179  1.00  0.00    -0.366 C  
HETATM    2  O   UNL     1     -10.479  17.631  68.946  1.00  0.00    -0.351 OA 
ENDROOT
BRANCH   2   3
HETATM    3  C   UNL     1     -10.724  16.492  68.229  1.00  0.00    -0.345 A  
HETATM    4  C   UNL     1     -10.066  16.141  67.053  1.00  0.00    -0.270 A  
HETATM    5  C   UNL     1     -10.398  14.961  66.381  1.00  0.00    -0.291 A  
HETATM    6  C   UNL     1     -11.394  14.105  66.870  1.00  0.00    -0.343 A  
HETATM    7  C   UNL     1     -11.681  15.629  68.754  1.00  0.00    -0.382 A  
HETATM    8  C   UNL     1     -12.022  14.451  68.078  1.00  0.00    -0.326 A  
BRANCH   6   9
HETATM    9  C   UNL     1     -11.820  12.844  66.141  1.00  0.00    -0.487 C  
HETATM   10  C   UNL     1     -11.604  12.848  64.631  1.00  0.00    -0.346 C  
HETATM   11  O   UNL     1     -12.065  13.618  63.807  1.00  0.00    -0.505 OA 
HETATM   12  C   UNL     1     -10.717  11.742  64.276  1.00  0.00    -0.395 A  
HETATM   13  C   UNL     1     -10.229  11.396  63.029  1.00  0.00    -0.311 A  
HETATM   14  C   UNL     1      -9.390  10.281  62.951  1.00  0.00    -0.336 A  
HETATM   15  C   UNL     1      -9.059   9.546  64.106  1.00  0.00    -0.203 A  
HETATM   16  C   UNL     1      -9.562   9.914  65.357  1.00  0.00    -0.350 A  
HETATM   17  C   UNL     1     -10.389  11.021  65.413  1.00  0.00    -0.330 A  
HETATM   18  C   UNL     1     -11.040  11.610  66.581  1.00  0.00    -0.307 C  
HETATM   19  O   UNL     1     -10.962  11.131  67.699  1.00  0.00    -0.230 OA 
ENDBRANCH   6   9
ENDBRANCH   2   3
TORSDOF 2
ENDMDL
MODEL       20
REMARK 921   NORMALIZED FREE ENERGY PREDICTED BY IDOCK:   -5.69 KCAL/MOL
REMARK 922        TOTAL FREE ENERGY PREDICTED BY IDOCK:   -6.91 KCAL/MOL
REMARK 923 INTER-LIGAND FREE ENERGY PREDICTED BY IDOCK:   -6.39 KCAL/MOL
REMARK 924 INTRA-LIGAND FREE ENERGY PREDICTED BY IDOCK:   -0.52 KCAL/MOL
REMARK 927      BINDING AFFINITY PREDICTED BY RF-SCORE:    0.00 PKD
ROOT
HETATM    1  C   UNL     1     -10.342  18.874  66.182  1.00  0.00    -0.460 C  
HETATM    2  O   UNL     1      -9.402  17.807  66.289  1.00  0.00    -0.383 OA 
ENDROOT
BRANCH   2   3
HETATM    3  C   UNL     1      -9.887  16.577  65.937  1.00  0.00    -0.295 A  
HETATM    4  C   UNL     1     -10.956  16.367  65.068  1.00  0.00    -0.265 A  
HETATM    5  C   UNL     1     -11.389  15.070  64.780  1.00  0.00    -0.409 A  
HETATM    6  C   UNL     1     -10.765  13.954  65.352  1.00  0.00    -0.330 A  
HETATM    7  C   UNL     1      -9.224  15.478  66.475  1.00  0.00    -0.324 A  
HETATM    8  C   UNL     1      -9.664  14.178  66.195  1.00  0.00    -0.310 A  
BRANCH   6   9
HETATM    9  C   UNL     1     -11.241  12.534  65.107  1.00  0.00    -0.342 C  
HETATM   10  C   UNL     1     -10.318  11.665  64.259  1.00  0.00    -0.322 C  
HETATM   11  O   UNL     1      -9.942  11.858  63.115  1.00  0.00    -0.422 OA 
HETATM   12  C   UNL     1      -9.918  10.496  65.040  1.00  0.00    -0.388 A  
HETATM   13  C   UNL     1      -9.063   9.471  64.678  1.00  0.00    -0.263 A  
HETATM   14  C   UNL     1      -8.840   8.456  65.613  1.00  0.00    -0.196 A  
HETATM   15  C   UNL     1      -9.466   8.488  66.874  1.00  0.00    -0.237 A  
HETATM   16  C   UNL     1     -10.326   9.534  67.220  1.00  0.00    -0.319 A  
HETATM   17  C   UNL     1     -10.532  10.529  66.281  1.00  0.00    -0.250 A  
HETATM   18  C   UNL     1     -11.372  11.720  66.390  1.00  0.00    -0.297 C  
HETATM   19  O   UNL     1     -12.068  11.957  67.361  1.00  0.00    -0.577 OA 
ENDBRANCH   6   9
ENDBRANCH   2   3
TORSDOF 2
ENDMDL
MODEL       21
REMARK 921   NORMALIZED FREE ENERGY PREDICTED BY IDOCK:   -5.68 KCAL/MOL
REMARK 922        TOTAL FREE ENERGY PREDICTED BY IDOCK:   -6.90 KCAL/MOL
REMARK 923 INTER-LIGAND FREE ENERGY PREDICTED BY IDOCK:   -6.58 KCAL/MOL
REMARK 924 INTRA-LIGAND FREE ENERGY PREDICTED BY IDOCK:   -0.31 KCAL/MOL
REMARK 927      BINDING AFFINITY PREDICTED BY RF-SCORE:    0.00 PKD
ROOT
HETATM    1  C   UNL     1     -11.812  16.060  72.059  1.00  0.00    -0.533 C  
HETATM    2  O   UNL     1     -11.393  16.264  70.711  1.00  0.00    -0.395 OA 
ENDROOT
BRANCH   2   3
HETATM    3  C   UNL     1     -11.583  15.193  69.882  1.00  0.00    -0.300 A  
HETATM    4  C   UNL     1     -11.925  13.913  70.310  1.00  0.00    -0.401 A  
HETATM    5  C   UNL     1     -12.084  12.876  69.385  1.00  0.00    -0.254 A  
HETATM    6  C   UNL     1     -11.905  13.096  68.013  1.00  0.00    -0.398 A  
HETATM    7  C   UNL     1     -11.451  15.440  68.518  1.00  0.00    -0.360 A  
HETATM    8  C   UNL     1     -11.600  14.400  67.592  1.00  0.00    -0.396 A  
BRANCH   6   9
HETATM    9  C   UNL     1     -12.015  11.985  66.985  1.00  0.00    -0.099 C  
HETATM   10  C   UNL     1     -12.149  12.438  65.534  1.00  0.00    -0.351 C  
HETATM   11  O   UNL     1     -13.017  13.137  65.041  1.00  0.00    -0.729 OA 
HETATM   12  C   UNL     1     -11.034  11.893  64.763  1.00  0.00    -0.366 A  
HETATM   13  C   UNL     1     -10.741  12.080  63.424  1.00  0.00    -0.475 A  
HETATM   14  C   UNL     1      -9.605  11.442  62.917  1.00  0.00    -0.366 A  
HETATM   15  C   UNL     1      -8.796  10.643  63.748  1.00  0.00    -0.178 A  
HETATM   16  C   UNL     1      -9.110  10.469  65.099  1.00  0.00    -0.227 A  
HETATM   17  C   UNL     1     -10.236  11.110  65.581  1.00  0.00    -0.310 A  
HETATM   18  C   UNL     1     -10.779  11.094  66.938  1.00  0.00    -0.274 C  
HETATM   19  O   UNL     1     -10.298  10.430  67.839  1.00  0.00    -0.170 OA 
ENDBRANCH   6   9
ENDBRANCH   2   3
TORSDOF 2
ENDMDL
MODEL       22
REMARK 921   NORMALIZED FREE ENERGY PREDICTED BY IDOCK:   -5.66 KCAL/MOL
REMARK 922        TOTAL FREE ENERGY PREDICTED BY IDOCK:   -6.87 KCAL/MOL
REMARK 923 INTER-LIGAND FREE ENERGY PREDICTED BY IDOCK:   -6.52 KCAL/MOL
REMARK 924 INTRA-LIGAND FREE ENERGY PREDICTED BY IDOCK:   -0.35 KCAL/MOL
REMARK 927      BINDING AFFINITY PREDICTED BY RF-SCORE:    0.00 PKD
ROOT
HETATM    1  C   UNL     1     -11.804  13.339  64.140  1.00  0.00    -0.443 C  
HETATM    2  O   UNL     1     -11.939  14.230  65.245  1.00  0.00    -0.362 OA 
ENDROOT
BRANCH   2   3
HETATM    3  C   UNL     1     -11.813  13.644  66.475  1.00  0.00    -0.404 A  
HETATM    4  C   UNL     1     -11.770  14.339  67.681  1.00  0.00    -0.421 A  
HETATM    5  C   UNL     1     -11.624  13.651  68.889  1.00  0.00    -0.362 A  
HETATM    6  C   UNL     1     -11.519  12.254  68.919  1.00  0.00    -0.355 A  
HETATM    7  C   UNL     1     -11.760  12.254  66.491  1.00  0.00    -0.420 A  
HETATM    8  C   UNL     1     -11.604  11.564  67.699  1.00  0.00    -0.320 A  
BRANCH   6   9
HETATM    9  C   UNL     1     -11.304  11.477  70.205  1.00  0.00    -0.146 C  
HETATM   10  C   UNL     1     -12.568  11.137  70.990  1.00  0.00    -0.403 C  
HETATM   11  O   UNL     1     -13.393  11.903  71.456  1.00  0.00    -0.266 OA 
HETATM   12  C   UNL     1     -12.668   9.685  71.121  1.00  0.00    -0.407 A  
HETATM   13  C   UNL     1     -13.667   8.942  71.723  1.00  0.00    -0.471 A  
HETATM   14  C   UNL     1     -13.529   7.551  71.718  1.00  0.00    -0.381 A  
HETATM   15  C   UNL     1     -12.411   6.940  71.119  1.00  0.00    -0.419 A  
HETATM   16  C   UNL     1     -11.413   7.710  70.515  1.00  0.00    -0.236 A  
HETATM   17  C   UNL     1     -11.569   9.084  70.529  1.00  0.00    -0.209 A  
HETATM   18  C   UNL     1     -10.682  10.104  69.973  1.00  0.00    -0.305 C  
HETATM   19  O   UNL     1      -9.614   9.843  69.448  1.00  0.00    -0.189 OA 
ENDBRANCH   6   9
ENDBRANCH   2   3
TORSDOF 2
ENDMDL
MODEL       23
REMARK 921   NORMALIZED FREE ENERGY PREDICTED BY IDOCK:   -5.64 KCAL/MOL
REMARK 922        TOTAL FREE ENERGY PREDICTED BY IDOCK:   -6.85 KCAL/MOL
REMARK 923 INTER-LIGAND FREE ENERGY PREDICTED BY IDOCK:   -6.30 KCAL/MOL
REMARK 924 INTRA-LIGAND FREE ENERGY PREDICTED BY IDOCK:   -0.56 KCAL/MOL
REMARK 927      BINDING AFFINITY PREDICTED BY RF-SCORE:    0.00 PKD
ROOT
HETATM    1  C   UNL     1     -12.596  11.867  63.499  1.00  0.00    -0.459 C  
HETATM    2  O   UNL     1     -11.273  11.571  63.942  1.00  0.00    -0.387 OA 
ENDROOT
BRANCH   2   3
HETATM    3  C   UNL     1     -10.739  12.485  64.809  1.00  0.00    -0.302 A  
HETATM    4  C   UNL     1     -10.082  12.161  65.994  1.00  0.00    -0.259 A  
HETATM    5  C   UNL     1      -9.583  13.169  66.824  1.00  0.00    -0.249 A  
HETATM    6  C   UNL     1      -9.727  14.522  66.488  1.00  0.00    -0.301 A  
HETATM    7  C   UNL     1     -10.848  13.822  64.437  1.00  0.00    -0.343 A  
HETATM    8  C   UNL     1     -10.357  14.833  65.272  1.00  0.00    -0.425 A  
BRANCH   6   9
HETATM    9  C   UNL     1      -9.247  15.644  67.390  1.00  0.00    -0.205 C  
HETATM   10  C   UNL     1      -8.184  16.562  66.793  1.00  0.00    -0.243 C  
HETATM   11  O   UNL     1      -7.076  16.262  66.384  1.00  0.00    -0.148 OA 
HETATM   12  C   UNL     1      -8.695  17.931  66.776  1.00  0.00    -0.269 A  
HETATM   13  C   UNL     1      -8.082  19.071  66.290  1.00  0.00    -0.298 A  
HETATM   14  C   UNL     1      -8.786  20.275  66.392  1.00  0.00    -0.267 A  
HETATM   15  C   UNL     1     -10.070  20.312  66.969  1.00  0.00    -0.567 A  
HETATM   16  C   UNL     1     -10.671  19.147  67.453  1.00  0.00    -0.578 A  
HETATM   17  C   UNL     1      -9.960  17.966  67.340  1.00  0.00    -0.325 A  
HETATM   18  C   UNL     1     -10.355  16.624  67.762  1.00  0.00    -0.306 C  
HETATM   19  O   UNL     1     -11.401  16.389  68.341  1.00  0.00    -0.366 OA 
ENDBRANCH   6   9
ENDBRANCH   2   3
TORSDOF 2
ENDMDL
MODEL       24
REMARK 921   NORMALIZED FREE ENERGY PREDICTED BY IDOCK:   -5.58 KCAL/MOL
REMARK 922        TOTAL FREE ENERGY PREDICTED BY IDOCK:   -6.79 KCAL/MOL
REMARK 923 INTER-LIGAND FREE ENERGY PREDICTED BY IDOCK:   -6.25 KCAL/MOL
REMARK 924 INTRA-LIGAND FREE ENERGY PREDICTED BY IDOCK:   -0.54 KCAL/MOL
REMARK 927      BINDING AFFINITY PREDICTED BY RF-SCORE:    0.00 PKD
ROOT
HETATM    1  C   UNL     1     -13.254   8.568  71.976  1.00  0.00    -0.369 C  
HETATM    2  O   UNL     1     -12.868   9.934  72.119  1.00  0.00    -0.392 OA 
ENDROOT
BRANCH   2   3
HETATM    3  C   UNL     1     -12.283  10.484  71.012  1.00  0.00    -0.400 A  
HETATM    4  C   UNL     1     -12.352  11.832  70.669  1.00  0.00    -0.421 A  
HETATM    5  C   UNL     1     -11.732  12.299  69.507  1.00  0.00    -0.398 A  
HETATM    6  C   UNL     1     -11.028  11.431  68.662  1.00  0.00    -0.267 A  
HETATM    7  C   UNL     1     -11.546   9.617  70.211  1.00  0.00    -0.255 A  
HETATM    8  C   UNL     1     -10.933  10.082  69.041  1.00  0.00    -0.249 A  
BRANCH   6   9
HETATM    9  C   UNL     1     -10.389  11.890  67.364  1.00  0.00    -0.228 C  
HETATM   10  C   UNL     1     -11.308  12.636  66.402  1.00  0.00    -0.331 C  
HETATM   11  O   UNL     1     -12.340  12.241  65.888  1.00  0.00    -0.618 OA 
HETATM   12  C   UNL     1     -10.759  13.969  66.161  1.00  0.00    -0.289 A  
HETATM   13  C   UNL     1     -11.283  14.988  65.386  1.00  0.00    -0.356 A  
HETATM   14  C   UNL     1     -10.558  16.181  65.314  1.00  0.00    -0.390 A  
HETATM   15  C   UNL     1      -9.342  16.329  66.008  1.00  0.00    -0.361 A  
HETATM   16  C   UNL     1      -8.831  15.286  66.786  1.00  0.00    -0.302 A  
HETATM   17  C   UNL     1      -9.564  14.115  66.847  1.00  0.00    -0.275 A  
HETATM   18  C   UNL     1      -9.257  12.888  67.579  1.00  0.00    -0.192 C  
HETATM   19  O   UNL     1      -8.231  12.734  68.218  1.00  0.00    -0.156 OA 
ENDBRANCH   6   9
ENDBRANCH   2   3
TORSDOF 2
ENDMDL
MODEL       25
REMARK 921   NORMALIZED FREE ENERGY PREDICTED BY IDOCK:   -5.44 KCAL/MOL
REMARK 922        TOTAL FREE ENERGY PREDICTED BY IDOCK:   -6.64 KCAL/MOL
REMARK 923 INTER-LIGAND FREE ENERGY PREDICTED BY IDOCK:   -6.15 KCAL/MOL
REMARK 924 INTRA-LIGAND FREE ENERGY PREDICTED BY IDOCK:   -0.49 KCAL/MOL
REMARK 927      BINDING AFFINITY PREDICTED BY RF-SCORE:    0.00 PKD
ROOT
HETATM    1  C   UNL     1      -6.347  19.721  65.052  1.00  0.00    -0.279 C  
HETATM    2  O   UNL     1      -6.560  19.143  66.338  1.00  0.00    -0.186 OA 
ENDROOT
BRANCH   2   3
HETATM    3  C   UNL     1      -7.575  18.228  66.395  1.00  0.00    -0.252 A  
HETATM    4  C   UNL     1      -7.395  16.855  66.543  1.00  0.00    -0.317 A  
HETATM    5  C   UNL     1      -8.498  15.996  66.576  1.00  0.00    -0.348 A  
HETATM    6  C   UNL     1      -9.804  16.490  66.464  1.00  0.00    -0.292 A  
HETATM    7  C   UNL     1      -8.868  18.740  66.332  1.00  0.00    -0.298 A  
HETATM    8  C   UNL     1      -9.973  17.880  66.356  1.00  0.00    -0.358 A  
BRANCH   6   9
HETATM    9  C   UNL     1     -11.022  15.585  66.441  1.00  0.00    -0.238 C  
HETATM   10  C   UNL     1     -10.823  14.225  65.779  1.00  0.00    -0.303 C  
HETATM   11  O   UNL     1     -10.483  13.989  64.633  1.00  0.00    -0.434 OA 
HETATM   12  C   UNL     1     -11.110  13.177  66.756  1.00  0.00    -0.314 A  
HETATM   13  C   UNL     1     -11.022  11.806  66.597  1.00  0.00    -0.342 A  
HETATM   14  C   UNL     1     -11.357  11.006  67.694  1.00  0.00    -0.355 A  
HETATM   15  C   UNL     1     -11.765  11.586  68.911  1.00  0.00    -0.403 A  
HETATM   16  C   UNL     1     -11.846  12.975  69.050  1.00  0.00    -0.362 A  
HETATM   17  C   UNL     1     -11.509  13.748  67.953  1.00  0.00    -0.347 A  
HETATM   18  C   UNL     1     -11.507  15.204  67.835  1.00  0.00    -0.332 C  
HETATM   19  O   UNL     1     -11.874  15.945  68.730  1.00  0.00    -0.393 OA 
ENDBRANCH   6   9
ENDBRANCH   2   3
TORSDOF 2
ENDMDL
MODEL       26
REMARK 921   NORMALIZED FREE ENERGY PREDICTED BY IDOCK:   -5.44 KCAL/MOL
REMARK 922        TOTAL FREE ENERGY PREDICTED BY IDOCK:   -6.63 KCAL/MOL
REMARK 923 INTER-LIGAND FREE ENERGY PREDICTED BY IDOCK:   -6.29 KCAL/MOL
REMARK 924 INTRA-LIGAND FREE ENERGY PREDICTED BY IDOCK:   -0.33 KCAL/MOL
REMARK 927      BINDING AFFINITY PREDICTED BY RF-SCORE:    0.00 PKD
ROOT
HETATM    1  C   UNL     1     -13.784   8.938  72.174  1.00  0.00    -0.474 C  
HETATM    2  O   UNL     1     -12.478   9.404  71.839  1.00  0.00    -0.360 OA 
ENDROOT
BRANCH   2   3
HETATM    3  C   UNL     1     -12.439  10.656  71.287  1.00  0.00    -0.410 A  
HETATM    4  C   UNL     1     -13.088  11.771  71.811  1.00  0.00    -0.480 A  
HETATM    5  C   UNL     1     -13.001  13.008  71.166  1.00  0.00    -0.265 A  
HETATM    6  C   UNL     1     -12.263  13.158  69.984  1.00  0.00    -0.323 A  
HETATM    7  C   UNL     1     -11.662  10.798  70.142  1.00  0.00    -0.425 A  
HETATM    8  C   UNL     1     -11.582  12.035  69.489  1.00  0.00    -0.389 A  
BRANCH   6   9
HETATM    9  C   UNL     1     -12.190  14.471  69.226  1.00  0.00    -0.264 C  
HETATM   10  C   UNL     1     -11.119  15.449  69.700  1.00  0.00    -0.276 C  
HETATM   11  O   UNL     1     -10.992  15.948  70.804  1.00  0.00    -0.320 OA 
HETATM   12  C   UNL     1     -10.210  15.730  68.590  1.00  0.00    -0.221 A  
HETATM   13  C   UNL     1      -9.082  16.530  68.584  1.00  0.00    -0.239 A  
HETATM   14  C   UNL     1      -8.375  16.638  67.383  1.00  0.00    -0.190 A  
HETATM   15  C   UNL     1      -8.804  15.954  66.230  1.00  0.00    -0.386 A  
HETATM   16  C   UNL     1      -9.947  15.149  66.259  1.00  0.00    -0.307 A  
HETATM   17  C   UNL     1     -10.631  15.053  67.457  1.00  0.00    -0.265 A  
HETATM   18  C   UNL     1     -11.840  14.288  67.753  1.00  0.00    -0.379 C  
HETATM   19  O   UNL     1     -12.447  13.651  66.911  1.00  0.00    -0.320 OA 
ENDBRANCH   6   9
ENDBRANCH   2   3
TORSDOF 2
ENDMDL
MODEL       27
REMARK 921   NORMALIZED FREE ENERGY PREDICTED BY IDOCK:   -5.42 KCAL/MOL
REMARK 922        TOTAL FREE ENERGY PREDICTED BY IDOCK:   -6.60 KCAL/MOL
REMARK 923 INTER-LIGAND FREE ENERGY PREDICTED BY IDOCK:   -6.15 KCAL/MOL
REMARK 924 INTRA-LIGAND FREE ENERGY PREDICTED BY IDOCK:   -0.46 KCAL/MOL
REMARK 927      BINDING AFFINITY PREDICTED BY RF-SCORE:    0.00 PKD
ROOT
HETATM    1  C   UNL     1     -10.930   6.841  71.410  1.00  0.00    -0.242 C  
HETATM    2  O   UNL     1     -10.895   8.093  72.092  1.00  0.00    -0.258 OA 
ENDROOT
BRANCH   2   3
HETATM    3  C   UNL     1     -11.137   9.184  71.302  1.00  0.00    -0.335 A  
HETATM    4  C   UNL     1     -10.300   9.622  70.280  1.00  0.00    -0.336 A  
HETATM    5  C   UNL     1     -10.626  10.760  69.536  1.00  0.00    -0.235 A  
HETATM    6  C   UNL     1     -11.797  11.484  69.797  1.00  0.00    -0.429 A  
HETATM    7  C   UNL     1     -12.329   9.863  71.541  1.00  0.00    -0.504 A  
HETATM    8  C   UNL     1     -12.652  11.008  70.804  1.00  0.00    -0.463 A  
BRANCH   6   9
HETATM    9  C   UNL     1     -12.158  12.754  69.048  1.00  0.00    -0.188 C  
HETATM   10  C   UNL     1     -11.509  14.034  69.566  1.00  0.00    -0.275 C  
HETATM   11  O   UNL     1     -11.599  14.527  70.677  1.00  0.00    -0.276 OA 
HETATM   12  C   UNL     1     -10.717  14.631  68.493  1.00  0.00    -0.248 A  
HETATM   13  C   UNL     1      -9.936  15.772  68.533  1.00  0.00    -0.208 A  
HETATM   14  C   UNL     1      -9.271  16.140  67.360  1.00  0.00    -0.213 A  
HETATM   15  C   UNL     1      -9.397  15.370  66.188  1.00  0.00    -0.367 A  
HETATM   16  C   UNL     1     -10.191  14.219  66.170  1.00  0.00    -0.317 A  
HETATM   17  C   UNL     1     -10.839  13.871  67.341  1.00  0.00    -0.291 A  
HETATM   18  C   UNL     1     -11.717  12.730  67.588  1.00  0.00    -0.367 C  
HETATM   19  O   UNL     1     -12.037  11.936  66.721  1.00  0.00    -0.593 OA 
ENDBRANCH   6   9
ENDBRANCH   2   3
TORSDOF 2
ENDMDL
MODEL       28
REMARK 921   NORMALIZED FREE ENERGY PREDICTED BY IDOCK:   -5.41 KCAL/MOL
REMARK 922        TOTAL FREE ENERGY PREDICTED BY IDOCK:   -6.60 KCAL/MOL
REMARK 923 INTER-LIGAND FREE ENERGY PREDICTED BY IDOCK:   -6.15 KCAL/MOL
REMARK 924 INTRA-LIGAND FREE ENERGY PREDICTED BY IDOCK:   -0.44 KCAL/MOL
REMARK 927      BINDING AFFINITY PREDICTED BY RF-SCORE:    0.00 PKD
ROOT
HETATM    1  C   UNL     1      -9.625   8.631  72.126  1.00  0.00    -0.307 C  
HETATM    2  O   UNL     1      -9.621   8.590  70.701  1.00  0.00    -0.162 OA 
ENDROOT
BRANCH   2   3
HETATM    3  C   UNL     1     -10.165   9.688  70.093  1.00  0.00    -0.264 A  
HETATM    4  C   UNL     1      -9.627  10.322  68.976  1.00  0.00    -0.210 A  
HETATM    5  C   UNL     1     -10.249  11.450  68.434  1.00  0.00    -0.206 A  
HETATM    6  C   UNL     1     -11.423  11.970  68.995  1.00  0.00    -0.357 A  
HETATM    7  C   UNL     1     -11.358  10.161  70.632  1.00  0.00    -0.433 A  
HETATM    8  C   UNL     1     -11.977  11.297  70.097  1.00  0.00    -0.452 A  
BRANCH   6   9
HETATM    9  C   UNL     1     -12.097  13.223  68.469  1.00  0.00    -0.256 C  
HETATM   10  C   UNL     1     -11.584  14.540  69.044  1.00  0.00    -0.298 C  
HETATM   11  O   UNL     1     -11.571  14.898  70.209  1.00  0.00    -0.259 OA 
HETATM   12  C   UNL     1     -11.081  15.370  67.952  1.00  0.00    -0.323 A  
HETATM   13  C   UNL     1     -10.495  16.621  68.022  1.00  0.00    -0.320 A  
HETATM   14  C   UNL     1     -10.095  17.214  66.820  1.00  0.00    -0.303 A  
HETATM   15  C   UNL     1     -10.284  16.552  65.592  1.00  0.00    -0.316 A  
HETATM   16  C   UNL     1     -10.878  15.287  65.545  1.00  0.00    -0.382 A  
HETATM   17  C   UNL     1     -11.265  14.718  66.744  1.00  0.00    -0.344 A  
HETATM   18  C   UNL     1     -11.899  13.421  66.970  1.00  0.00    -0.394 C  
HETATM   19  O   UNL     1     -12.225  12.672  66.066  1.00  0.00    -0.564 OA 
ENDBRANCH   6   9
ENDBRANCH   2   3
TORSDOF 2
ENDMDL
MODEL       29
REMARK 921   NORMALIZED FREE ENERGY PREDICTED BY IDOCK:   -5.39 KCAL/MOL
REMARK 922        TOTAL FREE ENERGY PREDICTED BY IDOCK:   -6.58 KCAL/MOL
REMARK 923 INTER-LIGAND FREE ENERGY PREDICTED BY IDOCK:   -6.12 KCAL/MOL
REMARK 924 INTRA-LIGAND FREE ENERGY PREDICTED BY IDOCK:   -0.46 KCAL/MOL
REMARK 927      BINDING AFFINITY PREDICTED BY RF-SCORE:    0.00 PKD
ROOT
HETATM    1  C   UNL     1     -12.620  12.689  71.108  1.00  0.00    -0.258 C  
HETATM    2  O   UNL     1     -12.413  14.067  71.409  1.00  0.00    -0.346 OA 
ENDROOT
BRANCH   2   3
HETATM    3  C   UNL     1     -11.901  14.809  70.379  1.00  0.00    -0.295 A  
HETATM    4  C   UNL     1     -11.142  15.966  70.539  1.00  0.00    -0.381 A  
HETATM    5  C   UNL     1     -10.675  16.665  69.423  1.00  0.00    -0.331 A  
HETATM    6  C   UNL     1     -10.954  16.225  68.123  1.00  0.00    -0.343 A  
HETATM    7  C   UNL     1     -12.145  14.330  69.095  1.00  0.00    -0.337 A  
HETATM    8  C   UNL     1     -11.686  15.035  67.976  1.00  0.00    -0.320 A  
BRANCH   6   9
HETATM    9  C   UNL     1     -10.510  16.986  66.887  1.00  0.00    -0.268 C  
HETATM   10  C   UNL     1     -10.330  18.491  67.068  1.00  0.00    -0.399 C  
HETATM   11  O   UNL     1     -11.161  19.312  67.416  1.00  0.00    -0.444 OA 
HETATM   12  C   UNL     1      -8.948  18.844  66.748  1.00  0.00    -0.320 A  
HETATM   13  C   UNL     1      -8.341  20.085  66.810  1.00  0.00    -0.372 A  
HETATM   14  C   UNL     1      -6.993  20.162  66.447  1.00  0.00    -0.273 A  
HETATM   15  C   UNL     1      -6.290  19.013  66.037  1.00  0.00    -0.228 A  
HETATM   16  C   UNL     1      -6.923  17.768  65.982  1.00  0.00    -0.335 A  
HETATM   17  C   UNL     1      -8.256  17.713  66.347  1.00  0.00    -0.298 A  
HETATM   18  C   UNL     1      -9.141  16.550  66.379  1.00  0.00    -0.297 C  
HETATM   19  O   UNL     1      -8.794  15.440  66.016  1.00  0.00    -0.281 OA 
ENDBRANCH   6   9
ENDBRANCH   2   3
TORSDOF 2
ENDMDL
MODEL       30
REMARK 921   NORMALIZED FREE ENERGY PREDICTED BY IDOCK:   -5.39 KCAL/MOL
REMARK 922        TOTAL FREE ENERGY PREDICTED BY IDOCK:   -6.57 KCAL/MOL
REMARK 923 INTER-LIGAND FREE ENERGY PREDICTED BY IDOCK:   -6.19 KCAL/MOL
REMARK 924 INTRA-LIGAND FREE ENERGY PREDICTED BY IDOCK:   -0.38 KCAL/MOL
REMARK 927      BINDING AFFINITY PREDICTED BY RF-SCORE:    0.00 PKD
ROOT
HETATM    1  C   UNL     1      -6.680  10.215  63.034  1.00  0.00    -0.133 C  
HETATM    2  O   UNL     1      -7.913   9.521  63.213  1.00  0.00    -0.129 OA 
ENDROOT
BRANCH   2   3
HETATM    3  C   UNL     1      -8.908  10.258  63.794  1.00  0.00    -0.221 A  
HETATM    4  C   UNL     1      -9.987  10.810  63.107  1.00  0.00    -0.341 A  
HETATM    5  C   UNL     1     -10.948  11.562  63.787  1.00  0.00    -0.485 A  
HETATM    6  C   UNL     1     -10.854  11.780  65.168  1.00  0.00    -0.351 A  
HETATM    7  C   UNL     1      -8.827  10.422  65.173  1.00  0.00    -0.207 A  
HETATM    8  C   UNL     1      -9.784  11.184  65.855  1.00  0.00    -0.268 A  
BRANCH   6   9
HETATM    9  C   UNL     1     -11.848  12.636  65.932  1.00  0.00    -0.499 C  
HETATM   10  C   UNL     1     -11.911  12.392  67.436  1.00  0.00    -0.289 C  
HETATM   11  O   UNL     1     -12.179  11.357  68.021  1.00  0.00    -0.607 OA 
HETATM   12  C   UNL     1     -11.589  13.637  68.131  1.00  0.00    -0.367 A  
HETATM   13  C   UNL     1     -11.493  13.863  69.492  1.00  0.00    -0.332 A  
HETATM   14  C   UNL     1     -11.169  15.157  69.911  1.00  0.00    -0.305 A  
HETATM   15  C   UNL     1     -10.949  16.184  68.973  1.00  0.00    -0.312 A  
HETATM   16  C   UNL     1     -11.050  15.933  67.601  1.00  0.00    -0.266 A  
HETATM   17  C   UNL     1     -11.369  14.647  67.208  1.00  0.00    -0.364 A  
HETATM   18  C   UNL     1     -11.534  14.126  65.852  1.00  0.00    -0.338 C  
HETATM   19  O   UNL     1     -11.453  14.823  64.857  1.00  0.00    -0.378 OA 
ENDBRANCH   6   9
ENDBRANCH   2   3
TORSDOF 2
ENDMDL
MODEL       31
REMARK 921   NORMALIZED FREE ENERGY PREDICTED BY IDOCK:   -5.38 KCAL/MOL
REMARK 922        TOTAL FREE ENERGY PREDICTED BY IDOCK:   -6.56 KCAL/MOL
REMARK 923 INTER-LIGAND FREE ENERGY PREDICTED BY IDOCK:   -6.03 KCAL/MOL
REMARK 924 INTRA-LIGAND FREE ENERGY PREDICTED BY IDOCK:   -0.53 KCAL/MOL
REMARK 927      BINDING AFFINITY PREDICTED BY RF-SCORE:    0.00 PKD
ROOT
HETATM    1  C   UNL     1      -7.182   5.857  72.862  1.00  0.00    -0.090 C  
HETATM    2  O   UNL     1      -8.573   5.574  73.000  1.00  0.00    -0.122 OA 
ENDROOT
BRANCH   2   3
HETATM    3  C   UNL     1      -9.407   6.528  72.483  1.00  0.00    -0.141 A  
HETATM    4  C   UNL     1      -9.281   7.896  72.710  1.00  0.00    -0.282 A  
HETATM    5  C   UNL     1     -10.194   8.794  72.149  1.00  0.00    -0.371 A  
HETATM    6  C   UNL     1     -11.252   8.345  71.348  1.00  0.00    -0.316 A  
HETATM    7  C   UNL     1     -10.423   6.070  71.649  1.00  0.00    -0.276 A  
HETATM    8  C   UNL     1     -11.344   6.967  71.094  1.00  0.00    -0.332 A  
BRANCH   6   9
HETATM    9  C   UNL     1     -12.293   9.283  70.766  1.00  0.00    -0.144 C  
HETATM   10  C   UNL     1     -13.092  10.095  71.782  1.00  0.00    -0.463 C  
HETATM   11  O   UNL     1     -13.799   9.684  72.685  1.00  0.00    -0.310 OA 
HETATM   12  C   UNL     1     -12.888  11.518  71.516  1.00  0.00    -0.485 A  
HETATM   13  C   UNL     1     -13.389  12.603  72.210  1.00  0.00    -0.527 A  
HETATM   14  C   UNL     1     -13.046  13.878  71.750  1.00  0.00    -0.458 A  
HETATM   15  C   UNL     1     -12.219  14.039  70.622  1.00  0.00    -0.442 A  
HETATM   16  C   UNL     1     -11.722  12.927  69.935  1.00  0.00    -0.324 A  
HETATM   17  C   UNL     1     -12.071  11.675  70.408  1.00  0.00    -0.462 A  
HETATM   18  C   UNL     1     -11.690  10.367  69.880  1.00  0.00    -0.264 C  
HETATM   19  O   UNL     1     -11.021  10.225  68.871  1.00  0.00    -0.219 OA 
ENDBRANCH   6   9
ENDBRANCH   2   3
TORSDOF 2
ENDMDL
MODEL       32
REMARK 921   NORMALIZED FREE ENERGY PREDICTED BY IDOCK:   -5.36 KCAL/MOL
REMARK 922        TOTAL FREE ENERGY PREDICTED BY IDOCK:   -6.54 KCAL/MOL
REMARK 923 INTER-LIGAND FREE ENERGY PREDICTED BY IDOCK:   -6.65 KCAL/MOL
REMARK 924 INTRA-LIGAND FREE ENERGY PREDICTED BY IDOCK:    0.11 KCAL/MOL
REMARK 927      BINDING AFFINITY PREDICTED BY RF-SCORE:    0.00 PKD
ROOT
HETATM    1  C   UNL     1      -6.735   8.289  72.980  1.00  0.00    -0.099 C  
HETATM    2  O   UNL     1      -7.635   7.574  72.137  1.00  0.00    -0.077 OA 
ENDROOT
BRANCH   2   3
HETATM    3  C   UNL     1      -8.659   8.323  71.624  1.00  0.00    -0.155 A  
HETATM    4  C   UNL     1      -8.591   9.046  70.436  1.00  0.00    -0.215 A  
HETATM    5  C   UNL     1      -9.688   9.795  70.000  1.00  0.00    -0.292 A  
HETATM    6  C   UNL     1     -10.877   9.837  70.740  1.00  0.00    -0.403 A  
HETATM    7  C   UNL     1      -9.849   8.313  72.346  1.00  0.00    -0.375 A  
HETATM    8  C   UNL     1     -10.946   9.071  71.915  1.00  0.00    -0.423 A  
BRANCH   6   9
HETATM    9  C   UNL     1     -12.069  10.681  70.328  1.00  0.00    -0.423 C  
HETATM   10  C   UNL     1     -13.017  11.081  71.455  1.00  0.00    -0.448 C  
HETATM   11  O   UNL     1     -13.646  10.353  72.204  1.00  0.00    -0.324 OA 
HETATM   12  C   UNL     1     -13.079  12.539  71.526  1.00  0.00    -0.373 A  
HETATM   13  C   UNL     1     -13.783  13.328  72.418  1.00  0.00    -0.678 A  
HETATM   14  C   UNL     1     -13.679  14.715  72.274  1.00  0.00    -0.565 A  
HETATM   15  C   UNL     1     -12.883  15.276  71.257  1.00  0.00    -0.494 A  
HETATM   16  C   UNL     1     -12.179  14.460  70.367  1.00  0.00    -0.404 A  
HETATM   17  C   UNL     1     -12.294  13.091  70.527  1.00  0.00    -0.365 A  
HETATM   18  C   UNL     1     -11.669  12.030  69.741  1.00  0.00    -0.319 C  
HETATM   19  O   UNL     1     -10.974  12.246  68.764  1.00  0.00    -0.220 OA 
ENDBRANCH   6   9
ENDBRANCH   2   3
TORSDOF 2
ENDMDL
MODEL       33
REMARK 921   NORMALIZED FREE ENERGY PREDICTED BY IDOCK:   -5.31 KCAL/MOL
REMARK 922        TOTAL FREE ENERGY PREDICTED BY IDOCK:   -6.49 KCAL/MOL
REMARK 923 INTER-LIGAND FREE ENERGY PREDICTED BY IDOCK:   -6.06 KCAL/MOL
REMARK 924 INTRA-LIGAND FREE ENERGY PREDICTED BY IDOCK:   -0.44 KCAL/MOL
REMARK 927      BINDING AFFINITY PREDICTED BY RF-SCORE:    0.00 PKD
ROOT
HETATM    1  C   UNL     1      -9.758   6.241  66.416  1.00  0.00    -0.099 C  
HETATM    2  O   UNL     1      -8.927   7.396  66.334  1.00  0.00    -0.151 OA 
ENDROOT
BRANCH   2   3
HETATM    3  C   UNL     1      -9.595   8.589  66.396  1.00  0.00    -0.245 A  
HETATM    4  C   UNL     1      -9.601   9.545  65.384  1.00  0.00    -0.342 A  
HETATM    5  C   UNL     1     -10.302  10.743  65.546  1.00  0.00    -0.308 A  
HETATM    6  C   UNL     1     -11.014  11.012  66.723  1.00  0.00    -0.279 A  
HETATM    7  C   UNL     1     -10.337   8.819  67.551  1.00  0.00    -0.334 A  
HETATM    8  C   UNL     1     -11.032  10.023  67.719  1.00  0.00    -0.310 A  
BRANCH   6   9
HETATM    9  C   UNL     1     -11.742  12.323  66.958  1.00  0.00    -0.399 C  
HETATM   10  C   UNL     1     -10.903  13.446  67.561  1.00  0.00    -0.263 C  
HETATM   11  O   UNL     1     -10.308  13.453  68.625  1.00  0.00    -0.240 OA 
HETATM   12  C   UNL     1     -10.905  14.583  66.643  1.00  0.00    -0.311 A  
HETATM   13  C   UNL     1     -10.247  15.793  66.772  1.00  0.00    -0.284 A  
HETATM   14  C   UNL     1     -10.412  16.729  65.746  1.00  0.00    -0.305 A  
HETATM   15  C   UNL     1     -11.219  16.439  64.629  1.00  0.00    -0.201 A  
HETATM   16  C   UNL     1     -11.874  15.209  64.519  1.00  0.00    -0.335 A  
HETATM   17  C   UNL     1     -11.696  14.297  65.543  1.00  0.00    -0.353 A  
HETATM   18  C   UNL     1     -12.261  12.955  65.671  1.00  0.00    -0.463 C  
HETATM   19  O   UNL     1     -13.041  12.481  64.864  1.00  0.00    -0.833 OA 
ENDBRANCH   6   9
ENDBRANCH   2   3
TORSDOF 2
ENDMDL
MODEL       34
REMARK 921   NORMALIZED FREE ENERGY PREDICTED BY IDOCK:   -5.30 KCAL/MOL
REMARK 922        TOTAL FREE ENERGY PREDICTED BY IDOCK:   -6.47 KCAL/MOL
REMARK 923 INTER-LIGAND FREE ENERGY PREDICTED BY IDOCK:   -5.97 KCAL/MOL
REMARK 924 INTRA-LIGAND FREE ENERGY PREDICTED BY IDOCK:   -0.50 KCAL/MOL
REMARK 927      BINDING AFFINITY PREDICTED BY RF-SCORE:    0.00 PKD
ROOT
HETATM    1  C   UNL     1     -11.756  13.253  66.777  1.00  0.00    -0.385 C  
HETATM    2  O   UNL     1     -11.905  11.837  66.704  1.00  0.00    -0.569 OA 
ENDROOT
BRANCH   2   3
HETATM    3  C   UNL     1     -11.610  11.168  67.861  1.00  0.00    -0.251 A  
HETATM    4  C   UNL     1     -10.898   9.973  67.923  1.00  0.00    -0.323 A  
HETATM    5  C   UNL     1     -10.658   9.356  69.154  1.00  0.00    -0.234 A  
HETATM    6  C   UNL     1     -11.122   9.920  70.350  1.00  0.00    -0.382 A  
HETATM    7  C   UNL     1     -12.034  11.768  69.043  1.00  0.00    -0.341 A  
HETATM    8  C   UNL     1     -11.803  11.146  70.276  1.00  0.00    -0.455 A  
BRANCH   6   9
HETATM    9  C   UNL     1     -10.928   9.253  71.699  1.00  0.00    -0.433 C  
HETATM   10  C   UNL     1     -11.881   8.102  72.010  1.00  0.00    -0.338 C  
HETATM   11  O   UNL     1     -13.099   8.128  72.069  1.00  0.00    -0.321 OA 
HETATM   12  C   UNL     1     -11.100   6.890  72.245  1.00  0.00    -0.284 A  
HETATM   13  C   UNL     1     -11.554   5.614  72.521  1.00  0.00    -0.303 A  
HETATM   14  C   UNL     1     -10.595   4.614  72.709  1.00  0.00    -0.273 A  
HETATM   15  C   UNL     1      -9.221   4.906  72.615  1.00  0.00    -0.145 A  
HETATM   16  C   UNL     1      -8.784   6.204  72.334  1.00  0.00    -0.125 A  
HETATM   17  C   UNL     1      -9.748   7.178  72.150  1.00  0.00    -0.163 A  
HETATM   18  C   UNL     1      -9.561   8.595  71.847  1.00  0.00    -0.307 C  
HETATM   19  O   UNL     1      -8.464   9.120  71.769  1.00  0.00    -0.340 OA 
ENDBRANCH   6   9
ENDBRANCH   2   3
TORSDOF 2
ENDMDL
MODEL       35
REMARK 921   NORMALIZED FREE ENERGY PREDICTED BY IDOCK:   -5.28 KCAL/MOL
REMARK 922        TOTAL FREE ENERGY PREDICTED BY IDOCK:   -6.46 KCAL/MOL
REMARK 923 INTER-LIGAND FREE ENERGY PREDICTED BY IDOCK:   -6.04 KCAL/MOL
REMARK 924 INTRA-LIGAND FREE ENERGY PREDICTED BY IDOCK:   -0.42 KCAL/MOL
REMARK 927      BINDING AFFINITY PREDICTED BY RF-SCORE:    0.00 PKD
ROOT
HETATM    1  C   UNL     1     -10.229  18.719  68.033  1.00  0.00    -0.386 C  
HETATM    2  O   UNL     1     -10.045  17.586  68.879  1.00  0.00    -0.338 OA 
ENDROOT
BRANCH   2   3
HETATM    3  C   UNL     1     -10.326  16.381  68.296  1.00  0.00    -0.279 A  
HETATM    4  C   UNL     1      -9.397  15.595  67.619  1.00  0.00    -0.206 A  
HETATM    5  C   UNL     1      -9.784  14.382  67.041  1.00  0.00    -0.256 A  
HETATM    6  C   UNL     1     -11.107  13.927  67.129  1.00  0.00    -0.312 A  
HETATM    7  C   UNL     1     -11.632  15.920  68.434  1.00  0.00    -0.317 A  
HETATM    8  C   UNL     1     -12.024  14.710  67.848  1.00  0.00    -0.299 A  
BRANCH   6   9
HETATM    9  C   UNL     1     -11.576  12.644  66.469  1.00  0.00    -0.441 C  
HETATM   10  C   UNL     1     -10.763  12.184  65.263  1.00  0.00    -0.288 C  
HETATM   11  O   UNL     1     -10.560  12.781  64.220  1.00  0.00    -0.353 OA 
HETATM   12  C   UNL     1     -10.224  10.853  65.534  1.00  0.00    -0.332 A  
HETATM   13  C   UNL     1      -9.404  10.077  64.735  1.00  0.00    -0.330 A  
HETATM   14  C   UNL     1      -9.024   8.825  65.226  1.00  0.00    -0.184 A  
HETATM   15  C   UNL     1      -9.463   8.380  66.487  1.00  0.00    -0.284 A  
HETATM   16  C   UNL     1     -10.292   9.181  67.279  1.00  0.00    -0.338 A  
HETATM   17  C   UNL     1     -10.655  10.418  66.777  1.00  0.00    -0.270 A  
HETATM   18  C   UNL     1     -11.501  11.436  67.396  1.00  0.00    -0.251 C  
HETATM   19  O   UNL     1     -12.057  11.277  68.468  1.00  0.00    -0.573 OA 
ENDBRANCH   6   9
ENDBRANCH   2   3
TORSDOF 2
ENDMDL
MODEL       36
REMARK 921   NORMALIZED FREE ENERGY PREDICTED BY IDOCK:   -5.28 KCAL/MOL
REMARK 922        TOTAL FREE ENERGY PREDICTED BY IDOCK:   -6.45 KCAL/MOL
REMARK 923 INTER-LIGAND FREE ENERGY PREDICTED BY IDOCK:   -5.89 KCAL/MOL
REMARK 924 INTRA-LIGAND FREE ENERGY PREDICTED BY IDOCK:   -0.56 KCAL/MOL
REMARK 927      BINDING AFFINITY PREDICTED BY RF-SCORE:    0.00 PKD
ROOT
HETATM    1  C   UNL     1     -10.780  17.681  65.495  1.00  0.00    -0.037 C  
HETATM    2  O   UNL     1     -11.152  16.808  64.432  1.00  0.00    -1.072 OA 
ENDROOT
BRANCH   2   3
HETATM    3  C   UNL     1     -11.268  15.490  64.784  1.00  0.00    -0.390 A  
HETATM    4  C   UNL     1     -12.311  14.655  64.391  1.00  0.00    -0.420 A  
HETATM    5  C   UNL     1     -12.349  13.324  64.815  1.00  0.00    -0.454 A  
HETATM    6  C   UNL     1     -11.346  12.797  65.639  1.00  0.00    -0.354 A  
HETATM    7  C   UNL     1     -10.237  14.969  65.561  1.00  0.00    -0.406 A  
HETATM    8  C   UNL     1     -10.279  13.638  65.994  1.00  0.00    -0.312 A  
BRANCH   6   9
HETATM    9  C   UNL     1     -11.381  11.373  66.163  1.00  0.00    -0.115 C  
HETATM   10  C   UNL     1     -10.209  10.487  65.750  1.00  0.00    -0.243 C  
HETATM   11  O   UNL     1      -9.854  10.185  64.624  1.00  0.00    -0.324 OA 
HETATM   12  C   UNL     1      -9.525  10.017  66.952  1.00  0.00    -0.203 A  
HETATM   13  C   UNL     1      -8.395   9.224  67.045  1.00  0.00    -0.120 A  
HETATM   14  C   UNL     1      -7.931   8.908  68.325  1.00  0.00    -0.105 A  
HETATM   15  C   UNL     1      -8.596   9.386  69.471  1.00  0.00    -0.158 A  
HETATM   16  C   UNL     1      -9.736  10.187  69.355  1.00  0.00    -0.247 A  
HETATM   17  C   UNL     1     -10.177  10.490  68.079  1.00  0.00    -0.195 A  
HETATM   18  C   UNL     1     -11.329  11.298  67.685  1.00  0.00    -0.282 C  
HETATM   19  O   UNL     1     -12.107  11.784  68.487  1.00  0.00    -0.454 OA 
ENDBRANCH   6   9
ENDBRANCH   2   3
TORSDOF 2
ENDMDL
MODEL       37
REMARK 921   NORMALIZED FREE ENERGY PREDICTED BY IDOCK:   -5.25 KCAL/MOL
REMARK 922        TOTAL FREE ENERGY PREDICTED BY IDOCK:   -6.42 KCAL/MOL
REMARK 923 INTER-LIGAND FREE ENERGY PREDICTED BY IDOCK:   -5.94 KCAL/MOL
REMARK 924 INTRA-LIGAND FREE ENERGY PREDICTED BY IDOCK:   -0.48 KCAL/MOL
REMARK 927      BINDING AFFINITY PREDICTED BY RF-SCORE:    0.00 PKD
ROOT
HETATM    1  C   UNL     1     -12.104  14.622  64.480  1.00  0.00    -0.475 C  
HETATM    2  O   UNL     1     -12.572  13.276  64.428  1.00  0.00    -0.609 OA 
ENDROOT
BRANCH   2   3
HETATM    3  C   UNL     1     -11.790  12.371  65.093  1.00  0.00    -0.388 A  
HETATM    4  C   UNL     1     -10.890  11.503  64.481  1.00  0.00    -0.390 A  
HETATM    5  C   UNL     1     -10.145  10.600  65.245  1.00  0.00    -0.363 A  
HETATM    6  C   UNL     1     -10.282  10.546  66.639  1.00  0.00    -0.289 A  
HETATM    7  C   UNL     1     -11.902  12.364  66.481  1.00  0.00    -0.407 A  
HETATM    8  C   UNL     1     -11.163  11.455  67.247  1.00  0.00    -0.370 A  
BRANCH   6   9
HETATM    9  C   UNL     1      -9.531   9.545  67.497  1.00  0.00    -0.155 C  
HETATM   10  C   UNL     1      -9.125  10.035  68.883  1.00  0.00    -0.159 C  
HETATM   11  O   UNL     1      -8.415  10.984  69.168  1.00  0.00    -0.118 OA 
HETATM   12  C   UNL     1      -9.733   9.167  69.889  1.00  0.00    -0.206 A  
HETATM   13  C   UNL     1      -9.662   9.265  71.267  1.00  0.00    -0.299 A  
HETATM   14  C   UNL     1     -10.338   8.299  72.018  1.00  0.00    -0.350 A  
HETATM   15  C   UNL     1     -11.062   7.270  71.386  1.00  0.00    -0.268 A  
HETATM   16  C   UNL     1     -11.122   7.190  69.991  1.00  0.00    -0.288 A  
HETATM   17  C   UNL     1     -10.448   8.157  69.267  1.00  0.00    -0.221 A  
HETATM   18  C   UNL     1     -10.353   8.300  67.815  1.00  0.00    -0.234 C  
HETATM   19  O   UNL     1     -10.844   7.506  67.034  1.00  0.00    -0.348 OA 
ENDBRANCH   6   9
ENDBRANCH   2   3
TORSDOF 2
ENDMDL
MODEL       38
REMARK 921   NORMALIZED FREE ENERGY PREDICTED BY IDOCK:   -5.25 KCAL/MOL
REMARK 922        TOTAL FREE ENERGY PREDICTED BY IDOCK:   -6.41 KCAL/MOL
REMARK 923 INTER-LIGAND FREE ENERGY PREDICTED BY IDOCK:   -5.90 KCAL/MOL
REMARK 924 INTRA-LIGAND FREE ENERGY PREDICTED BY IDOCK:   -0.51 KCAL/MOL
REMARK 927      BINDING AFFINITY PREDICTED BY RF-SCORE:    0.00 PKD
ROOT
HETATM    1  C   UNL     1     -13.771  12.859  72.347  1.00  0.00    -0.431 C  
HETATM    2  O   UNL     1     -13.759  14.251  72.040  1.00  0.00    -0.373 OA 
ENDROOT
BRANCH   2   3
HETATM    3  C   UNL     1     -12.835  14.625  71.103  1.00  0.00    -0.343 A  
HETATM    4  C   UNL     1     -12.532  13.895  69.956  1.00  0.00    -0.325 A  
HETATM    5  C   UNL     1     -11.559  14.353  69.063  1.00  0.00    -0.330 A  
HETATM    6  C   UNL     1     -10.868  15.549  69.294  1.00  0.00    -0.252 A  
HETATM    7  C   UNL     1     -12.194  15.840  71.323  1.00  0.00    -0.491 A  
HETATM    8  C   UNL     1     -11.212  16.295  70.434  1.00  0.00    -0.336 A  
BRANCH   6   9
HETATM    9  C   UNL     1      -9.768  16.051  68.377  1.00  0.00    -0.213 C  
HETATM   10  C   UNL     1      -9.742  17.557  68.139  1.00  0.00    -0.302 C  
HETATM   11  O   UNL     1     -10.617  18.259  67.662  1.00  0.00    -0.406 OA 
HETATM   12  C   UNL     1      -8.453  18.085  68.581  1.00  0.00    -0.277 A  
HETATM   13  C   UNL     1      -8.015  19.396  68.584  1.00  0.00    -0.403 A  
HETATM   14  C   UNL     1      -6.725  19.645  69.062  1.00  0.00    -0.372 A  
HETATM   15  C   UNL     1      -5.911  18.592  69.523  1.00  0.00    -0.261 A  
HETATM   16  C   UNL     1      -6.375  17.273  69.512  1.00  0.00    -0.235 A  
HETATM   17  C   UNL     1      -7.654  17.049  69.037  1.00  0.00    -0.194 A  
HETATM   18  C   UNL     1      -8.370  15.780  68.921  1.00  0.00    -0.213 C  
HETATM   19  O   UNL     1      -7.869  14.705  69.200  1.00  0.00    -0.144 OA 
ENDBRANCH   6   9
ENDBRANCH   2   3
TORSDOF 2
ENDMDL
MODEL       39
REMARK 921   NORMALIZED FREE ENERGY PREDICTED BY IDOCK:   -5.20 KCAL/MOL
REMARK 922        TOTAL FREE ENERGY PREDICTED BY IDOCK:   -6.36 KCAL/MOL
REMARK 923 INTER-LIGAND FREE ENERGY PREDICTED BY IDOCK:   -5.91 KCAL/MOL
REMARK 924 INTRA-LIGAND FREE ENERGY PREDICTED BY IDOCK:   -0.45 KCAL/MOL
REMARK 927      BINDING AFFINITY PREDICTED BY RF-SCORE:    0.00 PKD
ROOT
HETATM    1  C   UNL     1     -11.763  13.153  66.464  1.00  0.00    -0.382 C  
HETATM    2  O   UNL     1     -11.546  11.745  66.513  1.00  0.00    -0.481 OA 
ENDROOT
BRANCH   2   3
HETATM    3  C   UNL     1     -11.459  11.221  67.774  1.00  0.00    -0.275 A  
HETATM    4  C   UNL     1     -11.976  11.823  68.918  1.00  0.00    -0.332 A  
HETATM    5  C   UNL     1     -11.824  11.216  70.168  1.00  0.00    -0.449 A  
HETATM    6  C   UNL     1     -11.152   9.994  70.303  1.00  0.00    -0.381 A  
HETATM    7  C   UNL     1     -10.833   9.983  67.884  1.00  0.00    -0.323 A  
HETATM    8  C   UNL     1     -10.671   9.378  69.136  1.00  0.00    -0.216 A  
BRANCH   6   9
HETATM    9  C   UNL     1     -10.919   9.332  71.648  1.00  0.00    -0.433 C  
HETATM   10  C   UNL     1     -11.897   8.220  72.016  1.00  0.00    -0.347 C  
HETATM   11  O   UNL     1     -13.108   8.291  72.132  1.00  0.00    -0.324 OA 
HETATM   12  C   UNL     1     -11.149   6.982  72.226  1.00  0.00    -0.287 A  
HETATM   13  C   UNL     1     -11.636   5.725  72.537  1.00  0.00    -0.321 A  
HETATM   14  C   UNL     1     -10.706   4.693  72.689  1.00  0.00    -0.249 A  
HETATM   15  C   UNL     1      -9.328   4.934  72.527  1.00  0.00    -0.155 A  
HETATM   16  C   UNL     1      -8.858   6.212  72.212  1.00  0.00    -0.137 A  
HETATM   17  C   UNL     1      -9.794   7.219  72.064  1.00  0.00    -0.183 A  
HETATM   18  C   UNL     1      -9.570   8.626  71.739  1.00  0.00    -0.290 C  
HETATM   19  O   UNL     1      -8.460   9.110  71.603  1.00  0.00    -0.344 OA 
ENDBRANCH   6   9
ENDBRANCH   2   3
TORSDOF 2
ENDMDL
MODEL       40
REMARK 921   NORMALIZED FREE ENERGY PREDICTED BY IDOCK:   -5.17 KCAL/MOL
REMARK 922        TOTAL FREE ENERGY PREDICTED BY IDOCK:   -6.34 KCAL/MOL
REMARK 923 INTER-LIGAND FREE ENERGY PREDICTED BY IDOCK:   -6.01 KCAL/MOL
REMARK 924 INTRA-LIGAND FREE ENERGY PREDICTED BY IDOCK:   -0.33 KCAL/MOL
REMARK 927      BINDING AFFINITY PREDICTED BY RF-SCORE:    0.00 PKD
ROOT
HETATM    1  C   UNL     1      -5.469  11.493  66.667  1.00  0.00    -0.133 C  
HETATM    2  O   UNL     1      -5.765  12.795  67.167  1.00  0.00    -0.332 OA 
ENDROOT
BRANCH   2   3
HETATM    3  C   UNL     1      -7.083  13.009  67.469  1.00  0.00    -0.154 A  
HETATM    4  C   UNL     1      -7.559  14.086  68.211  1.00  0.00    -0.135 A  
HETATM    5  C   UNL     1      -8.925  14.211  68.481  1.00  0.00    -0.174 A  
HETATM    6  C   UNL     1      -9.845  13.264  68.014  1.00  0.00    -0.230 A  
HETATM    7  C   UNL     1      -7.989  12.086  66.955  1.00  0.00    -0.150 A  
HETATM    8  C   UNL     1      -9.356  12.204  67.232  1.00  0.00    -0.183 A  
BRANCH   6   9
HETATM    9  C   UNL     1     -11.327  13.336  68.332  1.00  0.00    -0.326 C  
HETATM   10  C   UNL     1     -11.806  12.428  69.461  1.00  0.00    -0.303 C  
HETATM   11  O   UNL     1     -11.732  11.213  69.532  1.00  0.00    -0.273 OA 
HETATM   12  C   UNL     1     -12.402  13.252  70.510  1.00  0.00    -0.389 A  
HETATM   13  C   UNL     1     -12.928  12.850  71.724  1.00  0.00    -0.416 A  
HETATM   14  C   UNL     1     -13.446  13.841  72.563  1.00  0.00    -0.682 A  
HETATM   15  C   UNL     1     -13.426  15.195  72.177  1.00  0.00    -0.525 A  
HETATM   16  C   UNL     1     -12.888  15.579  70.945  1.00  0.00    -0.535 A  
HETATM   17  C   UNL     1     -12.379  14.584  70.131  1.00  0.00    -0.398 A  
HETATM   18  C   UNL     1     -11.767  14.715  68.810  1.00  0.00    -0.324 C  
HETATM   19  O   UNL     1     -11.678  15.777  68.221  1.00  0.00    -0.345 OA 
ENDBRANCH   6   9
ENDBRANCH   2   3
TORSDOF 2
ENDMDL
MODEL       41
REMARK 921   NORMALIZED FREE ENERGY PREDICTED BY IDOCK:   -5.17 KCAL/MOL
REMARK 922        TOTAL FREE ENERGY PREDICTED BY IDOCK:   -6.33 KCAL/MOL
REMARK 923 INTER-LIGAND FREE ENERGY PREDICTED BY IDOCK:   -6.34 KCAL/MOL
REMARK 924 INTRA-LIGAND FREE ENERGY PREDICTED BY IDOCK:    0.01 KCAL/MOL
REMARK 927      BINDING AFFINITY PREDICTED BY RF-SCORE:    0.00 PKD
ROOT
HETATM    1  C   UNL     1     -12.225  12.185  63.563  1.00  0.00    -0.567 C  
HETATM    2  O   UNL     1     -12.796  12.563  64.814  1.00  0.00    -0.755 OA 
ENDROOT
BRANCH   2   3
HETATM    3  C   UNL     1     -12.173  13.610  65.437  1.00  0.00    -0.444 A  
HETATM    4  C   UNL     1     -11.514  14.644  64.777  1.00  0.00    -0.410 A  
HETATM    5  C   UNL     1     -10.893  15.664  65.503  1.00  0.00    -0.356 A  
HETATM    6  C   UNL     1     -10.920  15.676  66.904  1.00  0.00    -0.243 A  
HETATM    7  C   UNL     1     -12.251  13.633  66.826  1.00  0.00    -0.416 A  
HETATM    8  C   UNL     1     -11.622  14.650  67.555  1.00  0.00    -0.396 A  
BRANCH   6   9
HETATM    9  C   UNL     1     -10.212  16.737  67.727  1.00  0.00    -0.303 C  
HETATM   10  C   UNL     1      -9.265  16.215  68.804  1.00  0.00    -0.224 C  
HETATM   11  O   UNL     1      -9.527  15.491  69.749  1.00  0.00    -0.285 OA 
HETATM   12  C   UNL     1      -7.922  16.726  68.541  1.00  0.00    -0.235 A  
HETATM   13  C   UNL     1      -6.755  16.477  69.240  1.00  0.00    -0.218 A  
HETATM   14  C   UNL     1      -5.586  17.093  68.784  1.00  0.00    -0.144 A  
HETATM   15  C   UNL     1      -5.607  17.933  67.654  1.00  0.00    -0.145 A  
HETATM   16  C   UNL     1      -6.798  18.170  66.962  1.00  0.00    -0.207 A  
HETATM   17  C   UNL     1      -7.943  17.549  67.427  1.00  0.00    -0.217 A  
HETATM   18  C   UNL     1      -9.300  17.628  66.892  1.00  0.00    -0.264 C  
HETATM   19  O   UNL     1      -9.602  18.335  65.946  1.00  0.00    -0.510 OA 
ENDBRANCH   6   9
ENDBRANCH   2   3
TORSDOF 2
ENDMDL
MODEL       42
REMARK 921   NORMALIZED FREE ENERGY PREDICTED BY IDOCK:   -5.10 KCAL/MOL
REMARK 922        TOTAL FREE ENERGY PREDICTED BY IDOCK:   -6.26 KCAL/MOL
REMARK 923 INTER-LIGAND FREE ENERGY PREDICTED BY IDOCK:   -6.35 KCAL/MOL
REMARK 924 INTRA-LIGAND FREE ENERGY PREDICTED BY IDOCK:    0.09 KCAL/MOL
REMARK 927      BINDING AFFINITY PREDICTED BY RF-SCORE:    0.00 PKD
ROOT
HETATM    1  C   UNL     1     -10.288  19.765  68.316  1.00  0.00    -0.410 C  
HETATM    2  O   UNL     1      -9.394  18.839  67.702  1.00  0.00    -0.287 OA 
ENDROOT
BRANCH   2   3
HETATM    3  C   UNL     1      -9.951  17.632  67.376  1.00  0.00    -0.321 A  
HETATM    4  C   UNL     1      -9.822  17.010  66.137  1.00  0.00    -0.297 A  
HETATM    5  C   UNL     1     -10.442  15.781  65.894  1.00  0.00    -0.366 A  
HETATM    6  C   UNL     1     -11.203  15.146  66.884  1.00  0.00    -0.292 A  
HETATM    7  C   UNL     1     -10.662  16.991  68.386  1.00  0.00    -0.361 A  
HETATM    8  C   UNL     1     -11.292  15.764  68.141  1.00  0.00    -0.337 A  
BRANCH   6   9
HETATM    9  C   UNL     1     -11.936  13.839  66.640  1.00  0.00    -0.469 C  
HETATM   10  C   UNL     1     -11.432  13.008  65.464  1.00  0.00    -0.321 C  
HETATM   11  O   UNL     1     -11.371  13.325  64.289  1.00  0.00    -0.365 OA 
HETATM   12  C   UNL     1     -11.005  11.700  65.958  1.00  0.00    -0.338 A  
HETATM   13  C   UNL     1     -10.451  10.651  65.247  1.00  0.00    -0.264 A  
HETATM   14  C   UNL     1     -10.126   9.491  65.956  1.00  0.00    -0.319 A  
HETATM   15  C   UNL     1     -10.358   9.405  67.343  1.00  0.00    -0.325 A  
HETATM   16  C   UNL     1     -10.918  10.478  68.042  1.00  0.00    -0.345 A  
HETATM   17  C   UNL     1     -11.230  11.617  67.322  1.00  0.00    -0.365 A  
HETATM   18  C   UNL     1     -11.818  12.865  67.807  1.00  0.00    -0.339 C  
HETATM   19  O   UNL     1     -12.167  13.031  68.962  1.00  0.00    -0.227 OA 
ENDBRANCH   6   9
ENDBRANCH   2   3
TORSDOF 2
ENDMDL
MODEL       43
REMARK 921   NORMALIZED FREE ENERGY PREDICTED BY IDOCK:   -5.10 KCAL/MOL
REMARK 922        TOTAL FREE ENERGY PREDICTED BY IDOCK:   -6.26 KCAL/MOL
REMARK 923 INTER-LIGAND FREE ENERGY PREDICTED BY IDOCK:   -5.76 KCAL/MOL
REMARK 924 INTRA-LIGAND FREE ENERGY PREDICTED BY IDOCK:   -0.50 KCAL/MOL
REMARK 927      BINDING AFFINITY PREDICTED BY RF-SCORE:    0.00 PKD
ROOT
HETATM    1  C   UNL     1     -13.912  14.516  72.258  1.00  0.00    -0.502 C  
HETATM    2  O   UNL     1     -14.129  13.111  72.372  1.00  0.00    -0.583 OA 
ENDROOT
BRANCH   2   3
HETATM    3  C   UNL     1     -13.240  12.334  71.681  1.00  0.00    -0.257 A  
HETATM    4  C   UNL     1     -13.123  10.953  71.819  1.00  0.00    -0.564 A  
HETATM    5  C   UNL     1     -12.171  10.247  71.078  1.00  0.00    -0.487 A  
HETATM    6  C   UNL     1     -11.317  10.903  70.182  1.00  0.00    -0.367 A  
HETATM    7  C   UNL     1     -12.434  12.995  70.759  1.00  0.00    -0.384 A  
HETATM    8  C   UNL     1     -11.473  12.290  70.023  1.00  0.00    -0.133 A  
BRANCH   6   9
HETATM    9  C   UNL     1     -10.236  10.179  69.401  1.00  0.00    -0.246 C  
HETATM   10  C   UNL     1      -9.597   8.986  70.107  1.00  0.00    -0.193 C  
HETATM   11  O   UNL     1      -9.000   8.972  71.170  1.00  0.00    -0.220 OA 
HETATM   12  C   UNL     1      -9.805   7.789  69.296  1.00  0.00    -0.173 A  
HETATM   13  C   UNL     1      -9.427   6.487  69.571  1.00  0.00    -0.150 A  
HETATM   14  C   UNL     1      -9.744   5.509  68.623  1.00  0.00    -0.186 A  
HETATM   15  C   UNL     1     -10.424   5.848  67.438  1.00  0.00    -0.311 A  
HETATM   16  C   UNL     1     -10.798   7.170  67.181  1.00  0.00    -0.403 A  
HETATM   17  C   UNL     1     -10.477   8.122  68.131  1.00  0.00    -0.225 A  
HETATM   18  C   UNL     1     -10.751   9.557  68.108  1.00  0.00    -0.197 C  
HETATM   19  O   UNL     1     -11.281  10.118  67.165  1.00  0.00    -0.179 OA 
ENDBRANCH   6   9
ENDBRANCH   2   3
TORSDOF 2
ENDMDL
MODEL       44
REMARK 921   NORMALIZED FREE ENERGY PREDICTED BY IDOCK:   -5.08 KCAL/MOL
REMARK 922        TOTAL FREE ENERGY PREDICTED BY IDOCK:   -6.23 KCAL/MOL
REMARK 923 INTER-LIGAND FREE ENERGY PREDICTED BY IDOCK:   -5.68 KCAL/MOL
REMARK 924 INTRA-LIGAND FREE ENERGY PREDICTED BY IDOCK:   -0.55 KCAL/MOL
REMARK 927      BINDING AFFINITY PREDICTED BY RF-SCORE:    0.00 PKD
ROOT
HETATM    1  C   UNL     1      -7.808  18.466  67.088  1.00  0.00    -0.229 C  
HETATM    2  O   UNL     1      -8.258  17.839  65.890  1.00  0.00    -0.525 OA 
ENDROOT
BRANCH   2   3
HETATM    3  C   UNL     1      -9.149  16.817  66.076  1.00  0.00    -0.190 A  
HETATM    4  C   UNL     1     -10.485  16.852  65.682  1.00  0.00    -0.252 A  
HETATM    5  C   UNL     1     -11.324  15.762  65.930  1.00  0.00     0.117 A  
HETATM    6  C   UNL     1     -10.847  14.612  66.574  1.00  0.00    -0.315 A  
HETATM    7  C   UNL     1      -8.647  15.664  66.672  1.00  0.00    -0.330 A  
HETATM    8  C   UNL     1      -9.489  14.575  66.929  1.00  0.00    -0.263 A  
BRANCH   6   9
HETATM    9  C   UNL     1     -11.739  13.431  66.909  1.00  0.00    -0.434 C  
HETATM   10  C   UNL     1     -11.260  12.075  66.400  1.00  0.00    -0.337 C  
HETATM   11  O   UNL     1     -11.048  11.736  65.249  1.00  0.00    -0.304 OA 
HETATM   12  C   UNL     1     -11.077  11.179  67.540  1.00  0.00    -0.353 A  
HETATM   13  C   UNL     1     -10.622   9.874  67.543  1.00  0.00    -0.333 A  
HETATM   14  C   UNL     1     -10.537   9.223  68.778  1.00  0.00    -0.220 A  
HETATM   15  C   UNL     1     -10.902   9.883  69.967  1.00  0.00    -0.339 A  
HETATM   16  C   UNL     1     -11.359  11.204  69.941  1.00  0.00    -0.348 A  
HETATM   17  C   UNL     1     -11.433  11.830  68.710  1.00  0.00    -0.350 A  
HETATM   18  C   UNL     1     -11.872  13.192  68.409  1.00  0.00    -0.351 C  
HETATM   19  O   UNL     1     -12.295  13.957  69.257  1.00  0.00    -0.323 OA 
ENDBRANCH   6   9
ENDBRANCH   2   3
TORSDOF 2
ENDMDL
MODEL       45
REMARK 921   NORMALIZED FREE ENERGY PREDICTED BY IDOCK:   -5.07 KCAL/MOL
REMARK 922        TOTAL FREE ENERGY PREDICTED BY IDOCK:   -6.22 KCAL/MOL
REMARK 923 INTER-LIGAND FREE ENERGY PREDICTED BY IDOCK:   -6.01 KCAL/MOL
REMARK 924 INTRA-LIGAND FREE ENERGY PREDICTED BY IDOCK:   -0.22 KCAL/MOL
REMARK 927      BINDING AFFINITY PREDICTED BY RF-SCORE:    0.00 PKD
ROOT
HETATM    1  C   UNL     1      -8.963   9.953  62.855  1.00  0.00    -0.261 C  
HETATM    2  O   UNL     1     -10.048  10.773  63.284  1.00  0.00    -0.325 OA 
ENDROOT
BRANCH   2   3
HETATM    3  C   UNL     1     -10.087  11.015  64.630  1.00  0.00    -0.311 A  
HETATM    4  C   UNL     1     -10.163  12.282  65.203  1.00  0.00    -0.305 A  
HETATM    5  C   UNL     1     -10.184  12.429  66.593  1.00  0.00    -0.241 A  
HETATM    6  C   UNL     1     -10.131  11.314  67.441  1.00  0.00    -0.214 A  
HETATM    7  C   UNL     1     -10.085   9.895  65.456  1.00  0.00    -0.297 A  
HETATM    8  C   UNL     1     -10.096  10.041  66.849  1.00  0.00    -0.287 A  
BRANCH   6   9
HETATM    9  C   UNL     1     -10.096  11.436  68.953  1.00  0.00    -0.166 C  
HETATM   10  C   UNL     1     -11.416  11.822  69.615  1.00  0.00    -0.270 C  
HETATM   11  O   UNL     1     -12.083  12.826  69.435  1.00  0.00    -0.273 OA 
HETATM   12  C   UNL     1     -11.801  10.770  70.553  1.00  0.00    -0.453 A  
HETATM   13  C   UNL     1     -12.937  10.690  71.337  1.00  0.00    -0.545 A  
HETATM   14  C   UNL     1     -13.074   9.569  72.162  1.00  0.00    -0.522 A  
HETATM   15  C   UNL     1     -12.087   8.565  72.184  1.00  0.00    -0.449 A  
HETATM   16  C   UNL     1     -10.946   8.666  71.382  1.00  0.00    -0.341 A  
HETATM   17  C   UNL     1     -10.831   9.781  70.572  1.00  0.00    -0.387 A  
HETATM   18  C   UNL     1      -9.751  10.124  69.648  1.00  0.00    -0.221 C  
HETATM   19  O   UNL     1      -8.746   9.448  69.519  1.00  0.00    -0.139 OA 
ENDBRANCH   6   9
ENDBRANCH   2   3
TORSDOF 2
ENDMDL
MODEL       46
REMARK 921   NORMALIZED FREE ENERGY PREDICTED BY IDOCK:   -5.07 KCAL/MOL
REMARK 922        TOTAL FREE ENERGY PREDICTED BY IDOCK:   -6.22 KCAL/MOL
REMARK 923 INTER-LIGAND FREE ENERGY PREDICTED BY IDOCK:   -5.70 KCAL/MOL
REMARK 924 INTRA-LIGAND FREE ENERGY PREDICTED BY IDOCK:   -0.52 KCAL/MOL
REMARK 927      BINDING AFFINITY PREDICTED BY RF-SCORE:    0.00 PKD
ROOT
HETATM    1  C   UNL     1      -7.976  19.395  68.772  1.00  0.00    -0.356 C  
HETATM    2  O   UNL     1      -7.197  18.200  68.759  1.00  0.00    -0.268 OA 
ENDROOT
BRANCH   2   3
HETATM    3  C   UNL     1      -7.878  17.074  68.384  1.00  0.00    -0.233 A  
HETATM    4  C   UNL     1      -8.609  16.947  67.205  1.00  0.00    -0.212 A  
HETATM    5  C   UNL     1      -9.285  15.759  66.916  1.00  0.00    -0.250 A  
HETATM    6  C   UNL     1      -9.246  14.670  67.798  1.00  0.00    -0.196 A  
HETATM    7  C   UNL     1      -7.788  15.986  69.247  1.00  0.00    -0.222 A  
HETATM    8  C   UNL     1      -8.473  14.797  68.964  1.00  0.00    -0.140 A  
BRANCH   6   9
HETATM    9  C   UNL     1     -10.010  13.384  67.545  1.00  0.00    -0.230 C  
HETATM   10  C   UNL     1     -11.433  13.553  67.021  1.00  0.00    -0.340 C  
HETATM   11  O   UNL     1     -12.364  14.138  67.547  1.00  0.00    -0.296 OA 
HETATM   12  C   UNL     1     -11.545  12.881  65.728  1.00  0.00    -0.411 A  
HETATM   13  C   UNL     1     -12.639  12.813  64.886  1.00  0.00    -0.541 A  
HETATM   14  C   UNL     1     -12.491  12.100  63.692  1.00  0.00    -0.658 A  
HETATM   15  C   UNL     1     -11.269  11.480  63.370  1.00  0.00    -0.342 A  
HETATM   16  C   UNL     1     -10.175  11.562  64.236  1.00  0.00    -0.361 A  
HETATM   17  C   UNL     1     -10.341  12.274  65.410  1.00  0.00    -0.298 A  
HETATM   18  C   UNL     1      -9.367  12.510  66.474  1.00  0.00    -0.233 C  
HETATM   19  O   UNL     1      -8.246  12.033  66.468  1.00  0.00    -0.112 OA 
ENDBRANCH   6   9
ENDBRANCH   2   3
TORSDOF 2
ENDMDL
MODEL       47
REMARK 921   NORMALIZED FREE ENERGY PREDICTED BY IDOCK:   -5.05 KCAL/MOL
REMARK 922        TOTAL FREE ENERGY PREDICTED BY IDOCK:   -6.20 KCAL/MOL
REMARK 923 INTER-LIGAND FREE ENERGY PREDICTED BY IDOCK:   -5.84 KCAL/MOL
REMARK 924 INTRA-LIGAND FREE ENERGY PREDICTED BY IDOCK:   -0.36 KCAL/MOL
REMARK 927      BINDING AFFINITY PREDICTED BY RF-SCORE:    0.00 PKD
ROOT
HETATM    1  C   UNL     1      -7.022  10.767  66.046  1.00  0.00    -0.104 C  
HETATM    2  O   UNL     1      -8.415  10.847  65.753  1.00  0.00    -0.172 OA 
ENDROOT
BRANCH   2   3
HETATM    3  C   UNL     1      -8.994  12.054  66.036  1.00  0.00    -0.021 A  
HETATM    4  C   UNL     1      -8.548  12.933  67.020  1.00  0.00    -0.171 A  
HETATM    5  C   UNL     1      -9.215  14.141  67.245  1.00  0.00    -0.222 A  
HETATM    6  C   UNL     1     -10.342  14.497  66.492  1.00  0.00    -0.283 A  
HETATM    7  C   UNL     1     -10.081  12.415  65.246  1.00  0.00    -0.285 A  
HETATM    8  C   UNL     1     -10.757  13.619  65.477  1.00  0.00    -0.296 A  
BRANCH   6   9
HETATM    9  C   UNL     1     -11.125  15.772  66.744  1.00  0.00    -0.116 C  
HETATM   10  C   UNL     1     -10.909  16.422  68.107  1.00  0.00    -0.346 C  
HETATM   11  O   UNL     1     -11.111  15.944  69.210  1.00  0.00    -0.267 OA 
HETATM   12  C   UNL     1     -10.397  17.777  67.910  1.00  0.00    -0.388 A  
HETATM   13  C   UNL     1     -10.029  18.705  68.866  1.00  0.00    -0.399 A  
HETATM   14  C   UNL     1      -9.566  19.946  68.416  1.00  0.00    -0.406 A  
HETATM   15  C   UNL     1      -9.480  20.227  67.039  1.00  0.00    -0.546 A  
HETATM   16  C   UNL     1      -9.856  19.273  66.089  1.00  0.00    -0.429 A  
HETATM   17  C   UNL     1     -10.309  18.052  66.555  1.00  0.00    -0.376 A  
HETATM   18  C   UNL     1     -10.758  16.896  65.781  1.00  0.00    -0.160 C  
HETATM   19  O   UNL     1     -10.836  16.897  64.566  1.00  0.00    -0.849 OA 
ENDBRANCH   6   9
ENDBRANCH   2   3
TORSDOF 2
ENDMDL
MODEL       48
REMARK 921   NORMALIZED FREE ENERGY PREDICTED BY IDOCK:   -5.01 KCAL/MOL
REMARK 922        TOTAL FREE ENERGY PREDICTED BY IDOCK:   -6.15 KCAL/MOL
REMARK 923 INTER-LIGAND FREE ENERGY PREDICTED BY IDOCK:   -5.64 KCAL/MOL
REMARK 924 INTRA-LIGAND FREE ENERGY PREDICTED BY IDOCK:   -0.52 KCAL/MOL
REMARK 927      BINDING AFFINITY PREDICTED BY RF-SCORE:    0.00 PKD
ROOT
HETATM    1  C   UNL     1     -12.210  14.854  64.372  1.00  0.00    -0.381 C  
HETATM    2  O   UNL     1     -12.439  13.496  64.001  1.00  0.00    -0.645 OA 
ENDROOT
BRANCH   2   3
HETATM    3  C   UNL     1     -11.796  12.572  64.780  1.00  0.00    -0.383 A  
HETATM    4  C   UNL     1     -11.969  12.440  66.156  1.00  0.00    -0.397 A  
HETATM    5  C   UNL     1     -11.255  11.473  66.869  1.00  0.00    -0.363 A  
HETATM    6  C   UNL     1     -10.354  10.616  66.224  1.00  0.00    -0.296 A  
HETATM    7  C   UNL     1     -10.942  11.696  64.117  1.00  0.00    -0.442 A  
HETATM    8  C   UNL     1     -10.219  10.733  64.831  1.00  0.00    -0.388 A  
BRANCH   6   9
HETATM    9  C   UNL     1      -9.521   9.591  66.972  1.00  0.00    -0.197 C  
HETATM   10  C   UNL     1      -8.898  10.073  68.279  1.00  0.00    -0.116 C  
HETATM   11  O   UNL     1      -8.120  10.996  68.447  1.00  0.00    -0.119 OA 
HETATM   12  C   UNL     1      -9.381   9.231  69.372  1.00  0.00    -0.164 A  
HETATM   13  C   UNL     1      -9.104   9.333  70.723  1.00  0.00    -0.306 A  
HETATM   14  C   UNL     1      -9.695   8.396  71.575  1.00  0.00    -0.276 A  
HETATM   15  C   UNL     1     -10.540   7.391  71.066  1.00  0.00    -0.234 A  
HETATM   16  C   UNL     1     -10.808   7.307  69.696  1.00  0.00    -0.238 A  
HETATM   17  C   UNL     1     -10.215   8.245  68.871  1.00  0.00    -0.222 A  
HETATM   18  C   UNL     1     -10.330   8.379  67.420  1.00  0.00    -0.285 C  
HETATM   19  O   UNL     1     -10.959   7.599  66.727  1.00  0.00    -0.183 OA 
ENDBRANCH   6   9
ENDBRANCH   2   3
TORSDOF 2
ENDMDL
MODEL       49
REMARK 921   NORMALIZED FREE ENERGY PREDICTED BY IDOCK:   -5.01 KCAL/MOL
REMARK 922        TOTAL FREE ENERGY PREDICTED BY IDOCK:   -6.15 KCAL/MOL
REMARK 923 INTER-LIGAND FREE ENERGY PREDICTED BY IDOCK:   -5.63 KCAL/MOL
REMARK 924 INTRA-LIGAND FREE ENERGY PREDICTED BY IDOCK:   -0.53 KCAL/MOL
REMARK 927      BINDING AFFINITY PREDICTED BY RF-SCORE:    0.00 PKD
ROOT
HETATM    1  C   UNL     1     -12.693  16.000  73.894  1.00  0.00    -0.584 C  
HETATM    2  O   UNL     1     -12.984  14.828  73.138  1.00  0.00    -0.474 OA 
ENDROOT
BRANCH   2   3
HETATM    3  C   UNL     1     -12.405  14.784  71.899  1.00  0.00    -0.345 A  
HETATM    4  C   UNL     1     -12.709  13.846  70.916  1.00  0.00    -0.410 A  
HETATM    5  C   UNL     1     -12.051  13.873  69.683  1.00  0.00    -0.404 A  
HETATM    6  C   UNL     1     -11.074  14.839  69.405  1.00  0.00    -0.302 A  
HETATM    7  C   UNL     1     -11.474  15.780  71.621  1.00  0.00    -0.495 A  
HETATM    8  C   UNL     1     -10.806  15.804  70.390  1.00  0.00    -0.345 A  
BRANCH   6   9
HETATM    9  C   UNL     1     -10.300  14.868  68.100  1.00  0.00    -0.237 C  
HETATM   10  C   UNL     1      -9.987  16.256  67.548  1.00  0.00    -0.248 C  
HETATM   11  O   UNL     1     -10.771  17.135  67.235  1.00  0.00    -0.302 OA 
HETATM   12  C   UNL     1      -8.538  16.405  67.434  1.00  0.00    -0.193 A  
HETATM   13  C   UNL     1      -7.817  17.508  67.015  1.00  0.00    -0.240 A  
HETATM   14  C   UNL     1      -6.423  17.397  66.992  1.00  0.00    -0.204 A  
HETATM   15  C   UNL     1      -5.789  16.203  67.385  1.00  0.00    -0.166 A  
HETATM   16  C   UNL     1      -6.537  15.100  67.806  1.00  0.00    -0.186 A  
HETATM   17  C   UNL     1      -7.914  15.231  67.823  1.00  0.00    -0.159 A  
HETATM   18  C   UNL     1      -8.915  14.241  68.216  1.00  0.00    -0.187 C  
HETATM   19  O   UNL     1      -8.632  13.103  68.545  1.00  0.00    -0.148 OA 
ENDBRANCH   6   9
ENDBRANCH   2   3
TORSDOF 2
ENDMDL
MODEL       50
REMARK 921   NORMALIZED FREE ENERGY PREDICTED BY IDOCK:   -4.97 KCAL/MOL
REMARK 922        TOTAL FREE ENERGY PREDICTED BY IDOCK:   -6.11 KCAL/MOL
REMARK 923 INTER-LIGAND FREE ENERGY PREDICTED BY IDOCK:   -5.57 KCAL/MOL
REMARK 924 INTRA-LIGAND FREE ENERGY PREDICTED BY IDOCK:   -0.54 KCAL/MOL
REMARK 927      BINDING AFFINITY PREDICTED BY RF-SCORE:    0.00 PKD
ROOT
HETATM    1  C   UNL     1     -12.276  15.969  72.387  1.00  0.00    -0.514 C  
HETATM    2  O   UNL     1     -12.892  15.553  71.171  1.00  0.00    -0.433 OA 
ENDROOT
BRANCH   2   3
HETATM    3  C   UNL     1     -12.022  15.281  70.150  1.00  0.00    -0.338 A  
HETATM    4  C   UNL     1     -11.035  16.153  69.698  1.00  0.00    -0.346 A  
HETATM    5  C   UNL     1     -10.201  15.789  68.637  1.00  0.00    -0.221 A  
HETATM    6  C   UNL     1     -10.335  14.547  68.004  1.00  0.00    -0.229 A  
HETATM    7  C   UNL     1     -12.136  14.023  69.565  1.00  0.00    -0.397 A  
HETATM    8  C   UNL     1     -11.308  13.661  68.495  1.00  0.00    -0.325 A  
BRANCH   6   9
HETATM    9  C   UNL     1      -9.486  14.138  66.814  1.00  0.00    -0.290 C  
HETATM   10  C   UNL     1      -8.724  12.825  66.964  1.00  0.00    -0.197 C  
HETATM   11  O   UNL     1      -7.892  12.530  67.805  1.00  0.00    -0.126 OA 
HETATM   12  C   UNL     1      -9.145  11.909  65.906  1.00  0.00    -0.085 A  
HETATM   13  C   UNL     1      -8.741  10.605  65.686  1.00  0.00    -0.198 A  
HETATM   14  C   UNL     1      -9.295   9.934  64.592  1.00  0.00    -0.338 A  
HETATM   15  C   UNL     1     -10.230  10.571  63.754  1.00  0.00    -0.155 A  
HETATM   16  C   UNL     1     -10.625  11.890  63.995  1.00  0.00    -0.422 A  
HETATM   17  C   UNL     1     -10.067  12.535  65.083  1.00  0.00    -0.266 A  
HETATM   18  C   UNL     1     -10.307  13.899  65.551  1.00  0.00    -0.333 C  
HETATM   19  O   UNL     1     -11.033  14.685  64.968  1.00  0.00    -0.356 OA 
ENDBRANCH   6   9
ENDBRANCH   2   3
TORSDOF 2
ENDMDL
MODEL       51
REMARK 921   NORMALIZED FREE ENERGY PREDICTED BY IDOCK:   -4.96 KCAL/MOL
REMARK 922        TOTAL FREE ENERGY PREDICTED BY IDOCK:   -6.10 KCAL/MOL
REMARK 923 INTER-LIGAND FREE ENERGY PREDICTED BY IDOCK:   -5.57 KCAL/MOL
REMARK 924 INTRA-LIGAND FREE ENERGY PREDICTED BY IDOCK:   -0.53 KCAL/MOL
REMARK 927      BINDING AFFINITY PREDICTED BY RF-SCORE:    0.00 PKD
ROOT
HETATM    1  C   UNL     1      -9.638   3.753  67.070  1.00  0.00    -0.180 C  
HETATM    2  O   UNL     1      -9.554   4.739  68.097  1.00  0.00    -0.135 OA 
ENDROOT
BRANCH   2   3
HETATM    3  C   UNL     1      -9.563   6.033  67.653  1.00  0.00    -0.112 A  
HETATM    4  C   UNL     1     -10.708   6.736  67.289  1.00  0.00    -0.423 A  
HETATM    5  C   UNL     1     -10.614   8.054  66.832  1.00  0.00    -0.324 A  
HETATM    6  C   UNL     1      -9.375   8.699  66.731  1.00  0.00    -0.229 A  
HETATM    7  C   UNL     1      -8.329   6.675  67.606  1.00  0.00    -0.122 A  
HETATM    8  C   UNL     1      -8.232   7.992  67.140  1.00  0.00    -0.117 A  
BRANCH   6   9
HETATM    9  C   UNL     1      -9.227  10.109  66.189  1.00  0.00    -0.196 C  
HETATM   10  C   UNL     1      -9.651  10.306  64.737  1.00  0.00    -0.307 C  
HETATM   11  O   UNL     1      -9.211   9.755  63.742  1.00  0.00    -0.258 OA 
HETATM   12  C   UNL     1     -10.717  11.304  64.686  1.00  0.00    -0.371 A  
HETATM   13  C   UNL     1     -11.417  11.760  63.584  1.00  0.00    -0.524 A  
HETATM   14  C   UNL     1     -12.400  12.731  63.801  1.00  0.00    -0.533 A  
HETATM   15  C   UNL     1     -12.660  13.217  65.097  1.00  0.00    -0.512 A  
HETATM   16  C   UNL     1     -11.941  12.741  66.197  1.00  0.00    -0.476 A  
HETATM   17  C   UNL     1     -10.975  11.780  65.962  1.00  0.00    -0.355 A  
HETATM   18  C   UNL     1     -10.094  11.124  66.926  1.00  0.00    -0.214 C  
HETATM   19  O   UNL     1     -10.076  11.405  68.111  1.00  0.00    -0.178 OA 
ENDBRANCH   6   9
ENDBRANCH   2   3
TORSDOF 2
ENDMDL
MODEL       52
REMARK 921   NORMALIZED FREE ENERGY PREDICTED BY IDOCK:   -4.93 KCAL/MOL
REMARK 922        TOTAL FREE ENERGY PREDICTED BY IDOCK:   -6.07 KCAL/MOL
REMARK 923 INTER-LIGAND FREE ENERGY PREDICTED BY IDOCK:   -5.56 KCAL/MOL
REMARK 924 INTRA-LIGAND FREE ENERGY PREDICTED BY IDOCK:   -0.51 KCAL/MOL
REMARK 927      BINDING AFFINITY PREDICTED BY RF-SCORE:    0.00 PKD
ROOT
HETATM    1  C   UNL     1     -12.265  10.839  69.581  1.00  0.00    -0.254 C  
HETATM    2  O   UNL     1     -12.118  11.160  68.199  1.00  0.00    -0.633 OA 
ENDROOT
BRANCH   2   3
HETATM    3  C   UNL     1     -11.234  12.170  67.935  1.00  0.00    -0.272 A  
HETATM    4  C   UNL     1     -11.003  13.258  68.773  1.00  0.00    -0.294 A  
HETATM    5  C   UNL     1     -10.088  14.250  68.409  1.00  0.00    -0.243 A  
HETATM    6  C   UNL     1      -9.382  14.176  67.200  1.00  0.00    -0.241 A  
HETATM    7  C   UNL     1     -10.505  12.056  66.755  1.00  0.00    -0.243 A  
HETATM    8  C   UNL     1      -9.594  13.053  66.384  1.00  0.00    -0.258 A  
BRANCH   6   9
HETATM    9  C   UNL     1      -8.421  15.259  66.745  1.00  0.00    -0.290 C  
HETATM   10  C   UNL     1      -9.068  16.534  66.211  1.00  0.00    -0.313 C  
HETATM   11  O   UNL     1      -9.830  16.653  65.268  1.00  0.00    -0.496 OA 
HETATM   12  C   UNL     1      -8.628  17.665  67.026  1.00  0.00    -0.252 A  
HETATM   13  C   UNL     1      -8.994  18.994  66.921  1.00  0.00    -0.318 A  
HETATM   14  C   UNL     1      -8.427  19.893  67.829  1.00  0.00    -0.356 A  
HETATM   15  C   UNL     1      -7.520  19.450  68.811  1.00  0.00    -0.393 A  
HETATM   16  C   UNL     1      -7.165  18.101  68.900  1.00  0.00    -0.268 A  
HETATM   17  C   UNL     1      -7.738  17.228  67.994  1.00  0.00    -0.202 A  
HETATM   18  C   UNL     1      -7.540  15.785  67.873  1.00  0.00    -0.131 C  
HETATM   19  O   UNL     1      -6.759  15.160  68.568  1.00  0.00    -0.102 OA 
ENDBRANCH   6   9
ENDBRANCH   2   3
TORSDOF 2
ENDMDL
MODEL       53
REMARK 921   NORMALIZED FREE ENERGY PREDICTED BY IDOCK:   -4.92 KCAL/MOL
REMARK 922        TOTAL FREE ENERGY PREDICTED BY IDOCK:   -6.05 KCAL/MOL
REMARK 923 INTER-LIGAND FREE ENERGY PREDICTED BY IDOCK:   -5.62 KCAL/MOL
REMARK 924 INTRA-LIGAND FREE ENERGY PREDICTED BY IDOCK:   -0.43 KCAL/MOL
REMARK 927      BINDING AFFINITY PREDICTED BY RF-SCORE:    0.00 PKD
ROOT
HETATM    1  C   UNL     1      -9.729   9.759  66.994  1.00  0.00    -0.183 C  
HETATM    2  O   UNL     1     -10.909  10.381  67.499  1.00  0.00    -0.270 OA 
ENDROOT
BRANCH   2   3
HETATM    3  C   UNL     1     -10.870  11.748  67.527  1.00  0.00    -0.239 A  
HETATM    4  C   UNL     1      -9.892  12.498  68.176  1.00  0.00    -0.221 A  
HETATM    5  C   UNL     1      -9.946  13.895  68.161  1.00  0.00    -0.240 A  
HETATM    6  C   UNL     1     -10.977  14.573  67.498  1.00  0.00    -0.297 A  
HETATM    7  C   UNL     1     -11.873  12.406  66.822  1.00  0.00    -0.385 A  
HETATM    8  C   UNL     1     -11.934  13.805  66.814  1.00  0.00    -0.465 A  
BRANCH   6   9
HETATM    9  C   UNL     1     -11.100  16.086  67.506  1.00  0.00    -0.207 C  
HETATM   10  C   UNL     1     -10.462  16.794  68.697  1.00  0.00    -0.333 C  
HETATM   11  O   UNL     1     -10.715  16.653  69.881  1.00  0.00    -0.309 OA 
HETATM   12  C   UNL     1      -9.446  17.723  68.206  1.00  0.00    -0.290 A  
HETATM   13  C   UNL     1      -8.602  18.540  68.937  1.00  0.00    -0.181 A  
HETATM   14  C   UNL     1      -7.710  19.347  68.225  1.00  0.00    -0.356 A  
HETATM   15  C   UNL     1      -7.679  19.320  66.817  1.00  0.00    -0.267 A  
HETATM   16  C   UNL     1      -8.540  18.486  66.099  1.00  0.00    -0.147 A  
HETATM   17  C   UNL     1      -9.414  17.694  66.821  1.00  0.00    -0.285 A  
HETATM   18  C   UNL     1     -10.406  16.745  66.320  1.00  0.00    -0.310 C  
HETATM   19  O   UNL     1     -10.622  16.573  65.133  1.00  0.00    -0.632 OA 
ENDBRANCH   6   9
ENDBRANCH   2   3
TORSDOF 2
ENDMDL
MODEL       54
REMARK 921   NORMALIZED FREE ENERGY PREDICTED BY IDOCK:   -4.90 KCAL/MOL
REMARK 922        TOTAL FREE ENERGY PREDICTED BY IDOCK:   -6.03 KCAL/MOL
REMARK 923 INTER-LIGAND FREE ENERGY PREDICTED BY IDOCK:   -5.70 KCAL/MOL
REMARK 924 INTRA-LIGAND FREE ENERGY PREDICTED BY IDOCK:   -0.33 KCAL/MOL
REMARK 927      BINDING AFFINITY PREDICTED BY RF-SCORE:    0.00 PKD
ROOT
HETATM    1  C   UNL     1     -10.380  17.843  68.384  1.00  0.00    -0.374 C  
HETATM    2  O   UNL     1     -10.584  16.941  67.299  1.00  0.00    -0.320 OA 
ENDROOT
BRANCH   2   3
HETATM    3  C   UNL     1     -10.885  15.658  67.666  1.00  0.00    -0.307 A  
HETATM    4  C   UNL     1     -10.581  15.098  68.905  1.00  0.00    -0.242 A  
HETATM    5  C   UNL     1     -10.917  13.770  69.183  1.00  0.00    -0.246 A  
HETATM    6  C   UNL     1     -11.564  12.972  68.231  1.00  0.00    -0.375 A  
HETATM    7  C   UNL     1     -11.572  14.894  66.727  1.00  0.00    -0.275 A  
HETATM    8  C   UNL     1     -11.900  13.560  67.000  1.00  0.00    -0.447 A  
BRANCH   6   9
HETATM    9  C   UNL     1     -11.895  11.511  68.475  1.00  0.00    -0.365 C  
HETATM   10  C   UNL     1     -10.921  10.503  67.873  1.00  0.00    -0.295 C  
HETATM   11  O   UNL     1     -10.618  10.357  66.701  1.00  0.00    -0.231 OA 
HETATM   12  C   UNL     1     -10.365   9.683  68.946  1.00  0.00    -0.220 A  
HETATM   13  C   UNL     1      -9.421   8.676  68.858  1.00  0.00    -0.146 A  
HETATM   14  C   UNL     1      -9.050   8.033  70.044  1.00  0.00    -0.152 A  
HETATM   15  C   UNL     1      -9.622   8.407  71.275  1.00  0.00    -0.239 A  
HETATM   16  C   UNL     1     -10.574   9.429  71.341  1.00  0.00    -0.381 A  
HETATM   17  C   UNL     1     -10.925  10.053  70.158  1.00  0.00    -0.368 A  
HETATM   18  C   UNL     1     -11.882  11.138  69.953  1.00  0.00    -0.363 C  
HETATM   19  O   UNL     1     -12.558  11.608  70.852  1.00  0.00    -0.358 OA 
ENDBRANCH   6   9
ENDBRANCH   2   3
TORSDOF 2
ENDMDL
MODEL       55
REMARK 921   NORMALIZED FREE ENERGY PREDICTED BY IDOCK:   -4.90 KCAL/MOL
REMARK 922        TOTAL FREE ENERGY PREDICTED BY IDOCK:   -6.02 KCAL/MOL
REMARK 923 INTER-LIGAND FREE ENERGY PREDICTED BY IDOCK:   -5.71 KCAL/MOL
REMARK 924 INTRA-LIGAND FREE ENERGY PREDICTED BY IDOCK:   -0.32 KCAL/MOL
REMARK 927      BINDING AFFINITY PREDICTED BY RF-SCORE:    0.00 PKD
ROOT
HETATM    1  C   UNL     1     -10.366  18.705  67.082  1.00  0.00    -0.401 C  
HETATM    2  O   UNL     1      -9.803  18.087  65.927  1.00  0.00    -0.535 OA 
ENDROOT
BRANCH   2   3
HETATM    3  C   UNL     1      -9.859  16.720  65.922  1.00  0.00    -0.249 A  
HETATM    4  C   UNL     1     -10.648  15.964  65.058  1.00  0.00    -0.372 A  
HETATM    5  C   UNL     1     -10.650  14.569  65.139  1.00  0.00    -0.429 A  
HETATM    6  C   UNL     1      -9.862  13.897  66.084  1.00  0.00    -0.316 A  
HETATM    7  C   UNL     1      -9.034  16.067  66.832  1.00  0.00    -0.253 A  
HETATM    8  C   UNL     1      -9.041  14.669  66.921  1.00  0.00    -0.272 A  
BRANCH   6   9
HETATM    9  C   UNL     1      -9.878  12.388  66.238  1.00  0.00    -0.257 C  
HETATM   10  C   UNL     1      -8.727  11.793  67.044  1.00  0.00    -0.181 C  
HETATM   11  O   UNL     1      -7.532  11.873  66.820  1.00  0.00    -0.113 OA 
HETATM   12  C   UNL     1      -9.275  11.071  68.191  1.00  0.00    -0.165 A  
HETATM   13  C   UNL     1      -8.594  10.414  69.199  1.00  0.00    -0.169 A  
HETATM   14  C   UNL     1      -9.355   9.792  70.193  1.00  0.00    -0.261 A  
HETATM   15  C   UNL     1     -10.762   9.840  70.160  1.00  0.00    -0.339 A  
HETATM   16  C   UNL     1     -11.430  10.511  69.131  1.00  0.00    -0.314 A  
HETATM   17  C   UNL     1     -10.659  11.122  68.159  1.00  0.00    -0.227 A  
HETATM   18  C   UNL     1     -11.103  11.880  66.991  1.00  0.00    -0.302 C  
HETATM   19  O   UNL     1     -12.277  12.023  66.698  1.00  0.00    -0.550 OA 
ENDBRANCH   6   9
ENDBRANCH   2   3
TORSDOF 2
ENDMDL
MODEL       56
REMARK 921   NORMALIZED FREE ENERGY PREDICTED BY IDOCK:   -4.89 KCAL/MOL
REMARK 922        TOTAL FREE ENERGY PREDICTED BY IDOCK:   -6.02 KCAL/MOL
REMARK 923 INTER-LIGAND FREE ENERGY PREDICTED BY IDOCK:   -5.48 KCAL/MOL
REMARK 924 INTRA-LIGAND FREE ENERGY PREDICTED BY IDOCK:   -0.54 KCAL/MOL
REMARK 927      BINDING AFFINITY PREDICTED BY RF-SCORE:    0.00 PKD
ROOT
HETATM    1  C   UNL     1      -6.065  19.976  65.951  1.00  0.00    -0.185 C  
HETATM    2  O   UNL     1      -6.180  19.420  67.259  1.00  0.00    -0.186 OA 
ENDROOT
BRANCH   2   3
HETATM    3  C   UNL     1      -6.936  18.283  67.335  1.00  0.00    -0.198 A  
HETATM    4  C   UNL     1      -7.440  17.593  66.235  1.00  0.00    -0.340 A  
HETATM    5  C   UNL     1      -8.217  16.445  66.414  1.00  0.00    -0.366 A  
HETATM    6  C   UNL     1      -8.508  15.960  67.696  1.00  0.00    -0.170 A  
HETATM    7  C   UNL     1      -7.174  17.786  68.613  1.00  0.00    -0.260 A  
HETATM    8  C   UNL     1      -7.960  16.642  68.795  1.00  0.00    -0.239 A  
BRANCH   6   9
HETATM    9  C   UNL     1      -9.392  14.750  67.933  1.00  0.00    -0.193 C  
HETATM   10  C   UNL     1     -10.863  14.925  67.567  1.00  0.00    -0.292 C  
HETATM   11  O   UNL     1     -11.658  15.736  68.010  1.00  0.00    -0.321 OA 
HETATM   12  C   UNL     1     -11.220  13.933  66.555  1.00  0.00    -0.327 A  
HETATM   13  C   UNL     1     -12.433  13.755  65.915  1.00  0.00    -0.512 A  
HETATM   14  C   UNL     1     -12.522  12.723  64.976  1.00  0.00    -0.572 A  
HETATM   15  C   UNL     1     -11.412  11.903  64.699  1.00  0.00    -0.345 A  
HETATM   16  C   UNL     1     -10.194  12.101  65.357  1.00  0.00    -0.299 A  
HETATM   17  C   UNL     1     -10.126  13.128  66.280  1.00  0.00    -0.285 A  
HETATM   18  C   UNL     1      -8.986  13.543  67.095  1.00  0.00    -0.227 C  
HETATM   19  O   UNL     1      -7.916  12.960  67.088  1.00  0.00    -0.167 OA 
ENDBRANCH   6   9
ENDBRANCH   2   3
TORSDOF 2
ENDMDL
MODEL       57
REMARK 921   NORMALIZED FREE ENERGY PREDICTED BY IDOCK:   -4.86 KCAL/MOL
REMARK 922        TOTAL FREE ENERGY PREDICTED BY IDOCK:   -5.98 KCAL/MOL
REMARK 923 INTER-LIGAND FREE ENERGY PREDICTED BY IDOCK:   -5.55 KCAL/MOL
REMARK 924 INTRA-LIGAND FREE ENERGY PREDICTED BY IDOCK:   -0.43 KCAL/MOL
REMARK 927      BINDING AFFINITY PREDICTED BY RF-SCORE:    0.00 PKD
ROOT
HETATM    1  C   UNL     1      -7.615   7.793  72.476  1.00  0.00    -0.098 C  
HETATM    2  O   UNL     1      -8.960   8.177  72.753  1.00  0.00    -0.197 OA 
ENDROOT
BRANCH   2   3
HETATM    3  C   UNL     1      -9.569   8.893  71.758  1.00  0.00    -0.282 A  
HETATM    4  C   UNL     1      -8.934   9.338  70.602  1.00  0.00    -0.296 A  
HETATM    5  C   UNL     1      -9.639  10.078  69.648  1.00  0.00    -0.251 A  
HETATM    6  C   UNL     1     -10.993  10.389  69.827  1.00  0.00    -0.345 A  
HETATM    7  C   UNL     1     -10.927   9.150  71.929  1.00  0.00    -0.372 A  
HETATM    8  C   UNL     1     -11.631   9.900  70.979  1.00  0.00    -0.470 A  
BRANCH   6   9
HETATM    9  C   UNL     1     -11.777  11.235  68.841  1.00  0.00    -0.409 C  
HETATM   10  C   UNL     1     -11.740  12.741  69.087  1.00  0.00    -0.322 C  
HETATM   11  O   UNL     1     -12.105  13.351  70.077  1.00  0.00    -0.326 OA 
HETATM   12  C   UNL     1     -11.176  13.399  67.910  1.00  0.00    -0.303 A  
HETATM   13  C   UNL     1     -10.927  14.745  67.714  1.00  0.00    -0.294 A  
HETATM   14  C   UNL     1     -10.379  15.127  66.486  1.00  0.00    -0.286 A  
HETATM   15  C   UNL     1     -10.095  14.169  65.494  1.00  0.00    -0.360 A  
HETATM   16  C   UNL     1     -10.354  12.813  65.714  1.00  0.00    -0.297 A  
HETATM   17  C   UNL     1     -10.894  12.456  66.935  1.00  0.00    -0.286 A  
HETATM   18  C   UNL     1     -11.254  11.122  67.413  1.00  0.00    -0.294 C  
HETATM   19  O   UNL     1     -11.161  10.121  66.726  1.00  0.00    -0.059 OA 
ENDBRANCH   6   9
ENDBRANCH   2   3
TORSDOF 2
ENDMDL
MODEL       58
REMARK 921   NORMALIZED FREE ENERGY PREDICTED BY IDOCK:   -4.81 KCAL/MOL
REMARK 922        TOTAL FREE ENERGY PREDICTED BY IDOCK:   -5.93 KCAL/MOL
REMARK 923 INTER-LIGAND FREE ENERGY PREDICTED BY IDOCK:   -5.42 KCAL/MOL
REMARK 924 INTRA-LIGAND FREE ENERGY PREDICTED BY IDOCK:   -0.51 KCAL/MOL
REMARK 927      BINDING AFFINITY PREDICTED BY RF-SCORE:    0.00 PKD
ROOT
HETATM    1  C   UNL     1      -8.672   4.029  65.040  1.00  0.00    -0.117 C  
HETATM    2  O   UNL     1      -9.830   3.792  65.837  1.00  0.00    -0.164 OA 
ENDROOT
BRANCH   2   3
HETATM    3  C   UNL     1      -9.974   4.634  66.906  1.00  0.00    -0.211 A  
HETATM    4  C   UNL     1     -10.760   5.783  66.907  1.00  0.00    -0.381 A  
HETATM    5  C   UNL     1     -10.832   6.590  68.047  1.00  0.00    -0.372 A  
HETATM    6  C   UNL     1     -10.122   6.265  69.210  1.00  0.00    -0.213 A  
HETATM    7  C   UNL     1      -9.302   4.270  68.069  1.00  0.00    -0.200 A  
HETATM    8  C   UNL     1      -9.365   5.082  69.208  1.00  0.00    -0.178 A  
BRANCH   6   9
HETATM    9  C   UNL     1     -10.132   7.144  70.447  1.00  0.00    -0.199 C  
HETATM   10  C   UNL     1     -10.090   8.647  70.190  1.00  0.00    -0.185 C  
HETATM   11  O   UNL     1      -9.234   9.287  69.603  1.00  0.00    -0.156 OA 
HETATM   12  C   UNL     1     -11.279   9.261  70.776  1.00  0.00    -0.351 A  
HETATM   13  C   UNL     1     -11.664  10.590  70.749  1.00  0.00    -0.454 A  
HETATM   14  C   UNL     1     -12.858  10.929  71.392  1.00  0.00    -0.554 A  
HETATM   15  C   UNL     1     -13.633   9.947  72.039  1.00  0.00    -0.399 A  
HETATM   16  C   UNL     1     -13.225   8.609  72.054  1.00  0.00    -0.422 A  
HETATM   17  C   UNL     1     -12.043   8.294  71.410  1.00  0.00    -0.331 A  
HETATM   18  C   UNL     1     -11.401   6.988  71.278  1.00  0.00    -0.274 C  
HETATM   19  O   UNL     1     -11.838   5.976  71.797  1.00  0.00    -0.261 OA 
ENDBRANCH   6   9
ENDBRANCH   2   3
TORSDOF 2
ENDMDL
MODEL       59
REMARK 921   NORMALIZED FREE ENERGY PREDICTED BY IDOCK:   -4.79 KCAL/MOL
REMARK 922        TOTAL FREE ENERGY PREDICTED BY IDOCK:   -5.91 KCAL/MOL
REMARK 923 INTER-LIGAND FREE ENERGY PREDICTED BY IDOCK:   -5.39 KCAL/MOL
REMARK 924 INTRA-LIGAND FREE ENERGY PREDICTED BY IDOCK:   -0.52 KCAL/MOL
REMARK 927      BINDING AFFINITY PREDICTED BY RF-SCORE:    0.00 PKD
ROOT
HETATM    1  C   UNL     1     -12.627  13.423  65.167  1.00  0.00    -0.440 C  
HETATM    2  O   UNL     1     -12.420  13.856  66.510  1.00  0.00    -0.424 OA 
ENDROOT
BRANCH   2   3
HETATM    3  C   UNL     1     -11.924  12.899  67.352  1.00  0.00    -0.300 A  
HETATM    4  C   UNL     1     -11.519  11.627  66.953  1.00  0.00    -0.320 A  
HETATM    5  C   UNL     1     -11.038  10.711  67.893  1.00  0.00    -0.371 A  
HETATM    6  C   UNL     1     -10.950  11.044  69.251  1.00  0.00    -0.305 A  
HETATM    7  C   UNL     1     -11.796  13.263  68.689  1.00  0.00    -0.380 A  
HETATM    8  C   UNL     1     -11.324  12.343  69.633  1.00  0.00    -0.193 A  
BRANCH   6   9
HETATM    9  C   UNL     1     -10.485  10.059  70.307  1.00  0.00    -0.331 C  
HETATM   10  C   UNL     1     -11.485   8.967  70.678  1.00  0.00    -0.248 C  
HETATM   11  O   UNL     1     -12.609   9.098  71.131  1.00  0.00    -0.301 OA 
HETATM   12  C   UNL     1     -10.884   7.663  70.406  1.00  0.00    -0.252 A  
HETATM   13  C   UNL     1     -11.445   6.408  70.559  1.00  0.00    -0.444 A  
HETATM   14  C   UNL     1     -10.656   5.303  70.228  1.00  0.00    -0.288 A  
HETATM   15  C   UNL     1      -9.340   5.473  69.755  1.00  0.00    -0.181 A  
HETATM   16  C   UNL     1      -8.793   6.751  69.606  1.00  0.00    -0.144 A  
HETATM   17  C   UNL     1      -9.591   7.831  69.938  1.00  0.00    -0.164 A  
HETATM   18  C   UNL     1      -9.265   9.254  69.875  1.00  0.00    -0.195 C  
HETATM   19  O   UNL     1      -8.167   9.672  69.551  1.00  0.00    -0.109 OA 
ENDBRANCH   6   9
ENDBRANCH   2   3
TORSDOF 2
ENDMDL
MODEL       60
REMARK 921   NORMALIZED FREE ENERGY PREDICTED BY IDOCK:   -4.76 KCAL/MOL
REMARK 922        TOTAL FREE ENERGY PREDICTED BY IDOCK:   -5.88 KCAL/MOL
REMARK 923 INTER-LIGAND FREE ENERGY PREDICTED BY IDOCK:   -5.34 KCAL/MOL
REMARK 924 INTRA-LIGAND FREE ENERGY PREDICTED BY IDOCK:   -0.53 KCAL/MOL
REMARK 927      BINDING AFFINITY PREDICTED BY RF-SCORE:    0.00 PKD
ROOT
HETATM    1  C   UNL     1     -11.632  14.261  67.409  1.00  0.00    -0.369 C  
HETATM    2  O   UNL     1     -12.088  12.987  66.962  1.00  0.00    -0.362 OA 
ENDROOT
BRANCH   2   3
HETATM    3  C   UNL     1     -11.574  11.920  67.647  1.00  0.00    -0.312 A  
HETATM    4  C   UNL     1     -11.835  11.639  68.985  1.00  0.00    -0.391 A  
HETATM    5  C   UNL     1     -11.250  10.531  69.603  1.00  0.00    -0.342 A  
HETATM    6  C   UNL     1     -10.392   9.677  68.898  1.00  0.00    -0.220 A  
HETATM    7  C   UNL     1     -10.764  11.054  66.918  1.00  0.00    -0.325 A  
HETATM    8  C   UNL     1     -10.169   9.948  67.538  1.00  0.00    -0.265 A  
BRANCH   6   9
HETATM    9  C   UNL     1      -9.695   8.496  69.548  1.00  0.00    -0.176 C  
HETATM   10  C   UNL     1      -8.838   8.823  70.767  1.00  0.00    -0.191 C  
HETATM   11  O   UNL     1      -7.879   9.572  70.834  1.00  0.00    -0.299 OA 
HETATM   12  C   UNL     1      -9.345   8.076  71.916  1.00  0.00    -0.225 A  
HETATM   13  C   UNL     1      -8.895   8.099  73.223  1.00  0.00    -0.324 A  
HETATM   14  C   UNL     1      -9.554   7.282  74.147  1.00  0.00    -0.228 A  
HETATM   15  C   UNL     1     -10.636   6.473  73.751  1.00  0.00    -0.285 A  
HETATM   16  C   UNL     1     -11.075   6.466  72.424  1.00  0.00    -0.303 A  
HETATM   17  C   UNL     1     -10.412   7.282  71.526  1.00  0.00    -0.220 A  
HETATM   18  C   UNL     1     -10.669   7.460  70.099  1.00  0.00    -0.242 C  
HETATM   19  O   UNL     1     -11.518   6.831  69.492  1.00  0.00    -0.264 OA 
ENDBRANCH   6   9
ENDBRANCH   2   3
TORSDOF 2
ENDMDL
MODEL       61
REMARK 921   NORMALIZED FREE ENERGY PREDICTED BY IDOCK:   -4.75 KCAL/MOL
REMARK 922        TOTAL FREE ENERGY PREDICTED BY IDOCK:   -5.87 KCAL/MOL
REMARK 923 INTER-LIGAND FREE ENERGY PREDICTED BY IDOCK:   -5.34 KCAL/MOL
REMARK 924 INTRA-LIGAND FREE ENERGY PREDICTED BY IDOCK:   -0.52 KCAL/MOL
REMARK 927      BINDING AFFINITY PREDICTED BY RF-SCORE:    0.00 PKD
ROOT
HETATM    1  C   UNL     1      -8.000  17.384  66.802  1.00  0.00    -0.244 C  
HETATM    2  O   UNL     1      -8.858  16.781  65.836  1.00  0.00    -0.499 OA 
ENDROOT
BRANCH   2   3
HETATM    3  C   UNL     1      -9.400  15.584  66.217  1.00  0.00    -0.320 A  
HETATM    4  C   UNL     1      -8.696  14.564  66.851  1.00  0.00    -0.237 A  
HETATM    5  C   UNL     1      -9.334  13.367  67.189  1.00  0.00    -0.240 A  
HETATM    6  C   UNL     1     -10.690  13.163  66.902  1.00  0.00    -0.270 A  
HETATM    7  C   UNL     1     -10.759  15.417  65.969  1.00  0.00    -0.326 A  
HETATM    8  C   UNL     1     -11.398  14.215  66.298  1.00  0.00    -0.340 A  
BRANCH   6   9
HETATM    9  C   UNL     1     -11.404  11.859  67.203  1.00  0.00    -0.393 C  
HETATM   10  C   UNL     1     -10.627  10.588  66.873  1.00  0.00    -0.243 C  
HETATM   11  O   UNL     1     -10.191  10.232  65.792  1.00  0.00    -0.257 OA 
HETATM   12  C   UNL     1     -10.463   9.802  68.094  1.00  0.00    -0.258 A  
HETATM   13  C   UNL     1      -9.794   8.604  68.262  1.00  0.00    -0.186 A  
HETATM   14  C   UNL     1      -9.782   8.046  69.544  1.00  0.00    -0.170 A  
HETATM   15  C   UNL     1     -10.428   8.690  70.617  1.00  0.00    -0.243 A  
HETATM   16  C   UNL     1     -11.098   9.902  70.424  1.00  0.00    -0.382 A  
HETATM   17  C   UNL     1     -11.096  10.438  69.149  1.00  0.00    -0.296 A  
HETATM   18  C   UNL     1     -11.714  11.679  68.685  1.00  0.00    -0.325 C  
HETATM   19  O   UNL     1     -12.385  12.398  69.404  1.00  0.00    -0.112 OA 
ENDBRANCH   6   9
ENDBRANCH   2   3
TORSDOF 2
ENDMDL
MODEL       62
REMARK 921   NORMALIZED FREE ENERGY PREDICTED BY IDOCK:   -4.74 KCAL/MOL
REMARK 922        TOTAL FREE ENERGY PREDICTED BY IDOCK:   -5.85 KCAL/MOL
REMARK 923 INTER-LIGAND FREE ENERGY PREDICTED BY IDOCK:   -5.34 KCAL/MOL
REMARK 924 INTRA-LIGAND FREE ENERGY PREDICTED BY IDOCK:   -0.51 KCAL/MOL
REMARK 927      BINDING AFFINITY PREDICTED BY RF-SCORE:    0.00 PKD
ROOT
HETATM    1  C   UNL     1     -11.191  14.269  69.246  1.00  0.00    -0.273 C  
HETATM    2  O   UNL     1     -12.205  13.268  69.214  1.00  0.00    -0.268 OA 
ENDROOT
BRANCH   2   3
HETATM    3  C   UNL     1     -11.866  12.086  69.815  1.00  0.00    -0.331 A  
HETATM    4  C   UNL     1     -10.798  11.281  69.428  1.00  0.00    -0.239 A  
HETATM    5  C   UNL     1     -10.539  10.080  70.095  1.00  0.00    -0.350 A  
HETATM    6  C   UNL     1     -11.339   9.659  71.165  1.00  0.00    -0.456 A  
HETATM    7  C   UNL     1     -12.640  11.707  70.907  1.00  0.00    -0.409 A  
HETATM    8  C   UNL     1     -12.388  10.500  71.571  1.00  0.00    -0.443 A  
BRANCH   6   9
HETATM    9  C   UNL     1     -11.123   8.337  71.879  1.00  0.00    -0.357 C  
HETATM   10  C   UNL     1     -11.547   7.092  71.107  1.00  0.00    -0.312 C  
HETATM   11  O   UNL     1     -12.654   6.811  70.681  1.00  0.00    -0.268 OA 
HETATM   12  C   UNL     1     -10.385   6.223  70.934  1.00  0.00    -0.253 A  
HETATM   13  C   UNL     1     -10.306   5.015  70.266  1.00  0.00    -0.299 A  
HETATM   14  C   UNL     1      -9.066   4.370  70.244  1.00  0.00    -0.162 A  
HETATM   15  C   UNL     1      -7.946   4.939  70.880  1.00  0.00    -0.084 A  
HETATM   16  C   UNL     1      -8.048   6.162  71.549  1.00  0.00    -0.114 A  
HETATM   17  C   UNL     1      -9.282   6.785  71.557  1.00  0.00    -0.149 A  
HETATM   18  C   UNL     1      -9.654   8.055  72.176  1.00  0.00    -0.215 C  
HETATM   19  O   UNL     1      -8.881   8.724  72.839  1.00  0.00    -0.362 OA 
ENDBRANCH   6   9
ENDBRANCH   2   3
TORSDOF 2
ENDMDL
MODEL       63
REMARK 921   NORMALIZED FREE ENERGY PREDICTED BY IDOCK:   -4.69 KCAL/MOL
REMARK 922        TOTAL FREE ENERGY PREDICTED BY IDOCK:   -5.79 KCAL/MOL
REMARK 923 INTER-LIGAND FREE ENERGY PREDICTED BY IDOCK:   -5.25 KCAL/MOL
REMARK 924 INTRA-LIGAND FREE ENERGY PREDICTED BY IDOCK:   -0.54 KCAL/MOL
REMARK 927      BINDING AFFINITY PREDICTED BY RF-SCORE:    0.00 PKD
ROOT
HETATM    1  C   UNL     1     -11.269   6.232  70.560  1.00  0.00    -0.354 C  
HETATM    2  O   UNL     1     -10.879   7.567  70.875  1.00  0.00    -0.233 OA 
ENDROOT
BRANCH   2   3
HETATM    3  C   UNL     1     -10.707   8.386  69.793  1.00  0.00    -0.211 A  
HETATM    4  C   UNL     1     -10.426   7.942  68.503  1.00  0.00    -0.202 A  
HETATM    5  C   UNL     1     -10.251   8.858  67.462  1.00  0.00    -0.309 A  
HETATM    6  C   UNL     1     -10.354  10.238  67.686  1.00  0.00    -0.264 A  
HETATM    7  C   UNL     1     -10.862   9.750  70.022  1.00  0.00    -0.319 A  
HETATM    8  C   UNL     1     -10.677  10.669  68.983  1.00  0.00    -0.257 A  
BRANCH   6   9
HETATM    9  C   UNL     1     -10.117  11.264  66.594  1.00  0.00    -0.251 C  
HETATM   10  C   UNL     1     -11.196  12.334  66.447  1.00  0.00    -0.324 C  
HETATM   11  O   UNL     1     -12.380  12.179  66.204  1.00  0.00    -0.536 OA 
HETATM   12  C   UNL     1     -10.589  13.648  66.646  1.00  0.00    -0.277 A  
HETATM   13  C   UNL     1     -11.202  14.888  66.637  1.00  0.00    -0.340 A  
HETATM   14  C   UNL     1     -10.394  16.008  66.854  1.00  0.00    -0.289 A  
HETATM   15  C   UNL     1      -9.010  15.868  67.072  1.00  0.00    -0.239 A  
HETATM   16  C   UNL     1      -8.412  14.604  67.078  1.00  0.00    -0.237 A  
HETATM   17  C   UNL     1      -9.228  13.509  66.864  1.00  0.00    -0.254 A  
HETATM   18  C   UNL     1      -8.859  12.096  66.821  1.00  0.00    -0.198 C  
HETATM   19  O   UNL     1      -7.710  11.704  66.925  1.00  0.00    -0.154 OA 
ENDBRANCH   6   9
ENDBRANCH   2   3
TORSDOF 2
ENDMDL
MODEL       64
REMARK 921   NORMALIZED FREE ENERGY PREDICTED BY IDOCK:   -4.66 KCAL/MOL
REMARK 922        TOTAL FREE ENERGY PREDICTED BY IDOCK:   -5.76 KCAL/MOL
REMARK 923 INTER-LIGAND FREE ENERGY PREDICTED BY IDOCK:   -5.23 KCAL/MOL
REMARK 924 INTRA-LIGAND FREE ENERGY PREDICTED BY IDOCK:   -0.53 KCAL/MOL
REMARK 927      BINDING AFFINITY PREDICTED BY RF-SCORE:    0.00 PKD
ROOT
HETATM    1  C   UNL     1      -7.168   6.968  67.642  1.00  0.00    -0.091 C  
HETATM    2  O   UNL     1      -7.079   7.960  66.622  1.00  0.00    -0.073 OA 
ENDROOT
BRANCH   2   3
HETATM    3  C   UNL     1      -8.013   8.957  66.708  1.00  0.00    -0.107 A  
HETATM    4  C   UNL     1      -7.974   9.999  67.632  1.00  0.00    -0.105 A  
HETATM    5  C   UNL     1      -8.985  10.964  67.652  1.00  0.00    -0.140 A  
HETATM    6  C   UNL     1     -10.055  10.912  66.749  1.00  0.00    -0.259 A  
HETATM    7  C   UNL     1      -9.042   8.918  65.772  1.00  0.00    -0.276 A  
HETATM    8  C   UNL     1     -10.060   9.879  65.797  1.00  0.00    -0.317 A  
BRANCH   6   9
HETATM    9  C   UNL     1     -11.198  11.910  66.775  1.00  0.00    -0.384 C  
HETATM   10  C   UNL     1     -11.907  12.068  68.116  1.00  0.00    -0.286 C  
HETATM   11  O   UNL     1     -12.485  11.214  68.767  1.00  0.00    -0.468 OA 
HETATM   12  C   UNL     1     -11.799  13.459  68.548  1.00  0.00    -0.401 A  
HETATM   13  C   UNL     1     -12.263  14.036  69.716  1.00  0.00    -0.396 A  
HETATM   14  C   UNL     1     -12.033  15.403  69.897  1.00  0.00    -0.384 A  
HETATM   15  C   UNL     1     -11.351  16.155  68.920  1.00  0.00    -0.350 A  
HETATM   16  C   UNL     1     -10.889  15.551  67.747  1.00  0.00    -0.309 A  
HETATM   17  C   UNL     1     -11.125  14.197  67.589  1.00  0.00    -0.296 A  
HETATM   18  C   UNL     1     -10.751  13.335  66.470  1.00  0.00    -0.285 C  
HETATM   19  O   UNL     1     -10.199  13.749  65.465  1.00  0.00    -0.302 OA 
ENDBRANCH   6   9
ENDBRANCH   2   3
TORSDOF 2
ENDMDL
MODEL       65
REMARK 921   NORMALIZED FREE ENERGY PREDICTED BY IDOCK:   -4.62 KCAL/MOL
REMARK 922        TOTAL FREE ENERGY PREDICTED BY IDOCK:   -5.71 KCAL/MOL
REMARK 923 INTER-LIGAND FREE ENERGY PREDICTED BY IDOCK:   -5.34 KCAL/MOL
REMARK 924 INTRA-LIGAND FREE ENERGY PREDICTED BY IDOCK:   -0.38 KCAL/MOL
REMARK 927      BINDING AFFINITY PREDICTED BY RF-SCORE:    0.00 PKD
ROOT
HETATM    1  C   UNL     1      -8.125   6.490  67.876  1.00  0.00    -0.116 C  
HETATM    2  O   UNL     1      -8.126   7.427  68.951  1.00  0.00    -0.123 OA 
ENDROOT
BRANCH   2   3
HETATM    3  C   UNL     1      -9.140   8.345  68.912  1.00  0.00    -0.147 A  
HETATM    4  C   UNL     1      -9.967   8.563  67.813  1.00  0.00    -0.241 A  
HETATM    5  C   UNL     1     -10.969   9.536  67.863  1.00  0.00    -0.172 A  
HETATM    6  C   UNL     1     -11.167  10.313  69.012  1.00  0.00    -0.260 A  
HETATM    7  C   UNL     1      -9.355   9.073  70.078  1.00  0.00    -0.198 A  
HETATM    8  C   UNL     1     -10.352  10.055  70.127  1.00  0.00    -0.321 A  
BRANCH   6   9
HETATM    9  C   UNL     1     -12.207  11.415  69.086  1.00  0.00    -0.242 C  
HETATM   10  C   UNL     1     -12.640  11.823  70.492  1.00  0.00    -0.150 C  
HETATM   11  O   UNL     1     -13.149  11.128  71.354  1.00  0.00    -0.396 OA 
HETATM   12  C   UNL     1     -12.349  13.242  70.683  1.00  0.00    -0.416 A  
HETATM   13  C   UNL     1     -12.543  14.015  71.814  1.00  0.00    -0.376 A  
HETATM   14  C   UNL     1     -12.181  15.364  71.743  1.00  0.00    -0.450 A  
HETATM   15  C   UNL     1     -11.639  15.904  70.561  1.00  0.00    -0.402 A  
HETATM   16  C   UNL     1     -11.451  15.104  69.430  1.00  0.00    -0.322 A  
HETATM   17  C   UNL     1     -11.813  13.772  69.521  1.00  0.00    -0.394 A  
HETATM   18  C   UNL     1     -11.720  12.734  68.497  1.00  0.00    -0.333 C  
HETATM   19  O   UNL     1     -11.336  12.952  67.361  1.00  0.00    -0.276 OA 
ENDBRANCH   6   9
ENDBRANCH   2   3
TORSDOF 2
ENDMDL
MODEL       66
REMARK 921   NORMALIZED FREE ENERGY PREDICTED BY IDOCK:   -4.58 KCAL/MOL
REMARK 922        TOTAL FREE ENERGY PREDICTED BY IDOCK:   -5.68 KCAL/MOL
REMARK 923 INTER-LIGAND FREE ENERGY PREDICTED BY IDOCK:   -5.15 KCAL/MOL
REMARK 924 INTRA-LIGAND FREE ENERGY PREDICTED BY IDOCK:   -0.52 KCAL/MOL
REMARK 927      BINDING AFFINITY PREDICTED BY RF-SCORE:    0.00 PKD
ROOT
HETATM    1  C   UNL     1      -9.724   2.068  73.566  1.00  0.00    -0.082 C  
HETATM    2  O   UNL     1     -10.583   2.743  72.650  1.00  0.00    -0.141 OA 
ENDROOT
BRANCH   2   3
HETATM    3  C   UNL     1     -10.521   4.109  72.705  1.00  0.00    -0.167 A  
HETATM    4  C   UNL     1     -10.551   4.855  73.881  1.00  0.00    -0.342 A  
HETATM    5  C   UNL     1     -10.498   6.251  73.835  1.00  0.00    -0.292 A  
HETATM    6  C   UNL     1     -10.412   6.933  72.614  1.00  0.00    -0.243 A  
HETATM    7  C   UNL     1     -10.386   4.768  71.487  1.00  0.00    -0.203 A  
HETATM    8  C   UNL     1     -10.343   6.167  71.438  1.00  0.00    -0.260 A  
BRANCH   6   9
HETATM    9  C   UNL     1     -10.407   8.447  72.520  1.00  0.00    -0.371 C  
HETATM   10  C   UNL     1      -9.423   9.045  71.520  1.00  0.00    -0.246 C  
HETATM   11  O   UNL     1      -8.210   8.925  71.493  1.00  0.00    -0.242 OA 
HETATM   12  C   UNL     1     -10.165   9.829  70.535  1.00  0.00    -0.321 A  
HETATM   13  C   UNL     1      -9.679  10.510  69.434  1.00  0.00    -0.188 A  
HETATM   14  C   UNL     1     -10.604  11.194  68.639  1.00  0.00    -0.222 A  
HETATM   15  C   UNL     1     -11.976  11.181  68.955  1.00  0.00    -0.389 A  
HETATM   16  C   UNL     1     -12.446  10.485  70.073  1.00  0.00    -0.243 A  
HETATM   17  C   UNL     1     -11.515   9.814  70.845  1.00  0.00    -0.447 A  
HETATM   18  C   UNL     1     -11.740   9.019  72.051  1.00  0.00    -0.347 C  
HETATM   19  O   UNL     1     -12.835   8.894  72.571  1.00  0.00    -0.407 OA 
ENDBRANCH   6   9
ENDBRANCH   2   3
TORSDOF 2
ENDMDL
MODEL       67
REMARK 921   NORMALIZED FREE ENERGY PREDICTED BY IDOCK:   -4.58 KCAL/MOL
REMARK 922        TOTAL FREE ENERGY PREDICTED BY IDOCK:   -5.67 KCAL/MOL
REMARK 923 INTER-LIGAND FREE ENERGY PREDICTED BY IDOCK:   -5.10 KCAL/MOL
REMARK 924 INTRA-LIGAND FREE ENERGY PREDICTED BY IDOCK:   -0.56 KCAL/MOL
REMARK 927      BINDING AFFINITY PREDICTED BY RF-SCORE:    0.00 PKD
ROOT
HETATM    1  C   UNL     1      -7.410  19.127  69.134  1.00  0.00    -0.286 C  
HETATM    2  O   UNL     1      -8.313  19.051  68.033  1.00  0.00    -0.283 OA 
ENDROOT
BRANCH   2   3
HETATM    3  C   UNL     1      -8.659  17.781  67.661  1.00  0.00    -0.230 A  
HETATM    4  C   UNL     1      -8.918  17.383  66.351  1.00  0.00    -0.274 A  
HETATM    5  C   UNL     1      -9.280  16.063  66.071  1.00  0.00    -0.375 A  
HETATM    6  C   UNL     1      -9.390  15.110  67.092  1.00  0.00    -0.223 A  
HETATM    7  C   UNL     1      -8.715  16.835  68.680  1.00  0.00    -0.255 A  
HETATM    8  C   UNL     1      -9.087  15.514  68.403  1.00  0.00    -0.190 A  
BRANCH   6   9
HETATM    9  C   UNL     1      -9.833  13.681  66.835  1.00  0.00    -0.261 C  
HETATM   10  C   UNL     1      -8.926  12.595  67.405  1.00  0.00    -0.190 C  
HETATM   11  O   UNL     1      -7.749  12.394  67.163  1.00  0.00    -0.162 OA 
HETATM   12  C   UNL     1      -9.699  11.773  68.334  1.00  0.00    -0.197 A  
HETATM   13  C   UNL     1      -9.268  10.705  69.100  1.00  0.00    -0.162 A  
HETATM   14  C   UNL     1     -10.211  10.076  69.919  1.00  0.00    -0.304 A  
HETATM   15  C   UNL     1     -11.546  10.523  69.954  1.00  0.00    -0.384 A  
HETATM   16  C   UNL     1     -11.960  11.605  69.172  1.00  0.00    -0.378 A  
HETATM   17  C   UNL     1     -11.011  12.215  68.372  1.00  0.00    -0.271 A  
HETATM   18  C   UNL     1     -11.180  13.352  67.469  1.00  0.00    -0.284 C  
HETATM   19  O   UNL     1     -12.254  13.891  67.272  1.00  0.00    -0.394 OA 
ENDBRANCH   6   9
ENDBRANCH   2   3
TORSDOF 2
ENDMDL
MODEL       68
REMARK 921   NORMALIZED FREE ENERGY PREDICTED BY IDOCK:   -4.53 KCAL/MOL
REMARK 922        TOTAL FREE ENERGY PREDICTED BY IDOCK:   -5.62 KCAL/MOL
REMARK 923 INTER-LIGAND FREE ENERGY PREDICTED BY IDOCK:   -5.12 KCAL/MOL
REMARK 924 INTRA-LIGAND FREE ENERGY PREDICTED BY IDOCK:   -0.49 KCAL/MOL
REMARK 927      BINDING AFFINITY PREDICTED BY RF-SCORE:    0.00 PKD
ROOT
HETATM    1  C   UNL     1     -13.118  13.582  71.485  1.00  0.00    -0.344 C  
HETATM    2  O   UNL     1     -13.641  12.311  71.866  1.00  0.00    -0.319 OA 
ENDROOT
BRANCH   2   3
HETATM    3  C   UNL     1     -12.863  11.241  71.518  1.00  0.00    -0.414 A  
HETATM    4  C   UNL     1     -12.948   9.979  72.099  1.00  0.00    -0.460 A  
HETATM    5  C   UNL     1     -12.097   8.950  71.685  1.00  0.00    -0.415 A  
HETATM    6  C   UNL     1     -11.143   9.160  70.681  1.00  0.00    -0.320 A  
HETATM    7  C   UNL     1     -11.954  11.453  70.485  1.00  0.00    -0.451 A  
HETATM    8  C   UNL     1     -11.094  10.426  70.076  1.00  0.00    -0.379 A  
BRANCH   6   9
HETATM    9  C   UNL     1     -10.165   8.084  70.243  1.00  0.00    -0.200 C  
HETATM   10  C   UNL     1      -8.950   7.889  71.145  1.00  0.00    -0.138 C  
HETATM   11  O   UNL     1      -8.096   8.705  71.444  1.00  0.00    -0.130 OA 
HETATM   12  C   UNL     1      -8.940   6.512  71.634  1.00  0.00    -0.143 A  
HETATM   13  C   UNL     1      -8.046   5.913  72.502  1.00  0.00    -0.106 A  
HETATM   14  C   UNL     1      -8.255   4.567  72.818  1.00  0.00    -0.099 A  
HETATM   15  C   UNL     1      -9.339   3.858  72.267  1.00  0.00    -0.173 A  
HETATM   16  C   UNL     1     -10.232   4.482  71.391  1.00  0.00    -0.183 A  
HETATM   17  C   UNL     1     -10.009   5.814  71.094  1.00  0.00    -0.244 A  
HETATM   18  C   UNL     1     -10.784   6.691  70.219  1.00  0.00    -0.246 C  
HETATM   19  O   UNL     1     -11.744   6.308  69.573  1.00  0.00    -0.360 OA 
ENDBRANCH   6   9
ENDBRANCH   2   3
TORSDOF 2
ENDMDL
MODEL       69
REMARK 921   NORMALIZED FREE ENERGY PREDICTED BY IDOCK:   -4.53 KCAL/MOL
REMARK 922        TOTAL FREE ENERGY PREDICTED BY IDOCK:   -5.61 KCAL/MOL
REMARK 923 INTER-LIGAND FREE ENERGY PREDICTED BY IDOCK:   -5.12 KCAL/MOL
REMARK 924 INTRA-LIGAND FREE ENERGY PREDICTED BY IDOCK:   -0.49 KCAL/MOL
REMARK 927      BINDING AFFINITY PREDICTED BY RF-SCORE:    0.00 PKD
ROOT
HETATM    1  C   UNL     1      -9.495  20.317  65.852  1.00  0.00    -0.088 C  
HETATM    2  O   UNL     1     -10.623  19.444  65.839  1.00  0.00    -0.497 OA 
ENDROOT
BRANCH   2   3
HETATM    3  C   UNL     1     -10.517  18.357  66.663  1.00  0.00    -0.385 A  
HETATM    4  C   UNL     1     -10.546  18.413  68.054  1.00  0.00    -0.346 A  
HETATM    5  C   UNL     1     -10.415  17.246  68.812  1.00  0.00    -0.340 A  
HETATM    6  C   UNL     1     -10.254  15.997  68.197  1.00  0.00    -0.243 A  
HETATM    7  C   UNL     1     -10.408  17.119  66.036  1.00  0.00    -0.317 A  
HETATM    8  C   UNL     1     -10.267  15.950  66.794  1.00  0.00    -0.283 A  
BRANCH   6   9
HETATM    9  C   UNL     1     -10.055  14.716  68.986  1.00  0.00    -0.211 C  
HETATM   10  C   UNL     1     -11.258  13.779  69.040  1.00  0.00    -0.272 C  
HETATM   11  O   UNL     1     -12.372  14.009  69.476  1.00  0.00    -0.332 OA 
HETATM   12  C   UNL     1     -10.879  12.489  68.467  1.00  0.00    -0.271 A  
HETATM   13  C   UNL     1     -11.665  11.366  68.283  1.00  0.00    -0.359 A  
HETATM   14  C   UNL     1     -11.061  10.243  67.708  1.00  0.00    -0.335 A  
HETATM   15  C   UNL     1      -9.704  10.267  67.334  1.00  0.00    -0.189 A  
HETATM   16  C   UNL     1      -8.928  11.414  67.528  1.00  0.00    -0.150 A  
HETATM   17  C   UNL     1      -9.545  12.514  68.096  1.00  0.00    -0.215 A  
HETATM   18  C   UNL     1      -8.967  13.821  68.402  1.00  0.00    -0.166 C  
HETATM   19  O   UNL     1      -7.791  14.086  68.228  1.00  0.00    -0.122 OA 
ENDBRANCH   6   9
ENDBRANCH   2   3
TORSDOF 2
ENDMDL
MODEL       70
REMARK 921   NORMALIZED FREE ENERGY PREDICTED BY IDOCK:   -4.48 KCAL/MOL
REMARK 922        TOTAL FREE ENERGY PREDICTED BY IDOCK:   -5.56 KCAL/MOL
REMARK 923 INTER-LIGAND FREE ENERGY PREDICTED BY IDOCK:   -5.03 KCAL/MOL
REMARK 924 INTRA-LIGAND FREE ENERGY PREDICTED BY IDOCK:   -0.53 KCAL/MOL
REMARK 927      BINDING AFFINITY PREDICTED BY RF-SCORE:    0.00 PKD
ROOT
HETATM    1  C   UNL     1     -10.353   4.710  66.150  1.00  0.00    -0.275 C  
HETATM    2  O   UNL     1     -10.513   5.055  67.524  1.00  0.00    -0.133 OA 
ENDROOT
BRANCH   2   3
HETATM    3  C   UNL     1     -10.455   6.396  67.790  1.00  0.00    -0.226 A  
HETATM    4  C   UNL     1     -10.306   7.388  66.824  1.00  0.00    -0.321 A  
HETATM    5  C   UNL     1     -10.242   8.734  67.196  1.00  0.00    -0.346 A  
HETATM    6  C   UNL     1     -10.326   9.119  68.541  1.00  0.00    -0.236 A  
HETATM    7  C   UNL     1     -10.590   6.764  69.125  1.00  0.00    -0.261 A  
HETATM    8  C   UNL     1     -10.515   8.112  69.501  1.00  0.00    -0.227 A  
BRANCH   6   9
HETATM    9  C   UNL     1     -10.205  10.564  68.988  1.00  0.00    -0.233 C  
HETATM   10  C   UNL     1      -9.110  11.378  68.305  1.00  0.00    -0.179 C  
HETATM   11  O   UNL     1      -7.910  11.162  68.290  1.00  0.00    -0.110 OA 
HETATM   12  C   UNL     1      -9.720  12.521  67.630  1.00  0.00    -0.196 A  
HETATM   13  C   UNL     1      -9.108  13.494  66.862  1.00  0.00    -0.246 A  
HETATM   14  C   UNL     1      -9.920  14.495  66.320  1.00  0.00    -0.320 A  
HETATM   15  C   UNL     1     -11.309  14.500  66.553  1.00  0.00    -0.354 A  
HETATM   16  C   UNL     1     -11.908  13.506  67.332  1.00  0.00    -0.423 A  
HETATM   17  C   UNL     1     -11.087  12.524  67.857  1.00  0.00    -0.286 A  
HETATM   18  C   UNL     1     -11.456  11.384  68.694  1.00  0.00    -0.296 C  
HETATM   19  O   UNL     1     -12.592  11.189  69.089  1.00  0.00    -0.358 OA 
ENDBRANCH   6   9
ENDBRANCH   2   3
TORSDOF 2
ENDMDL
MODEL       71
REMARK 921   NORMALIZED FREE ENERGY PREDICTED BY IDOCK:   -4.47 KCAL/MOL
REMARK 922        TOTAL FREE ENERGY PREDICTED BY IDOCK:   -5.55 KCAL/MOL
REMARK 923 INTER-LIGAND FREE ENERGY PREDICTED BY IDOCK:   -5.01 KCAL/MOL
REMARK 924 INTRA-LIGAND FREE ENERGY PREDICTED BY IDOCK:   -0.54 KCAL/MOL
REMARK 927      BINDING AFFINITY PREDICTED BY RF-SCORE:    0.00 PKD
ROOT
HETATM    1  C   UNL     1      -6.591   4.429  73.786  1.00  0.00    -0.057 C  
HETATM    2  O   UNL     1      -7.335   5.477  74.404  1.00  0.00    -0.085 OA 
ENDROOT
BRANCH   2   3
HETATM    3  C   UNL     1      -8.397   5.935  73.673  1.00  0.00    -0.113 A  
HETATM    4  C   UNL     1      -9.345   5.121  73.059  1.00  0.00    -0.142 A  
HETATM    5  C   UNL     1     -10.389   5.683  72.318  1.00  0.00    -0.250 A  
HETATM    6  C   UNL     1     -10.509   7.072  72.176  1.00  0.00    -0.234 A  
HETATM    7  C   UNL     1      -8.530   7.318  73.583  1.00  0.00    -0.182 A  
HETATM    8  C   UNL     1      -9.570   7.883  72.833  1.00  0.00    -0.329 A  
BRANCH   6   9
HETATM    9  C   UNL     1     -11.595   7.718  71.336  1.00  0.00    -0.305 C  
HETATM   10  C   UNL     1     -12.554   8.636  72.087  1.00  0.00    -0.391 C  
HETATM   11  O   UNL     1     -13.283   8.359  73.024  1.00  0.00    -0.054 OA 
HETATM   12  C   UNL     1     -12.482   9.974  71.504  1.00  0.00    -0.516 A  
HETATM   13  C   UNL     1     -13.151  11.120  71.896  1.00  0.00    -0.513 A  
HETATM   14  C   UNL     1     -12.910  12.289  71.167  1.00  0.00    -0.302 A  
HETATM   15  C   UNL     1     -12.017  12.288  70.078  1.00  0.00    -0.379 A  
HETATM   16  C   UNL     1     -11.351  11.118  69.700  1.00  0.00    -0.366 A  
HETATM   17  C   UNL     1     -11.602   9.974  70.435  1.00  0.00    -0.379 A  
HETATM   18  C   UNL     1     -11.042   8.636  70.251  1.00  0.00    -0.217 C  
HETATM   19  O   UNL     1     -10.284   8.351  69.341  1.00  0.00    -0.198 OA 
ENDBRANCH   6   9
ENDBRANCH   2   3
TORSDOF 2
ENDMDL
MODEL       72
REMARK 921   NORMALIZED FREE ENERGY PREDICTED BY IDOCK:   -4.47 KCAL/MOL
REMARK 922        TOTAL FREE ENERGY PREDICTED BY IDOCK:   -5.55 KCAL/MOL
REMARK 923 INTER-LIGAND FREE ENERGY PREDICTED BY IDOCK:   -5.01 KCAL/MOL
REMARK 924 INTRA-LIGAND FREE ENERGY PREDICTED BY IDOCK:   -0.54 KCAL/MOL
REMARK 927      BINDING AFFINITY PREDICTED BY RF-SCORE:    0.00 PKD
ROOT
HETATM    1  C   UNL     1     -11.185  16.450  69.320  1.00  0.00    -0.272 C  
HETATM    2  O   UNL     1     -11.804  15.582  68.374  1.00  0.00    -0.351 OA 
ENDROOT
BRANCH   2   3
HETATM    3  C   UNL     1     -11.283  14.317  68.327  1.00  0.00    -0.276 A  
HETATM    4  C   UNL     1     -12.028  13.149  68.468  1.00  0.00    -0.324 A  
HETATM    5  C   UNL     1     -11.402  11.901  68.421  1.00  0.00    -0.331 A  
HETATM    6  C   UNL     1     -10.018  11.791  68.230  1.00  0.00    -0.200 A  
HETATM    7  C   UNL     1      -9.915  14.225  68.088  1.00  0.00    -0.230 A  
HETATM    8  C   UNL     1      -9.285  12.975  68.050  1.00  0.00    -0.212 A  
BRANCH   6   9
HETATM    9  C   UNL     1      -9.295  10.456  68.228  1.00  0.00    -0.150 C  
HETATM   10  C   UNL     1      -9.529   9.576  69.452  1.00  0.00    -0.176 C  
HETATM   11  O   UNL     1      -9.292   9.832  70.620  1.00  0.00    -0.178 OA 
HETATM   12  C   UNL     1     -10.108   8.306  69.019  1.00  0.00    -0.208 A  
HETATM   13  C   UNL     1     -10.511   7.235  69.795  1.00  0.00    -0.236 A  
HETATM   14  C   UNL     1     -11.039   6.122  69.134  1.00  0.00    -0.448 A  
HETATM   15  C   UNL     1     -11.153   6.104  67.730  1.00  0.00    -0.306 A  
HETATM   16  C   UNL     1     -10.741   7.199  66.965  1.00  0.00    -0.420 A  
HETATM   17  C   UNL     1     -10.224   8.290  67.638  1.00  0.00    -0.294 A  
HETATM   18  C   UNL     1      -9.727   9.548  67.082  1.00  0.00    -0.171 C  
HETATM   19  O   UNL     1      -9.663   9.767  65.886  1.00  0.00    -0.225 OA 
ENDBRANCH   6   9
ENDBRANCH   2   3
TORSDOF 2
ENDMDL
MODEL       73
REMARK 921   NORMALIZED FREE ENERGY PREDICTED BY IDOCK:   -4.44 KCAL/MOL
REMARK 922        TOTAL FREE ENERGY PREDICTED BY IDOCK:   -5.51 KCAL/MOL
REMARK 923 INTER-LIGAND FREE ENERGY PREDICTED BY IDOCK:   -4.95 KCAL/MOL
REMARK 924 INTRA-LIGAND FREE ENERGY PREDICTED BY IDOCK:   -0.56 KCAL/MOL
REMARK 927      BINDING AFFINITY PREDICTED BY RF-SCORE:    0.00 PKD
ROOT
HETATM    1  C   UNL     1      -7.167  19.938  65.504  1.00  0.00    -0.281 C  
HETATM    2  O   UNL     1      -7.796  19.882  66.783  1.00  0.00    -0.278 OA 
ENDROOT
BRANCH   2   3
HETATM    3  C   UNL     1      -8.321  18.662  67.112  1.00  0.00    -0.264 A  
HETATM    4  C   UNL     1      -9.051  18.401  68.268  1.00  0.00    -0.330 A  
HETATM    5  C   UNL     1      -9.535  17.115  68.525  1.00  0.00    -0.282 A  
HETATM    6  C   UNL     1      -9.301  16.061  67.632  1.00  0.00    -0.214 A  
HETATM    7  C   UNL     1      -8.122  17.638  66.190  1.00  0.00    -0.228 A  
HETATM    8  C   UNL     1      -8.597  16.347  66.450  1.00  0.00    -0.358 A  
BRANCH   6   9
HETATM    9  C   UNL     1      -9.762  14.641  67.901  1.00  0.00    -0.216 C  
HETATM   10  C   UNL     1     -10.757  14.067  66.898  1.00  0.00    -0.285 C  
HETATM   11  O   UNL     1     -11.862  14.492  66.606  1.00  0.00    -0.393 OA 
HETATM   12  C   UNL     1     -10.183  12.867  66.294  1.00  0.00    -0.285 A  
HETATM   13  C   UNL     1     -10.722  12.055  65.313  1.00  0.00    -0.331 A  
HETATM   14  C   UNL     1      -9.966  10.953  64.900  1.00  0.00    -0.361 A  
HETATM   15  C   UNL     1      -8.705  10.690  65.468  1.00  0.00    -0.199 A  
HETATM   16  C   UNL     1      -8.178  11.525  66.458  1.00  0.00    -0.129 A  
HETATM   17  C   UNL     1      -8.940  12.611  66.851  1.00  0.00    -0.213 A  
HETATM   18  C   UNL     1      -8.625  13.626  67.853  1.00  0.00    -0.181 C  
HETATM   19  O   UNL     1      -7.614  13.599  68.533  1.00  0.00    -0.122 OA 
ENDBRANCH   6   9
ENDBRANCH   2   3
TORSDOF 2
ENDMDL
MODEL       74
REMARK 921   NORMALIZED FREE ENERGY PREDICTED BY IDOCK:   -4.43 KCAL/MOL
REMARK 922        TOTAL FREE ENERGY PREDICTED BY IDOCK:   -5.50 KCAL/MOL
REMARK 923 INTER-LIGAND FREE ENERGY PREDICTED BY IDOCK:   -5.07 KCAL/MOL
REMARK 924 INTRA-LIGAND FREE ENERGY PREDICTED BY IDOCK:   -0.43 KCAL/MOL
REMARK 927      BINDING AFFINITY PREDICTED BY RF-SCORE:    0.00 PKD
ROOT
HETATM    1  C   UNL     1     -12.275  10.775  69.542  1.00  0.00    -0.221 C  
HETATM    2  O   UNL     1     -11.944  11.374  68.291  1.00  0.00    -0.566 OA 
ENDROOT
BRANCH   2   3
HETATM    3  C   UNL     1     -11.266  12.559  68.383  1.00  0.00    -0.272 A  
HETATM    4  C   UNL     1     -10.022  12.806  67.807  1.00  0.00    -0.219 A  
HETATM    5  C   UNL     1      -9.400  14.047  67.969  1.00  0.00    -0.205 A  
HETATM    6  C   UNL     1     -10.007  15.070  68.709  1.00  0.00    -0.228 A  
HETATM    7  C   UNL     1     -11.905  13.581  69.080  1.00  0.00    -0.385 A  
HETATM    8  C   UNL     1     -11.279  14.822  69.252  1.00  0.00    -0.303 A  
BRANCH   6   9
HETATM    9  C   UNL     1      -9.340  16.411  68.953  1.00  0.00    -0.249 C  
HETATM   10  C   UNL     1      -7.816  16.412  68.891  1.00  0.00    -0.234 C  
HETATM   11  O   UNL     1      -7.034  15.770  69.572  1.00  0.00    -0.187 OA 
HETATM   12  C   UNL     1      -7.385  17.339  67.847  1.00  0.00    -0.189 A  
HETATM   13  C   UNL     1      -6.098  17.623  67.426  1.00  0.00    -0.165 A  
HETATM   14  C   UNL     1      -5.948  18.560  66.399  1.00  0.00    -0.188 A  
HETATM   15  C   UNL     1      -7.071  19.182  65.821  1.00  0.00    -0.296 A  
HETATM   16  C   UNL     1      -8.362  18.879  66.261  1.00  0.00    -0.274 A  
HETATM   17  C   UNL     1      -8.490  17.949  67.276  1.00  0.00    -0.242 A  
HETATM   18  C   UNL     1      -9.712  17.459  67.911  1.00  0.00    -0.272 C  
HETATM   19  O   UNL     1     -10.821  17.881  67.633  1.00  0.00    -0.375 OA 
ENDBRANCH   6   9
ENDBRANCH   2   3
TORSDOF 2
ENDMDL
MODEL       75
REMARK 921   NORMALIZED FREE ENERGY PREDICTED BY IDOCK:   -4.42 KCAL/MOL
REMARK 922        TOTAL FREE ENERGY PREDICTED BY IDOCK:   -5.50 KCAL/MOL
REMARK 923 INTER-LIGAND FREE ENERGY PREDICTED BY IDOCK:   -5.56 KCAL/MOL
REMARK 924 INTRA-LIGAND FREE ENERGY PREDICTED BY IDOCK:    0.06 KCAL/MOL
REMARK 927      BINDING AFFINITY PREDICTED BY RF-SCORE:    0.00 PKD
ROOT
HETATM    1  C   UNL     1     -12.195  14.928  64.338  1.00  0.00    -0.381 C  
HETATM    2  O   UNL     1     -12.801  13.661  64.587  1.00  0.00    -0.666 OA 
ENDROOT
BRANCH   2   3
HETATM    3  C   UNL     1     -11.954  12.708  65.083  1.00  0.00    -0.428 A  
HETATM    4  C   UNL     1     -11.192  11.843  64.302  1.00  0.00    -0.424 A  
HETATM    5  C   UNL     1     -10.365  10.889  64.902  1.00  0.00    -0.371 A  
HETATM    6  C   UNL     1     -10.280  10.779  66.296  1.00  0.00    -0.301 A  
HETATM    7  C   UNL     1     -11.843  12.645  66.469  1.00  0.00    -0.463 A  
HETATM    8  C   UNL     1     -11.023  11.684  67.073  1.00  0.00    -0.338 A  
BRANCH   6   9
HETATM    9  C   UNL     1      -9.436   9.722  66.984  1.00  0.00    -0.195 C  
HETATM   10  C   UNL     1     -10.134   8.936  68.091  1.00  0.00    -0.189 C  
HETATM   11  O   UNL     1     -10.638   9.364  69.115  1.00  0.00    -0.217 OA 
HETATM   12  C   UNL     1     -10.119   7.517  67.745  1.00  0.00    -0.235 A  
HETATM   13  C   UNL     1     -10.668   6.456  68.442  1.00  0.00    -0.349 A  
HETATM   14  C   UNL     1     -10.516   5.178  67.896  1.00  0.00    -0.100 A  
HETATM   15  C   UNL     1      -9.827   4.989  66.682  1.00  0.00    -0.215 A  
HETATM   16  C   UNL     1      -9.280   6.076  65.994  1.00  0.00    -0.129 A  
HETATM   17  C   UNL     1      -9.444   7.332  66.549  1.00  0.00    -0.218 A  
HETATM   18  C   UNL     1      -8.977   8.619  66.038  1.00  0.00    -0.184 C  
HETATM   19  O   UNL     1      -8.304   8.729  65.028  1.00  0.00    -0.152 OA 
ENDBRANCH   6   9
ENDBRANCH   2   3
TORSDOF 2
ENDMDL
MODEL       76
REMARK 921   NORMALIZED FREE ENERGY PREDICTED BY IDOCK:   -4.42 KCAL/MOL
REMARK 922        TOTAL FREE ENERGY PREDICTED BY IDOCK:   -5.49 KCAL/MOL
REMARK 923 INTER-LIGAND FREE ENERGY PREDICTED BY IDOCK:   -5.23 KCAL/MOL
REMARK 924 INTRA-LIGAND FREE ENERGY PREDICTED BY IDOCK:   -0.26 KCAL/MOL
REMARK 927      BINDING AFFINITY PREDICTED BY RF-SCORE:    0.00 PKD
ROOT
HETATM    1  C   UNL     1     -10.601  15.849  67.892  1.00  0.00    -0.300 C  
HETATM    2  O   UNL     1     -11.823  15.193  68.224  1.00  0.00    -0.331 OA 
ENDROOT
BRANCH   2   3
HETATM    3  C   UNL     1     -11.687  13.886  68.608  1.00  0.00    -0.361 A  
HETATM    4  C   UNL     1     -11.864  13.422  69.909  1.00  0.00    -0.385 A  
HETATM    5  C   UNL     1     -11.688  12.068  70.207  1.00  0.00    -0.267 A  
HETATM    6  C   UNL     1     -11.332  11.147  69.212  1.00  0.00    -0.349 A  
HETATM    7  C   UNL     1     -11.383  12.978  67.599  1.00  0.00    -0.342 A  
HETATM    8  C   UNL     1     -11.197  11.622  67.897  1.00  0.00    -0.334 A  
BRANCH   6   9
HETATM    9  C   UNL     1     -11.079   9.680  69.506  1.00  0.00    -0.198 C  
HETATM   10  C   UNL     1      -9.616   9.249  69.506  1.00  0.00    -0.173 C  
HETATM   11  O   UNL     1      -8.809   9.323  68.595  1.00  0.00    -0.130 OA 
HETATM   12  C   UNL     1      -9.284   8.700  70.819  1.00  0.00    -0.223 A  
HETATM   13  C   UNL     1      -8.066   8.225  71.270  1.00  0.00    -0.138 A  
HETATM   14  C   UNL     1      -8.006   7.745  72.581  1.00  0.00    -0.145 A  
HETATM   15  C   UNL     1      -9.149   7.751  73.404  1.00  0.00    -0.336 A  
HETATM   16  C   UNL     1     -10.370   8.236  72.928  1.00  0.00    -0.241 A  
HETATM   17  C   UNL     1     -10.408   8.708  71.629  1.00  0.00    -0.366 A  
HETATM   18  C   UNL     1     -11.545   9.263  70.897  1.00  0.00    -0.301 C  
HETATM   19  O   UNL     1     -12.668   9.329  71.363  1.00  0.00    -0.315 OA 
ENDBRANCH   6   9
ENDBRANCH   2   3
TORSDOF 2
ENDMDL
MODEL       77
REMARK 921   NORMALIZED FREE ENERGY PREDICTED BY IDOCK:   -4.34 KCAL/MOL
REMARK 922        TOTAL FREE ENERGY PREDICTED BY IDOCK:   -5.40 KCAL/MOL
REMARK 923 INTER-LIGAND FREE ENERGY PREDICTED BY IDOCK:   -4.87 KCAL/MOL
REMARK 924 INTRA-LIGAND FREE ENERGY PREDICTED BY IDOCK:   -0.53 KCAL/MOL
REMARK 927      BINDING AFFINITY PREDICTED BY RF-SCORE:    0.00 PKD
ROOT
HETATM    1  C   UNL     1     -12.195  14.928  64.338  1.00  0.00    -0.381 C  
HETATM    2  O   UNL     1     -12.801  13.661  64.587  1.00  0.00    -0.666 OA 
ENDROOT
BRANCH   2   3
HETATM    3  C   UNL     1     -11.954  12.708  65.083  1.00  0.00    -0.428 A  
HETATM    4  C   UNL     1     -11.192  11.843  64.302  1.00  0.00    -0.424 A  
HETATM    5  C   UNL     1     -10.365  10.889  64.902  1.00  0.00    -0.371 A  
HETATM    6  C   UNL     1     -10.280  10.779  66.296  1.00  0.00    -0.301 A  
HETATM    7  C   UNL     1     -11.843  12.645  66.469  1.00  0.00    -0.463 A  
HETATM    8  C   UNL     1     -11.023  11.684  67.073  1.00  0.00    -0.338 A  
BRANCH   6   9
HETATM    9  C   UNL     1      -9.436   9.722  66.984  1.00  0.00    -0.195 C  
HETATM   10  C   UNL     1      -9.785   8.275  66.647  1.00  0.00    -0.251 C  
HETATM   11  O   UNL     1     -10.847   7.699  66.811  1.00  0.00    -0.274 OA 
HETATM   12  C   UNL     1      -8.611   7.628  66.067  1.00  0.00    -0.165 A  
HETATM   13  C   UNL     1      -8.490   6.337  65.587  1.00  0.00    -0.148 A  
HETATM   14  C   UNL     1      -7.246   5.952  65.077  1.00  0.00    -0.066 A  
HETATM   15  C   UNL     1      -6.165   6.854  65.057  1.00  0.00    -0.036 A  
HETATM   16  C   UNL     1      -6.310   8.155  65.547  1.00  0.00    -0.048 A  
HETATM   17  C   UNL     1      -7.548   8.517  66.044  1.00  0.00    -0.089 A  
HETATM   18  C   UNL     1      -7.961   9.800  66.608  1.00  0.00    -0.112 C  
HETATM   19  O   UNL     1      -7.197  10.738  66.759  1.00  0.00    -0.113 OA 
ENDBRANCH   6   9
ENDBRANCH   2   3
TORSDOF 2
ENDMDL
MODEL       78
REMARK 921   NORMALIZED FREE ENERGY PREDICTED BY IDOCK:   -4.33 KCAL/MOL
REMARK 922        TOTAL FREE ENERGY PREDICTED BY IDOCK:   -5.39 KCAL/MOL
REMARK 923 INTER-LIGAND FREE ENERGY PREDICTED BY IDOCK:   -4.82 KCAL/MOL
REMARK 924 INTRA-LIGAND FREE ENERGY PREDICTED BY IDOCK:   -0.56 KCAL/MOL
REMARK 927      BINDING AFFINITY PREDICTED BY RF-SCORE:    0.00 PKD
ROOT
HETATM    1  C   UNL     1      -7.123   6.662  66.325  1.00  0.00    -0.067 C  
HETATM    2  O   UNL     1      -7.231   7.050  67.693  1.00  0.00    -0.085 OA 
ENDROOT
BRANCH   2   3
HETATM    3  C   UNL     1      -7.855   8.249  67.903  1.00  0.00    -0.114 A  
HETATM    4  C   UNL     1      -8.231   8.737  69.152  1.00  0.00    -0.119 A  
HETATM    5  C   UNL     1      -8.879   9.971  69.263  1.00  0.00    -0.184 A  
HETATM    6  C   UNL     1      -9.164  10.745  68.131  1.00  0.00    -0.151 A  
HETATM    7  C   UNL     1      -8.086   9.028  66.772  1.00  0.00    -0.111 A  
HETATM    8  C   UNL     1      -8.743  10.259  66.882  1.00  0.00    -0.131 A  
BRANCH   6   9
HETATM    9  C   UNL     1      -9.913  12.062  68.207  1.00  0.00    -0.203 C  
HETATM   10  C   UNL     1      -9.297  13.219  67.426  1.00  0.00    -0.217 C  
HETATM   11  O   UNL     1      -8.189  13.710  67.557  1.00  0.00    -0.160 OA 
HETATM   12  C   UNL     1     -10.266  13.694  66.440  1.00  0.00    -0.292 A  
HETATM   13  C   UNL     1     -10.115  14.697  65.500  1.00  0.00    -0.405 A  
HETATM   14  C   UNL     1     -11.202  14.965  64.663  1.00  0.00    -0.349 A  
HETATM   15  C   UNL     1     -12.400  14.235  64.781  1.00  0.00    -0.440 A  
HETATM   16  C   UNL     1     -12.531  13.224  65.738  1.00  0.00    -0.480 A  
HETATM   17  C   UNL     1     -11.443  12.973  66.554  1.00  0.00    -0.385 A  
HETATM   18  C   UNL     1     -11.319  11.982  67.621  1.00  0.00    -0.307 C  
HETATM   19  O   UNL     1     -12.235  11.256  67.966  1.00  0.00    -0.621 OA 
ENDBRANCH   6   9
ENDBRANCH   2   3
TORSDOF 2
ENDMDL
MODEL       79
REMARK 921   NORMALIZED FREE ENERGY PREDICTED BY IDOCK:   -4.30 KCAL/MOL
REMARK 922        TOTAL FREE ENERGY PREDICTED BY IDOCK:   -5.36 KCAL/MOL
REMARK 923 INTER-LIGAND FREE ENERGY PREDICTED BY IDOCK:   -4.85 KCAL/MOL
REMARK 924 INTRA-LIGAND FREE ENERGY PREDICTED BY IDOCK:   -0.51 KCAL/MOL
REMARK 927      BINDING AFFINITY PREDICTED BY RF-SCORE:    0.00 PKD
ROOT
HETATM    1  C   UNL     1      -8.670   5.902  69.554  1.00  0.00    -0.116 C  
HETATM    2  O   UNL     1      -8.125   7.200  69.783  1.00  0.00    -0.124 OA 
ENDROOT
BRANCH   2   3
HETATM    3  C   UNL     1      -8.819   8.225  69.200  1.00  0.00    -0.143 A  
HETATM    4  C   UNL     1      -8.588   9.577  69.446  1.00  0.00    -0.159 A  
HETATM    5  C   UNL     1      -9.361  10.553  68.812  1.00  0.00    -0.181 A  
HETATM    6  C   UNL     1     -10.381  10.202  67.918  1.00  0.00    -0.234 A  
HETATM    7  C   UNL     1      -9.795   7.861  68.277  1.00  0.00    -0.187 A  
HETATM    8  C   UNL     1     -10.576   8.838  67.648  1.00  0.00    -0.281 A  
BRANCH   6   9
HETATM    9  C   UNL     1     -11.276  11.231  67.252  1.00  0.00    -0.364 C  
HETATM   10  C   UNL     1     -11.647  12.438  68.109  1.00  0.00    -0.341 C  
HETATM   11  O   UNL     1     -12.232  12.451  69.178  1.00  0.00    -0.191 OA 
HETATM   12  C   UNL     1     -11.182  13.652  67.442  1.00  0.00    -0.323 A  
HETATM   13  C   UNL     1     -11.272  14.961  67.879  1.00  0.00    -0.324 A  
HETATM   14  C   UNL     1     -10.747  15.956  67.048  1.00  0.00    -0.292 A  
HETATM   15  C   UNL     1     -10.149  15.625  65.816  1.00  0.00    -0.394 A  
HETATM   16  C   UNL     1     -10.068  14.295  65.395  1.00  0.00    -0.379 A  
HETATM   17  C   UNL     1     -10.591  13.326  66.232  1.00  0.00    -0.294 A  
HETATM   18  C   UNL     1     -10.633  11.879  66.031  1.00  0.00    -0.265 C  
HETATM   19  O   UNL     1     -10.232  11.336  65.017  1.00  0.00    -0.252 OA 
ENDBRANCH   6   9
ENDBRANCH   2   3
TORSDOF 2
ENDMDL
MODEL       80
REMARK 921   NORMALIZED FREE ENERGY PREDICTED BY IDOCK:   -4.30 KCAL/MOL
REMARK 922        TOTAL FREE ENERGY PREDICTED BY IDOCK:   -5.36 KCAL/MOL
REMARK 923 INTER-LIGAND FREE ENERGY PREDICTED BY IDOCK:   -4.85 KCAL/MOL
REMARK 924 INTRA-LIGAND FREE ENERGY PREDICTED BY IDOCK:   -0.50 KCAL/MOL
REMARK 927      BINDING AFFINITY PREDICTED BY RF-SCORE:    0.00 PKD
ROOT
HETATM    1  C   UNL     1     -11.488  16.146  70.922  1.00  0.00    -0.386 C  
HETATM    2  O   UNL     1     -11.144  16.441  69.570  1.00  0.00    -0.316 OA 
ENDROOT
BRANCH   2   3
HETATM    3  C   UNL     1     -11.091  15.353  68.741  1.00  0.00    -0.283 A  
HETATM    4  C   UNL     1      -9.982  14.994  67.979  1.00  0.00    -0.219 A  
HETATM    5  C   UNL     1     -10.029  13.871  67.148  1.00  0.00    -0.239 A  
HETATM    6  C   UNL     1     -11.183  13.081  67.062  1.00  0.00    -0.325 A  
HETATM    7  C   UNL     1     -12.228  14.551  68.705  1.00  0.00    -0.173 A  
HETATM    8  C   UNL     1     -12.279  13.431  67.867  1.00  0.00    -0.149 A  
BRANCH   6   9
HETATM    9  C   UNL     1     -11.290  11.886  66.132  1.00  0.00    -0.383 C  
HETATM   10  C   UNL     1     -10.576  12.027  64.791  1.00  0.00    -0.297 C  
HETATM   11  O   UNL     1     -10.759  12.864  63.924  1.00  0.00    -0.406 OA 
HETATM   12  C   UNL     1      -9.581  10.963  64.670  1.00  0.00    -0.305 A  
HETATM   13  C   UNL     1      -8.688  10.733  63.640  1.00  0.00    -0.096 A  
HETATM   14  C   UNL     1      -7.831   9.635  63.762  1.00  0.00    -0.139 A  
HETATM   15  C   UNL     1      -7.883   8.802  64.897  1.00  0.00    -0.120 A  
HETATM   16  C   UNL     1      -8.794   9.054  65.927  1.00  0.00    -0.210 A  
HETATM   17  C   UNL     1      -9.631  10.145  65.788  1.00  0.00    -0.288 A  
HETATM   18  C   UNL     1     -10.660  10.624  66.709  1.00  0.00    -0.237 C  
HETATM   19  O   UNL     1     -10.947  10.047  67.744  1.00  0.00    -0.283 OA 
ENDBRANCH   6   9
ENDBRANCH   2   3
TORSDOF 2
ENDMDL
MODEL       81
REMARK 921   NORMALIZED FREE ENERGY PREDICTED BY IDOCK:   -4.28 KCAL/MOL
REMARK 922        TOTAL FREE ENERGY PREDICTED BY IDOCK:   -5.34 KCAL/MOL
REMARK 923 INTER-LIGAND FREE ENERGY PREDICTED BY IDOCK:   -4.80 KCAL/MOL
REMARK 924 INTRA-LIGAND FREE ENERGY PREDICTED BY IDOCK:   -0.54 KCAL/MOL
REMARK 927      BINDING AFFINITY PREDICTED BY RF-SCORE:    0.00 PKD
ROOT
HETATM    1  C   UNL     1     -10.566   5.488  69.738  1.00  0.00    -0.318 C  
HETATM    2  O   UNL     1     -10.748   6.634  70.567  1.00  0.00    -0.226 OA 
ENDROOT
BRANCH   2   3
HETATM    3  C   UNL     1     -10.576   7.835  69.935  1.00  0.00    -0.239 A  
HETATM    4  C   UNL     1     -11.167   9.031  70.333  1.00  0.00    -0.275 A  
HETATM    5  C   UNL     1     -10.942  10.206  69.612  1.00  0.00    -0.305 A  
HETATM    6  C   UNL     1     -10.120  10.214  68.478  1.00  0.00    -0.186 A  
HETATM    7  C   UNL     1      -9.717   7.834  68.840  1.00  0.00    -0.160 A  
HETATM    8  C   UNL     1      -9.497   9.010  68.110  1.00  0.00    -0.155 A  
BRANCH   6   9
HETATM    9  C   UNL     1      -9.895  11.458  67.638  1.00  0.00    -0.189 C  
HETATM   10  C   UNL     1     -11.145  12.267  67.308  1.00  0.00    -0.275 C  
HETATM   11  O   UNL     1     -12.141  11.903  66.708  1.00  0.00    -0.593 OA 
HETATM   12  C   UNL     1     -10.985  13.621  67.835  1.00  0.00    -0.277 A  
HETATM   13  C   UNL     1     -11.884  14.671  67.796  1.00  0.00    -0.359 A  
HETATM   14  C   UNL     1     -11.489  15.880  68.376  1.00  0.00    -0.348 A  
HETATM   15  C   UNL     1     -10.222  16.012  68.976  1.00  0.00    -0.236 A  
HETATM   16  C   UNL     1      -9.329  14.937  69.006  1.00  0.00    -0.179 A  
HETATM   17  C   UNL     1      -9.740  13.749  68.428  1.00  0.00    -0.219 A  
HETATM   18  C   UNL     1      -9.007  12.489  68.326  1.00  0.00    -0.178 C  
HETATM   19  O   UNL     1      -7.862  12.351  68.718  1.00  0.00    -0.085 OA 
ENDBRANCH   6   9
ENDBRANCH   2   3
TORSDOF 2
ENDMDL
MODEL       82
REMARK 921   NORMALIZED FREE ENERGY PREDICTED BY IDOCK:   -4.27 KCAL/MOL
REMARK 922        TOTAL FREE ENERGY PREDICTED BY IDOCK:   -5.33 KCAL/MOL
REMARK 923 INTER-LIGAND FREE ENERGY PREDICTED BY IDOCK:   -4.80 KCAL/MOL
REMARK 924 INTRA-LIGAND FREE ENERGY PREDICTED BY IDOCK:   -0.53 KCAL/MOL
REMARK 927      BINDING AFFINITY PREDICTED BY RF-SCORE:    0.00 PKD
ROOT
HETATM    1  C   UNL     1      -9.889   4.280  67.810  1.00  0.00    -0.074 C  
HETATM    2  O   UNL     1      -9.884   4.777  66.474  1.00  0.00    -0.173 OA 
ENDROOT
BRANCH   2   3
HETATM    3  C   UNL     1      -9.766   6.136  66.367  1.00  0.00    -0.110 A  
HETATM    4  C   UNL     1     -10.623   7.054  66.969  1.00  0.00    -0.412 A  
HETATM    5  C   UNL     1     -10.429   8.426  66.789  1.00  0.00    -0.315 A  
HETATM    6  C   UNL     1      -9.374   8.912  66.004  1.00  0.00    -0.306 A  
HETATM    7  C   UNL     1      -8.684   6.602  65.626  1.00  0.00    -0.093 A  
HETATM    8  C   UNL     1      -8.494   7.977  65.436  1.00  0.00    -0.155 A  
BRANCH   6   9
HETATM    9  C   UNL     1      -9.164  10.392  65.741  1.00  0.00    -0.210 C  
HETATM   10  C   UNL     1     -10.299  11.101  65.008  1.00  0.00    -0.301 C  
HETATM   11  O   UNL     1     -10.754  10.852  63.905  1.00  0.00    -0.339 OA 
HETATM   12  C   UNL     1     -10.802  12.184  65.850  1.00  0.00    -0.316 A  
HETATM   13  C   UNL     1     -11.845  13.056  65.597  1.00  0.00    -0.445 A  
HETATM   14  C   UNL     1     -12.132  14.018  66.571  1.00  0.00    -0.488 A  
HETATM   15  C   UNL     1     -11.382  14.085  67.761  1.00  0.00    -0.328 A  
HETATM   16  C   UNL     1     -10.332  13.193  67.996  1.00  0.00    -0.240 A  
HETATM   17  C   UNL     1     -10.065  12.249  67.022  1.00  0.00    -0.225 A  
HETATM   18  C   UNL     1      -9.035  11.211  67.020  1.00  0.00    -0.154 C  
HETATM   19  O   UNL     1      -8.213  11.089  67.910  1.00  0.00    -0.114 OA 
ENDBRANCH   6   9
ENDBRANCH   2   3
TORSDOF 2
ENDMDL
MODEL       83
REMARK 921   NORMALIZED FREE ENERGY PREDICTED BY IDOCK:   -4.23 KCAL/MOL
REMARK 922        TOTAL FREE ENERGY PREDICTED BY IDOCK:   -5.28 KCAL/MOL
REMARK 923 INTER-LIGAND FREE ENERGY PREDICTED BY IDOCK:   -4.91 KCAL/MOL
REMARK 924 INTRA-LIGAND FREE ENERGY PREDICTED BY IDOCK:   -0.37 KCAL/MOL
REMARK 927      BINDING AFFINITY PREDICTED BY RF-SCORE:    0.00 PKD
ROOT
HETATM    1  C   UNL     1      -6.989  10.314  69.839  1.00  0.00    -0.142 C  
HETATM    2  O   UNL     1      -8.066  10.599  68.949  1.00  0.00    -0.122 OA 
ENDROOT
BRANCH   2   3
HETATM    3  C   UNL     1      -8.093  11.880  68.470  1.00  0.00    -0.130 A  
HETATM    4  C   UNL     1      -9.252  12.576  68.138  1.00  0.00    -0.209 A  
HETATM    5  C   UNL     1      -9.177  13.880  67.641  1.00  0.00    -0.199 A  
HETATM    6  C   UNL     1      -7.941  14.518  67.466  1.00  0.00    -0.208 A  
HETATM    7  C   UNL     1      -6.861  12.517  68.349  1.00  0.00    -0.085 A  
HETATM    8  C   UNL     1      -6.783  13.820  67.842  1.00  0.00    -0.162 A  
BRANCH   6   9
HETATM    9  C   UNL     1      -7.816  15.912  66.878  1.00  0.00    -0.282 C  
HETATM   10  C   UNL     1      -9.026  16.411  66.095  1.00  0.00    -0.332 C  
HETATM   11  O   UNL     1      -9.539  15.915  65.106  1.00  0.00    -0.284 OA 
HETATM   12  C   UNL     1      -9.523  17.635  66.719  1.00  0.00    -0.285 A  
HETATM   13  C   UNL     1     -10.619  18.399  66.362  1.00  0.00    -0.342 A  
HETATM   14  C   UNL     1     -10.887  19.539  67.126  1.00  0.00    -0.555 A  
HETATM   15  C   UNL     1     -10.066  19.885  68.217  1.00  0.00    -0.571 A  
HETATM   16  C   UNL     1      -8.964  19.097  68.561  1.00  0.00    -0.406 A  
HETATM   17  C   UNL     1      -8.717  17.973  67.794  1.00  0.00    -0.251 A  
HETATM   18  C   UNL     1      -7.644  16.992  67.940  1.00  0.00    -0.173 C  
HETATM   19  O   UNL     1      -6.762  17.090  68.775  1.00  0.00    -0.172 OA 
ENDBRANCH   6   9
ENDBRANCH   2   3
TORSDOF 2
ENDMDL
MODEL       84
REMARK 921   NORMALIZED FREE ENERGY PREDICTED BY IDOCK:   -4.19 KCAL/MOL
REMARK 922        TOTAL FREE ENERGY PREDICTED BY IDOCK:   -5.24 KCAL/MOL
REMARK 923 INTER-LIGAND FREE ENERGY PREDICTED BY IDOCK:   -4.76 KCAL/MOL
REMARK 924 INTRA-LIGAND FREE ENERGY PREDICTED BY IDOCK:   -0.47 KCAL/MOL
REMARK 927      BINDING AFFINITY PREDICTED BY RF-SCORE:    0.00 PKD
ROOT
HETATM    1  C   UNL     1     -12.607  12.678  70.947  1.00  0.00    -0.249 C  
HETATM    2  O   UNL     1     -12.903  11.624  71.860  1.00  0.00    -0.364 OA 
ENDROOT
BRANCH   2   3
HETATM    3  C   UNL     1     -12.501  10.381  71.452  1.00  0.00    -0.415 A  
HETATM    4  C   UNL     1     -11.301  10.113  70.799  1.00  0.00    -0.436 A  
HETATM    5  C   UNL     1     -10.984   8.809  70.408  1.00  0.00    -0.262 A  
HETATM    6  C   UNL     1     -11.858   7.744  70.662  1.00  0.00    -0.142 A  
HETATM    7  C   UNL     1     -13.358   9.327  71.757  1.00  0.00    -0.477 A  
HETATM    8  C   UNL     1     -13.046   8.022  71.357  1.00  0.00    -0.265 A  
BRANCH   6   9
HETATM    9  C   UNL     1     -11.575   6.325  70.205  1.00  0.00    -0.385 C  
HETATM   10  C   UNL     1     -10.770   6.194  68.915  1.00  0.00    -0.312 C  
HETATM   11  O   UNL     1     -11.049   6.618  67.807  1.00  0.00    -0.285 OA 
HETATM   12  C   UNL     1      -9.544   5.450  69.195  1.00  0.00    -0.193 A  
HETATM   13  C   UNL     1      -8.513   5.133  68.330  1.00  0.00    -0.095 A  
HETATM   14  C   UNL     1      -7.438   4.403  68.847  1.00  0.00    -0.056 A  
HETATM   15  C   UNL     1      -7.417   4.010  70.199  1.00  0.00    -0.045 A  
HETATM   16  C   UNL     1      -8.470   4.342  71.056  1.00  0.00    -0.103 A  
HETATM   17  C   UNL     1      -9.522   5.067  70.527  1.00  0.00    -0.236 A  
HETATM   18  C   UNL     1     -10.731   5.536  71.200  1.00  0.00    -0.210 C  
HETATM   19  O   UNL     1     -10.986   5.282  72.364  1.00  0.00    -0.232 OA 
ENDBRANCH   6   9
ENDBRANCH   2   3
TORSDOF 2
ENDMDL
MODEL       85
REMARK 921   NORMALIZED FREE ENERGY PREDICTED BY IDOCK:   -4.18 KCAL/MOL
REMARK 922        TOTAL FREE ENERGY PREDICTED BY IDOCK:   -5.23 KCAL/MOL
REMARK 923 INTER-LIGAND FREE ENERGY PREDICTED BY IDOCK:   -4.71 KCAL/MOL
REMARK 924 INTRA-LIGAND FREE ENERGY PREDICTED BY IDOCK:   -0.52 KCAL/MOL
REMARK 927      BINDING AFFINITY PREDICTED BY RF-SCORE:    0.00 PKD
ROOT
HETATM    1  C   UNL     1      -5.154  12.095  71.372  1.00  0.00    -0.095 C  
HETATM    2  O   UNL     1      -5.193  12.566  70.026  1.00  0.00    -0.081 OA 
ENDROOT
BRANCH   2   3
HETATM    3  C   UNL     1      -6.375  12.345  69.374  1.00  0.00    -0.119 A  
HETATM    4  C   UNL     1      -6.942  13.216  68.447  1.00  0.00    -0.104 A  
HETATM    5  C   UNL     1      -8.164  12.909  67.843  1.00  0.00    -0.165 A  
HETATM    6  C   UNL     1      -8.847  11.725  68.150  1.00  0.00    -0.169 A  
HETATM    7  C   UNL     1      -7.016  11.141  69.653  1.00  0.00    -0.088 A  
HETATM    8  C   UNL     1      -8.245  10.837  69.056  1.00  0.00    -0.139 A  
BRANCH   6   9
HETATM    9  C   UNL     1     -10.201  11.383  67.556  1.00  0.00    -0.210 C  
HETATM   10  C   UNL     1     -11.164  12.554  67.387  1.00  0.00    -0.293 C  
HETATM   11  O   UNL     1     -11.601  13.300  68.247  1.00  0.00    -0.290 OA 
HETATM   12  C   UNL     1     -11.518  12.676  65.974  1.00  0.00    -0.414 A  
HETATM   13  C   UNL     1     -12.330  13.617  65.369  1.00  0.00    -0.510 A  
HETATM   14  C   UNL     1     -12.515  13.517  63.987  1.00  0.00    -0.294 A  
HETATM   15  C   UNL     1     -11.892  12.492  63.249  1.00  0.00    -0.498 A  
HETATM   16  C   UNL     1     -11.073  11.551  63.881  1.00  0.00    -0.458 A  
HETATM   17  C   UNL     1     -10.902  11.670  65.248  1.00  0.00    -0.340 A  
HETATM   18  C   UNL     1     -10.107  10.827  66.140  1.00  0.00    -0.242 C  
HETATM   19  O   UNL     1      -9.510   9.835  65.761  1.00  0.00    -0.199 OA 
ENDBRANCH   6   9
ENDBRANCH   2   3
TORSDOF 2
ENDMDL
MODEL       86
REMARK 921   NORMALIZED FREE ENERGY PREDICTED BY IDOCK:   -4.18 KCAL/MOL
REMARK 922        TOTAL FREE ENERGY PREDICTED BY IDOCK:   -5.22 KCAL/MOL
REMARK 923 INTER-LIGAND FREE ENERGY PREDICTED BY IDOCK:   -5.15 KCAL/MOL
REMARK 924 INTRA-LIGAND FREE ENERGY PREDICTED BY IDOCK:   -0.07 KCAL/MOL
REMARK 927      BINDING AFFINITY PREDICTED BY RF-SCORE:    0.00 PKD
ROOT
HETATM    1  C   UNL     1     -11.993  15.306  72.571  1.00  0.00    -0.424 C  
HETATM    2  O   UNL     1     -12.821  14.146  72.587  1.00  0.00    -0.384 OA 
ENDROOT
BRANCH   2   3
HETATM    3  C   UNL     1     -12.555  13.236  71.601  1.00  0.00    -0.154 A  
HETATM    4  C   UNL     1     -12.804  11.869  71.698  1.00  0.00    -0.417 A  
HETATM    5  C   UNL     1     -12.483  11.015  70.640  1.00  0.00    -0.465 A  
HETATM    6  C   UNL     1     -11.908  11.507  69.461  1.00  0.00    -0.419 A  
HETATM    7  C   UNL     1     -12.030  13.748  70.418  1.00  0.00    -0.385 A  
HETATM    8  C   UNL     1     -11.699  12.892  69.360  1.00  0.00    -0.382 A  
BRANCH   6   9
HETATM    9  C   UNL     1     -11.495  10.604  68.312  1.00  0.00    -0.318 C  
HETATM   10  C   UNL     1     -10.772  11.291  67.158  1.00  0.00    -0.253 C  
HETATM   11  O   UNL     1     -11.175  12.199  66.451  1.00  0.00    -0.298 OA 
HETATM   12  C   UNL     1      -9.453  10.684  66.998  1.00  0.00    -0.187 A  
HETATM   13  C   UNL     1      -8.454  11.020  66.102  1.00  0.00    -0.168 A  
HETATM   14  C   UNL     1      -7.270  10.278  66.147  1.00  0.00    -0.121 A  
HETATM   15  C   UNL     1      -7.110   9.231  67.076  1.00  0.00    -0.086 A  
HETATM   16  C   UNL     1      -8.133   8.909  67.973  1.00  0.00    -0.106 A  
HETATM   17  C   UNL     1      -9.295   9.656  67.913  1.00  0.00    -0.141 A  
HETATM   18  C   UNL     1     -10.500   9.527  68.730  1.00  0.00    -0.219 C  
HETATM   19  O   UNL     1     -10.644   8.659  69.572  1.00  0.00    -0.223 OA 
ENDBRANCH   6   9
ENDBRANCH   2   3
TORSDOF 2
ENDMDL
MODEL       87
REMARK 921   NORMALIZED FREE ENERGY PREDICTED BY IDOCK:   -4.17 KCAL/MOL
REMARK 922        TOTAL FREE ENERGY PREDICTED BY IDOCK:   -5.21 KCAL/MOL
REMARK 923 INTER-LIGAND FREE ENERGY PREDICTED BY IDOCK:   -4.66 KCAL/MOL
REMARK 924 INTRA-LIGAND FREE ENERGY PREDICTED BY IDOCK:   -0.55 KCAL/MOL
REMARK 927      BINDING AFFINITY PREDICTED BY RF-SCORE:    0.00 PKD
ROOT
HETATM    1  C   UNL     1     -11.300  14.238  66.507  1.00  0.00    -0.346 C  
HETATM    2  O   UNL     1      -9.911  13.918  66.538  1.00  0.00    -0.273 OA 
ENDROOT
BRANCH   2   3
HETATM    3  C   UNL     1      -9.611  12.720  67.127  1.00  0.00    -0.219 A  
HETATM    4  C   UNL     1      -8.445  11.994  66.893  1.00  0.00    -0.172 A  
HETATM    5  C   UNL     1      -8.235  10.769  67.532  1.00  0.00    -0.112 A  
HETATM    6  C   UNL     1      -9.183  10.243  68.420  1.00  0.00    -0.136 A  
HETATM    7  C   UNL     1     -10.540  12.235  68.043  1.00  0.00    -0.235 A  
HETATM    8  C   UNL     1     -10.335  11.003  68.677  1.00  0.00    -0.209 A  
BRANCH   6   9
HETATM    9  C   UNL     1      -9.015   8.892  69.090  1.00  0.00    -0.140 C  
HETATM   10  C   UNL     1      -8.821   8.924  70.603  1.00  0.00    -0.198 C  
HETATM   11  O   UNL     1      -7.939   9.477  71.237  1.00  0.00    -0.296 OA 
HETATM   12  C   UNL     1      -9.894   8.160  71.235  1.00  0.00    -0.207 A  
HETATM   13  C   UNL     1     -10.128   7.958  72.583  1.00  0.00    -0.343 A  
HETATM   14  C   UNL     1     -11.234   7.177  72.936  1.00  0.00    -0.302 A  
HETATM   15  C   UNL     1     -12.070   6.624  71.948  1.00  0.00    -0.385 A  
HETATM   16  C   UNL     1     -11.815   6.842  70.590  1.00  0.00    -0.442 A  
HETATM   17  C   UNL     1     -10.719   7.618  70.262  1.00  0.00    -0.244 A  
HETATM   18  C   UNL     1     -10.237   7.994  68.935  1.00  0.00    -0.209 C  
HETATM   19  O   UNL     1     -10.751   7.598  67.904  1.00  0.00    -0.189 OA 
ENDBRANCH   6   9
ENDBRANCH   2   3
TORSDOF 2
ENDMDL
MODEL       88
REMARK 921   NORMALIZED FREE ENERGY PREDICTED BY IDOCK:   -4.16 KCAL/MOL
REMARK 922        TOTAL FREE ENERGY PREDICTED BY IDOCK:   -5.20 KCAL/MOL
REMARK 923 INTER-LIGAND FREE ENERGY PREDICTED BY IDOCK:   -4.68 KCAL/MOL
REMARK 924 INTRA-LIGAND FREE ENERGY PREDICTED BY IDOCK:   -0.52 KCAL/MOL
REMARK 927      BINDING AFFINITY PREDICTED BY RF-SCORE:    0.00 PKD
ROOT
HETATM    1  C   UNL     1      -7.602   1.835  70.672  1.00  0.00    -0.036 C  
HETATM    2  O   UNL     1      -7.995   2.771  69.671  1.00  0.00    -0.043 OA 
ENDROOT
BRANCH   2   3
HETATM    3  C   UNL     1      -8.382   3.994  70.148  1.00  0.00    -0.060 A  
HETATM    4  C   UNL     1      -9.644   4.552  69.962  1.00  0.00    -0.267 A  
HETATM    5  C   UNL     1      -9.941   5.817  70.477  1.00  0.00    -0.252 A  
HETATM    6  C   UNL     1      -8.985   6.552  71.190  1.00  0.00    -0.145 A  
HETATM    7  C   UNL     1      -7.436   4.689  70.897  1.00  0.00    -0.056 A  
HETATM    8  C   UNL     1      -7.729   5.960  71.405  1.00  0.00    -0.107 A  
BRANCH   6   9
HETATM    9  C   UNL     1      -9.252   7.950  71.717  1.00  0.00    -0.194 C  
HETATM   10  C   UNL     1      -9.340   9.048  70.662  1.00  0.00    -0.234 C  
HETATM   11  O   UNL     1      -8.490   9.390  69.858  1.00  0.00    -0.141 OA 
HETATM   12  C   UNL     1     -10.656   9.679  70.744  1.00  0.00    -0.392 A  
HETATM   13  C   UNL     1     -11.176  10.690  69.956  1.00  0.00    -0.382 A  
HETATM   14  C   UNL     1     -12.474  11.125  70.239  1.00  0.00    -0.354 A  
HETATM   15  C   UNL     1     -13.215  10.549  71.289  1.00  0.00    -0.399 A  
HETATM   16  C   UNL     1     -12.670   9.527  72.072  1.00  0.00    -0.479 A  
HETATM   17  C   UNL     1     -11.386   9.109  71.774  1.00  0.00    -0.451 A  
HETATM   18  C   UNL     1     -10.594   8.071  72.430  1.00  0.00    -0.307 C  
HETATM   19  O   UNL     1     -10.983   7.454  73.407  1.00  0.00    -0.378 OA 
ENDBRANCH   6   9
ENDBRANCH   2   3
TORSDOF 2
ENDMDL
MODEL       89
REMARK 921   NORMALIZED FREE ENERGY PREDICTED BY IDOCK:   -4.15 KCAL/MOL
REMARK 922        TOTAL FREE ENERGY PREDICTED BY IDOCK:   -5.20 KCAL/MOL
REMARK 923 INTER-LIGAND FREE ENERGY PREDICTED BY IDOCK:   -4.90 KCAL/MOL
REMARK 924 INTRA-LIGAND FREE ENERGY PREDICTED BY IDOCK:   -0.30 KCAL/MOL
REMARK 927      BINDING AFFINITY PREDICTED BY RF-SCORE:    0.00 PKD
ROOT
HETATM    1  C   UNL     1     -13.354  13.489  72.386  1.00  0.00    -0.540 C  
HETATM    2  O   UNL     1     -13.765  12.606  71.345  1.00  0.00     0.158 OA 
ENDROOT
BRANCH   2   3
HETATM    3  C   UNL     1     -12.885  11.596  71.068  1.00  0.00    -0.245 A  
HETATM    4  C   UNL     1     -11.951  11.620  70.035  1.00  0.00    -0.429 A  
HETATM    5  C   UNL     1     -11.103  10.530  69.822  1.00  0.00    -0.354 A  
HETATM    6  C   UNL     1     -11.167   9.392  70.636  1.00  0.00    -0.345 A  
HETATM    7  C   UNL     1     -12.928  10.494  71.917  1.00  0.00    -0.553 A  
HETATM    8  C   UNL     1     -12.086   9.396  71.699  1.00  0.00    -0.462 A  
BRANCH   6   9
HETATM    9  C   UNL     1     -10.301   8.168  70.402  1.00  0.00    -0.208 C  
HETATM   10  C   UNL     1     -10.986   6.998  69.702  1.00  0.00    -0.236 C  
HETATM   11  O   UNL     1     -11.969   6.375  70.064  1.00  0.00    -0.333 OA 
HETATM   12  C   UNL     1     -10.267   6.700  68.465  1.00  0.00    -0.185 A  
HETATM   13  C   UNL     1     -10.561   5.746  67.508  1.00  0.00    -0.327 A  
HETATM   14  C   UNL     1      -9.708   5.657  66.403  1.00  0.00    -0.180 A  
HETATM   15  C   UNL     1      -8.596   6.512  66.280  1.00  0.00    -0.141 A  
HETATM   16  C   UNL     1      -8.318   7.470  67.260  1.00  0.00    -0.118 A  
HETATM   17  C   UNL     1      -9.175   7.544  68.343  1.00  0.00    -0.139 A  
HETATM   18  C   UNL     1      -9.111   8.446  69.491  1.00  0.00    -0.153 C  
HETATM   19  O   UNL     1      -8.211   9.249  69.657  1.00  0.00    -0.107 OA 
ENDBRANCH   6   9
ENDBRANCH   2   3
TORSDOF 2
ENDMDL
MODEL       90
REMARK 921   NORMALIZED FREE ENERGY PREDICTED BY IDOCK:   -4.14 KCAL/MOL
REMARK 922        TOTAL FREE ENERGY PREDICTED BY IDOCK:   -5.18 KCAL/MOL
REMARK 923 INTER-LIGAND FREE ENERGY PREDICTED BY IDOCK:   -4.63 KCAL/MOL
REMARK 924 INTRA-LIGAND FREE ENERGY PREDICTED BY IDOCK:   -0.54 KCAL/MOL
REMARK 927      BINDING AFFINITY PREDICTED BY RF-SCORE:    0.00 PKD
ROOT
HETATM    1  C   UNL     1     -12.905  11.800  64.277  1.00  0.00     0.168 C  
HETATM    2  O   UNL     1     -12.880  12.410  65.565  1.00  0.00    -0.402 OA 
ENDROOT
BRANCH   2   3
HETATM    3  C   UNL     1     -11.915  13.366  65.729  1.00  0.00    -0.407 A  
HETATM    4  C   UNL     1     -11.755  14.141  66.875  1.00  0.00    -0.437 A  
HETATM    5  C   UNL     1     -10.746  15.105  66.943  1.00  0.00    -0.308 A  
HETATM    6  C   UNL     1      -9.873  15.317  65.867  1.00  0.00    -0.385 A  
HETATM    7  C   UNL     1     -11.025  13.529  64.671  1.00  0.00    -0.395 A  
HETATM    8  C   UNL     1     -10.020  14.502  64.733  1.00  0.00     0.048 A  
BRANCH   6   9
HETATM    9  C   UNL     1      -8.801  16.391  65.882  1.00  0.00    -0.170 C  
HETATM   10  C   UNL     1      -9.264  17.781  66.309  1.00  0.00    -0.182 C  
HETATM   11  O   UNL     1     -10.120  18.481  65.795  1.00  0.00    -0.537 OA 
HETATM   12  C   UNL     1      -8.502  18.193  67.486  1.00  0.00    -0.248 A  
HETATM   13  C   UNL     1      -8.618  19.358  68.222  1.00  0.00    -0.376 A  
HETATM   14  C   UNL     1      -7.763  19.518  69.316  1.00  0.00    -0.194 A  
HETATM   15  C   UNL     1      -6.822  18.523  69.648  1.00  0.00    -0.001 A  
HETATM   16  C   UNL     1      -6.722  17.353  68.890  1.00  0.00    -0.226 A  
HETATM   17  C   UNL     1      -7.579  17.212  67.814  1.00  0.00    -0.185 A  
HETATM   18  C   UNL     1      -7.680  16.099  66.872  1.00  0.00    -0.249 C  
HETATM   19  O   UNL     1      -6.938  15.133  66.903  1.00  0.00    -0.148 OA 
ENDBRANCH   6   9
ENDBRANCH   2   3
TORSDOF 2
ENDMDL
MODEL       91
REMARK 921   NORMALIZED FREE ENERGY PREDICTED BY IDOCK:   -4.14 KCAL/MOL
REMARK 922        TOTAL FREE ENERGY PREDICTED BY IDOCK:   -5.18 KCAL/MOL
REMARK 923 INTER-LIGAND FREE ENERGY PREDICTED BY IDOCK:   -4.63 KCAL/MOL
REMARK 924 INTRA-LIGAND FREE ENERGY PREDICTED BY IDOCK:   -0.54 KCAL/MOL
REMARK 927      BINDING AFFINITY PREDICTED BY RF-SCORE:    0.00 PKD
ROOT
HETATM    1  C   UNL     1      -9.829  10.829  63.816  1.00  0.00    -0.339 C  
HETATM    2  O   UNL     1      -9.655   9.653  64.603  1.00  0.00    -0.247 OA 
ENDROOT
BRANCH   2   3
HETATM    3  C   UNL     1      -9.829   9.831  65.949  1.00  0.00    -0.282 A  
HETATM    4  C   UNL     1      -9.747  11.059  66.600  1.00  0.00    -0.226 A  
HETATM    5  C   UNL     1      -9.926  11.139  67.984  1.00  0.00    -0.190 A  
HETATM    6  C   UNL     1     -10.193   9.995  68.747  1.00  0.00    -0.201 A  
HETATM    7  C   UNL     1     -10.143   8.692  66.684  1.00  0.00    -0.364 A  
HETATM    8  C   UNL     1     -10.314   8.769  68.072  1.00  0.00    -0.273 A  
BRANCH   6   9
HETATM    9  C   UNL     1     -10.340  10.033  70.257  1.00  0.00    -0.301 C  
HETATM   10  C   UNL     1     -11.570   9.327  70.820  1.00  0.00    -0.285 C  
HETATM   11  O   UNL     1     -12.743   9.558  70.586  1.00  0.00    -0.125 OA 
HETATM   12  C   UNL     1     -11.134   8.274  71.735  1.00  0.00    -0.342 A  
HETATM   13  C   UNL     1     -11.909   7.368  72.436  1.00  0.00    -0.273 A  
HETATM   14  C   UNL     1     -11.246   6.450  73.255  1.00  0.00    -0.035 A  
HETATM   15  C   UNL     1      -9.842   6.456  73.355  1.00  0.00    -0.190 A  
HETATM   16  C   UNL     1      -9.077   7.380  72.637  1.00  0.00    -0.181 A  
HETATM   17  C   UNL     1      -9.752   8.278  71.830  1.00  0.00    -0.278 A  
HETATM   18  C   UNL     1      -9.197   9.333  70.984  1.00  0.00    -0.202 C  
HETATM   19  O   UNL     1      -8.007   9.587  70.932  1.00  0.00    -0.297 OA 
ENDBRANCH   6   9
ENDBRANCH   2   3
TORSDOF 2
ENDMDL
MODEL       92
REMARK 921   NORMALIZED FREE ENERGY PREDICTED BY IDOCK:   -4.13 KCAL/MOL
REMARK 922        TOTAL FREE ENERGY PREDICTED BY IDOCK:   -5.17 KCAL/MOL
REMARK 923 INTER-LIGAND FREE ENERGY PREDICTED BY IDOCK:   -4.67 KCAL/MOL
REMARK 924 INTRA-LIGAND FREE ENERGY PREDICTED BY IDOCK:   -0.50 KCAL/MOL
REMARK 927      BINDING AFFINITY PREDICTED BY RF-SCORE:    0.00 PKD
ROOT
HETATM    1  C   UNL     1     -13.157  14.241  71.381  1.00  0.00    -0.351 C  
HETATM    2  O   UNL     1     -13.655  13.000  71.876  1.00  0.00    -0.427 OA 
ENDROOT
BRANCH   2   3
HETATM    3  C   UNL     1     -12.947  11.898  71.479  1.00  0.00    -0.323 A  
HETATM    4  C   UNL     1     -13.066  10.634  72.050  1.00  0.00    -0.501 A  
HETATM    5  C   UNL     1     -12.288   9.571  71.584  1.00  0.00    -0.480 A  
HETATM    6  C   UNL     1     -11.375   9.746  70.536  1.00  0.00    -0.382 A  
HETATM    7  C   UNL     1     -12.081  12.078  70.404  1.00  0.00    -0.407 A  
HETATM    8  C   UNL     1     -11.294  11.016  69.942  1.00  0.00    -0.364 A  
BRANCH   6   9
HETATM    9  C   UNL     1     -10.474   8.631  70.040  1.00  0.00    -0.229 C  
HETATM   10  C   UNL     1     -10.141   8.663  68.551  1.00  0.00    -0.190 C  
HETATM   11  O   UNL     1     -10.910   8.618  67.607  1.00  0.00    -0.180 OA 
HETATM   12  C   UNL     1      -8.691   8.760  68.392  1.00  0.00    -0.135 A  
HETATM   13  C   UNL     1      -7.959   8.853  67.223  1.00  0.00    -0.097 A  
HETATM   14  C   UNL     1      -6.568   8.934  67.338  1.00  0.00    -0.061 A  
HETATM   15  C   UNL     1      -5.947   8.922  68.602  1.00  0.00    -0.045 A  
HETATM   16  C   UNL     1      -6.707   8.829  69.771  1.00  0.00    -0.045 A  
HETATM   17  C   UNL     1      -8.081   8.752  69.636  1.00  0.00    -0.101 A  
HETATM   18  C   UNL     1      -9.093   8.649  70.686  1.00  0.00    -0.171 C  
HETATM   19  O   UNL     1      -8.817   8.562  71.869  1.00  0.00    -0.182 OA 
ENDBRANCH   6   9
ENDBRANCH   2   3
TORSDOF 2
ENDMDL
MODEL       93
REMARK 921   NORMALIZED FREE ENERGY PREDICTED BY IDOCK:   -4.13 KCAL/MOL
REMARK 922        TOTAL FREE ENERGY PREDICTED BY IDOCK:   -5.17 KCAL/MOL
REMARK 923 INTER-LIGAND FREE ENERGY PREDICTED BY IDOCK:   -4.73 KCAL/MOL
REMARK 924 INTRA-LIGAND FREE ENERGY PREDICTED BY IDOCK:   -0.44 KCAL/MOL
REMARK 927      BINDING AFFINITY PREDICTED BY RF-SCORE:    0.00 PKD
ROOT
HETATM    1  C   UNL     1     -11.648  15.910  68.227  1.00  0.00    -0.272 C  
HETATM    2  O   UNL     1     -11.839  14.902  67.236  1.00  0.00    -0.345 OA 
ENDROOT
BRANCH   2   3
HETATM    3  C   UNL     1     -11.091  13.771  67.415  1.00  0.00    -0.296 A  
HETATM    4  C   UNL     1      -9.751  13.761  67.796  1.00  0.00    -0.230 A  
HETATM    5  C   UNL     1      -9.065  12.551  67.939  1.00  0.00    -0.199 A  
HETATM    6  C   UNL     1      -9.703  11.325  67.707  1.00  0.00    -0.184 A  
HETATM    7  C   UNL     1     -11.752  12.561  67.229  1.00  0.00    -0.431 A  
HETATM    8  C   UNL     1     -11.064  11.348  67.363  1.00  0.00    -0.349 A  
BRANCH   6   9
HETATM    9  C   UNL     1      -8.978   9.995  67.799  1.00  0.00    -0.133 C  
HETATM   10  C   UNL     1      -9.130   9.250  69.122  1.00  0.00    -0.145 C  
HETATM   11  O   UNL     1      -8.819   9.628  70.239  1.00  0.00    -0.223 OA 
HETATM   12  C   UNL     1      -9.732   7.944  68.863  1.00  0.00    -0.158 A  
HETATM   13  C   UNL     1     -10.081   6.962  69.773  1.00  0.00    -0.196 A  
HETATM   14  C   UNL     1     -10.647   5.788  69.269  1.00  0.00    -0.376 A  
HETATM   15  C   UNL     1     -10.852   5.622  67.885  1.00  0.00    -0.171 A  
HETATM   16  C   UNL     1     -10.493   6.628  66.984  1.00  0.00    -0.369 A  
HETATM   17  C   UNL     1      -9.936   7.783  67.503  1.00  0.00    -0.242 A  
HETATM   18  C   UNL     1      -9.480   8.972  66.786  1.00  0.00    -0.182 C  
HETATM   19  O   UNL     1      -9.493   9.064  65.572  1.00  0.00    -0.228 OA 
ENDBRANCH   6   9
ENDBRANCH   2   3
TORSDOF 2
ENDMDL
MODEL       94
REMARK 921   NORMALIZED FREE ENERGY PREDICTED BY IDOCK:   -4.13 KCAL/MOL
REMARK 922        TOTAL FREE ENERGY PREDICTED BY IDOCK:   -5.16 KCAL/MOL
REMARK 923 INTER-LIGAND FREE ENERGY PREDICTED BY IDOCK:   -4.66 KCAL/MOL
REMARK 924 INTRA-LIGAND FREE ENERGY PREDICTED BY IDOCK:   -0.51 KCAL/MOL
REMARK 927      BINDING AFFINITY PREDICTED BY RF-SCORE:    0.00 PKD
ROOT
HETATM    1  C   UNL     1      -6.279   5.702  72.400  1.00  0.00    -0.040 C  
HETATM    2  O   UNL     1      -6.229   6.590  71.285  1.00  0.00    -0.039 OA 
ENDROOT
BRANCH   2   3
HETATM    3  C   UNL     1      -7.439   7.102  70.904  1.00  0.00    -0.080 A  
HETATM    4  C   UNL     1      -8.359   6.440  70.095  1.00  0.00    -0.134 A  
HETATM    5  C   UNL     1      -9.565   7.053  69.746  1.00  0.00    -0.151 A  
HETATM    6  C   UNL     1      -9.880   8.341  70.199  1.00  0.00    -0.184 A  
HETATM    7  C   UNL     1      -7.758   8.362  71.403  1.00  0.00    -0.116 A  
HETATM    8  C   UNL     1      -8.962   8.981  71.047  1.00  0.00    -0.304 A  
BRANCH   6   9
HETATM    9  C   UNL     1     -11.155   9.061  69.798  1.00  0.00    -0.117 C  
HETATM   10  C   UNL     1     -12.205   9.206  70.895  1.00  0.00    -0.183 C  
HETATM   11  O   UNL     1     -12.765   8.323  71.523  1.00  0.00    -0.309 OA 
HETATM   12  C   UNL     1     -12.472  10.626  71.111  1.00  0.00    -0.523 A  
HETATM   13  C   UNL     1     -13.323  11.212  72.031  1.00  0.00    -0.384 A  
HETATM   14  C   UNL     1     -13.404  12.608  72.037  1.00  0.00    -0.555 A  
HETATM   15  C   UNL     1     -12.642  13.378  71.137  1.00  0.00    -0.430 A  
HETATM   16  C   UNL     1     -11.787  12.765  70.216  1.00  0.00    -0.292 A  
HETATM   17  C   UNL     1     -11.720  11.384  70.228  1.00  0.00    -0.397 A  
HETATM   18  C   UNL     1     -10.915  10.507  69.380  1.00  0.00    -0.250 C  
HETATM   19  O   UNL     1     -10.207  10.920  68.478  1.00  0.00    -0.170 OA 
ENDBRANCH   6   9
ENDBRANCH   2   3
TORSDOF 2
ENDMDL
MODEL       95
REMARK 921   NORMALIZED FREE ENERGY PREDICTED BY IDOCK:   -4.12 KCAL/MOL
REMARK 922        TOTAL FREE ENERGY PREDICTED BY IDOCK:   -5.16 KCAL/MOL
REMARK 923 INTER-LIGAND FREE ENERGY PREDICTED BY IDOCK:   -4.63 KCAL/MOL
REMARK 924 INTRA-LIGAND FREE ENERGY PREDICTED BY IDOCK:   -0.53 KCAL/MOL
REMARK 927      BINDING AFFINITY PREDICTED BY RF-SCORE:    0.00 PKD
ROOT
HETATM    1  C   UNL     1      -5.151  13.790  72.331  1.00  0.00    -0.186 C  
HETATM    2  O   UNL     1      -5.454  13.197  71.070  1.00  0.00    -0.174 OA 
ENDROOT
BRANCH   2   3
HETATM    3  C   UNL     1      -5.884  14.074  70.111  1.00  0.00    -0.142 A  
HETATM    4  C   UNL     1      -6.974  14.929  70.254  1.00  0.00     0.081 A  
HETATM    5  C   UNL     1      -7.347  15.780  69.210  1.00  0.00    -0.216 A  
HETATM    6  C   UNL     1      -6.639  15.797  68.001  1.00  0.00    -0.147 A  
HETATM    7  C   UNL     1      -5.140  14.114  68.936  1.00  0.00    -0.080 A  
HETATM    8  C   UNL     1      -5.518  14.959  67.886  1.00  0.00    -0.112 A  
BRANCH   6   9
HETATM    9  C   UNL     1      -7.046  16.667  66.826  1.00  0.00    -0.271 C  
HETATM   10  C   UNL     1      -8.510  16.571  66.408  1.00  0.00    -0.321 C  
HETATM   11  O   UNL     1      -9.124  15.585  66.038  1.00  0.00    -0.326 OA 
HETATM   12  C   UNL     1      -9.120  17.894  66.513  1.00  0.00    -0.276 A  
HETATM   13  C   UNL     1     -10.432  18.258  66.269  1.00  0.00    -0.397 A  
HETATM   14  C   UNL     1     -10.771  19.604  66.441  1.00  0.00    -0.530 A  
HETATM   15  C   UNL     1      -9.805  20.544  66.850  1.00  0.00    -0.506 A  
HETATM   16  C   UNL     1      -8.485  20.154  67.092  1.00  0.00    -0.403 A  
HETATM   17  C   UNL     1      -8.171  18.818  66.918  1.00  0.00    -0.272 A  
HETATM   18  C   UNL     1      -6.881  18.157  67.103  1.00  0.00    -0.191 C  
HETATM   19  O   UNL     1      -5.863  18.757  67.401  1.00  0.00    -0.159 OA 
ENDBRANCH   6   9
ENDBRANCH   2   3
TORSDOF 2
ENDMDL
MODEL       96
REMARK 921   NORMALIZED FREE ENERGY PREDICTED BY IDOCK:   -4.12 KCAL/MOL
REMARK 922        TOTAL FREE ENERGY PREDICTED BY IDOCK:   -5.15 KCAL/MOL
REMARK 923 INTER-LIGAND FREE ENERGY PREDICTED BY IDOCK:   -4.59 KCAL/MOL
REMARK 924 INTRA-LIGAND FREE ENERGY PREDICTED BY IDOCK:   -0.57 KCAL/MOL
REMARK 927      BINDING AFFINITY PREDICTED BY RF-SCORE:    0.00 PKD
ROOT
HETATM    1  C   UNL     1      -5.864   9.700  67.734  1.00  0.00    -0.044 C  
HETATM    2  O   UNL     1      -6.943   9.321  66.882  1.00  0.00    -0.080 OA 
ENDROOT
BRANCH   2   3
HETATM    3  C   UNL     1      -7.992  10.199  66.858  1.00  0.00    -0.114 A  
HETATM    4  C   UNL     1      -9.275   9.887  66.417  1.00  0.00    -0.195 A  
HETATM    5  C   UNL     1     -10.280  10.859  66.416  1.00  0.00    -0.289 A  
HETATM    6  C   UNL     1     -10.025  12.164  66.858  1.00  0.00    -0.217 A  
HETATM    7  C   UNL     1      -7.735  11.477  67.347  1.00  0.00    -0.143 A  
HETATM    8  C   UNL     1      -8.737  12.455  67.338  1.00  0.00    -0.183 A  
BRANCH   6   9
HETATM    9  C   UNL     1     -11.074  13.260  66.821  1.00  0.00    -0.313 C  
HETATM   10  C   UNL     1     -11.345  13.960  68.149  1.00  0.00    -0.295 C  
HETATM   11  O   UNL     1     -11.732  13.467  69.195  1.00  0.00    -0.284 OA 
HETATM   12  C   UNL     1     -11.066  15.387  67.998  1.00  0.00    -0.312 A  
HETATM   13  C   UNL     1     -11.141  16.384  68.954  1.00  0.00    -0.328 A  
HETATM   14  C   UNL     1     -10.821  17.685  68.555  1.00  0.00    -0.075 A  
HETATM   15  C   UNL     1     -10.436  17.958  67.228  1.00  0.00    -0.373 A  
HETATM   16  C   UNL     1     -10.365  16.935  66.279  1.00  0.00    -0.312 A  
HETATM   17  C   UNL     1     -10.684  15.654  66.694  1.00  0.00    -0.296 A  
HETATM   18  C   UNL     1     -10.690  14.421  65.910  1.00  0.00    -0.306 C  
HETATM   19  O   UNL     1     -10.449  14.390  64.716  1.00  0.00    -0.430 OA 
ENDBRANCH   6   9
ENDBRANCH   2   3
TORSDOF 2
ENDMDL
MODEL       97
REMARK 921   NORMALIZED FREE ENERGY PREDICTED BY IDOCK:   -4.10 KCAL/MOL
REMARK 922        TOTAL FREE ENERGY PREDICTED BY IDOCK:   -5.13 KCAL/MOL
REMARK 923 INTER-LIGAND FREE ENERGY PREDICTED BY IDOCK:   -4.59 KCAL/MOL
REMARK 924 INTRA-LIGAND FREE ENERGY PREDICTED BY IDOCK:   -0.55 KCAL/MOL
REMARK 927      BINDING AFFINITY PREDICTED BY RF-SCORE:    0.00 PKD
ROOT
HETATM    1  C   UNL     1      -8.114   9.146  62.340  1.00  0.00    -0.139 C  
HETATM    2  O   UNL     1      -9.210  10.030  62.565  1.00  0.00    -0.271 OA 
ENDROOT
BRANCH   2   3
HETATM    3  C   UNL     1      -9.292  10.531  63.836  1.00  0.00    -0.275 A  
HETATM    4  C   UNL     1     -10.372  11.258  64.331  1.00  0.00    -0.388 A  
HETATM    5  C   UNL     1     -10.357  11.741  65.642  1.00  0.00    -0.293 A  
HETATM    6  C   UNL     1      -9.265  11.509  66.488  1.00  0.00    -0.203 A  
HETATM    7  C   UNL     1      -8.221  10.248  64.678  1.00  0.00    -0.161 A  
HETATM    8  C   UNL     1      -8.200  10.740  65.989  1.00  0.00    -0.164 A  
BRANCH   6   9
HETATM    9  C   UNL     1      -9.188  12.064  67.899  1.00  0.00    -0.190 C  
HETATM   10  C   UNL     1      -9.216  13.585  68.013  1.00  0.00    -0.209 C  
HETATM   11  O   UNL     1      -8.439  14.390  67.531  1.00  0.00    -0.167 OA 
HETATM   12  C   UNL     1     -10.366  13.977  68.826  1.00  0.00    -0.225 A  
HETATM   13  C   UNL     1     -10.792  15.252  69.154  1.00  0.00    -0.250 A  
HETATM   14  C   UNL     1     -11.933  15.364  69.955  1.00  0.00    -0.384 A  
HETATM   15  C   UNL     1     -12.614  14.216  70.404  1.00  0.00    -0.397 A  
HETATM   16  C   UNL     1     -12.166  12.938  70.059  1.00  0.00    -0.292 A  
HETATM   17  C   UNL     1     -11.038  12.848  69.265  1.00  0.00    -0.192 A  
HETATM   18  C   UNL     1     -10.370  11.647  68.767  1.00  0.00    -0.195 C  
HETATM   19  O   UNL     1     -10.727  10.519  69.058  1.00  0.00    -0.196 OA 
ENDBRANCH   6   9
ENDBRANCH   2   3
TORSDOF 2
ENDMDL
MODEL       98
REMARK 921   NORMALIZED FREE ENERGY PREDICTED BY IDOCK:   -4.09 KCAL/MOL
REMARK 922        TOTAL FREE ENERGY PREDICTED BY IDOCK:   -5.12 KCAL/MOL
REMARK 923 INTER-LIGAND FREE ENERGY PREDICTED BY IDOCK:   -4.58 KCAL/MOL
REMARK 924 INTRA-LIGAND FREE ENERGY PREDICTED BY IDOCK:   -0.54 KCAL/MOL
REMARK 927      BINDING AFFINITY PREDICTED BY RF-SCORE:    0.00 PKD
ROOT
HETATM    1  C   UNL     1     -10.720   6.322  66.592  1.00  0.00    -0.216 C  
HETATM    2  O   UNL     1      -9.483   6.957  66.277  1.00  0.00    -0.155 OA 
ENDROOT
BRANCH   2   3
HETATM    3  C   UNL     1      -9.559   8.312  66.110  1.00  0.00    -0.147 A  
HETATM    4  C   UNL     1      -9.105   8.997  64.985  1.00  0.00    -0.171 A  
HETATM    5  C   UNL     1      -9.213  10.388  64.912  1.00  0.00    -0.263 A  
HETATM    6  C   UNL     1      -9.777  11.127  65.960  1.00  0.00    -0.263 A  
HETATM    7  C   UNL     1     -10.167   9.026  67.138  1.00  0.00    -0.334 A  
HETATM    8  C   UNL     1     -10.267  10.421  67.071  1.00  0.00    -0.277 A  
BRANCH   6   9
HETATM    9  C   UNL     1      -9.862  12.642  65.941  1.00  0.00    -0.251 C  
HETATM   10  C   UNL     1     -11.188  13.236  66.406  1.00  0.00    -0.302 C  
HETATM   11  O   UNL     1     -12.299  13.053  65.939  1.00  0.00    -0.439 OA 
HETATM   12  C   UNL     1     -10.942  14.106  67.554  1.00  0.00    -0.292 A  
HETATM   13  C   UNL     1     -11.858  14.815  68.309  1.00  0.00    -0.316 A  
HETATM   14  C   UNL     1     -11.365  15.585  69.366  1.00  0.00    -0.321 A  
HETATM   15  C   UNL     1      -9.985  15.629  69.643  1.00  0.00    -0.290 A  
HETATM   16  C   UNL     1      -9.076  14.904  68.867  1.00  0.00    -0.191 A  
HETATM   17  C   UNL     1      -9.584  14.147  67.828  1.00  0.00    -0.219 A  
HETATM   18  C   UNL     1      -8.859  13.306  66.878  1.00  0.00    -0.178 C  
HETATM   19  O   UNL     1      -7.644  13.213  66.864  1.00  0.00     0.047 OA 
ENDBRANCH   6   9
ENDBRANCH   2   3
TORSDOF 2
ENDMDL
MODEL       99
REMARK 921   NORMALIZED FREE ENERGY PREDICTED BY IDOCK:   -4.08 KCAL/MOL
REMARK 922        TOTAL FREE ENERGY PREDICTED BY IDOCK:   -5.11 KCAL/MOL
REMARK 923 INTER-LIGAND FREE ENERGY PREDICTED BY IDOCK:   -4.59 KCAL/MOL
REMARK 924 INTRA-LIGAND FREE ENERGY PREDICTED BY IDOCK:   -0.52 KCAL/MOL
REMARK 927      BINDING AFFINITY PREDICTED BY RF-SCORE:    0.00 PKD
ROOT
HETATM    1  C   UNL     1      -6.425  20.611  65.141  1.00  0.00    -0.255 C  
HETATM    2  O   UNL     1      -6.829  20.764  66.500  1.00  0.00    -0.266 OA 
ENDROOT
BRANCH   2   3
HETATM    3  C   UNL     1      -7.397  19.652  67.059  1.00  0.00    -0.214 A  
HETATM    4  C   UNL     1      -8.288  18.805  66.405  1.00  0.00    -0.294 A  
HETATM    5  C   UNL     1      -8.828  17.698  67.067  1.00  0.00    -0.256 A  
HETATM    6  C   UNL     1      -8.488  17.412  68.396  1.00  0.00    -0.263 A  
HETATM    7  C   UNL     1      -7.010  19.354  68.363  1.00  0.00    -0.323 A  
HETATM    8  C   UNL     1      -7.557  18.251  69.030  1.00  0.00    -0.161 A  
BRANCH   6   9
HETATM    9  C   UNL     1      -9.094  16.253  69.165  1.00  0.00    -0.230 C  
HETATM   10  C   UNL     1     -10.584  16.016  68.937  1.00  0.00    -0.257 C  
HETATM   11  O   UNL     1     -11.508  16.784  69.142  1.00  0.00    -0.073 OA 
HETATM   12  C   UNL     1     -10.774  14.666  68.411  1.00  0.00    -0.242 A  
HETATM   13  C   UNL     1     -11.952  14.049  68.031  1.00  0.00    -0.386 A  
HETATM   14  C   UNL     1     -11.868  12.737  67.555  1.00  0.00    -0.402 A  
HETATM   15  C   UNL     1     -10.626  12.078  67.470  1.00  0.00    -0.250 A  
HETATM   16  C   UNL     1      -9.448  12.722  67.859  1.00  0.00    -0.208 A  
HETATM   17  C   UNL     1      -9.552  14.020  68.324  1.00  0.00    -0.224 A  
HETATM   18  C   UNL     1      -8.486  14.906  68.788  1.00  0.00    -0.172 C  
HETATM   19  O   UNL     1      -7.321  14.560  68.869  1.00  0.00    -0.116 OA 
ENDBRANCH   6   9
ENDBRANCH   2   3
TORSDOF 2
ENDMDL
MODEL      100
REMARK 921   NORMALIZED FREE ENERGY PREDICTED BY IDOCK:   -4.08 KCAL/MOL
REMARK 922        TOTAL FREE ENERGY PREDICTED BY IDOCK:   -5.11 KCAL/MOL
REMARK 923 INTER-LIGAND FREE ENERGY PREDICTED BY IDOCK:   -4.58 KCAL/MOL
REMARK 924 INTRA-LIGAND FREE ENERGY PREDICTED BY IDOCK:   -0.52 KCAL/MOL
REMARK 927      BINDING AFFINITY PREDICTED BY RF-SCORE:    0.00 PKD
ROOT
HETATM    1  C   UNL     1      -9.275  12.760  68.372  1.00  0.00    -0.136 C  
HETATM    2  O   UNL     1      -8.412  11.627  68.457  1.00  0.00    -0.154 OA 
ENDROOT
BRANCH   2   3
HETATM    3  C   UNL     1      -9.052  10.428  68.613  1.00  0.00    -0.157 A  
HETATM    4  C   UNL     1      -9.856   9.829  67.646  1.00  0.00    -0.202 A  
HETATM    5  C   UNL     1     -10.482   8.606  67.904  1.00  0.00    -0.269 A  
HETATM    6  C   UNL     1     -10.317   7.954  69.133  1.00  0.00    -0.225 A  
HETATM    7  C   UNL     1      -8.838   9.769  69.820  1.00  0.00    -0.241 A  
HETATM    8  C   UNL     1      -9.472   8.549  70.084  1.00  0.00    -0.169 A  
BRANCH   6   9
HETATM    9  C   UNL     1     -11.023   6.653  69.471  1.00  0.00    -0.367 C  
HETATM   10  C   UNL     1     -10.122   5.431  69.618  1.00  0.00    -0.249 C  
HETATM   11  O   UNL     1      -9.373   4.943  68.789  1.00  0.00    -0.119 OA 
HETATM   12  C   UNL     1     -10.280   4.885  70.964  1.00  0.00    -0.262 A  
HETATM   13  C   UNL     1      -9.631   3.807  71.538  1.00  0.00    -0.232 A  
HETATM   14  C   UNL     1      -9.964   3.480  72.856  1.00  0.00    -0.212 A  
HETATM   15  C   UNL     1     -10.925   4.227  73.563  1.00  0.00    -0.373 A  
HETATM   16  C   UNL     1     -11.568   5.314  72.965  1.00  0.00    -0.290 A  
HETATM   17  C   UNL     1     -11.223   5.623  71.662  1.00  0.00    -0.204 A  
HETATM   18  C   UNL     1     -11.740   6.697  70.816  1.00  0.00    -0.388 C  
HETATM   19  O   UNL     1     -12.625   7.456  71.170  1.00  0.00    -0.335 OA 
ENDBRANCH   6   9
ENDBRANCH   2   3
TORSDOF 2
ENDMDL
MODEL      101
REMARK 921   NORMALIZED FREE ENERGY PREDICTED BY IDOCK:   -4.06 KCAL/MOL
REMARK 922        TOTAL FREE ENERGY PREDICTED BY IDOCK:   -5.09 KCAL/MOL
REMARK 923 INTER-LIGAND FREE ENERGY PREDICTED BY IDOCK:   -4.55 KCAL/MOL
REMARK 924 INTRA-LIGAND FREE ENERGY PREDICTED BY IDOCK:   -0.54 KCAL/MOL
REMARK 927      BINDING AFFINITY PREDICTED BY RF-SCORE:    0.00 PKD
ROOT
HETATM    1  C   UNL     1     -10.225   5.189  74.102  1.00  0.00    -0.250 C  
HETATM    2  O   UNL     1     -10.330   6.606  74.220  1.00  0.00    -0.361 OA 
ENDROOT
BRANCH   2   3
HETATM    3  C   UNL     1     -10.633   7.258  73.056  1.00  0.00    -0.326 A  
HETATM    4  C   UNL     1     -11.756   7.000  72.274  1.00  0.00    -0.294 A  
HETATM    5  C   UNL     1     -11.972   7.711  71.090  1.00  0.00    -0.319 A  
HETATM    6  C   UNL     1     -11.073   8.697  70.663  1.00  0.00    -0.282 A  
HETATM    7  C   UNL     1      -9.756   8.269  72.672  1.00  0.00    -0.357 A  
HETATM    8  C   UNL     1      -9.967   8.975  71.481  1.00  0.00    -0.391 A  
BRANCH   6   9
HETATM    9  C   UNL     1     -11.245   9.452  69.357  1.00  0.00    -0.019 C  
HETATM   10  C   UNL     1     -11.175  10.972  69.459  1.00  0.00    -0.279 C  
HETATM   11  O   UNL     1     -11.883  11.716  70.115  1.00  0.00    -0.330 OA 
HETATM   12  C   UNL     1     -10.083  11.453  68.615  1.00  0.00    -0.217 A  
HETATM   13  C   UNL     1      -9.642  12.752  68.436  1.00  0.00    -0.175 A  
HETATM   14  C   UNL     1      -8.568  12.954  67.564  1.00  0.00    -0.188 A  
HETATM   15  C   UNL     1      -7.964  11.869  66.900  1.00  0.00    -0.132 A  
HETATM   16  C   UNL     1      -8.426  10.564  67.096  1.00  0.00    -0.127 A  
HETATM   17  C   UNL     1      -9.488  10.385  67.964  1.00  0.00    -0.152 A  
HETATM   18  C   UNL     1     -10.153   9.139  68.341  1.00  0.00    -0.196 C  
HETATM   19  O   UNL     1      -9.860   8.057  67.863  1.00  0.00    -0.155 OA 
ENDBRANCH   6   9
ENDBRANCH   2   3
TORSDOF 2
ENDMDL
MODEL      102
REMARK 921   NORMALIZED FREE ENERGY PREDICTED BY IDOCK:   -4.06 KCAL/MOL
REMARK 922        TOTAL FREE ENERGY PREDICTED BY IDOCK:   -5.09 KCAL/MOL
REMARK 923 INTER-LIGAND FREE ENERGY PREDICTED BY IDOCK:   -4.57 KCAL/MOL
REMARK 924 INTRA-LIGAND FREE ENERGY PREDICTED BY IDOCK:   -0.52 KCAL/MOL
REMARK 927      BINDING AFFINITY PREDICTED BY RF-SCORE:    0.00 PKD
ROOT
HETATM    1  C   UNL     1      -8.726   3.920  65.391  1.00  0.00    -0.116 C  
HETATM    2  O   UNL     1      -8.152   5.225  65.433  1.00  0.00    -0.111 OA 
ENDROOT
BRANCH   2   3
HETATM    3  C   UNL     1      -8.448   5.948  66.556  1.00  0.00    -0.113 A  
HETATM    4  C   UNL     1      -9.717   6.044  67.122  1.00  0.00    -0.148 A  
HETATM    5  C   UNL     1      -9.925   6.821  68.265  1.00  0.00    -0.153 A  
HETATM    6  C   UNL     1      -8.869   7.518  68.869  1.00  0.00    -0.135 A  
HETATM    7  C   UNL     1      -7.380   6.593  67.172  1.00  0.00    -0.083 A  
HETATM    8  C   UNL     1      -7.588   7.380  68.311  1.00  0.00    -0.114 A  
BRANCH   6   9
HETATM    9  C   UNL     1      -9.066   8.414  70.078  1.00  0.00    -0.150 C  
HETATM   10  C   UNL     1      -9.825   9.712  69.822  1.00  0.00    -0.229 C  
HETATM   11  O   UNL     1      -9.535  10.615  69.056  1.00  0.00    -0.191 OA 
HETATM   12  C   UNL     1     -11.018   9.737  70.665  1.00  0.00    -0.398 A  
HETATM   13  C   UNL     1     -12.006  10.703  70.730  1.00  0.00    -0.477 A  
HETATM   14  C   UNL     1     -13.055  10.493  71.629  1.00  0.00    -0.551 A  
HETATM   15  C   UNL     1     -13.095   9.338  72.434  1.00  0.00    -0.481 A  
HETATM   16  C   UNL     1     -12.086   8.374  72.352  1.00  0.00    -0.443 A  
HETATM   17  C   UNL     1     -11.059   8.599  71.454  1.00  0.00    -0.343 A  
HETATM   18  C   UNL     1      -9.896   7.759  71.176  1.00  0.00    -0.169 C  
HETATM   19  O   UNL     1      -9.662   6.726  71.779  1.00  0.00    -0.162 OA 
ENDBRANCH   6   9
ENDBRANCH   2   3
TORSDOF 2
ENDMDL
MODEL      103
REMARK 921   NORMALIZED FREE ENERGY PREDICTED BY IDOCK:   -4.03 KCAL/MOL
REMARK 922        TOTAL FREE ENERGY PREDICTED BY IDOCK:   -5.06 KCAL/MOL
REMARK 923 INTER-LIGAND FREE ENERGY PREDICTED BY IDOCK:   -4.53 KCAL/MOL
REMARK 924 INTRA-LIGAND FREE ENERGY PREDICTED BY IDOCK:   -0.53 KCAL/MOL
REMARK 927      BINDING AFFINITY PREDICTED BY RF-SCORE:    0.00 PKD
ROOT
HETATM    1  C   UNL     1      -8.003   6.683  63.927  1.00  0.00    -0.075 C  
HETATM    2  O   UNL     1      -7.461   7.617  64.858  1.00  0.00    -0.080 OA 
ENDROOT
BRANCH   2   3
HETATM    3  C   UNL     1      -8.042   7.596  66.097  1.00  0.00    -0.118 A  
HETATM    4  C   UNL     1      -9.299   8.118  66.389  1.00  0.00    -0.269 A  
HETATM    5  C   UNL     1      -9.803   8.063  67.692  1.00  0.00    -0.214 A  
HETATM    6  C   UNL     1      -9.062   7.484  68.731  1.00  0.00    -0.135 A  
HETATM    7  C   UNL     1      -7.314   6.973  67.107  1.00  0.00    -0.090 A  
HETATM    8  C   UNL     1      -7.813   6.926  68.414  1.00  0.00    -0.121 A  
BRANCH   6   9
HETATM    9  C   UNL     1      -9.551   7.454  70.167  1.00  0.00    -0.165 C  
HETATM   10  C   UNL     1      -9.903   8.809  70.774  1.00  0.00    -0.205 C  
HETATM   11  O   UNL     1      -9.179   9.779  70.920  1.00  0.00    -0.108 OA 
HETATM   12  C   UNL     1     -11.305   8.795  71.185  1.00  0.00    -0.345 A  
HETATM   13  C   UNL     1     -12.048   9.818  71.745  1.00  0.00    -0.425 A  
HETATM   14  C   UNL     1     -13.385   9.550  72.053  1.00  0.00    -0.535 A  
HETATM   15  C   UNL     1     -13.944   8.283  71.798  1.00  0.00    -0.476 A  
HETATM   16  C   UNL     1     -13.175   7.263  71.230  1.00  0.00    -0.352 A  
HETATM   17  C   UNL     1     -11.856   7.549  70.930  1.00  0.00    -0.293 A  
HETATM   18  C   UNL     1     -10.848   6.671  70.338  1.00  0.00    -0.266 C  
HETATM   19  O   UNL     1     -11.059   5.501  70.073  1.00  0.00    -0.256 OA 
ENDBRANCH   6   9
ENDBRANCH   2   3
TORSDOF 2
ENDMDL
MODEL      104
REMARK 921   NORMALIZED FREE ENERGY PREDICTED BY IDOCK:   -4.03 KCAL/MOL
REMARK 922        TOTAL FREE ENERGY PREDICTED BY IDOCK:   -5.06 KCAL/MOL
REMARK 923 INTER-LIGAND FREE ENERGY PREDICTED BY IDOCK:   -5.01 KCAL/MOL
REMARK 924 INTRA-LIGAND FREE ENERGY PREDICTED BY IDOCK:   -0.05 KCAL/MOL
REMARK 927      BINDING AFFINITY PREDICTED BY RF-SCORE:    0.00 PKD
ROOT
HETATM    1  C   UNL     1     -13.302  15.159  73.079  1.00  0.00    -0.484 C  
HETATM    2  O   UNL     1     -13.394  13.856  72.506  1.00  0.00    -0.484 OA 
ENDROOT
BRANCH   2   3
HETATM    3  C   UNL     1     -12.725  13.700  71.322  1.00  0.00    -0.361 A  
HETATM    4  C   UNL     1     -12.533  12.481  70.677  1.00  0.00    -0.323 A  
HETATM    5  C   UNL     1     -11.821  12.421  69.476  1.00  0.00    -0.368 A  
HETATM    6  C   UNL     1     -11.286  13.577  68.892  1.00  0.00    -0.332 A  
HETATM    7  C   UNL     1     -12.243  14.864  70.731  1.00  0.00    -0.387 A  
HETATM    8  C   UNL     1     -11.521  14.805  69.532  1.00  0.00    -0.331 A  
BRANCH   6   9
HETATM    9  C   UNL     1     -10.462  13.545  67.618  1.00  0.00    -0.239 C  
HETATM   10  C   UNL     1      -9.063  14.145  67.721  1.00  0.00    -0.190 C  
HETATM   11  O   UNL     1      -8.753  15.283  68.029  1.00  0.00    -0.157 OA 
HETATM   12  C   UNL     1      -8.081  13.118  67.381  1.00  0.00    -0.181 A  
HETATM   13  C   UNL     1      -6.701  13.214  67.379  1.00  0.00    -0.107 A  
HETATM   14  C   UNL     1      -5.976  12.078  67.010  1.00  0.00    -0.135 A  
HETATM   15  C   UNL     1      -6.635  10.885  66.657  1.00  0.00    -0.120 A  
HETATM   16  C   UNL     1      -8.031  10.809  66.666  1.00  0.00    -0.139 A  
HETATM   17  C   UNL     1      -8.730  11.944  67.037  1.00  0.00    -0.181 A  
HETATM   18  C   UNL     1     -10.177  12.129  67.130  1.00  0.00    -0.210 C  
HETATM   19  O   UNL     1     -10.979  11.265  66.823  1.00  0.00    -0.282 OA 
ENDBRANCH   6   9
ENDBRANCH   2   3
TORSDOF 2
ENDMDL
MODEL      105
REMARK 921   NORMALIZED FREE ENERGY PREDICTED BY IDOCK:   -3.99 KCAL/MOL
REMARK 922        TOTAL FREE ENERGY PREDICTED BY IDOCK:   -5.02 KCAL/MOL
REMARK 923 INTER-LIGAND FREE ENERGY PREDICTED BY IDOCK:   -4.55 KCAL/MOL
REMARK 924 INTRA-LIGAND FREE ENERGY PREDICTED BY IDOCK:   -0.46 KCAL/MOL
REMARK 927      BINDING AFFINITY PREDICTED BY RF-SCORE:    0.00 PKD
ROOT
HETATM    1  C   UNL     1     -11.428  13.929  68.771  1.00  0.00    -0.292 C  
HETATM    2  O   UNL     1     -12.044  12.644  68.736  1.00  0.00    -0.269 OA 
ENDROOT
BRANCH   2   3
HETATM    3  C   UNL     1     -11.278  11.626  69.238  1.00  0.00    -0.265 A  
HETATM    4  C   UNL     1     -10.067  11.206  68.694  1.00  0.00    -0.208 A  
HETATM    5  C   UNL     1      -9.363  10.145  69.271  1.00  0.00    -0.227 A  
HETATM    6  C   UNL     1      -9.853   9.482  70.404  1.00  0.00    -0.329 A  
HETATM    7  C   UNL     1     -11.754  11.011  70.392  1.00  0.00    -0.437 A  
HETATM    8  C   UNL     1     -11.055   9.942  70.965  1.00  0.00    -0.401 A  
BRANCH   6   9
HETATM    9  C   UNL     1      -9.145   8.292  71.026  1.00  0.00    -0.189 C  
HETATM   10  C   UNL     1      -9.306   8.142  72.535  1.00  0.00    -0.260 C  
HETATM   11  O   UNL     1      -8.988   8.932  73.408  1.00  0.00    -0.079 OA 
HETATM   12  C   UNL     1      -9.926   6.850  72.820  1.00  0.00    -0.193 A  
HETATM   13  C   UNL     1     -10.286   6.320  74.046  1.00  0.00    -0.322 A  
HETATM   14  C   UNL     1     -10.868   5.049  74.053  1.00  0.00    -0.281 A  
HETATM   15  C   UNL     1     -11.076   4.344  72.852  1.00  0.00    -0.193 A  
HETATM   16  C   UNL     1     -10.705   4.899  71.624  1.00  0.00    -0.069 A  
HETATM   17  C   UNL     1     -10.133   6.158  71.638  1.00  0.00    -0.218 A  
HETATM   18  C   UNL     1      -9.662   6.954  70.506  1.00  0.00    -0.172 C  
HETATM   19  O   UNL     1      -9.675   6.550  69.357  1.00  0.00    -0.146 OA 
ENDBRANCH   6   9
ENDBRANCH   2   3
TORSDOF 2
ENDMDL
MODEL      106
REMARK 921   NORMALIZED FREE ENERGY PREDICTED BY IDOCK:   -3.99 KCAL/MOL
REMARK 922        TOTAL FREE ENERGY PREDICTED BY IDOCK:   -5.01 KCAL/MOL
REMARK 923 INTER-LIGAND FREE ENERGY PREDICTED BY IDOCK:   -4.66 KCAL/MOL
REMARK 924 INTRA-LIGAND FREE ENERGY PREDICTED BY IDOCK:   -0.35 KCAL/MOL
REMARK 927      BINDING AFFINITY PREDICTED BY RF-SCORE:    0.00 PKD
ROOT
HETATM    1  C   UNL     1     -10.972  16.133  69.197  1.00  0.00    -0.309 C  
HETATM    2  O   UNL     1     -11.275  15.884  67.826  1.00  0.00    -0.326 OA 
ENDROOT
BRANCH   2   3
HETATM    3  C   UNL     1     -11.226  14.567  67.457  1.00  0.00    -0.321 A  
HETATM    4  C   UNL     1     -11.982  14.005  66.431  1.00  0.00    -0.462 A  
HETATM    5  C   UNL     1     -11.874  12.642  66.137  1.00  0.00    -0.477 A  
HETATM    6  C   UNL     1     -11.007  11.812  66.860  1.00  0.00    -0.333 A  
HETATM    7  C   UNL     1     -10.323  13.767  68.152  1.00  0.00    -0.252 A  
HETATM    8  C   UNL     1     -10.221  12.400  67.865  1.00  0.00    -0.213 A  
BRANCH   6   9
HETATM    9  C   UNL     1     -10.902  10.320  66.607  1.00  0.00    -0.115 C  
HETATM   10  C   UNL     1      -9.947   9.904  65.492  1.00  0.00    -0.292 C  
HETATM   11  O   UNL     1      -9.983  10.217  64.314  1.00  0.00    -0.328 OA 
HETATM   12  C   UNL     1      -8.920   9.026  66.050  1.00  0.00    -0.227 A  
HETATM   13  C   UNL     1      -7.840   8.449  65.408  1.00  0.00    -0.108 A  
HETATM   14  C   UNL     1      -6.994   7.639  66.170  1.00  0.00    -0.065 A  
HETATM   15  C   UNL     1      -7.241   7.426  67.540  1.00  0.00    -0.094 A  
HETATM   16  C   UNL     1      -8.339   8.020  68.170  1.00  0.00    -0.127 A  
HETATM   17  C   UNL     1      -9.162   8.820  67.398  1.00  0.00    -0.158 A  
HETATM   18  C   UNL     1     -10.361   9.549  67.806  1.00  0.00    -0.239 C  
HETATM   19  O   UNL     1     -10.827   9.488  68.931  1.00  0.00    -0.215 OA 
ENDBRANCH   6   9
ENDBRANCH   2   3
TORSDOF 2
ENDMDL
MODEL      107
REMARK 921   NORMALIZED FREE ENERGY PREDICTED BY IDOCK:   -3.97 KCAL/MOL
REMARK 922        TOTAL FREE ENERGY PREDICTED BY IDOCK:   -4.99 KCAL/MOL
REMARK 923 INTER-LIGAND FREE ENERGY PREDICTED BY IDOCK:   -5.10 KCAL/MOL
REMARK 924 INTRA-LIGAND FREE ENERGY PREDICTED BY IDOCK:    0.12 KCAL/MOL
REMARK 927      BINDING AFFINITY PREDICTED BY RF-SCORE:    0.00 PKD
ROOT
HETATM    1  C   UNL     1     -10.592   5.515  70.018  1.00  0.00    -0.314 C  
HETATM    2  O   UNL     1      -9.743   6.657  70.114  1.00  0.00    -0.164 OA 
ENDROOT
BRANCH   2   3
HETATM    3  C   UNL     1     -10.314   7.833  69.711  1.00  0.00    -0.221 A  
HETATM    4  C   UNL     1     -10.309   8.306  68.401  1.00  0.00    -0.237 A  
HETATM    5  C   UNL     1     -10.907   9.530  68.089  1.00  0.00    -0.208 A  
HETATM    6  C   UNL     1     -11.525  10.308  69.077  1.00  0.00    -0.200 A  
HETATM    7  C   UNL     1     -10.967   8.569  70.696  1.00  0.00    -0.268 A  
HETATM    8  C   UNL     1     -11.558   9.800  70.386  1.00  0.00    -0.327 A  
BRANCH   6   9
HETATM    9  C   UNL     1     -12.137  11.666  68.787  1.00  0.00    -0.221 C  
HETATM   10  C   UNL     1     -11.899  12.738  69.847  1.00  0.00    -0.301 C  
HETATM   11  O   UNL     1     -12.219  12.717  71.023  1.00  0.00    -0.307 OA 
HETATM   12  C   UNL     1     -11.197  13.863  69.233  1.00  0.00    -0.296 A  
HETATM   13  C   UNL     1     -10.752  15.028  69.831  1.00  0.00    -0.238 A  
HETATM   14  C   UNL     1     -10.102  15.961  69.018  1.00  0.00    -0.228 A  
HETATM   15  C   UNL     1      -9.911  15.714  67.645  1.00  0.00    -0.227 A  
HETATM   16  C   UNL     1     -10.368  14.528  67.062  1.00  0.00    -0.263 A  
HETATM   17  C   UNL     1     -11.007  13.617  67.883  1.00  0.00    -0.277 A  
HETATM   18  C   UNL     1     -11.573  12.316  67.529  1.00  0.00    -0.353 C  
HETATM   19  O   UNL     1     -11.590  11.886  66.390  1.00  0.00    -0.451 OA 
ENDBRANCH   6   9
ENDBRANCH   2   3
TORSDOF 2
ENDMDL
MODEL      108
REMARK 921   NORMALIZED FREE ENERGY PREDICTED BY IDOCK:   -3.95 KCAL/MOL
REMARK 922        TOTAL FREE ENERGY PREDICTED BY IDOCK:   -4.96 KCAL/MOL
REMARK 923 INTER-LIGAND FREE ENERGY PREDICTED BY IDOCK:   -4.44 KCAL/MOL
REMARK 924 INTRA-LIGAND FREE ENERGY PREDICTED BY IDOCK:   -0.52 KCAL/MOL
REMARK 927      BINDING AFFINITY PREDICTED BY RF-SCORE:    0.00 PKD
ROOT
HETATM    1  C   UNL     1     -13.770   9.029  72.131  1.00  0.00    -0.480 C  
HETATM    2  O   UNL     1     -12.401   9.375  72.327  1.00  0.00    -0.324 OA 
ENDROOT
BRANCH   2   3
HETATM    3  C   UNL     1     -11.743   9.780  71.198  1.00  0.00    -0.385 A  
HETATM    4  C   UNL     1     -10.515   9.279  70.775  1.00  0.00    -0.343 A  
HETATM    5  C   UNL     1      -9.913   9.768  69.612  1.00  0.00    -0.244 A  
HETATM    6  C   UNL     1     -10.526  10.768  68.846  1.00  0.00    -0.228 A  
HETATM    7  C   UNL     1     -12.389  10.738  70.421  1.00  0.00    -0.438 A  
HETATM    8  C   UNL     1     -11.783  11.237  69.261  1.00  0.00    -0.403 A  
BRANCH   6   9
HETATM    9  C   UNL     1      -9.879  11.363  67.608  1.00  0.00    -0.189 C  
HETATM   10  C   UNL     1      -8.691  12.286  67.863  1.00  0.00    -0.177 C  
HETATM   11  O   UNL     1      -8.665  13.317  68.512  1.00  0.00    -0.151 OA 
HETATM   12  C   UNL     1      -7.516  11.744  67.185  1.00  0.00    -0.149 A  
HETATM   13  C   UNL     1      -6.223  12.235  67.178  1.00  0.00    -0.118 A  
HETATM   14  C   UNL     1      -5.267  11.526  66.443  1.00  0.00    -0.077 A  
HETATM   15  C   UNL     1      -5.619  10.357  65.742  1.00  0.00    -0.089 A  
HETATM   16  C   UNL     1      -6.932   9.877  65.764  1.00  0.00    -0.109 A  
HETATM   17  C   UNL     1      -7.861  10.591  66.497  1.00  0.00    -0.134 A  
HETATM   18  C   UNL     1      -9.283  10.308  66.683  1.00  0.00    -0.155 C  
HETATM   19  O   UNL     1      -9.854   9.382  66.135  1.00  0.00    -0.250 OA 
ENDBRANCH   6   9
ENDBRANCH   2   3
TORSDOF 2
ENDMDL
MODEL      109
REMARK 921   NORMALIZED FREE ENERGY PREDICTED BY IDOCK:   -3.89 KCAL/MOL
REMARK 922        TOTAL FREE ENERGY PREDICTED BY IDOCK:   -4.90 KCAL/MOL
REMARK 923 INTER-LIGAND FREE ENERGY PREDICTED BY IDOCK:   -4.85 KCAL/MOL
REMARK 924 INTRA-LIGAND FREE ENERGY PREDICTED BY IDOCK:   -0.04 KCAL/MOL
REMARK 927      BINDING AFFINITY PREDICTED BY RF-SCORE:    0.00 PKD
ROOT
HETATM    1  C   UNL     1     -14.020   8.449  71.832  1.00  0.00    -0.421 C  
HETATM    2  O   UNL     1     -13.278   9.651  72.026  1.00  0.00    -0.400 OA 
ENDROOT
BRANCH   2   3
HETATM    3  C   UNL     1     -12.246   9.837  71.147  1.00  0.00    -0.362 A  
HETATM    4  C   UNL     1     -10.944   9.385  71.349  1.00  0.00    -0.443 A  
HETATM    5  C   UNL     1      -9.952   9.637  70.398  1.00  0.00    -0.330 A  
HETATM    6  C   UNL     1     -10.237  10.345  69.223  1.00  0.00    -0.248 A  
HETATM    7  C   UNL     1     -12.558  10.498  69.963  1.00  0.00    -0.192 A  
HETATM    8  C   UNL     1     -11.563  10.760  69.013  1.00  0.00    -0.370 A  
BRANCH   6   9
HETATM    9  C   UNL     1      -9.176  10.685  68.193  1.00  0.00    -0.148 C  
HETATM   10  C   UNL     1      -8.465   9.493  67.558  1.00  0.00    -0.126 C  
HETATM   11  O   UNL     1      -7.814   8.623  68.110  1.00  0.00    -0.100 OA 
HETATM   12  C   UNL     1      -8.677   9.531  66.113  1.00  0.00    -0.162 A  
HETATM   13  C   UNL     1      -8.245   8.630  65.156  1.00  0.00    -0.152 A  
HETATM   14  C   UNL     1      -8.580   8.893  63.825  1.00  0.00    -0.105 A  
HETATM   15  C   UNL     1      -9.330  10.034  63.482  1.00  0.00    -0.301 A  
HETATM   16  C   UNL     1      -9.758  10.931  64.465  1.00  0.00    -0.334 A  
HETATM   17  C   UNL     1      -9.418  10.652  65.776  1.00  0.00    -0.244 A  
HETATM   18  C   UNL     1      -9.737  11.418  66.980  1.00  0.00    -0.190 C  
HETATM   19  O   UNL     1     -10.331  12.481  66.954  1.00  0.00    -0.227 OA 
ENDBRANCH   6   9
ENDBRANCH   2   3
TORSDOF 2
ENDMDL
MODEL      110
REMARK 921   NORMALIZED FREE ENERGY PREDICTED BY IDOCK:   -3.86 KCAL/MOL
REMARK 922        TOTAL FREE ENERGY PREDICTED BY IDOCK:   -4.87 KCAL/MOL
REMARK 923 INTER-LIGAND FREE ENERGY PREDICTED BY IDOCK:   -4.32 KCAL/MOL
REMARK 924 INTRA-LIGAND FREE ENERGY PREDICTED BY IDOCK:   -0.55 KCAL/MOL
REMARK 927      BINDING AFFINITY PREDICTED BY RF-SCORE:    0.00 PKD
ROOT
HETATM    1  C   UNL     1     -14.311   8.773  71.999  1.00  0.00    -0.377 C  
HETATM    2  O   UNL     1     -13.148   8.664  72.818  1.00  0.00    -0.304 OA 
ENDROOT
BRANCH   2   3
HETATM    3  C   UNL     1     -12.099   8.003  72.240  1.00  0.00    -0.341 A  
HETATM    4  C   UNL     1     -10.800   7.990  72.742  1.00  0.00    -0.438 A  
HETATM    5  C   UNL     1      -9.789   7.296  72.071  1.00  0.00    -0.183 A  
HETATM    6  C   UNL     1     -10.053   6.599  70.885  1.00  0.00    -0.208 A  
HETATM    7  C   UNL     1     -12.389   7.275  71.090  1.00  0.00    -0.381 A  
HETATM    8  C   UNL     1     -11.375   6.587  70.411  1.00  0.00    -0.443 A  
BRANCH   6   9
HETATM    9  C   UNL     1      -8.972   5.881  70.099  1.00  0.00    -0.148 C  
HETATM   10  C   UNL     1      -9.357   4.513  69.543  1.00  0.00    -0.152 C  
HETATM   11  O   UNL     1      -9.726   3.527  70.158  1.00  0.00    -0.180 OA 
HETATM   12  C   UNL     1      -9.217   4.537  68.089  1.00  0.00    -0.170 A  
HETATM   13  C   UNL     1      -9.494   3.531  67.181  1.00  0.00    -0.219 A  
HETATM   14  C   UNL     1      -9.273   3.804  65.828  1.00  0.00    -0.156 A  
HETATM   15  C   UNL     1      -8.789   5.060  65.416  1.00  0.00    -0.152 A  
HETATM   16  C   UNL     1      -8.517   6.064  66.350  1.00  0.00    -0.118 A  
HETATM   17  C   UNL     1      -8.744   5.774  67.683  1.00  0.00    -0.107 A  
HETATM   18  C   UNL     1      -8.544   6.637  68.846  1.00  0.00    -0.126 C  
HETATM   19  O   UNL     1      -8.078   7.760  68.770  1.00  0.00    -0.123 OA 
ENDBRANCH   6   9
ENDBRANCH   2   3
TORSDOF 2
ENDMDL
MODEL      111
REMARK 921   NORMALIZED FREE ENERGY PREDICTED BY IDOCK:   -3.85 KCAL/MOL
REMARK 922        TOTAL FREE ENERGY PREDICTED BY IDOCK:   -4.85 KCAL/MOL
REMARK 923 INTER-LIGAND FREE ENERGY PREDICTED BY IDOCK:   -4.41 KCAL/MOL
REMARK 924 INTRA-LIGAND FREE ENERGY PREDICTED BY IDOCK:   -0.45 KCAL/MOL
REMARK 927      BINDING AFFINITY PREDICTED BY RF-SCORE:    0.00 PKD
ROOT
HETATM    1  C   UNL     1      -6.791  10.820  65.939  1.00  0.00    -0.084 C  
HETATM    2  O   UNL     1      -7.029  10.992  67.334  1.00  0.00    -0.078 OA 
ENDROOT
BRANCH   2   3
HETATM    3  C   UNL     1      -7.373  12.263  67.706  1.00  0.00    -0.118 A  
HETATM    4  C   UNL     1      -8.359  13.028  67.087  1.00  0.00    -0.153 A  
HETATM    5  C   UNL     1      -8.630  14.326  67.530  1.00  0.00    -0.203 A  
HETATM    6  C   UNL     1      -7.923  14.888  68.601  1.00  0.00    -0.144 A  
HETATM    7  C   UNL     1      -6.696  12.788  68.802  1.00  0.00    -0.093 A  
HETATM    8  C   UNL     1      -6.960  14.092  69.241  1.00  0.00    -0.084 A  
BRANCH   6   9
HETATM    9  C   UNL     1      -8.151  16.312  69.075  1.00  0.00    -0.236 C  
HETATM   10  C   UNL     1      -7.345  17.386  68.350  1.00  0.00    -0.227 C  
HETATM   11  O   UNL     1      -6.134  17.487  68.261  1.00  0.00    -0.161 OA 
HETATM   12  C   UNL     1      -8.270  18.338  67.738  1.00  0.00    -0.253 A  
HETATM   13  C   UNL     1      -7.976  19.443  66.960  1.00  0.00    -0.287 A  
HETATM   14  C   UNL     1      -9.050  20.205  66.489  1.00  0.00    -0.411 A  
HETATM   15  C   UNL     1     -10.377  19.850  66.802  1.00  0.00    -0.599 A  
HETATM   16  C   UNL     1     -10.651  18.728  67.590  1.00  0.00    -0.481 A  
HETATM   17  C   UNL     1      -9.575  17.987  68.043  1.00  0.00    -0.295 A  
HETATM   18  C   UNL     1      -9.586  16.784  68.872  1.00  0.00    -0.249 C  
HETATM   19  O   UNL     1     -10.607  16.299  69.327  1.00  0.00    -0.250 OA 
ENDBRANCH   6   9
ENDBRANCH   2   3
TORSDOF 2
ENDMDL
MODEL      112
REMARK 921   NORMALIZED FREE ENERGY PREDICTED BY IDOCK:   -3.82 KCAL/MOL
REMARK 922        TOTAL FREE ENERGY PREDICTED BY IDOCK:   -4.82 KCAL/MOL
REMARK 923 INTER-LIGAND FREE ENERGY PREDICTED BY IDOCK:   -4.33 KCAL/MOL
REMARK 924 INTRA-LIGAND FREE ENERGY PREDICTED BY IDOCK:   -0.49 KCAL/MOL
REMARK 927      BINDING AFFINITY PREDICTED BY RF-SCORE:    0.00 PKD
ROOT
HETATM    1  C   UNL     1      -7.494   4.932  69.420  1.00  0.00    -0.056 C  
HETATM    2  O   UNL     1      -7.131   6.261  69.786  1.00  0.00    -0.068 OA 
ENDROOT
BRANCH   2   3
HETATM    3  C   UNL     1      -8.082   7.209  69.523  1.00  0.00    -0.130 A  
HETATM    4  C   UNL     1      -8.337   8.318  70.327  1.00  0.00    -0.123 A  
HETATM    5  C   UNL     1      -9.342   9.226  69.982  1.00  0.00    -0.232 A  
HETATM    6  C   UNL     1     -10.113   9.048  68.826  1.00  0.00    -0.214 A  
HETATM    7  C   UNL     1      -8.805   7.045  68.345  1.00  0.00    -0.123 A  
HETATM    8  C   UNL     1      -9.818   7.949  68.003  1.00  0.00    -0.195 A  
BRANCH   6   9
HETATM    9  C   UNL     1     -11.248   9.982  68.447  1.00  0.00    -0.187 C  
HETATM   10  C   UNL     1     -11.996  10.620  69.613  1.00  0.00    -0.268 C  
HETATM   11  O   UNL     1     -12.601  10.064  70.514  1.00  0.00    -0.244 OA 
HETATM   12  C   UNL     1     -11.889  12.073  69.506  1.00  0.00    -0.390 A  
HETATM   13  C   UNL     1     -12.384  13.038  70.365  1.00  0.00    -0.351 A  
HETATM   14  C   UNL     1     -12.148  14.376  70.036  1.00  0.00    -0.401 A  
HETATM   15  C   UNL     1     -11.430  14.718  68.874  1.00  0.00    -0.321 A  
HETATM   16  C   UNL     1     -10.938  13.726  68.020  1.00  0.00    -0.268 A  
HETATM   17  C   UNL     1     -11.180  12.409  68.364  1.00  0.00    -0.316 A  
HETATM   18  C   UNL     1     -10.779  11.196  67.653  1.00  0.00    -0.230 C  
HETATM   19  O   UNL     1     -10.194  11.214  66.585  1.00  0.00    -0.216 OA 
ENDBRANCH   6   9
ENDBRANCH   2   3
TORSDOF 2
ENDMDL
MODEL      113
REMARK 921   NORMALIZED FREE ENERGY PREDICTED BY IDOCK:   -3.81 KCAL/MOL
REMARK 922        TOTAL FREE ENERGY PREDICTED BY IDOCK:   -4.82 KCAL/MOL
REMARK 923 INTER-LIGAND FREE ENERGY PREDICTED BY IDOCK:   -4.31 KCAL/MOL
REMARK 924 INTRA-LIGAND FREE ENERGY PREDICTED BY IDOCK:   -0.51 KCAL/MOL
REMARK 927      BINDING AFFINITY PREDICTED BY RF-SCORE:    0.00 PKD
ROOT
HETATM    1  C   UNL     1      -7.352   2.851  73.858  1.00  0.00    -0.046 C  
HETATM    2  O   UNL     1      -8.298   3.702  74.501  1.00  0.00    -0.083 OA 
ENDROOT
BRANCH   2   3
HETATM    3  C   UNL     1      -9.044   4.475  73.654  1.00  0.00    -0.105 A  
HETATM    4  C   UNL     1      -8.540   5.528  72.894  1.00  0.00    -0.119 A  
HETATM    5  C   UNL     1      -9.386   6.271  72.067  1.00  0.00    -0.155 A  
HETATM    6  C   UNL     1     -10.753   5.979  71.979  1.00  0.00    -0.281 A  
HETATM    7  C   UNL     1     -10.390   4.140  73.541  1.00  0.00    -0.238 A  
HETATM    8  C   UNL     1     -11.241   4.890  72.719  1.00  0.00    -0.260 A  
BRANCH   6   9
HETATM    9  C   UNL     1     -11.713   6.797  71.134  1.00  0.00    -0.394 C  
HETATM   10  C   UNL     1     -12.067   8.176  71.684  1.00  0.00    -0.304 C  
HETATM   11  O   UNL     1     -12.592   8.449  72.750  1.00  0.00    -0.276 OA 
HETATM   12  C   UNL     1     -11.674   9.190  70.708  1.00  0.00    -0.308 A  
HETATM   13  C   UNL     1     -11.775  10.566  70.809  1.00  0.00    -0.454 A  
HETATM   14  C   UNL     1     -11.325  11.327  69.727  1.00  0.00    -0.348 A  
HETATM   15  C   UNL     1     -10.789  10.706  68.582  1.00  0.00    -0.266 A  
HETATM   16  C   UNL     1     -10.695   9.313  68.502  1.00  0.00    -0.185 A  
HETATM   17  C   UNL     1     -11.143   8.579  69.584  1.00  0.00    -0.018 A  
HETATM   18  C   UNL     1     -11.157   7.127  69.753  1.00  0.00    -0.210 C  
HETATM   19  O   UNL     1     -10.799   6.352  68.884  1.00  0.00    -0.260 OA 
ENDBRANCH   6   9
ENDBRANCH   2   3
TORSDOF 2
ENDMDL
MODEL      114
REMARK 921   NORMALIZED FREE ENERGY PREDICTED BY IDOCK:   -3.81 KCAL/MOL
REMARK 922        TOTAL FREE ENERGY PREDICTED BY IDOCK:   -4.81 KCAL/MOL
REMARK 923 INTER-LIGAND FREE ENERGY PREDICTED BY IDOCK:   -4.33 KCAL/MOL
REMARK 924 INTRA-LIGAND FREE ENERGY PREDICTED BY IDOCK:   -0.48 KCAL/MOL
REMARK 927      BINDING AFFINITY PREDICTED BY RF-SCORE:    0.00 PKD
ROOT
HETATM    1  C   UNL     1      -9.075   2.787  67.634  1.00  0.00    -0.181 C  
HETATM    2  O   UNL     1      -9.367   3.806  68.587  1.00  0.00    -0.145 OA 
ENDROOT
BRANCH   2   3
HETATM    3  C   UNL     1      -9.256   5.085  68.112  1.00  0.00    -0.120 A  
HETATM    4  C   UNL     1      -9.946   5.581  67.009  1.00  0.00    -0.198 A  
HETATM    5  C   UNL     1      -9.755   6.901  66.590  1.00  0.00    -0.221 A  
HETATM    6  C   UNL     1      -8.872   7.754  67.265  1.00  0.00    -0.130 A  
HETATM    7  C   UNL     1      -8.413   5.934  68.824  1.00  0.00    -0.111 A  
HETATM    8  C   UNL     1      -8.213   7.253  68.400  1.00  0.00    -0.125 A  
BRANCH   6   9
HETATM    9  C   UNL     1      -8.597   9.175  66.809  1.00  0.00    -0.133 C  
HETATM   10  C   UNL     1      -8.662   9.410  65.303  1.00  0.00    -0.175 C  
HETATM   11  O   UNL     1      -7.999   8.879  64.428  1.00  0.00    -0.121 OA 
HETATM   12  C   UNL     1      -9.684  10.417  65.024  1.00  0.00    -0.362 A  
HETATM   13  C   UNL     1     -10.101  10.904  63.799  1.00  0.00    -0.413 A  
HETATM   14  C   UNL     1     -11.105  11.876  63.799  1.00  0.00    -0.510 A  
HETATM   15  C   UNL     1     -11.666  12.334  65.007  1.00  0.00    -0.405 A  
HETATM   16  C   UNL     1     -11.230  11.827  66.235  1.00  0.00    -0.370 A  
HETATM   17  C   UNL     1     -10.237  10.864  66.213  1.00  0.00    -0.300 A  
HETATM   18  C   UNL     1      -9.612  10.179  67.343  1.00  0.00    -0.154 C  
HETATM   19  O   UNL     1      -9.877  10.433  68.504  1.00  0.00    -0.157 OA 
ENDBRANCH   6   9
ENDBRANCH   2   3
TORSDOF 2
ENDMDL
MODEL      115
REMARK 921   NORMALIZED FREE ENERGY PREDICTED BY IDOCK:   -3.79 KCAL/MOL
REMARK 922        TOTAL FREE ENERGY PREDICTED BY IDOCK:   -4.78 KCAL/MOL
REMARK 923 INTER-LIGAND FREE ENERGY PREDICTED BY IDOCK:   -4.26 KCAL/MOL
REMARK 924 INTRA-LIGAND FREE ENERGY PREDICTED BY IDOCK:   -0.52 KCAL/MOL
REMARK 927      BINDING AFFINITY PREDICTED BY RF-SCORE:    0.00 PKD
ROOT
HETATM    1  C   UNL     1     -13.128  11.506  71.936  1.00  0.00    -0.387 C  
HETATM    2  O   UNL     1     -12.438  11.941  70.767  1.00  0.00    -0.349 OA 
ENDROOT
BRANCH   2   3
HETATM    3  C   UNL     1     -11.757  10.958  70.103  1.00  0.00    -0.347 A  
HETATM    4  C   UNL     1     -11.230   9.817  70.703  1.00  0.00    -0.402 A  
HETATM    5  C   UNL     1     -10.535   8.874  69.942  1.00  0.00    -0.223 A  
HETATM    6  C   UNL     1     -10.352   9.047  68.563  1.00  0.00    -0.233 A  
HETATM    7  C   UNL     1     -11.628  11.121  68.726  1.00  0.00    -0.389 A  
HETATM    8  C   UNL     1     -10.923  10.182  67.964  1.00  0.00    -0.326 A  
BRANCH   6   9
HETATM    9  C   UNL     1      -9.557   8.073  67.713  1.00  0.00    -0.179 C  
HETATM   10  C   UNL     1      -8.263   7.557  68.335  1.00  0.00    -0.125 C  
HETATM   11  O   UNL     1      -7.296   8.201  68.705  1.00  0.00    -0.085 OA 
HETATM   12  C   UNL     1      -8.334   6.101  68.436  1.00  0.00    -0.114 A  
HETATM   13  C   UNL     1      -7.402   5.229  68.969  1.00  0.00    -0.066 A  
HETATM   14  C   UNL     1      -7.707   3.865  68.946  1.00  0.00    -0.053 A  
HETATM   15  C   UNL     1      -8.922   3.407  68.400  1.00  0.00    -0.185 A  
HETATM   16  C   UNL     1      -9.851   4.307  67.867  1.00  0.00    -0.120 A  
HETATM   17  C   UNL     1      -9.530   5.652  67.901  1.00  0.00    -0.120 A  
HETATM   18  C   UNL     1     -10.317   6.785  67.417  1.00  0.00    -0.223 C  
HETATM   19  O   UNL     1     -11.386   6.658  66.848  1.00  0.00    -0.333 OA 
ENDBRANCH   6   9
ENDBRANCH   2   3
TORSDOF 2
ENDMDL
MODEL      116
REMARK 921   NORMALIZED FREE ENERGY PREDICTED BY IDOCK:   -3.78 KCAL/MOL
REMARK 922        TOTAL FREE ENERGY PREDICTED BY IDOCK:   -4.77 KCAL/MOL
REMARK 923 INTER-LIGAND FREE ENERGY PREDICTED BY IDOCK:   -4.26 KCAL/MOL
REMARK 924 INTRA-LIGAND FREE ENERGY PREDICTED BY IDOCK:   -0.52 KCAL/MOL
REMARK 927      BINDING AFFINITY PREDICTED BY RF-SCORE:    0.00 PKD
ROOT
HETATM    1  C   UNL     1      -9.635   4.236  65.576  1.00  0.00    -0.188 C  
HETATM    2  O   UNL     1     -10.531   4.364  66.677  1.00  0.00    -0.111 OA 
ENDROOT
BRANCH   2   3
HETATM    3  C   UNL     1     -10.308   5.451  67.477  1.00  0.00    -0.190 A  
HETATM    4  C   UNL     1      -9.959   5.385  68.823  1.00  0.00    -0.235 A  
HETATM    5  C   UNL     1      -9.765   6.555  69.563  1.00  0.00    -0.161 A  
HETATM    6  C   UNL     1      -9.915   7.817  68.974  1.00  0.00    -0.182 A  
HETATM    7  C   UNL     1     -10.412   6.697  66.864  1.00  0.00    -0.349 A  
HETATM    8  C   UNL     1     -10.228   7.870  67.606  1.00  0.00    -0.289 A  
BRANCH   6   9
HETATM    9  C   UNL     1      -9.767   9.109  69.757  1.00  0.00    -0.191 C  
HETATM   10  C   UNL     1      -9.076  10.253  69.020  1.00  0.00    -0.183 C  
HETATM   11  O   UNL     1      -7.952  10.275  68.550  1.00  0.00    -0.099 OA 
HETATM   12  C   UNL     1      -9.990  11.390  68.947  1.00  0.00    -0.146 A  
HETATM   13  C   UNL     1      -9.792  12.616  68.339  1.00  0.00    -0.200 A  
HETATM   14  C   UNL     1     -10.832  13.548  68.411  1.00  0.00    -0.286 A  
HETATM   15  C   UNL     1     -12.033  13.238  69.078  1.00  0.00    -0.336 A  
HETATM   16  C   UNL     1     -12.212  11.992  69.685  1.00  0.00    -0.202 A  
HETATM   17  C   UNL     1     -11.173  11.084  69.601  1.00  0.00    -0.345 A  
HETATM   18  C   UNL     1     -11.106   9.728  70.143  1.00  0.00    -0.285 C  
HETATM   19  O   UNL     1     -11.994   9.234  70.814  1.00  0.00    -0.276 OA 
ENDBRANCH   6   9
ENDBRANCH   2   3
TORSDOF 2
ENDMDL
MODEL      117
REMARK 921   NORMALIZED FREE ENERGY PREDICTED BY IDOCK:   -3.73 KCAL/MOL
REMARK 922        TOTAL FREE ENERGY PREDICTED BY IDOCK:   -4.72 KCAL/MOL
REMARK 923 INTER-LIGAND FREE ENERGY PREDICTED BY IDOCK:   -4.18 KCAL/MOL
REMARK 924 INTRA-LIGAND FREE ENERGY PREDICTED BY IDOCK:   -0.54 KCAL/MOL
REMARK 927      BINDING AFFINITY PREDICTED BY RF-SCORE:    0.00 PKD
ROOT
HETATM    1  C   UNL     1     -10.634   7.443  67.531  1.00  0.00    -0.269 C  
HETATM    2  O   UNL     1     -11.154   8.501  68.333  1.00  0.00     0.125 OA 
ENDROOT
BRANCH   2   3
HETATM    3  C   UNL     1     -10.654   9.741  68.042  1.00  0.00    -0.243 A  
HETATM    4  C   UNL     1     -11.043  10.919  68.674  1.00  0.00    -0.305 A  
HETATM    5  C   UNL     1     -10.485  12.143  68.296  1.00  0.00    -0.225 A  
HETATM    6  C   UNL     1      -9.524  12.218  67.279  1.00  0.00    -0.186 A  
HETATM    7  C   UNL     1      -9.665   9.791  67.064  1.00  0.00    -0.233 A  
HETATM    8  C   UNL     1      -9.112  11.018  66.677  1.00  0.00    -0.177 A  
BRANCH   6   9
HETATM    9  C   UNL     1      -8.936  13.533  66.804  1.00  0.00    -0.188 C  
HETATM   10  C   UNL     1      -9.910  14.482  66.113  1.00  0.00    -0.318 C  
HETATM   11  O   UNL     1     -10.570  14.283  65.108  1.00  0.00    -0.354 OA 
HETATM   12  C   UNL     1      -9.953  15.740  66.856  1.00  0.00    -0.247 A  
HETATM   13  C   UNL     1     -10.725  16.860  66.607  1.00  0.00    -0.094 A  
HETATM   14  C   UNL     1     -10.581  17.949  67.472  1.00  0.00    -0.386 A  
HETATM   15  C   UNL     1      -9.681  17.895  68.554  1.00  0.00    -0.352 A  
HETATM   16  C   UNL     1      -8.911  16.752  68.788  1.00  0.00    -0.258 A  
HETATM   17  C   UNL     1      -9.070  15.686  67.922  1.00  0.00    -0.185 A  
HETATM   18  C   UNL     1      -8.395  14.390  67.943  1.00  0.00    -0.162 C  
HETATM   19  O   UNL     1      -7.525  14.106  68.747  1.00  0.00    -0.122 OA 
ENDBRANCH   6   9
ENDBRANCH   2   3
TORSDOF 2
ENDMDL
MODEL      118
REMARK 921   NORMALIZED FREE ENERGY PREDICTED BY IDOCK:   -3.73 KCAL/MOL
REMARK 922        TOTAL FREE ENERGY PREDICTED BY IDOCK:   -4.72 KCAL/MOL
REMARK 923 INTER-LIGAND FREE ENERGY PREDICTED BY IDOCK:   -4.18 KCAL/MOL
REMARK 924 INTRA-LIGAND FREE ENERGY PREDICTED BY IDOCK:   -0.54 KCAL/MOL
REMARK 927      BINDING AFFINITY PREDICTED BY RF-SCORE:    0.00 PKD
ROOT
HETATM    1  C   UNL     1      -8.291   8.137  74.183  1.00  0.00    -0.224 C  
HETATM    2  O   UNL     1      -9.310   7.963  73.201  1.00  0.00    -0.220 OA 
ENDROOT
BRANCH   2   3
HETATM    3  C   UNL     1      -9.066   8.579  72.004  1.00  0.00    -0.247 A  
HETATM    4  C   UNL     1     -10.040   9.181  71.211  1.00  0.00    -0.388 A  
HETATM    5  C   UNL     1      -9.694   9.774  69.993  1.00  0.00    -0.292 A  
HETATM    6  C   UNL     1      -8.367   9.779  69.541  1.00  0.00    -0.165 A  
HETATM    7  C   UNL     1      -7.737   8.619  71.594  1.00  0.00    -0.146 A  
HETATM    8  C   UNL     1      -7.390   9.204  70.369  1.00  0.00    -0.100 A  
BRANCH   6   9
HETATM    9  C   UNL     1      -7.961  10.364  68.201  1.00  0.00    -0.110 C  
HETATM   10  C   UNL     1      -8.499   9.636  66.972  1.00  0.00    -0.124 C  
HETATM   11  O   UNL     1      -8.323   8.474  66.648  1.00  0.00    -0.109 OA 
HETATM   12  C   UNL     1      -9.302  10.568  66.184  1.00  0.00    -0.210 A  
HETATM   13  C   UNL     1     -10.004  10.326  65.017  1.00  0.00    -0.393 A  
HETATM   14  C   UNL     1     -10.700  11.396  64.448  1.00  0.00    -0.405 A  
HETATM   15  C   UNL     1     -10.682  12.669  65.050  1.00  0.00    -0.321 A  
HETATM   16  C   UNL     1      -9.966  12.892  66.231  1.00  0.00    -0.271 A  
HETATM   17  C   UNL     1      -9.286  11.820  66.778  1.00  0.00    -0.199 A  
HETATM   18  C   UNL     1      -8.473  11.785  67.992  1.00  0.00    -0.157 C  
HETATM   19  O   UNL     1      -8.248  12.771  68.671  1.00  0.00    -0.102 OA 
ENDBRANCH   6   9
ENDBRANCH   2   3
TORSDOF 2
ENDMDL
MODEL      119
REMARK 921   NORMALIZED FREE ENERGY PREDICTED BY IDOCK:   -3.67 KCAL/MOL
REMARK 922        TOTAL FREE ENERGY PREDICTED BY IDOCK:   -4.65 KCAL/MOL
REMARK 923 INTER-LIGAND FREE ENERGY PREDICTED BY IDOCK:   -4.21 KCAL/MOL
REMARK 924 INTRA-LIGAND FREE ENERGY PREDICTED BY IDOCK:   -0.44 KCAL/MOL
REMARK 927      BINDING AFFINITY PREDICTED BY RF-SCORE:    0.00 PKD
ROOT
HETATM    1  C   UNL     1      -8.956   5.192  65.484  1.00  0.00    -0.155 C  
HETATM    2  O   UNL     1      -8.465   6.448  65.021  1.00  0.00    -0.119 OA 
ENDROOT
BRANCH   2   3
HETATM    3  C   UNL     1      -8.794   7.518  65.807  1.00  0.00    -0.090 A  
HETATM    4  C   UNL     1      -9.736   7.486  66.833  1.00  0.00    -0.272 A  
HETATM    5  C   UNL     1     -10.015   8.638  67.573  1.00  0.00    -0.256 A  
HETATM    6  C   UNL     1      -9.359   9.847  67.307  1.00  0.00    -0.167 A  
HETATM    7  C   UNL     1      -8.098   8.698  65.562  1.00  0.00    -0.114 A  
HETATM    8  C   UNL     1      -8.383   9.856  66.297  1.00  0.00    -0.125 A  
BRANCH   6   9
HETATM    9  C   UNL     1      -9.674  11.132  68.052  1.00  0.00    -0.183 C  
HETATM   10  C   UNL     1      -8.529  12.134  68.154  1.00  0.00    -0.175 C  
HETATM   11  O   UNL     1      -7.431  11.975  68.660  1.00  0.00    -0.113 OA 
HETATM   12  C   UNL     1      -8.941  13.389  67.529  1.00  0.00    -0.207 A  
HETATM   13  C   UNL     1      -8.208  14.550  67.365  1.00  0.00    -0.220 A  
HETATM   14  C   UNL     1      -8.836  15.626  66.730  1.00  0.00    -0.304 A  
HETATM   15  C   UNL     1     -10.165  15.519  66.277  1.00  0.00    -0.308 A  
HETATM   16  C   UNL     1     -10.888  14.336  66.453  1.00  0.00    -0.307 A  
HETATM   17  C   UNL     1     -10.248  13.283  67.081  1.00  0.00    -0.246 A  
HETATM   18  C   UNL     1     -10.772  11.953  67.384  1.00  0.00    -0.232 C  
HETATM   19  O   UNL     1     -11.919  11.620  67.147  1.00  0.00    -0.614 OA 
ENDBRANCH   6   9
ENDBRANCH   2   3
TORSDOF 2
ENDMDL
MODEL      120
REMARK 921   NORMALIZED FREE ENERGY PREDICTED BY IDOCK:   -3.62 KCAL/MOL
REMARK 922        TOTAL FREE ENERGY PREDICTED BY IDOCK:   -4.59 KCAL/MOL
REMARK 923 INTER-LIGAND FREE ENERGY PREDICTED BY IDOCK:   -4.07 KCAL/MOL
REMARK 924 INTRA-LIGAND FREE ENERGY PREDICTED BY IDOCK:   -0.52 KCAL/MOL
REMARK 927      BINDING AFFINITY PREDICTED BY RF-SCORE:    0.00 PKD
ROOT
HETATM    1  C   UNL     1     -12.078  13.391  66.667  1.00  0.00    -0.373 C  
HETATM    2  O   UNL     1     -11.682  12.194  66.002  1.00  0.00    -0.434 OA 
ENDROOT
BRANCH   2   3
HETATM    3  C   UNL     1     -11.168  11.225  66.820  1.00  0.00    -0.195 A  
HETATM    4  C   UNL     1     -10.529  10.071  66.374  1.00  0.00    -0.199 A  
HETATM    5  C   UNL     1     -10.050   9.129  67.289  1.00  0.00    -0.295 A  
HETATM    6  C   UNL     1     -10.196   9.321  68.670  1.00  0.00    -0.220 A  
HETATM    7  C   UNL     1     -11.278  11.454  68.188  1.00  0.00    -0.343 A  
HETATM    8  C   UNL     1     -10.807  10.508  69.106  1.00  0.00    -0.277 A  
BRANCH   6   9
HETATM    9  C   UNL     1      -9.738   8.297  69.692  1.00  0.00    -0.173 C  
HETATM   10  C   UNL     1     -10.599   7.042  69.803  1.00  0.00    -0.233 C  
HETATM   11  O   UNL     1     -11.782   6.964  70.086  1.00  0.00    -0.312 OA 
HETATM   12  C   UNL     1      -9.773   5.873  69.510  1.00  0.00    -0.190 A  
HETATM   13  C   UNL     1     -10.151   4.544  69.460  1.00  0.00    -0.139 A  
HETATM   14  C   UNL     1      -9.162   3.603  69.155  1.00  0.00    -0.226 A  
HETATM   15  C   UNL     1      -7.835   4.006  68.909  1.00  0.00    -0.057 A  
HETATM   16  C   UNL     1      -7.476   5.355  68.964  1.00  0.00    -0.074 A  
HETATM   17  C   UNL     1      -8.469   6.270  69.264  1.00  0.00    -0.124 A  
HETATM   18  C   UNL     1      -8.360   7.723  69.382  1.00  0.00    -0.133 C  
HETATM   19  O   UNL     1      -7.305   8.322  69.271  1.00  0.00    -0.072 OA 
ENDBRANCH   6   9
ENDBRANCH   2   3
TORSDOF 2
ENDMDL
MODEL      121
REMARK 921   NORMALIZED FREE ENERGY PREDICTED BY IDOCK:   -3.61 KCAL/MOL
REMARK 922        TOTAL FREE ENERGY PREDICTED BY IDOCK:   -4.58 KCAL/MOL
REMARK 923 INTER-LIGAND FREE ENERGY PREDICTED BY IDOCK:   -4.23 KCAL/MOL
REMARK 924 INTRA-LIGAND FREE ENERGY PREDICTED BY IDOCK:   -0.36 KCAL/MOL
REMARK 927      BINDING AFFINITY PREDICTED BY RF-SCORE:    0.00 PKD
ROOT
HETATM    1  C   UNL     1     -13.478  14.440  72.435  1.00  0.00    -0.462 C  
HETATM    2  O   UNL     1     -14.298  13.278  72.335  1.00  0.00    -0.574 OA 
ENDROOT
BRANCH   2   3
HETATM    3  C   UNL     1     -13.635  12.136  71.975  1.00  0.00    -0.164 A  
HETATM    4  C   UNL     1     -14.033  10.848  72.324  1.00  0.00     0.511 A  
HETATM    5  C   UNL     1     -13.280   9.741  71.920  1.00  0.00    -0.545 A  
HETATM    6  C   UNL     1     -12.115   9.897  71.158  1.00  0.00    -0.466 A  
HETATM    7  C   UNL     1     -12.508  12.305  71.176  1.00  0.00    -0.328 A  
HETATM    8  C   UNL     1     -11.747  11.199  70.779  1.00  0.00    -0.215 A  
BRANCH   6   9
HETATM    9  C   UNL     1     -11.242   8.725  70.747  1.00  0.00    -0.309 C  
HETATM   10  C   UNL     1     -10.263   8.997  69.608  1.00  0.00    -0.206 C  
HETATM   11  O   UNL     1     -10.513   9.358  68.471  1.00  0.00    -0.200 OA 
HETATM   12  C   UNL     1      -8.904   8.754  70.084  1.00  0.00    -0.160 A  
HETATM   13  C   UNL     1      -7.712   8.911  69.401  1.00  0.00    -0.093 A  
HETATM   14  C   UNL     1      -6.531   8.607  70.085  1.00  0.00    -0.038 A  
HETATM   15  C   UNL     1      -6.565   8.160  71.420  1.00  0.00    -0.047 A  
HETATM   16  C   UNL     1      -7.782   8.010  72.092  1.00  0.00    -0.131 A  
HETATM   17  C   UNL     1      -8.938   8.318  71.399  1.00  0.00    -0.211 A  
HETATM   18  C   UNL     1     -10.321   8.248  71.865  1.00  0.00    -0.255 C  
HETATM   19  O   UNL     1     -10.632   7.837  72.969  1.00  0.00    -0.336 OA 
ENDBRANCH   6   9
ENDBRANCH   2   3
TORSDOF 2
ENDMDL
MODEL      122
REMARK 921   NORMALIZED FREE ENERGY PREDICTED BY IDOCK:   -3.60 KCAL/MOL
REMARK 922        TOTAL FREE ENERGY PREDICTED BY IDOCK:   -4.58 KCAL/MOL
REMARK 923 INTER-LIGAND FREE ENERGY PREDICTED BY IDOCK:   -4.04 KCAL/MOL
REMARK 924 INTRA-LIGAND FREE ENERGY PREDICTED BY IDOCK:   -0.53 KCAL/MOL
REMARK 927      BINDING AFFINITY PREDICTED BY RF-SCORE:    0.00 PKD
ROOT
HETATM    1  C   UNL     1      -9.081  15.515  66.833  1.00  0.00    -0.241 C  
HETATM    2  O   UNL     1      -9.871  14.609  66.066  1.00  0.00    -0.291 OA 
ENDROOT
BRANCH   2   3
HETATM    3  C   UNL     1     -10.042  13.375  66.632  1.00  0.00    -0.275 A  
HETATM    4  C   UNL     1      -9.006  12.564  67.087  1.00  0.00    -0.200 A  
HETATM    5  C   UNL     1      -9.281  11.309  67.638  1.00  0.00    -0.156 A  
HETATM    6  C   UNL     1     -10.596  10.838  67.748  1.00  0.00    -0.266 A  
HETATM    7  C   UNL     1     -11.357  12.944  66.779  1.00  0.00    -0.367 A  
HETATM    8  C   UNL     1     -11.633  11.683  67.323  1.00  0.00    -0.316 A  
BRANCH   6   9
HETATM    9  C   UNL     1     -10.930   9.460  68.291  1.00  0.00    -0.085 C  
HETATM   10  C   UNL     1     -10.177   8.298  67.650  1.00  0.00    -0.231 C  
HETATM   11  O   UNL     1     -10.169   7.961  66.479  1.00  0.00    -0.251 OA 
HETATM   12  C   UNL     1      -9.421   7.595  68.685  1.00  0.00    -0.151 A  
HETATM   13  C   UNL     1      -8.576   6.510  68.545  1.00  0.00    -0.123 A  
HETATM   14  C   UNL     1      -7.965   6.015  69.701  1.00  0.00    -0.106 A  
HETATM   15  C   UNL     1      -8.208   6.607  70.955  1.00  0.00    -0.120 A  
HETATM   16  C   UNL     1      -9.067   7.705  71.073  1.00  0.00    -0.150 A  
HETATM   17  C   UNL     1      -9.658   8.181  69.918  1.00  0.00    -0.175 A  
HETATM   18  C   UNL     1     -10.584   9.302  69.767  1.00  0.00    -0.231 C  
HETATM   19  O   UNL     1     -11.002   9.951  70.709  1.00  0.00    -0.307 OA 
ENDBRANCH   6   9
ENDBRANCH   2   3
TORSDOF 2
ENDMDL
MODEL      123
REMARK 921   NORMALIZED FREE ENERGY PREDICTED BY IDOCK:   -3.59 KCAL/MOL
REMARK 922        TOTAL FREE ENERGY PREDICTED BY IDOCK:   -4.57 KCAL/MOL
REMARK 923 INTER-LIGAND FREE ENERGY PREDICTED BY IDOCK:   -4.02 KCAL/MOL
REMARK 924 INTRA-LIGAND FREE ENERGY PREDICTED BY IDOCK:   -0.55 KCAL/MOL
REMARK 927      BINDING AFFINITY PREDICTED BY RF-SCORE:    0.00 PKD
ROOT
HETATM    1  C   UNL     1     -13.121  14.255  71.354  1.00  0.00    -0.351 C  
HETATM    2  O   UNL     1     -13.419  12.884  71.604  1.00  0.00    -0.336 OA 
ENDROOT
BRANCH   2   3
HETATM    3  C   UNL     1     -12.599  11.992  70.968  1.00  0.00    -0.273 A  
HETATM    4  C   UNL     1     -12.527  10.634  71.264  1.00  0.00    -0.515 A  
HETATM    5  C   UNL     1     -11.645   9.803  70.567  1.00  0.00    -0.365 A  
HETATM    6  C   UNL     1     -10.817  10.311  69.557  1.00  0.00    -0.292 A  
HETATM    7  C   UNL     1     -11.820  12.503  69.934  1.00  0.00    -0.373 A  
HETATM    8  C   UNL     1     -10.929  11.675  69.241  1.00  0.00    -0.246 A  
BRANCH   6   9
HETATM    9  C   UNL     1      -9.809   9.453  68.816  1.00  0.00    -0.172 C  
HETATM   10  C   UNL     1     -10.104   9.213  67.338  1.00  0.00    -0.230 C  
HETATM   11  O   UNL     1     -11.086   8.690  66.842  1.00  0.00     0.114 OA 
HETATM   12  C   UNL     1      -8.988   9.723  66.544  1.00  0.00    -0.172 A  
HETATM   13  C   UNL     1      -8.852   9.747  65.168  1.00  0.00    -0.213 A  
HETATM   14  C   UNL     1      -7.675  10.292  64.645  1.00  0.00    -0.114 A  
HETATM   15  C   UNL     1      -6.674  10.797  65.498  1.00  0.00     0.014 A  
HETATM   16  C   UNL     1      -6.833  10.764  66.886  1.00  0.00    -0.101 A  
HETATM   17  C   UNL     1      -8.005  10.222  67.383  1.00  0.00    -0.107 A  
HETATM   18  C   UNL     1      -8.416  10.070  68.777  1.00  0.00    -0.126 C  
HETATM   19  O   UNL     1      -7.704  10.377  69.717  1.00  0.00    -0.158 OA 
ENDBRANCH   6   9
ENDBRANCH   2   3
TORSDOF 2
ENDMDL
MODEL      124
REMARK 921   NORMALIZED FREE ENERGY PREDICTED BY IDOCK:   -3.57 KCAL/MOL
REMARK 922        TOTAL FREE ENERGY PREDICTED BY IDOCK:   -4.54 KCAL/MOL
REMARK 923 INTER-LIGAND FREE ENERGY PREDICTED BY IDOCK:   -4.42 KCAL/MOL
REMARK 924 INTRA-LIGAND FREE ENERGY PREDICTED BY IDOCK:   -0.12 KCAL/MOL
REMARK 927      BINDING AFFINITY PREDICTED BY RF-SCORE:    0.00 PKD
ROOT
HETATM    1  C   UNL     1     -11.122  16.607  69.181  1.00  0.00    -0.219 C  
HETATM    2  O   UNL     1     -12.278  15.790  69.005  1.00  0.00    -0.280 OA 
ENDROOT
BRANCH   2   3
HETATM    3  C   UNL     1     -12.016  14.469  68.764  1.00  0.00    -0.280 A  
HETATM    4  C   UNL     1     -12.035  13.876  67.504  1.00  0.00    -0.421 A  
HETATM    5  C   UNL     1     -11.767  12.512  67.359  1.00  0.00    -0.432 A  
HETATM    6  C   UNL     1     -11.474  11.710  68.470  1.00  0.00    -0.358 A  
HETATM    7  C   UNL     1     -11.677  13.697  69.872  1.00  0.00    -0.346 A  
HETATM    8  C   UNL     1     -11.419  12.328  69.730  1.00  0.00    -0.237 A  
BRANCH   6   9
HETATM    9  C   UNL     1     -11.232  10.215  68.360  1.00  0.00    -0.238 C  
HETATM   10  C   UNL     1      -9.975   9.804  67.599  1.00  0.00    -0.174 C  
HETATM   11  O   UNL     1      -9.679  10.053  66.443  1.00  0.00    -0.187 OA 
HETATM   12  C   UNL     1      -9.118   9.022  68.489  1.00  0.00    -0.133 A  
HETATM   13  C   UNL     1      -7.872   8.482  68.227  1.00  0.00    -0.106 A  
HETATM   14  C   UNL     1      -7.251   7.767  69.255  1.00  0.00    -0.081 A  
HETATM   15  C   UNL     1      -7.878   7.611  70.506  1.00  0.00    -0.095 A  
HETATM   16  C   UNL     1      -9.138   8.166  70.749  1.00  0.00    -0.159 A  
HETATM   17  C   UNL     1      -9.734   8.871  69.720  1.00  0.00    -0.180 A  
HETATM   18  C   UNL     1     -11.032   9.543  69.714  1.00  0.00    -0.223 C  
HETATM   19  O   UNL     1     -11.803   9.512  70.657  1.00  0.00    -0.270 OA 
ENDBRANCH   6   9
ENDBRANCH   2   3
TORSDOF 2
ENDMDL
MODEL      125
REMARK 921   NORMALIZED FREE ENERGY PREDICTED BY IDOCK:   -3.57 KCAL/MOL
REMARK 922        TOTAL FREE ENERGY PREDICTED BY IDOCK:   -4.54 KCAL/MOL
REMARK 923 INTER-LIGAND FREE ENERGY PREDICTED BY IDOCK:   -4.02 KCAL/MOL
REMARK 924 INTRA-LIGAND FREE ENERGY PREDICTED BY IDOCK:   -0.52 KCAL/MOL
REMARK 927      BINDING AFFINITY PREDICTED BY RF-SCORE:    0.00 PKD
ROOT
HETATM    1  C   UNL     1      -8.661   6.649  73.730  1.00  0.00    -0.128 C  
HETATM    2  O   UNL     1      -9.970   6.510  73.183  1.00  0.00    -0.164 OA 
ENDROOT
BRANCH   2   3
HETATM    3  C   UNL     1     -10.082   6.858  71.864  1.00  0.00    -0.183 A  
HETATM    4  C   UNL     1      -9.225   7.734  71.203  1.00  0.00    -0.158 A  
HETATM    5  C   UNL     1      -9.429   8.040  69.854  1.00  0.00    -0.160 A  
HETATM    6  C   UNL     1     -10.492   7.476  69.136  1.00  0.00    -0.220 A  
HETATM    7  C   UNL     1     -11.113   6.251  71.154  1.00  0.00    -0.356 A  
HETATM    8  C   UNL     1     -11.325   6.564  69.805  1.00  0.00    -0.456 A  
BRANCH   6   9
HETATM    9  C   UNL     1     -10.778   7.826  67.688  1.00  0.00    -0.227 C  
HETATM   10  C   UNL     1     -10.622   9.298  67.319  1.00  0.00    -0.233 C  
HETATM   11  O   UNL     1     -11.211  10.258  67.786  1.00  0.00    -0.306 OA 
HETATM   12  C   UNL     1      -9.614   9.418  66.268  1.00  0.00    -0.297 A  
HETATM   13  C   UNL     1      -9.133  10.566  65.665  1.00  0.00    -0.209 A  
HETATM   14  C   UNL     1      -8.159  10.414  64.673  1.00  0.00    -0.122 A  
HETATM   15  C   UNL     1      -7.692   9.136  64.311  1.00  0.00    -0.120 A  
HETATM   16  C   UNL     1      -8.192   7.989  64.935  1.00  0.00    -0.137 A  
HETATM   17  C   UNL     1      -9.152   8.161  65.914  1.00  0.00    -0.183 A  
HETATM   18  C   UNL     1      -9.829   7.140  66.711  1.00  0.00    -0.205 C  
HETATM   19  O   UNL     1      -9.648   5.945  66.555  1.00  0.00    -0.151 OA 
ENDBRANCH   6   9
ENDBRANCH   2   3
TORSDOF 2
ENDMDL
MODEL      126
REMARK 921   NORMALIZED FREE ENERGY PREDICTED BY IDOCK:   -3.53 KCAL/MOL
REMARK 922        TOTAL FREE ENERGY PREDICTED BY IDOCK:   -4.50 KCAL/MOL
REMARK 923 INTER-LIGAND FREE ENERGY PREDICTED BY IDOCK:   -4.00 KCAL/MOL
REMARK 924 INTRA-LIGAND FREE ENERGY PREDICTED BY IDOCK:   -0.50 KCAL/MOL
REMARK 927      BINDING AFFINITY PREDICTED BY RF-SCORE:    0.00 PKD
ROOT
HETATM    1  C   UNL     1     -14.282   8.814  72.376  1.00  0.00    -0.385 C  
HETATM    2  O   UNL     1     -13.423   9.900  72.036  1.00  0.00    -0.413 OA 
ENDROOT
BRANCH   2   3
HETATM    3  C   UNL     1     -12.341   9.558  71.271  1.00  0.00    -0.345 A  
HETATM    4  C   UNL     1     -11.579  10.460  70.533  1.00  0.00    -0.433 A  
HETATM    5  C   UNL     1     -10.498  10.013  69.768  1.00  0.00    -0.291 A  
HETATM    6  C   UNL     1     -10.154   8.655  69.725  1.00  0.00    -0.199 A  
HETATM    7  C   UNL     1     -11.983   8.214  71.278  1.00  0.00    -0.318 A  
HETATM    8  C   UNL     1     -10.906   7.762  70.505  1.00  0.00    -0.245 A  
BRANCH   6   9
HETATM    9  C   UNL     1      -9.022   8.124  68.864  1.00  0.00    -0.141 C  
HETATM   10  C   UNL     1      -9.341   7.957  67.382  1.00  0.00    -0.141 C  
HETATM   11  O   UNL     1     -10.206   7.267  66.871  1.00  0.00    -0.238 OA 
HETATM   12  C   UNL     1      -8.419   8.781  66.603  1.00  0.00    -0.111 A  
HETATM   13  C   UNL     1      -8.372   8.960  65.233  1.00  0.00    -0.168 A  
HETATM   14  C   UNL     1      -7.383   9.808  64.726  1.00  0.00    -0.130 A  
HETATM   15  C   UNL     1      -6.475  10.452  65.588  1.00  0.00    -0.125 A  
HETATM   16  C   UNL     1      -6.540  10.258  66.971  1.00  0.00    -0.074 A  
HETATM   17  C   UNL     1      -7.527   9.417  67.452  1.00  0.00    -0.091 A  
HETATM   18  C   UNL     1      -7.810   9.049  68.838  1.00  0.00    -0.095 C  
HETATM   19  O   UNL     1      -7.133   9.426  69.778  1.00  0.00    -0.057 OA 
ENDBRANCH   6   9
ENDBRANCH   2   3
TORSDOF 2
ENDMDL
MODEL      127
REMARK 921   NORMALIZED FREE ENERGY PREDICTED BY IDOCK:   -3.52 KCAL/MOL
REMARK 922        TOTAL FREE ENERGY PREDICTED BY IDOCK:   -4.49 KCAL/MOL
REMARK 923 INTER-LIGAND FREE ENERGY PREDICTED BY IDOCK:   -3.92 KCAL/MOL
REMARK 924 INTRA-LIGAND FREE ENERGY PREDICTED BY IDOCK:   -0.57 KCAL/MOL
REMARK 927      BINDING AFFINITY PREDICTED BY RF-SCORE:    0.00 PKD
ROOT
HETATM    1  C   UNL     1     -10.585  17.524  67.443  1.00  0.00    -0.311 C  
HETATM    2  O   UNL     1     -11.385  16.544  68.101  1.00  0.00    -0.308 OA 
ENDROOT
BRANCH   2   3
HETATM    3  C   UNL     1     -11.008  15.248  67.873  1.00  0.00    -0.306 A  
HETATM    4  C   UNL     1     -11.604  14.136  68.463  1.00  0.00    -0.351 A  
HETATM    5  C   UNL     1     -11.138  12.849  68.178  1.00  0.00    -0.282 A  
HETATM    6  C   UNL     1     -10.069  12.645  67.296  1.00  0.00    -0.215 A  
HETATM    7  C   UNL     1      -9.978  15.060  66.956  1.00  0.00    -0.242 A  
HETATM    8  C   UNL     1      -9.504  13.772  66.677  1.00  0.00    -0.289 A  
BRANCH   6   9
HETATM    9  C   UNL     1      -9.500  11.268  67.004  1.00  0.00    -0.186 C  
HETATM   10  C   UNL     1      -9.480  10.860  65.534  1.00  0.00    -0.211 C  
HETATM   11  O   UNL     1     -10.422  10.760  64.767  1.00  0.00    -0.326 OA 
HETATM   12  C   UNL     1      -8.100  10.587  65.137  1.00  0.00    -0.112 A  
HETATM   13  C   UNL     1      -7.618  10.224  63.893  1.00  0.00    -0.084 A  
HETATM   14  C   UNL     1      -6.241  10.016  63.770  1.00  0.00    -0.132 A  
HETATM   15  C   UNL     1      -5.386  10.174  64.877  1.00  0.00    -0.096 A  
HETATM   16  C   UNL     1      -5.895  10.542  66.127  1.00  0.00    -0.099 A  
HETATM   17  C   UNL     1      -7.259  10.746  66.227  1.00  0.00    -0.137 A  
HETATM   18  C   UNL     1      -8.035  11.133  67.403  1.00  0.00    -0.125 C  
HETATM   19  O   UNL     1      -7.542  11.278  68.508  1.00  0.00    -0.107 OA 
ENDBRANCH   6   9
ENDBRANCH   2   3
TORSDOF 2
ENDMDL
MODEL      128
REMARK 921   NORMALIZED FREE ENERGY PREDICTED BY IDOCK:   -3.51 KCAL/MOL
REMARK 922        TOTAL FREE ENERGY PREDICTED BY IDOCK:   -4.48 KCAL/MOL
REMARK 923 INTER-LIGAND FREE ENERGY PREDICTED BY IDOCK:   -3.97 KCAL/MOL
REMARK 924 INTRA-LIGAND FREE ENERGY PREDICTED BY IDOCK:   -0.51 KCAL/MOL
REMARK 927      BINDING AFFINITY PREDICTED BY RF-SCORE:    0.00 PKD
ROOT
HETATM    1  C   UNL     1     -14.406   8.540  72.390  1.00  0.00    -0.320 C  
HETATM    2  O   UNL     1     -13.038   8.900  72.562  1.00  0.00    -0.422 OA 
ENDROOT
BRANCH   2   3
HETATM    3  C   UNL     1     -12.194   8.435  71.590  1.00  0.00    -0.315 A  
HETATM    4  C   UNL     1     -12.035   7.093  71.256  1.00  0.00    -0.374 A  
HETATM    5  C   UNL     1     -11.136   6.714  70.256  1.00  0.00    -0.379 A  
HETATM    6  C   UNL     1     -10.377   7.668  69.565  1.00  0.00    -0.217 A  
HETATM    7  C   UNL     1     -11.485   9.400  70.880  1.00  0.00    -0.382 A  
HETATM    8  C   UNL     1     -10.576   9.021  69.884  1.00  0.00    -0.240 A  
BRANCH   6   9
HETATM    9  C   UNL     1      -9.351   7.292  68.512  1.00  0.00    -0.141 C  
HETATM   10  C   UNL     1      -8.078   6.633  69.034  1.00  0.00    -0.116 C  
HETATM   11  O   UNL     1      -7.268   7.082  69.826  1.00  0.00    -0.075 OA 
HETATM   12  C   UNL     1      -7.945   5.311  68.424  1.00  0.00    -0.087 A  
HETATM   13  C   UNL     1      -6.964   4.360  68.639  1.00  0.00    -0.052 A  
HETATM   14  C   UNL     1      -7.060   3.162  67.924  1.00  0.00    -0.050 A  
HETATM   15  C   UNL     1      -8.120   2.943  67.023  1.00  0.00    -0.079 A  
HETATM   16  C   UNL     1      -9.101   3.919  66.822  1.00  0.00    -0.161 A  
HETATM   17  C   UNL     1      -8.990   5.095  67.540  1.00  0.00    -0.110 A  
HETATM   18  C   UNL     1      -9.871   6.260  67.517  1.00  0.00    -0.120 C  
HETATM   19  O   UNL     1     -10.835   6.351  66.777  1.00  0.00    -0.326 OA 
ENDBRANCH   6   9
ENDBRANCH   2   3
TORSDOF 2
ENDMDL
MODEL      129
REMARK 921   NORMALIZED FREE ENERGY PREDICTED BY IDOCK:   -3.51 KCAL/MOL
REMARK 922        TOTAL FREE ENERGY PREDICTED BY IDOCK:   -4.48 KCAL/MOL
REMARK 923 INTER-LIGAND FREE ENERGY PREDICTED BY IDOCK:   -4.04 KCAL/MOL
REMARK 924 INTRA-LIGAND FREE ENERGY PREDICTED BY IDOCK:   -0.44 KCAL/MOL
REMARK 927      BINDING AFFINITY PREDICTED BY RF-SCORE:    0.00 PKD
ROOT
HETATM    1  C   UNL     1     -12.525  11.932  63.545  1.00  0.00    -0.492 C  
HETATM    2  O   UNL     1     -11.146  11.967  63.183  1.00  0.00    -0.329 OA 
ENDROOT
BRANCH   2   3
HETATM    3  C   UNL     1     -10.363  11.040  63.815  1.00  0.00    -0.364 A  
HETATM    4  C   UNL     1      -9.343  10.317  63.201  1.00  0.00    -0.343 A  
HETATM    5  C   UNL     1      -8.605   9.378  63.928  1.00  0.00    -0.225 A  
HETATM    6  C   UNL     1      -8.868   9.142  65.284  1.00  0.00    -0.240 A  
HETATM    7  C   UNL     1     -10.604  10.854  65.173  1.00  0.00    -0.268 A  
HETATM    8  C   UNL     1      -9.872   9.907  65.900  1.00  0.00    -0.342 A  
BRANCH   6   9
HETATM    9  C   UNL     1      -8.126   8.094  66.092  1.00  0.00    -0.109 C  
HETATM   10  C   UNL     1      -8.055   8.346  67.595  1.00  0.00    -0.118 C  
HETATM   11  O   UNL     1      -7.571   9.301  68.176  1.00  0.00    -0.083 OA 
HETATM   12  C   UNL     1      -8.679   7.224  68.293  1.00  0.00    -0.125 A  
HETATM   13  C   UNL     1      -8.868   7.054  69.652  1.00  0.00    -0.141 A  
HETATM   14  C   UNL     1      -9.497   5.879  70.074  1.00  0.00    -0.189 A  
HETATM   15  C   UNL     1      -9.921   4.913  69.141  1.00  0.00    -0.252 A  
HETATM   16  C   UNL     1      -9.722   5.106  67.771  1.00  0.00    -0.182 A  
HETATM   17  C   UNL     1      -9.099   6.275  67.374  1.00  0.00    -0.111 A  
HETATM   18  C   UNL     1      -8.776   6.717  66.019  1.00  0.00    -0.147 C  
HETATM   19  O   UNL     1      -8.986   6.037  65.030  1.00  0.00     0.024 OA 
ENDBRANCH   6   9
ENDBRANCH   2   3
TORSDOF 2
ENDMDL
MODEL      130
REMARK 921   NORMALIZED FREE ENERGY PREDICTED BY IDOCK:   -3.49 KCAL/MOL
REMARK 922        TOTAL FREE ENERGY PREDICTED BY IDOCK:   -4.45 KCAL/MOL
REMARK 923 INTER-LIGAND FREE ENERGY PREDICTED BY IDOCK:   -3.94 KCAL/MOL
REMARK 924 INTRA-LIGAND FREE ENERGY PREDICTED BY IDOCK:   -0.52 KCAL/MOL
REMARK 927      BINDING AFFINITY PREDICTED BY RF-SCORE:    0.00 PKD
ROOT
HETATM    1  C   UNL     1     -11.443  14.630  67.808  1.00  0.00    -0.340 C  
HETATM    2  O   UNL     1     -11.200  13.569  66.887  1.00  0.00    -0.297 OA 
ENDROOT
BRANCH   2   3
HETATM    3  C   UNL     1     -10.439  12.544  67.379  1.00  0.00    -0.219 A  
HETATM    4  C   UNL     1      -9.064  12.610  67.588  1.00  0.00    -0.192 A  
HETATM    5  C   UNL     1      -8.369  11.502  68.082  1.00  0.00    -0.152 A  
HETATM    6  C   UNL     1      -9.033  10.304  68.380  1.00  0.00    -0.132 A  
HETATM    7  C   UNL     1     -11.121  11.379  67.716  1.00  0.00    -0.323 A  
HETATM    8  C   UNL     1     -10.426  10.265  68.202  1.00  0.00    -0.224 A  
BRANCH   6   9
HETATM    9  C   UNL     1      -8.306   9.064  68.866  1.00  0.00    -0.125 C  
HETATM   10  C   UNL     1      -8.558   8.678  70.320  1.00  0.00    -0.141 C  
HETATM   11  O   UNL     1      -8.341   9.337  71.322  1.00  0.00    -0.317 OA 
HETATM   12  C   UNL     1      -9.126   7.332  70.361  1.00  0.00    -0.155 A  
HETATM   13  C   UNL     1      -9.538   6.606  71.464  1.00  0.00    -0.169 A  
HETATM   14  C   UNL     1     -10.051   5.325  71.237  1.00  0.00    -0.278 A  
HETATM   15  C   UNL     1     -10.142   4.805  69.932  1.00  0.00    -0.299 A  
HETATM   16  C   UNL     1      -9.720   5.557  68.831  1.00  0.00    -0.193 A  
HETATM   17  C   UNL     1      -9.218   6.822  69.076  1.00  0.00    -0.136 A  
HETATM   18  C   UNL     1      -8.716   7.802  68.115  1.00  0.00    -0.126 C  
HETATM   19  O   UNL     1      -8.632   7.579  66.920  1.00  0.00    -0.119 OA 
ENDBRANCH   6   9
ENDBRANCH   2   3
TORSDOF 2
ENDMDL
MODEL      131
REMARK 921   NORMALIZED FREE ENERGY PREDICTED BY IDOCK:   -3.46 KCAL/MOL
REMARK 922        TOTAL FREE ENERGY PREDICTED BY IDOCK:   -4.42 KCAL/MOL
REMARK 923 INTER-LIGAND FREE ENERGY PREDICTED BY IDOCK:   -3.91 KCAL/MOL
REMARK 924 INTRA-LIGAND FREE ENERGY PREDICTED BY IDOCK:   -0.50 KCAL/MOL
REMARK 927      BINDING AFFINITY PREDICTED BY RF-SCORE:    0.00 PKD
ROOT
HETATM    1  C   UNL     1     -10.545  18.335  68.349  1.00  0.00    -0.170 C  
HETATM    2  O   UNL     1     -10.231  17.662  67.131  1.00  0.00    -0.318 OA 
ENDROOT
BRANCH   2   3
HETATM    3  C   UNL     1     -10.067  16.309  67.249  1.00  0.00    -0.264 A  
HETATM    4  C   UNL     1      -9.066  15.575  66.616  1.00  0.00    -0.310 A  
HETATM    5  C   UNL     1      -8.989  14.190  66.786  1.00  0.00    -0.229 A  
HETATM    6  C   UNL     1      -9.908  13.507  67.594  1.00  0.00    -0.228 A  
HETATM    7  C   UNL     1     -10.957  15.653  68.094  1.00  0.00    -0.314 A  
HETATM    8  C   UNL     1     -10.887  14.264  68.258  1.00  0.00    -0.256 A  
BRANCH   6   9
HETATM    9  C   UNL     1      -9.889  11.999  67.760  1.00  0.00    -0.190 C  
HETATM   10  C   UNL     1     -10.457  11.198  66.592  1.00  0.00    -0.250 C  
HETATM   11  O   UNL     1     -11.580  11.248  66.120  1.00  0.00    -0.213 OA 
HETATM   12  C   UNL     1      -9.418  10.308  66.078  1.00  0.00    -0.234 A  
HETATM   13  C   UNL     1      -9.485   9.436  65.007  1.00  0.00    -0.204 A  
HETATM   14  C   UNL     1      -8.342   8.685  64.714  1.00  0.00    -0.167 A  
HETATM   15  C   UNL     1      -7.173   8.821  65.487  1.00  0.00    -0.084 A  
HETATM   16  C   UNL     1      -7.127   9.710  66.565  1.00  0.00    -0.089 A  
HETATM   17  C   UNL     1      -8.267  10.445  66.836  1.00  0.00    -0.124 A  
HETATM   18  C   UNL     1      -8.480  11.432  67.893  1.00  0.00    -0.139 C  
HETATM   19  O   UNL     1      -7.642  11.696  68.736  1.00  0.00    -0.128 OA 
ENDBRANCH   6   9
ENDBRANCH   2   3
TORSDOF 2
ENDMDL
MODEL      132
REMARK 921   NORMALIZED FREE ENERGY PREDICTED BY IDOCK:   -3.45 KCAL/MOL
REMARK 922        TOTAL FREE ENERGY PREDICTED BY IDOCK:   -4.41 KCAL/MOL
REMARK 923 INTER-LIGAND FREE ENERGY PREDICTED BY IDOCK:   -3.94 KCAL/MOL
REMARK 924 INTRA-LIGAND FREE ENERGY PREDICTED BY IDOCK:   -0.47 KCAL/MOL
REMARK 927      BINDING AFFINITY PREDICTED BY RF-SCORE:    0.00 PKD
ROOT
HETATM    1  C   UNL     1     -10.545  10.535  66.886  1.00  0.00    -0.243 C  
HETATM    2  O   UNL     1      -9.207  10.945  67.154  1.00  0.00    -0.148 OA 
ENDROOT
BRANCH   2   3
HETATM    3  C   UNL     1      -8.971  12.282  66.983  1.00  0.00    -0.204 A  
HETATM    4  C   UNL     1      -8.077  13.031  67.744  1.00  0.00    -0.168 A  
HETATM    5  C   UNL     1      -7.915  14.398  67.503  1.00  0.00    -0.208 A  
HETATM    6  C   UNL     1      -8.641  15.048  66.496  1.00  0.00    -0.179 A  
HETATM    7  C   UNL     1      -9.663  12.901  65.947  1.00  0.00    -0.190 A  
HETATM    8  C   UNL     1      -9.510  14.273  65.710  1.00  0.00    -0.098 A  
BRANCH   6   9
HETATM    9  C   UNL     1      -8.533  16.540  66.241  1.00  0.00    -0.363 C  
HETATM   10  C   UNL     1      -9.409  17.426  67.122  1.00  0.00    -0.245 C  
HETATM   11  O   UNL     1     -10.623  17.416  67.229  1.00  0.00    -0.339 OA 
HETATM   12  C   UNL     1      -8.553  18.347  67.866  1.00  0.00    -0.285 A  
HETATM   13  C   UNL     1      -8.920  19.296  68.803  1.00  0.00    -0.399 A  
HETATM   14  C   UNL     1      -7.902  20.062  69.379  1.00  0.00     0.214 A  
HETATM   15  C   UNL     1      -6.556  19.865  69.012  1.00  0.00    -0.364 A  
HETATM   16  C   UNL     1      -6.208  18.899  68.064  1.00  0.00    -0.224 A  
HETATM   17  C   UNL     1      -7.229  18.150  67.508  1.00  0.00    -0.205 A  
HETATM   18  C   UNL     1      -7.137  17.090  66.507  1.00  0.00    -0.271 C  
HETATM   19  O   UNL     1      -6.088  16.761  65.981  1.00  0.00    -0.023 OA 
ENDBRANCH   6   9
ENDBRANCH   2   3
TORSDOF 2
ENDMDL
MODEL      133
REMARK 921   NORMALIZED FREE ENERGY PREDICTED BY IDOCK:   -3.44 KCAL/MOL
REMARK 922        TOTAL FREE ENERGY PREDICTED BY IDOCK:   -4.39 KCAL/MOL
REMARK 923 INTER-LIGAND FREE ENERGY PREDICTED BY IDOCK:   -4.15 KCAL/MOL
REMARK 924 INTRA-LIGAND FREE ENERGY PREDICTED BY IDOCK:   -0.24 KCAL/MOL
REMARK 927      BINDING AFFINITY PREDICTED BY RF-SCORE:    0.00 PKD
ROOT
HETATM    1  C   UNL     1      -9.783   9.961  64.994  1.00  0.00    -0.288 C  
HETATM    2  O   UNL     1      -8.706  10.277  65.874  1.00  0.00    -0.147 OA 
ENDROOT
BRANCH   2   3
HETATM    3  C   UNL     1      -8.662  11.582  66.282  1.00  0.00    -0.159 A  
HETATM    4  C   UNL     1      -7.606  12.155  66.987  1.00  0.00    -0.093 A  
HETATM    5  C   UNL     1      -7.660  13.497  67.374  1.00  0.00    -0.140 A  
HETATM    6  C   UNL     1      -8.768  14.297  67.065  1.00  0.00    -0.231 A  
HETATM    7  C   UNL     1      -9.749  12.375  65.924  1.00  0.00    -0.237 A  
HETATM    8  C   UNL     1      -9.808  13.717  66.320  1.00  0.00    -0.314 A  
BRANCH   6   9
HETATM    9  C   UNL     1      -8.887  15.741  67.515  1.00  0.00    -0.196 C  
HETATM   10  C   UNL     1      -7.815  16.220  68.490  1.00  0.00    -0.192 C  
HETATM   11  O   UNL     1      -7.550  15.777  69.594  1.00  0.00    -0.199 OA 
HETATM   12  C   UNL     1      -7.103  17.348  67.894  1.00  0.00    -0.178 A  
HETATM   13  C   UNL     1      -6.036  18.062  68.410  1.00  0.00    -0.177 A  
HETATM   14  C   UNL     1      -5.527  19.110  67.637  1.00  0.00    -0.175 A  
HETATM   15  C   UNL     1      -6.086  19.417  66.381  1.00  0.00    -0.175 A  
HETATM   16  C   UNL     1      -7.163  18.681  65.878  1.00  0.00    -0.267 A  
HETATM   17  C   UNL     1      -7.650  17.648  66.657  1.00  0.00    -0.273 A  
HETATM   18  C   UNL     1      -8.755  16.735  66.367  1.00  0.00    -0.302 C  
HETATM   19  O   UNL     1      -9.445  16.822  65.367  1.00  0.00    -0.408 OA 
ENDBRANCH   6   9
ENDBRANCH   2   3
TORSDOF 2
ENDMDL
MODEL      134
REMARK 921   NORMALIZED FREE ENERGY PREDICTED BY IDOCK:   -3.44 KCAL/MOL
REMARK 922        TOTAL FREE ENERGY PREDICTED BY IDOCK:   -4.39 KCAL/MOL
REMARK 923 INTER-LIGAND FREE ENERGY PREDICTED BY IDOCK:   -3.95 KCAL/MOL
REMARK 924 INTRA-LIGAND FREE ENERGY PREDICTED BY IDOCK:   -0.44 KCAL/MOL
REMARK 927      BINDING AFFINITY PREDICTED BY RF-SCORE:    0.00 PKD
ROOT
HETATM    1  C   UNL     1     -11.343  14.449  69.945  1.00  0.00    -0.222 C  
HETATM    2  O   UNL     1     -12.296  13.434  69.642  1.00  0.00    -0.247 OA 
ENDROOT
BRANCH   2   3
HETATM    3  C   UNL     1     -11.788  12.348  68.981  1.00  0.00    -0.300 A  
HETATM    4  C   UNL     1     -11.443  11.144  69.588  1.00  0.00    -0.383 A  
HETATM    5  C   UNL     1     -10.916  10.095  68.829  1.00  0.00    -0.264 A  
HETATM    6  C   UNL     1     -10.724  10.225  67.447  1.00  0.00    -0.339 A  
HETATM    7  C   UNL     1     -11.651  12.477  67.602  1.00  0.00    -0.416 A  
HETATM    8  C   UNL     1     -11.114  11.431  66.842  1.00  0.00    -0.356 A  
BRANCH   6   9
HETATM    9  C   UNL     1     -10.105   9.129  66.599  1.00  0.00    -0.343 C  
HETATM   10  C   UNL     1      -8.581   9.136  66.520  1.00  0.00    -0.127 C  
HETATM   11  O   UNL     1      -7.853  10.023  66.110  1.00  0.00    -0.107 OA 
HETATM   12  C   UNL     1      -8.075   7.864  67.030  1.00  0.00    -0.116 A  
HETATM   13  C   UNL     1      -6.761   7.457  67.174  1.00  0.00    -0.069 A  
HETATM   14  C   UNL     1      -6.535   6.177  67.689  1.00  0.00    -0.046 A  
HETATM   15  C   UNL     1      -7.612   5.343  68.046  1.00  0.00    -0.081 A  
HETATM   16  C   UNL     1      -8.933   5.775  67.892  1.00  0.00    -0.111 A  
HETATM   17  C   UNL     1      -9.135   7.045  67.383  1.00  0.00    -0.124 A  
HETATM   18  C   UNL     1     -10.400   7.730  67.127  1.00  0.00    -0.319 C  
HETATM   19  O   UNL     1     -11.487   7.206  67.297  1.00  0.00     0.015 OA 
ENDBRANCH   6   9
ENDBRANCH   2   3
TORSDOF 2
ENDMDL
MODEL      135
REMARK 921   NORMALIZED FREE ENERGY PREDICTED BY IDOCK:   -3.42 KCAL/MOL
REMARK 922        TOTAL FREE ENERGY PREDICTED BY IDOCK:   -4.38 KCAL/MOL
REMARK 923 INTER-LIGAND FREE ENERGY PREDICTED BY IDOCK:   -3.83 KCAL/MOL
REMARK 924 INTRA-LIGAND FREE ENERGY PREDICTED BY IDOCK:   -0.55 KCAL/MOL
REMARK 927      BINDING AFFINITY PREDICTED BY RF-SCORE:    0.00 PKD
ROOT
HETATM    1  C   UNL     1     -10.535  17.086  69.433  1.00  0.00    -0.250 C  
HETATM    2  O   UNL     1     -10.297  16.737  68.071  1.00  0.00    -0.288 OA 
ENDROOT
BRANCH   2   3
HETATM    3  C   UNL     1      -9.675  15.533  67.886  1.00  0.00    -0.211 A  
HETATM    4  C   UNL     1      -8.349  15.380  67.488  1.00  0.00    -0.190 A  
HETATM    5  C   UNL     1      -7.805  14.105  67.311  1.00  0.00    -0.154 A  
HETATM    6  C   UNL     1      -8.573  12.954  67.531  1.00  0.00    -0.188 A  
HETATM    7  C   UNL     1     -10.436  14.399  68.157  1.00  0.00    -0.237 A  
HETATM    8  C   UNL     1      -9.896  13.121  67.971  1.00  0.00    -0.231 A  
BRANCH   6   9
HETATM    9  C   UNL     1      -8.034  11.554  67.297  1.00  0.00    -0.153 C  
HETATM   10  C   UNL     1      -8.023  10.638  68.518  1.00  0.00    -0.122 C  
HETATM   11  O   UNL     1      -7.448  10.806  69.579  1.00  0.00    -0.142 OA 
HETATM   12  C   UNL     1      -8.839   9.460  68.234  1.00  0.00    -0.128 A  
HETATM   13  C   UNL     1      -9.132   8.396  69.067  1.00  0.00    -0.147 A  
HETATM   14  C   UNL     1      -9.944   7.380  68.553  1.00  0.00    -0.172 A  
HETATM   15  C   UNL     1     -10.439   7.448  67.237  1.00  0.00    -0.385 A  
HETATM   16  C   UNL     1     -10.130   8.534  66.412  1.00  0.00    -0.271 A  
HETATM   17  C   UNL     1      -9.328   9.529  66.939  1.00  0.00    -0.185 A  
HETATM   18  C   UNL     1      -8.863  10.757  66.296  1.00  0.00    -0.173 C  
HETATM   19  O   UNL     1      -9.104  11.031  65.134  1.00  0.00    -0.205 OA 
ENDBRANCH   6   9
ENDBRANCH   2   3
TORSDOF 2
ENDMDL
MODEL      136
REMARK 921   NORMALIZED FREE ENERGY PREDICTED BY IDOCK:   -3.41 KCAL/MOL
REMARK 922        TOTAL FREE ENERGY PREDICTED BY IDOCK:   -4.37 KCAL/MOL
REMARK 923 INTER-LIGAND FREE ENERGY PREDICTED BY IDOCK:   -3.91 KCAL/MOL
REMARK 924 INTRA-LIGAND FREE ENERGY PREDICTED BY IDOCK:   -0.46 KCAL/MOL
REMARK 927      BINDING AFFINITY PREDICTED BY RF-SCORE:    0.00 PKD
ROOT
HETATM    1  C   UNL     1     -12.565  12.314  64.039  1.00  0.00    -0.420 C  
HETATM    2  O   UNL     1     -12.628  13.052  65.257  1.00  0.00    -0.486 OA 
ENDROOT
BRANCH   2   3
HETATM    3  C   UNL     1     -11.422  13.513  65.712  1.00  0.00    -0.315 A  
HETATM    4  C   UNL     1     -10.804  14.680  65.270  1.00  0.00    -0.387 A  
HETATM    5  C   UNL     1      -9.562  15.061  65.785  1.00  0.00    -0.327 A  
HETATM    6  C   UNL     1      -8.911  14.287  66.755  1.00  0.00    -0.249 A  
HETATM    7  C   UNL     1     -10.814  12.759  66.711  1.00  0.00    -0.289 A  
HETATM    8  C   UNL     1      -9.565  13.135  67.222  1.00  0.00    -0.233 A  
BRANCH   6   9
HETATM    9  C   UNL     1      -7.539  14.639  67.299  1.00  0.00    -0.173 C  
HETATM   10  C   UNL     1      -7.524  15.328  68.660  1.00  0.00    -0.126 C  
HETATM   11  O   UNL     1      -8.047  16.383  68.976  1.00  0.00    -0.225 OA 
HETATM   12  C   UNL     1      -6.756  14.511  69.596  1.00  0.00    -0.155 A  
HETATM   13  C   UNL     1      -6.517  14.736  70.940  1.00  0.00     0.214 A  
HETATM   14  C   UNL     1      -5.741  13.795  71.624  1.00  0.00    -0.148 A  
HETATM   15  C   UNL     1      -5.228  12.664  70.960  1.00  0.00    -0.165 A  
HETATM   16  C   UNL     1      -5.482  12.456  69.601  1.00  0.00    -0.085 A  
HETATM   17  C   UNL     1      -6.254  13.397  68.944  1.00  0.00    -0.090 A  
HETATM   18  C   UNL     1      -6.662  13.415  67.541  1.00  0.00    -0.140 C  
HETATM   19  O   UNL     1      -6.304  12.578  66.732  1.00  0.00    -0.111 OA 
ENDBRANCH   6   9
ENDBRANCH   2   3
TORSDOF 2
ENDMDL
MODEL      137
REMARK 921   NORMALIZED FREE ENERGY PREDICTED BY IDOCK:   -3.41 KCAL/MOL
REMARK 922        TOTAL FREE ENERGY PREDICTED BY IDOCK:   -4.37 KCAL/MOL
REMARK 923 INTER-LIGAND FREE ENERGY PREDICTED BY IDOCK:   -4.20 KCAL/MOL
REMARK 924 INTRA-LIGAND FREE ENERGY PREDICTED BY IDOCK:   -0.17 KCAL/MOL
REMARK 927      BINDING AFFINITY PREDICTED BY RF-SCORE:    0.00 PKD
ROOT
HETATM    1  C   UNL     1     -11.154  15.557  67.682  1.00  0.00    -0.311 C  
HETATM    2  O   UNL     1     -12.207  14.635  67.950  1.00  0.00    -0.241 OA 
ENDROOT
BRANCH   2   3
HETATM    3  C   UNL     1     -11.809  13.460  68.528  1.00  0.00    -0.366 A  
HETATM    4  C   UNL     1     -12.248  13.000  69.767  1.00  0.00    -0.242 A  
HETATM    5  C   UNL     1     -11.772  11.791  70.282  1.00  0.00    -0.317 A  
HETATM    6  C   UNL     1     -10.847  11.015  69.571  1.00  0.00    -0.267 A  
HETATM    7  C   UNL     1     -10.929  12.678  67.787  1.00  0.00    -0.266 A  
HETATM    8  C   UNL     1     -10.442  11.471  68.306  1.00  0.00    -0.219 A  
BRANCH   6   9
HETATM    9  C   UNL     1     -10.265   9.726  70.121  1.00  0.00    -0.328 C  
HETATM   10  C   UNL     1     -11.229   8.545  70.197  1.00  0.00    -0.136 C  
HETATM   11  O   UNL     1     -12.278   8.469  70.812  1.00  0.00    -0.172 OA 
HETATM   12  C   UNL     1     -10.699   7.449  69.388  1.00  0.00    -0.220 A  
HETATM   13  C   UNL     1     -11.262   6.210  69.145  1.00  0.00    -0.409 A  
HETATM   14  C   UNL     1     -10.548   5.326  68.330  1.00  0.00    -0.074 A  
HETATM   15  C   UNL     1      -9.305   5.695  67.781  1.00  0.00    -0.113 A  
HETATM   16  C   UNL     1      -8.755   6.955  68.039  1.00  0.00    -0.125 A  
HETATM   17  C   UNL     1      -9.477   7.814  68.846  1.00  0.00    -0.150 A  
HETATM   18  C   UNL     1      -9.132   9.171  69.265  1.00  0.00    -0.146 C  
HETATM   19  O   UNL     1      -8.079   9.710  68.973  1.00  0.00    -0.095 OA 
ENDBRANCH   6   9
ENDBRANCH   2   3
TORSDOF 2
ENDMDL
MODEL      138
REMARK 921   NORMALIZED FREE ENERGY PREDICTED BY IDOCK:   -3.41 KCAL/MOL
REMARK 922        TOTAL FREE ENERGY PREDICTED BY IDOCK:   -4.36 KCAL/MOL
REMARK 923 INTER-LIGAND FREE ENERGY PREDICTED BY IDOCK:   -3.97 KCAL/MOL
REMARK 924 INTRA-LIGAND FREE ENERGY PREDICTED BY IDOCK:   -0.39 KCAL/MOL
REMARK 927      BINDING AFFINITY PREDICTED BY RF-SCORE:    0.00 PKD
ROOT
HETATM    1  C   UNL     1     -11.019  14.757  68.594  1.00  0.00    -0.255 C  
HETATM    2  O   UNL     1     -12.124  13.868  68.749  1.00  0.00    -0.354 OA 
ENDROOT
BRANCH   2   3
HETATM    3  C   UNL     1     -11.786  12.548  68.876  1.00  0.00    -0.322 A  
HETATM    4  C   UNL     1     -12.020  11.778  70.012  1.00  0.00    -0.421 A  
HETATM    5  C   UNL     1     -11.624  10.438  70.052  1.00  0.00    -0.378 A  
HETATM    6  C   UNL     1     -10.986   9.838  68.958  1.00  0.00    -0.193 A  
HETATM    7  C   UNL     1     -11.198  11.955  67.762  1.00  0.00    -0.330 A  
HETATM    8  C   UNL     1     -10.792  10.615  67.805  1.00  0.00    -0.338 A  
BRANCH   6   9
HETATM    9  C   UNL     1     -10.493   8.403  68.984  1.00  0.00    -0.216 C  
HETATM   10  C   UNL     1     -10.296   7.747  67.621  1.00  0.00    -0.239 C  
HETATM   11  O   UNL     1     -11.125   7.567  66.745  1.00  0.00    -0.094 OA 
HETATM   12  C   UNL     1      -8.900   7.335  67.491  1.00  0.00    -0.119 A  
HETATM   13  C   UNL     1      -8.277   6.737  66.410  1.00  0.00    -0.117 A  
HETATM   14  C   UNL     1      -6.917   6.437  66.536  1.00  0.00    -0.067 A  
HETATM   15  C   UNL     1      -6.218   6.737  67.721  1.00  0.00    -0.040 A  
HETATM   16  C   UNL     1      -6.868   7.342  68.800  1.00  0.00    -0.072 A  
HETATM   17  C   UNL     1      -8.212   7.633  68.656  1.00  0.00    -0.128 A  
HETATM   18  C   UNL     1      -9.115   8.259  69.620  1.00  0.00    -0.154 C  
HETATM   19  O   UNL     1      -8.774   8.566  70.749  1.00  0.00    -0.137 OA 
ENDBRANCH   6   9
ENDBRANCH   2   3
TORSDOF 2
ENDMDL
MODEL      139
REMARK 921   NORMALIZED FREE ENERGY PREDICTED BY IDOCK:   -3.40 KCAL/MOL
REMARK 922        TOTAL FREE ENERGY PREDICTED BY IDOCK:   -4.35 KCAL/MOL
REMARK 923 INTER-LIGAND FREE ENERGY PREDICTED BY IDOCK:   -3.88 KCAL/MOL
REMARK 924 INTRA-LIGAND FREE ENERGY PREDICTED BY IDOCK:   -0.48 KCAL/MOL
REMARK 927      BINDING AFFINITY PREDICTED BY RF-SCORE:    0.00 PKD
ROOT
HETATM    1  C   UNL     1     -11.086  16.524  69.471  1.00  0.00    -0.245 C  
HETATM    2  O   UNL     1     -11.838  15.735  68.552  1.00  0.00    -0.363 OA 
ENDROOT
BRANCH   2   3
HETATM    3  C   UNL     1     -11.104  14.823  67.842  1.00  0.00    -0.293 A  
HETATM    4  C   UNL     1     -10.899  14.872  66.466  1.00  0.00    -0.322 A  
HETATM    5  C   UNL     1     -10.144  13.885  65.827  1.00  0.00    -0.336 A  
HETATM    6  C   UNL     1      -9.576  12.827  66.549  1.00  0.00    -0.257 A  
HETATM    7  C   UNL     1     -10.505  13.807  68.581  1.00  0.00    -0.245 A  
HETATM    8  C   UNL     1      -9.756  12.811  67.942  1.00  0.00    -0.217 A  
BRANCH   6   9
HETATM    9  C   UNL     1      -8.797  11.707  65.885  1.00  0.00    -0.057 C  
HETATM   10  C   UNL     1      -7.673  11.098  66.718  1.00  0.00    -0.153 C  
HETATM   11  O   UNL     1      -6.695  11.656  67.185  1.00  0.00    -0.116 OA 
HETATM   12  C   UNL     1      -7.934   9.672  66.896  1.00  0.00    -0.105 A  
HETATM   13  C   UNL     1      -7.198   8.744  67.610  1.00  0.00    -0.080 A  
HETATM   14  C   UNL     1      -7.662   7.426  67.626  1.00  0.00    -0.112 A  
HETATM   15  C   UNL     1      -8.836   7.066  66.937  1.00  0.00    -0.127 A  
HETATM   16  C   UNL     1      -9.566   8.020  66.221  1.00  0.00    -0.223 A  
HETATM   17  C   UNL     1      -9.092   9.319  66.220  1.00  0.00    -0.213 A  
HETATM   18  C   UNL     1      -9.659  10.493  65.560  1.00  0.00    -0.230 C  
HETATM   19  O   UNL     1     -10.648  10.443  64.849  1.00  0.00    -0.183 OA 
ENDBRANCH   6   9
ENDBRANCH   2   3
TORSDOF 2
ENDMDL
MODEL      140
REMARK 921   NORMALIZED FREE ENERGY PREDICTED BY IDOCK:   -3.39 KCAL/MOL
REMARK 922        TOTAL FREE ENERGY PREDICTED BY IDOCK:   -4.34 KCAL/MOL
REMARK 923 INTER-LIGAND FREE ENERGY PREDICTED BY IDOCK:   -3.81 KCAL/MOL
REMARK 924 INTRA-LIGAND FREE ENERGY PREDICTED BY IDOCK:   -0.53 KCAL/MOL
REMARK 927      BINDING AFFINITY PREDICTED BY RF-SCORE:    0.00 PKD
ROOT
HETATM    1  C   UNL     1     -12.653  13.831  71.541  1.00  0.00    -0.318 C  
HETATM    2  O   UNL     1     -12.630  12.581  70.855  1.00  0.00    -0.334 OA 
ENDROOT
BRANCH   2   3
HETATM    3  C   UNL     1     -11.793  12.534  69.774  1.00  0.00    -0.310 A  
HETATM    4  C   UNL     1     -11.442  13.635  68.997  1.00  0.00    -0.346 A  
HETATM    5  C   UNL     1     -10.589  13.485  67.900  1.00  0.00    -0.255 A  
HETATM    6  C   UNL     1     -10.066  12.231  67.556  1.00  0.00    -0.206 A  
HETATM    7  C   UNL     1     -11.243  11.291  69.476  1.00  0.00    -0.337 A  
HETATM    8  C   UNL     1     -10.396  11.136  68.371  1.00  0.00    -0.201 A  
BRANCH   6   9
HETATM    9  C   UNL     1      -9.182  12.018  66.341  1.00  0.00    -0.216 C  
HETATM   10  C   UNL     1      -7.729  11.659  66.637  1.00  0.00    -0.065 C  
HETATM   11  O   UNL     1      -6.907  12.303  67.265  1.00  0.00    -0.141 OA 
HETATM   12  C   UNL     1      -7.429  10.363  66.031  1.00  0.00    -0.134 A  
HETATM   13  C   UNL     1      -6.249   9.642  66.081  1.00  0.00    -0.068 A  
HETATM   14  C   UNL     1      -6.214   8.416  65.411  1.00  0.00    -0.045 A  
HETATM   15  C   UNL     1      -7.344   7.940  64.717  1.00  0.00    -0.082 A  
HETATM   16  C   UNL     1      -8.526   8.685  64.681  1.00  0.00    -0.150 A  
HETATM   17  C   UNL     1      -8.541   9.894  65.352  1.00  0.00    -0.164 A  
HETATM   18  C   UNL     1      -9.638  10.853  65.469  1.00  0.00    -0.221 C  
HETATM   19  O   UNL     1     -10.711  10.708  64.913  1.00  0.00    -0.217 OA 
ENDBRANCH   6   9
ENDBRANCH   2   3
TORSDOF 2
ENDMDL
MODEL      141
REMARK 921   NORMALIZED FREE ENERGY PREDICTED BY IDOCK:   -3.38 KCAL/MOL
REMARK 922        TOTAL FREE ENERGY PREDICTED BY IDOCK:   -4.33 KCAL/MOL
REMARK 923 INTER-LIGAND FREE ENERGY PREDICTED BY IDOCK:   -3.85 KCAL/MOL
REMARK 924 INTRA-LIGAND FREE ENERGY PREDICTED BY IDOCK:   -0.48 KCAL/MOL
REMARK 927      BINDING AFFINITY PREDICTED BY RF-SCORE:    0.00 PKD
ROOT
HETATM    1  C   UNL     1     -11.745   1.885  73.606  1.00  0.00    -0.173 C  
HETATM    2  O   UNL     1     -10.901   2.799  74.303  1.00  0.00    -0.172 OA 
ENDROOT
BRANCH   2   3
HETATM    3  C   UNL     1     -10.306   3.746  73.515  1.00  0.00    -0.160 A  
HETATM    4  C   UNL     1      -8.967   3.727  73.130  1.00  0.00    -0.107 A  
HETATM    5  C   UNL     1      -8.446   4.751  72.333  1.00  0.00    -0.116 A  
HETATM    6  C   UNL     1      -9.250   5.815  71.903  1.00  0.00    -0.155 A  
HETATM    7  C   UNL     1     -11.130   4.769  73.055  1.00  0.00    -0.352 A  
HETATM    8  C   UNL     1     -10.607   5.800  72.265  1.00  0.00    -0.264 A  
BRANCH   6   9
HETATM    9  C   UNL     1      -8.708   6.971  71.083  1.00  0.00    -0.137 C  
HETATM   10  C   UNL     1      -9.012   6.922  69.589  1.00  0.00    -0.144 C  
HETATM   11  O   UNL     1      -8.703   6.059  68.786  1.00  0.00    -0.111 OA 
HETATM   12  C   UNL     1      -9.766   8.118  69.220  1.00  0.00    -0.170 A  
HETATM   13  C   UNL     1     -10.278   8.464  67.982  1.00  0.00    -0.263 A  
HETATM   14  C   UNL     1     -10.969   9.676  67.886  1.00  0.00    -0.205 A  
HETATM   15  C   UNL     1     -11.133  10.504  69.014  1.00  0.00    -0.300 A  
HETATM   16  C   UNL     1     -10.608  10.133  70.255  1.00  0.00    -0.324 A  
HETATM   17  C   UNL     1      -9.930   8.931  70.330  1.00  0.00    -0.214 A  
HETATM   18  C   UNL     1      -9.293   8.318  71.494  1.00  0.00    -0.180 C  
HETATM   19  O   UNL     1      -9.242   8.857  72.585  1.00  0.00    -0.301 OA 
ENDBRANCH   6   9
ENDBRANCH   2   3
TORSDOF 2
ENDMDL
MODEL      142
REMARK 921   NORMALIZED FREE ENERGY PREDICTED BY IDOCK:   -3.36 KCAL/MOL
REMARK 922        TOTAL FREE ENERGY PREDICTED BY IDOCK:   -4.30 KCAL/MOL
REMARK 923 INTER-LIGAND FREE ENERGY PREDICTED BY IDOCK:   -4.25 KCAL/MOL
REMARK 924 INTRA-LIGAND FREE ENERGY PREDICTED BY IDOCK:   -0.06 KCAL/MOL
REMARK 927      BINDING AFFINITY PREDICTED BY RF-SCORE:    0.00 PKD
ROOT
HETATM    1  C   UNL     1      -5.164  12.450  70.763  1.00  0.00    -0.150 C  
HETATM    2  O   UNL     1      -6.384  12.594  70.038  1.00  0.00    -0.098 OA 
ENDROOT
BRANCH   2   3
HETATM    3  C   UNL     1      -6.688  13.877  69.674  1.00  0.00    -0.039 A  
HETATM    4  C   UNL     1      -5.989  15.006  70.094  1.00  0.00    -0.147 A  
HETATM    5  C   UNL     1      -6.385  16.280  69.678  1.00  0.00    -0.198 A  
HETATM    6  C   UNL     1      -7.488  16.455  68.832  1.00  0.00    -0.214 A  
HETATM    7  C   UNL     1      -7.755  14.029  68.793  1.00  0.00    -0.112 A  
HETATM    8  C   UNL     1      -8.160  15.306  68.383  1.00  0.00    -0.137 A  
BRANCH   6   9
HETATM    9  C   UNL     1      -7.982  17.824  68.403  1.00  0.00    -0.293 C  
HETATM   10  C   UNL     1      -7.127  19.005  68.852  1.00  0.00    -0.328 C  
HETATM   11  O   UNL     1      -6.841  19.338  69.989  1.00  0.00    -0.085 OA 
HETATM   12  C   UNL     1      -6.667  19.733  67.671  1.00  0.00    -0.268 A  
HETATM   13  C   UNL     1      -5.843  20.842  67.611  1.00  0.00    -0.345 A  
HETATM   14  C   UNL     1      -5.548  21.359  66.346  1.00  0.00    -0.321 A  
HETATM   15  C   UNL     1      -6.076  20.765  65.183  1.00  0.00    -0.288 A  
HETATM   16  C   UNL     1      -6.907  19.643  65.267  1.00  0.00    -0.262 A  
HETATM   17  C   UNL     1      -7.184  19.146  66.528  1.00  0.00    -0.239 A  
HETATM   18  C   UNL     1      -8.013  17.998  66.888  1.00  0.00    -0.231 C  
HETATM   19  O   UNL     1      -8.632  17.341  66.070  1.00  0.00    -0.492 OA 
ENDBRANCH   6   9
ENDBRANCH   2   3
TORSDOF 2
ENDMDL
MODEL      143
REMARK 921   NORMALIZED FREE ENERGY PREDICTED BY IDOCK:   -3.34 KCAL/MOL
REMARK 922        TOTAL FREE ENERGY PREDICTED BY IDOCK:   -4.28 KCAL/MOL
REMARK 923 INTER-LIGAND FREE ENERGY PREDICTED BY IDOCK:   -3.84 KCAL/MOL
REMARK 924 INTRA-LIGAND FREE ENERGY PREDICTED BY IDOCK:   -0.44 KCAL/MOL
REMARK 927      BINDING AFFINITY PREDICTED BY RF-SCORE:    0.00 PKD
ROOT
HETATM    1  C   UNL     1      -5.831   9.740  68.251  1.00  0.00    -0.043 C  
HETATM    2  O   UNL     1      -6.554  10.260  67.137  1.00  0.00    -0.070 OA 
ENDROOT
BRANCH   2   3
HETATM    3  C   UNL     1      -7.463  11.235  67.447  1.00  0.00    -0.116 A  
HETATM    4  C   UNL     1      -8.611  11.033  68.209  1.00  0.00    -0.143 A  
HETATM    5  C   UNL     1      -9.489  12.091  68.460  1.00  0.00    -0.136 A  
HETATM    6  C   UNL     1      -9.239  13.375  67.956  1.00  0.00    -0.209 A  
HETATM    7  C   UNL     1      -7.174  12.514  66.981  1.00  0.00     0.019 A  
HETATM    8  C   UNL     1      -8.057  13.573  67.223  1.00  0.00    -0.141 A  
BRANCH   6   9
HETATM    9  C   UNL     1     -10.195  14.535  68.160  1.00  0.00    -0.230 C  
HETATM   10  C   UNL     1     -11.660  14.158  68.356  1.00  0.00    -0.318 C  
HETATM   11  O   UNL     1     -12.387  13.543  67.594  1.00  0.00    -0.248 OA 
HETATM   12  C   UNL     1     -12.110  14.659  69.653  1.00  0.00    -0.355 A  
HETATM   13  C   UNL     1     -13.349  14.512  70.250  1.00  0.00     0.267 A  
HETATM   14  C   UNL     1     -13.531  15.093  71.508  1.00  0.00    -0.549 A  
HETATM   15  C   UNL     1     -12.485  15.796  72.136  1.00  0.00    -0.533 A  
HETATM   16  C   UNL     1     -11.240  15.931  71.515  1.00  0.00    -0.257 A  
HETATM   17  C   UNL     1     -11.079  15.348  70.272  1.00  0.00    -0.331 A  
HETATM   18  C   UNL     1      -9.893  15.341  69.419  1.00  0.00    -0.252 C  
HETATM   19  O   UNL     1      -8.864  15.929  69.704  1.00  0.00    -0.195 OA 
ENDBRANCH   6   9
ENDBRANCH   2   3
TORSDOF 2
ENDMDL
MODEL      144
REMARK 921   NORMALIZED FREE ENERGY PREDICTED BY IDOCK:   -3.34 KCAL/MOL
REMARK 922        TOTAL FREE ENERGY PREDICTED BY IDOCK:   -4.28 KCAL/MOL
REMARK 923 INTER-LIGAND FREE ENERGY PREDICTED BY IDOCK:   -4.32 KCAL/MOL
REMARK 924 INTRA-LIGAND FREE ENERGY PREDICTED BY IDOCK:    0.04 KCAL/MOL
REMARK 927      BINDING AFFINITY PREDICTED BY RF-SCORE:    0.00 PKD
ROOT
HETATM    1  C   UNL     1     -12.323  13.568  65.416  1.00  0.00    -0.478 C  
HETATM    2  O   UNL     1     -12.199  13.477  66.834  1.00  0.00    -0.386 OA 
ENDROOT
BRANCH   2   3
HETATM    3  C   UNL     1     -11.685  12.295  67.291  1.00  0.00    -0.324 A  
HETATM    4  C   UNL     1     -11.150  11.298  66.479  1.00  0.00    -0.280 A  
HETATM    5  C   UNL     1     -10.660  10.116  67.039  1.00  0.00    -0.290 A  
HETATM    6  C   UNL     1     -10.692   9.902  68.424  1.00  0.00    -0.271 A  
HETATM    7  C   UNL     1     -11.679  12.121  68.672  1.00  0.00    -0.382 A  
HETATM    8  C   UNL     1     -11.197  10.932  69.235  1.00  0.00    -0.327 A  
BRANCH   6   9
HETATM    9  C   UNL     1     -10.220   8.610  69.065  1.00  0.00    -0.218 C  
HETATM   10  C   UNL     1      -8.819   8.151  68.673  1.00  0.00    -0.134 C  
HETATM   11  O   UNL     1      -8.397   7.888  67.560  1.00  0.00    -0.121 OA 
HETATM   12  C   UNL     1      -7.996   8.061  69.877  1.00  0.00    -0.111 A  
HETATM   13  C   UNL     1      -6.659   7.721  69.982  1.00  0.00    -0.037 A  
HETATM   14  C   UNL     1      -6.096   7.706  71.262  1.00  0.00    -0.035 A  
HETATM   15  C   UNL     1      -6.870   8.028  72.394  1.00  0.00    -0.085 A  
HETATM   16  C   UNL     1      -8.220   8.369  72.264  1.00  0.00    -0.202 A  
HETATM   17  C   UNL     1      -8.757   8.381  70.990  1.00  0.00    -0.185 A  
HETATM   18  C   UNL     1     -10.124   8.700  70.584  1.00  0.00    -0.198 C  
HETATM   19  O   UNL     1     -11.011   8.958  71.378  1.00  0.00    -0.259 OA 
ENDBRANCH   6   9
ENDBRANCH   2   3
TORSDOF 2
ENDMDL
MODEL      145
REMARK 921   NORMALIZED FREE ENERGY PREDICTED BY IDOCK:   -3.33 KCAL/MOL
REMARK 922        TOTAL FREE ENERGY PREDICTED BY IDOCK:   -4.28 KCAL/MOL
REMARK 923 INTER-LIGAND FREE ENERGY PREDICTED BY IDOCK:   -3.74 KCAL/MOL
REMARK 924 INTRA-LIGAND FREE ENERGY PREDICTED BY IDOCK:   -0.54 KCAL/MOL
REMARK 927      BINDING AFFINITY PREDICTED BY RF-SCORE:    0.00 PKD
ROOT
HETATM    1  C   UNL     1     -10.291   6.390  74.124  1.00  0.00    -0.317 C  
HETATM    2  O   UNL     1     -10.981   7.509  73.573  1.00  0.00    -0.339 OA 
ENDROOT
BRANCH   2   3
HETATM    3  C   UNL     1     -10.708   7.761  72.256  1.00  0.00    -0.269 A  
HETATM    4  C   UNL     1     -10.910   8.987  71.627  1.00  0.00    -0.437 A  
HETATM    5  C   UNL     1     -10.614   9.143  70.270  1.00  0.00    -0.261 A  
HETATM    6  C   UNL     1     -10.107   8.079  69.512  1.00  0.00    -0.196 A  
HETATM    7  C   UNL     1     -10.158   6.708  71.530  1.00  0.00    -0.200 A  
HETATM    8  C   UNL     1      -9.869   6.861  70.168  1.00  0.00    -0.185 A  
BRANCH   6   9
HETATM    9  C   UNL     1      -9.824   8.195  68.025  1.00  0.00    -0.200 C  
HETATM   10  C   UNL     1      -8.350   8.207  67.632  1.00  0.00    -0.127 C  
HETATM   11  O   UNL     1      -7.486   8.996  67.974  1.00  0.00    -0.083 OA 
HETATM   12  C   UNL     1      -8.090   7.083  66.735  1.00  0.00    -0.109 A  
HETATM   13  C   UNL     1      -6.890   6.694  66.168  1.00  0.00    -0.060 A  
HETATM   14  C   UNL     1      -6.904   5.572  65.335  1.00  0.00    -0.056 A  
HETATM   15  C   UNL     1      -8.100   4.870  65.090  1.00  0.00    -0.112 A  
HETATM   16  C   UNL     1      -9.302   5.280  65.675  1.00  0.00    -0.126 A  
HETATM   17  C   UNL     1      -9.267   6.391  66.497  1.00  0.00    -0.174 A  
HETATM   18  C   UNL     1     -10.369   7.019  67.223  1.00  0.00    -0.261 C  
HETATM   19  O   UNL     1     -11.524   6.639  67.137  1.00  0.00    -0.230 OA 
ENDBRANCH   6   9
ENDBRANCH   2   3
TORSDOF 2
ENDMDL
MODEL      146
REMARK 921   NORMALIZED FREE ENERGY PREDICTED BY IDOCK:   -3.31 KCAL/MOL
REMARK 922        TOTAL FREE ENERGY PREDICTED BY IDOCK:   -4.26 KCAL/MOL
REMARK 923 INTER-LIGAND FREE ENERGY PREDICTED BY IDOCK:   -3.69 KCAL/MOL
REMARK 924 INTRA-LIGAND FREE ENERGY PREDICTED BY IDOCK:   -0.57 KCAL/MOL
REMARK 927      BINDING AFFINITY PREDICTED BY RF-SCORE:    0.00 PKD
ROOT
HETATM    1  C   UNL     1     -14.160   9.305  72.661  1.00  0.00    -0.163 C  
HETATM    2  O   UNL     1     -13.314   9.848  71.649  1.00  0.00    -0.384 OA 
ENDROOT
BRANCH   2   3
HETATM    3  C   UNL     1     -12.232   9.074  71.329  1.00  0.00    -0.312 A  
HETATM    4  C   UNL     1     -11.139   9.511  70.585  1.00  0.00    -0.364 A  
HETATM    5  C   UNL     1     -10.086   8.640  70.295  1.00  0.00    -0.206 A  
HETATM    6  C   UNL     1     -10.100   7.312  70.744  1.00  0.00    -0.193 A  
HETATM    7  C   UNL     1     -12.239   7.773  71.824  1.00  0.00    -0.338 A  
HETATM    8  C   UNL     1     -11.189   6.896  71.527  1.00  0.00    -0.290 A  
BRANCH   6   9
HETATM    9  C   UNL     1      -9.001   6.322  70.404  1.00  0.00    -0.154 C  
HETATM   10  C   UNL     1      -8.355   5.617  71.593  1.00  0.00    -0.124 C  
HETATM   11  O   UNL     1      -7.769   6.119  72.537  1.00  0.00    -0.101 OA 
HETATM   12  C   UNL     1      -8.540   4.175  71.447  1.00  0.00    -0.124 A  
HETATM   13  C   UNL     1      -8.148   3.166  72.307  1.00  0.00    -0.059 A  
HETATM   14  C   UNL     1      -8.443   1.851  71.936  1.00  0.00    -0.071 A  
HETATM   15  C   UNL     1      -9.115   1.576  70.729  1.00  0.00    -0.138 A  
HETATM   16  C   UNL     1      -9.502   2.612  69.874  1.00  0.00    -0.151 A  
HETATM   17  C   UNL     1      -9.203   3.905  70.261  1.00  0.00    -0.215 A  
HETATM   18  C   UNL     1      -9.495   5.153  69.558  1.00  0.00    -0.146 C  
HETATM   19  O   UNL     1     -10.021   5.191  68.460  1.00  0.00    -0.155 OA 
ENDBRANCH   6   9
ENDBRANCH   2   3
TORSDOF 2
ENDMDL
MODEL      147
REMARK 921   NORMALIZED FREE ENERGY PREDICTED BY IDOCK:   -3.31 KCAL/MOL
REMARK 922        TOTAL FREE ENERGY PREDICTED BY IDOCK:   -4.25 KCAL/MOL
REMARK 923 INTER-LIGAND FREE ENERGY PREDICTED BY IDOCK:   -3.71 KCAL/MOL
REMARK 924 INTRA-LIGAND FREE ENERGY PREDICTED BY IDOCK:   -0.54 KCAL/MOL
REMARK 927      BINDING AFFINITY PREDICTED BY RF-SCORE:    0.00 PKD
ROOT
HETATM    1  C   UNL     1      -5.546   4.097  64.524  1.00  0.00    -0.014 C  
HETATM    2  O   UNL     1      -5.608   4.394  65.918  1.00  0.00    -0.016 OA 
ENDROOT
BRANCH   2   3
HETATM    3  C   UNL     1      -6.717   5.095  66.306  1.00  0.00    -0.057 A  
HETATM    4  C   UNL     1      -6.710   6.139  67.228  1.00  0.00    -0.061 A  
HETATM    5  C   UNL     1      -7.899   6.787  67.573  1.00  0.00    -0.111 A  
HETATM    6  C   UNL     1      -9.122   6.406  67.005  1.00  0.00    -0.130 A  
HETATM    7  C   UNL     1      -7.915   4.738  65.695  1.00  0.00    -0.099 A  
HETATM    8  C   UNL     1      -9.110   5.379  66.048  1.00  0.00    -0.159 A  
BRANCH   6   9
HETATM    9  C   UNL     1     -10.441   7.048  67.395  1.00  0.00    -0.343 C  
HETATM   10  C   UNL     1     -10.892   6.811  68.833  1.00  0.00    -0.243 C  
HETATM   11  O   UNL     1     -11.114   5.748  69.387  1.00  0.00    -0.346 OA 
HETATM   12  C   UNL     1     -11.033   8.101  69.504  1.00  0.00    -0.056 A  
HETATM   13  C   UNL     1     -11.384   8.354  70.817  1.00  0.00    -0.290 A  
HETATM   14  C   UNL     1     -11.453   9.691  71.221  1.00  0.00    -0.463 A  
HETATM   15  C   UNL     1     -11.172  10.733  70.316  1.00  0.00    -0.326 A  
HETATM   16  C   UNL     1     -10.818  10.454  68.992  1.00  0.00    -0.273 A  
HETATM   17  C   UNL     1     -10.754   9.126  68.614  1.00  0.00    -0.156 A  
HETATM   18  C   UNL     1     -10.412   8.570  67.306  1.00  0.00    -0.296 C  
HETATM   19  O   UNL     1     -10.181   9.260  66.329  1.00  0.00    -0.273 OA 
ENDBRANCH   6   9
ENDBRANCH   2   3
TORSDOF 2
ENDMDL
MODEL      148
REMARK 921   NORMALIZED FREE ENERGY PREDICTED BY IDOCK:   -3.29 KCAL/MOL
REMARK 922        TOTAL FREE ENERGY PREDICTED BY IDOCK:   -4.23 KCAL/MOL
REMARK 923 INTER-LIGAND FREE ENERGY PREDICTED BY IDOCK:   -3.69 KCAL/MOL
REMARK 924 INTRA-LIGAND FREE ENERGY PREDICTED BY IDOCK:   -0.54 KCAL/MOL
REMARK 927      BINDING AFFINITY PREDICTED BY RF-SCORE:    0.00 PKD
ROOT
HETATM    1  C   UNL     1      -8.060   3.699  62.771  1.00  0.00    -0.072 C  
HETATM    2  O   UNL     1      -9.349   3.953  63.326  1.00  0.00    -0.117 OA 
ENDROOT
BRANCH   2   3
HETATM    3  C   UNL     1      -9.336   4.510  64.576  1.00  0.00    -0.112 A  
HETATM    4  C   UNL     1     -10.340   4.343  65.526  1.00  0.00    -0.247 A  
HETATM    5  C   UNL     1     -10.245   4.966  66.774  1.00  0.00    -0.274 A  
HETATM    6  C   UNL     1      -9.144   5.770  67.099  1.00  0.00    -0.112 A  
HETATM    7  C   UNL     1      -8.213   5.265  64.901  1.00  0.00    -0.136 A  
HETATM    8  C   UNL     1      -8.120   5.898  66.147  1.00  0.00    -0.109 A  
BRANCH   6   9
HETATM    9  C   UNL     1      -9.031   6.507  68.421  1.00  0.00    -0.125 C  
HETATM   10  C   UNL     1     -10.214   7.399  68.784  1.00  0.00    -0.191 C  
HETATM   11  O   UNL     1     -10.661   8.347  68.163  1.00  0.00    -0.197 OA 
HETATM   12  C   UNL     1     -10.779   6.943  70.053  1.00  0.00    -0.276 A  
HETATM   13  C   UNL     1     -11.878   7.436  70.732  1.00  0.00    -0.288 A  
HETATM   14  C   UNL     1     -12.220   6.821  71.940  1.00  0.00    -0.377 A  
HETATM   15  C   UNL     1     -11.467   5.740  72.437  1.00  0.00    -0.343 A  
HETATM   16  C   UNL     1     -10.360   5.256  71.733  1.00  0.00    -0.277 A  
HETATM   17  C   UNL     1     -10.040   5.877  70.539  1.00  0.00    -0.254 A  
HETATM   18  C   UNL     1      -8.946   5.569  69.620  1.00  0.00    -0.117 C  
HETATM   19  O   UNL     1      -8.111   4.710  69.843  1.00  0.00    -0.067 OA 
ENDBRANCH   6   9
ENDBRANCH   2   3
TORSDOF 2
ENDMDL
MODEL      149
REMARK 921   NORMALIZED FREE ENERGY PREDICTED BY IDOCK:   -3.28 KCAL/MOL
REMARK 922        TOTAL FREE ENERGY PREDICTED BY IDOCK:   -4.22 KCAL/MOL
REMARK 923 INTER-LIGAND FREE ENERGY PREDICTED BY IDOCK:   -3.80 KCAL/MOL
REMARK 924 INTRA-LIGAND FREE ENERGY PREDICTED BY IDOCK:   -0.42 KCAL/MOL
REMARK 927      BINDING AFFINITY PREDICTED BY RF-SCORE:    0.00 PKD
ROOT
HETATM    1  C   UNL     1      -7.540  16.482  66.537  1.00  0.00    -0.269 C  
HETATM    2  O   UNL     1      -6.836  15.429  67.192  1.00  0.00    -0.244 OA 
ENDROOT
BRANCH   2   3
HETATM    3  C   UNL     1      -7.617  14.382  67.599  1.00  0.00    -0.179 A  
HETATM    4  C   UNL     1      -8.894  14.512  68.138  1.00  0.00    -0.177 A  
HETATM    5  C   UNL     1      -9.611  13.381  68.540  1.00  0.00    -0.141 A  
HETATM    6  C   UNL     1      -9.068  12.096  68.411  1.00  0.00    -0.151 A  
HETATM    7  C   UNL     1      -7.083  13.110  67.418  1.00  0.00    -0.116 A  
HETATM    8  C   UNL     1      -7.795  11.977  67.829  1.00  0.00    -0.145 A  
BRANCH   6   9
HETATM    9  C   UNL     1      -9.792  10.850  68.886  1.00  0.00    -0.203 C  
HETATM   10  C   UNL     1     -10.605  10.113  67.826  1.00  0.00    -0.256 C  
HETATM   11  O   UNL     1     -11.533  10.538  67.160  1.00  0.00    -0.311 OA 
HETATM   12  C   UNL     1     -10.098   8.748  67.704  1.00  0.00    -0.273 A  
HETATM   13  C   UNL     1     -10.514   7.749  66.843  1.00  0.00    -0.388 A  
HETATM   14  C   UNL     1      -9.863   6.515  66.923  1.00  0.00    -0.211 A  
HETATM   15  C   UNL     1      -8.823   6.308  67.849  1.00  0.00    -0.112 A  
HETATM   16  C   UNL     1      -8.417   7.332  68.710  1.00  0.00    -0.129 A  
HETATM   17  C   UNL     1      -9.072   8.546  68.613  1.00  0.00    -0.139 A  
HETATM   18  C   UNL     1      -8.844   9.765  69.386  1.00  0.00    -0.182 C  
HETATM   19  O   UNL     1      -8.035   9.836  70.294  1.00  0.00    -0.170 OA 
ENDBRANCH   6   9
ENDBRANCH   2   3
TORSDOF 2
ENDMDL
MODEL      150
REMARK 921   NORMALIZED FREE ENERGY PREDICTED BY IDOCK:   -3.27 KCAL/MOL
REMARK 922        TOTAL FREE ENERGY PREDICTED BY IDOCK:   -4.21 KCAL/MOL
REMARK 923 INTER-LIGAND FREE ENERGY PREDICTED BY IDOCK:   -3.67 KCAL/MOL
REMARK 924 INTRA-LIGAND FREE ENERGY PREDICTED BY IDOCK:   -0.54 KCAL/MOL
REMARK 927      BINDING AFFINITY PREDICTED BY RF-SCORE:    0.00 PKD
ROOT
HETATM    1  C   UNL     1     -12.863  12.771  63.002  1.00  0.00     0.560 C  
HETATM    2  O   UNL     1     -13.153  13.458  64.217  1.00  0.00    -0.380 OA 
ENDROOT
BRANCH   2   3
HETATM    3  C   UNL     1     -12.405  13.065  65.292  1.00  0.00    -0.486 A  
HETATM    4  C   UNL     1     -11.657  11.891  65.348  1.00  0.00    -0.284 A  
HETATM    5  C   UNL     1     -10.934  11.567  66.500  1.00  0.00    -0.346 A  
HETATM    6  C   UNL     1     -10.941  12.409  67.620  1.00  0.00    -0.276 A  
HETATM    7  C   UNL     1     -12.382  13.936  66.377  1.00  0.00    -0.468 A  
HETATM    8  C   UNL     1     -11.666  13.608  67.535  1.00  0.00    -0.406 A  
BRANCH   6   9
HETATM    9  C   UNL     1     -10.213  12.065  68.907  1.00  0.00    -0.078 C  
HETATM   10  C   UNL     1     -10.670  10.787  69.603  1.00  0.00    -0.211 C  
HETATM   11  O   UNL     1     -11.781  10.514  70.024  1.00  0.00    -0.267 OA 
HETATM   12  C   UNL     1      -9.533   9.874  69.709  1.00  0.00    -0.254 A  
HETATM   13  C   UNL     1      -9.503   8.595  70.234  1.00  0.00    -0.182 A  
HETATM   14  C   UNL     1      -8.278   7.921  70.221  1.00  0.00    -0.124 A  
HETATM   15  C   UNL     1      -7.126   8.530  69.689  1.00  0.00    -0.052 A  
HETATM   16  C   UNL     1      -7.179   9.824  69.162  1.00  0.00    -0.073 A  
HETATM   17  C   UNL     1      -8.400  10.473  69.182  1.00  0.00    -0.154 A  
HETATM   18  C   UNL     1      -8.724  11.814  68.700  1.00  0.00    -0.058 C  
HETATM   19  O   UNL     1      -7.891  12.576  68.243  1.00  0.00    -0.130 OA 
ENDBRANCH   6   9
ENDBRANCH   2   3
TORSDOF 2
ENDMDL
MODEL      151
REMARK 921   NORMALIZED FREE ENERGY PREDICTED BY IDOCK:   -3.25 KCAL/MOL
REMARK 922        TOTAL FREE ENERGY PREDICTED BY IDOCK:   -4.19 KCAL/MOL
REMARK 923 INTER-LIGAND FREE ENERGY PREDICTED BY IDOCK:   -3.65 KCAL/MOL
REMARK 924 INTRA-LIGAND FREE ENERGY PREDICTED BY IDOCK:   -0.53 KCAL/MOL
REMARK 927      BINDING AFFINITY PREDICTED BY RF-SCORE:    0.00 PKD
ROOT
HETATM    1  C   UNL     1      -5.596   5.181  73.204  1.00  0.00    -0.021 C  
HETATM    2  O   UNL     1      -6.428   6.195  73.764  1.00  0.00    -0.068 OA 
ENDROOT
BRANCH   2   3
HETATM    3  C   UNL     1      -7.497   6.554  72.988  1.00  0.00    -0.089 A  
HETATM    4  C   UNL     1      -8.778   6.022  73.113  1.00  0.00    -0.121 A  
HETATM    5  C   UNL     1      -9.804   6.442  72.262  1.00  0.00    -0.168 A  
HETATM    6  C   UNL     1      -9.574   7.405  71.270  1.00  0.00    -0.166 A  
HETATM    7  C   UNL     1      -7.263   7.547  72.041  1.00  0.00    -0.068 A  
HETATM    8  C   UNL     1      -8.288   7.962  71.182  1.00  0.00    -0.116 A  
BRANCH   6   9
HETATM    9  C   UNL     1     -10.648   7.846  70.293  1.00  0.00    -0.231 C  
HETATM   10  C   UNL     1     -11.102   9.298  70.421  1.00  0.00    -0.255 C  
HETATM   11  O   UNL     1     -11.594   9.850  71.390  1.00  0.00    -0.374 OA 
HETATM   12  C   UNL     1     -10.856   9.984  69.154  1.00  0.00    -0.253 A  
HETATM   13  C   UNL     1     -11.080  11.311  68.837  1.00  0.00    -0.295 A  
HETATM   14  C   UNL     1     -10.760  11.728  67.542  1.00  0.00    -0.262 A  
HETATM   15  C   UNL     1     -10.228  10.822  66.604  1.00  0.00    -0.283 A  
HETATM   16  C   UNL     1     -10.008   9.485  66.946  1.00  0.00    -0.278 A  
HETATM   17  C   UNL     1     -10.329   9.093  68.233  1.00  0.00    -0.256 A  
HETATM   18  C   UNL     1     -10.198   7.769  68.839  1.00  0.00    -0.211 C  
HETATM   19  O   UNL     1      -9.814   6.791  68.223  1.00  0.00    -0.139 OA 
ENDBRANCH   6   9
ENDBRANCH   2   3
TORSDOF 2
ENDMDL
MODEL      152
REMARK 921   NORMALIZED FREE ENERGY PREDICTED BY IDOCK:   -3.23 KCAL/MOL
REMARK 922        TOTAL FREE ENERGY PREDICTED BY IDOCK:   -4.17 KCAL/MOL
REMARK 923 INTER-LIGAND FREE ENERGY PREDICTED BY IDOCK:   -3.73 KCAL/MOL
REMARK 924 INTRA-LIGAND FREE ENERGY PREDICTED BY IDOCK:   -0.43 KCAL/MOL
REMARK 927      BINDING AFFINITY PREDICTED BY RF-SCORE:    0.00 PKD
ROOT
HETATM    1  C   UNL     1      -8.381   4.897  69.298  1.00  0.00    -0.084 C  
HETATM    2  O   UNL     1      -8.132   6.010  70.154  1.00  0.00    -0.110 OA 
ENDROOT
BRANCH   2   3
HETATM    3  C   UNL     1      -8.463   7.227  69.625  1.00  0.00    -0.133 A  
HETATM    4  C   UNL     1      -8.473   7.522  68.264  1.00  0.00    -0.125 A  
HETATM    5  C   UNL     1      -8.811   8.803  67.820  1.00  0.00    -0.137 A  
HETATM    6  C   UNL     1      -9.150   9.818  68.725  1.00  0.00    -0.136 A  
HETATM    7  C   UNL     1      -8.845   8.209  70.535  1.00  0.00    -0.144 A  
HETATM    8  C   UNL     1      -9.176   9.496  70.092  1.00  0.00    -0.281 A  
BRANCH   6   9
HETATM    9  C   UNL     1      -9.470  11.234  68.285  1.00  0.00    -0.190 C  
HETATM   10  C   UNL     1      -8.861  11.667  66.955  1.00  0.00    -0.190 C  
HETATM   11  O   UNL     1      -7.683  11.715  66.647  1.00  0.00    -0.139 OA 
HETATM   12  C   UNL     1      -9.938  12.040  66.040  1.00  0.00    -0.258 A  
HETATM   13  C   UNL     1      -9.843  12.455  64.724  1.00  0.00    -0.103 A  
HETATM   14  C   UNL     1     -11.034  12.759  64.057  1.00  0.00    -0.454 A  
HETATM   15  C   UNL     1     -12.276  12.642  64.709  1.00  0.00    -0.528 A  
HETATM   16  C   UNL     1     -12.349  12.219  66.040  1.00  0.00     0.193 A  
HETATM   17  C   UNL     1     -11.160  11.921  66.681  1.00  0.00    -0.360 A  
HETATM   18  C   UNL     1     -10.960  11.463  68.055  1.00  0.00    -0.237 C  
HETATM   19  O   UNL     1     -11.871  11.334  68.852  1.00  0.00    -0.317 OA 
ENDBRANCH   6   9
ENDBRANCH   2   3
TORSDOF 2
ENDMDL
MODEL      153
REMARK 921   NORMALIZED FREE ENERGY PREDICTED BY IDOCK:   -3.22 KCAL/MOL
REMARK 922        TOTAL FREE ENERGY PREDICTED BY IDOCK:   -4.15 KCAL/MOL
REMARK 923 INTER-LIGAND FREE ENERGY PREDICTED BY IDOCK:   -3.62 KCAL/MOL
REMARK 924 INTRA-LIGAND FREE ENERGY PREDICTED BY IDOCK:   -0.54 KCAL/MOL
REMARK 927      BINDING AFFINITY PREDICTED BY RF-SCORE:    0.00 PKD
ROOT
HETATM    1  C   UNL     1      -6.878   7.597  63.218  1.00  0.00    -0.067 C  
HETATM    2  O   UNL     1      -7.257   8.955  63.427  1.00  0.00    -0.093 OA 
ENDROOT
BRANCH   2   3
HETATM    3  C   UNL     1      -7.556   9.276  64.723  1.00  0.00    -0.109 A  
HETATM    4  C   UNL     1      -8.218   8.434  65.613  1.00  0.00    -0.132 A  
HETATM    5  C   UNL     1      -8.493   8.857  66.917  1.00  0.00    -0.113 A  
HETATM    6  C   UNL     1      -8.111  10.130  67.360  1.00  0.00    -0.114 A  
HETATM    7  C   UNL     1      -7.126  10.524  65.163  1.00  0.00    -0.020 A  
HETATM    8  C   UNL     1      -7.409  10.954  66.465  1.00  0.00    -0.142 A  
BRANCH   6   9
HETATM    9  C   UNL     1      -8.440  10.646  68.749  1.00  0.00    -0.149 C  
HETATM   10  C   UNL     1      -9.914  10.602  69.139  1.00  0.00    -0.211 C  
HETATM   11  O   UNL     1     -10.855  11.148  68.589  1.00  0.00    -0.182 OA 
HETATM   12  C   UNL     1     -10.064   9.770  70.331  1.00  0.00    -0.313 A  
HETATM   13  C   UNL     1     -11.224   9.429  71.002  1.00  0.00    -0.412 A  
HETATM   14  C   UNL     1     -11.101   8.612  72.130  1.00  0.00    -0.434 A  
HETATM   15  C   UNL     1      -9.838   8.159  72.557  1.00  0.00    -0.363 A  
HETATM   16  C   UNL     1      -8.678   8.515  71.863  1.00  0.00    -0.270 A  
HETATM   17  C   UNL     1      -8.822   9.321  70.749  1.00  0.00    -0.282 A  
HETATM   18  C   UNL     1      -7.782   9.831  69.857  1.00  0.00    -0.157 C  
HETATM   19  O   UNL     1      -6.594   9.631  70.038  1.00  0.00    -0.055 OA 
ENDBRANCH   6   9
ENDBRANCH   2   3
TORSDOF 2
ENDMDL
MODEL      154
REMARK 921   NORMALIZED FREE ENERGY PREDICTED BY IDOCK:   -3.22 KCAL/MOL
REMARK 922        TOTAL FREE ENERGY PREDICTED BY IDOCK:   -4.15 KCAL/MOL
REMARK 923 INTER-LIGAND FREE ENERGY PREDICTED BY IDOCK:   -3.77 KCAL/MOL
REMARK 924 INTRA-LIGAND FREE ENERGY PREDICTED BY IDOCK:   -0.38 KCAL/MOL
REMARK 927      BINDING AFFINITY PREDICTED BY RF-SCORE:    0.00 PKD
ROOT
HETATM    1  C   UNL     1     -12.238  12.322  63.726  1.00  0.00    -0.546 C  
HETATM    2  O   UNL     1     -11.620  13.104  64.745  1.00  0.00    -0.312 OA 
ENDROOT
BRANCH   2   3
HETATM    3  C   UNL     1     -10.922  12.386  65.677  1.00  0.00    -0.286 A  
HETATM    4  C   UNL     1     -10.085  11.312  65.383  1.00  0.00    -0.314 A  
HETATM    5  C   UNL     1      -9.424  10.630  66.408  1.00  0.00    -0.204 A  
HETATM    6  C   UNL     1      -9.582  11.006  67.749  1.00  0.00    -0.180 A  
HETATM    7  C   UNL     1     -11.051  12.804  66.998  1.00  0.00    -0.316 A  
HETATM    8  C   UNL     1     -10.397  12.116  68.027  1.00  0.00    -0.213 A  
BRANCH   6   9
HETATM    9  C   UNL     1      -8.925  10.256  68.893  1.00  0.00    -0.164 C  
HETATM   10  C   UNL     1      -9.778   9.178  69.554  1.00  0.00    -0.173 C  
HETATM   11  O   UNL     1     -10.857   9.306  70.106  1.00  0.00    -0.224 OA 
HETATM   12  C   UNL     1      -9.094   7.892  69.434  1.00  0.00    -0.145 A  
HETATM   13  C   UNL     1      -9.522   6.647  69.858  1.00  0.00    -0.159 A  
HETATM   14  C   UNL     1      -8.674   5.560  69.624  1.00  0.00    -0.110 A  
HETATM   15  C   UNL     1      -7.435   5.738  68.979  1.00  0.00    -0.084 A  
HETATM   16  C   UNL     1      -7.023   7.005  68.558  1.00  0.00    -0.075 A  
HETATM   17  C   UNL     1      -7.876   8.067  68.796  1.00  0.00    -0.114 A  
HETATM   18  C   UNL     1      -7.688   9.477  68.460  1.00  0.00    -0.081 C  
HETATM   19  O   UNL     1      -6.671   9.908  67.946  1.00  0.00    -0.067 OA 
ENDBRANCH   6   9
ENDBRANCH   2   3
TORSDOF 2
ENDMDL
MODEL      155
REMARK 921   NORMALIZED FREE ENERGY PREDICTED BY IDOCK:   -3.19 KCAL/MOL
REMARK 922        TOTAL FREE ENERGY PREDICTED BY IDOCK:   -4.12 KCAL/MOL
REMARK 923 INTER-LIGAND FREE ENERGY PREDICTED BY IDOCK:   -3.83 KCAL/MOL
REMARK 924 INTRA-LIGAND FREE ENERGY PREDICTED BY IDOCK:   -0.29 KCAL/MOL
REMARK 927      BINDING AFFINITY PREDICTED BY RF-SCORE:    0.00 PKD
ROOT
HETATM    1  C   UNL     1      -7.784   6.932  74.083  1.00  0.00    -0.107 C  
HETATM    2  O   UNL     1      -9.129   7.248  73.730  1.00  0.00    -0.183 OA 
ENDROOT
BRANCH   2   3
HETATM    3  C   UNL     1      -9.265   7.979  72.582  1.00  0.00    -0.239 A  
HETATM    4  C   UNL     1     -10.325   8.842  72.315  1.00  0.00    -0.320 A  
HETATM    5  C   UNL     1     -10.384   9.536  71.103  1.00  0.00    -0.330 A  
HETATM    6  C   UNL     1      -9.385   9.386  70.132  1.00  0.00    -0.276 A  
HETATM    7  C   UNL     1      -8.239   7.856  71.649  1.00  0.00    -0.132 A  
HETATM    8  C   UNL     1      -8.302   8.544  70.431  1.00  0.00    -0.124 A  
BRANCH   6   9
HETATM    9  C   UNL     1      -9.443  10.080  68.784  1.00  0.00    -0.162 C  
HETATM   10  C   UNL     1     -10.776  10.733  68.433  1.00  0.00    -0.217 C  
HETATM   11  O   UNL     1     -11.870  10.204  68.336  1.00  0.00    -0.109 OA 
HETATM   12  C   UNL     1     -10.561  12.161  68.213  1.00  0.00    -0.236 A  
HETATM   13  C   UNL     1     -11.495  13.135  67.910  1.00  0.00    -0.346 A  
HETATM   14  C   UNL     1     -11.031  14.444  67.745  1.00  0.00    -0.283 A  
HETATM   15  C   UNL     1      -9.663  14.747  67.884  1.00  0.00    -0.211 A  
HETATM   16  C   UNL     1      -8.736  13.747  68.191  1.00  0.00    -0.183 A  
HETATM   17  C   UNL     1      -9.215  12.460  68.353  1.00  0.00    -0.145 A  
HETATM   18  C   UNL     1      -8.467  11.246  68.673  1.00  0.00    -0.143 C  
HETATM   19  O   UNL     1      -7.254  11.223  68.790  1.00  0.00    -0.089 OA 
ENDBRANCH   6   9
ENDBRANCH   2   3
TORSDOF 2
ENDMDL
MODEL      156
REMARK 921   NORMALIZED FREE ENERGY PREDICTED BY IDOCK:   -3.18 KCAL/MOL
REMARK 922        TOTAL FREE ENERGY PREDICTED BY IDOCK:   -4.11 KCAL/MOL
REMARK 923 INTER-LIGAND FREE ENERGY PREDICTED BY IDOCK:   -3.60 KCAL/MOL
REMARK 924 INTRA-LIGAND FREE ENERGY PREDICTED BY IDOCK:   -0.50 KCAL/MOL
REMARK 927      BINDING AFFINITY PREDICTED BY RF-SCORE:    0.00 PKD
ROOT
HETATM    1  C   UNL     1      -6.704   5.459  71.975  1.00  0.00    -0.058 C  
HETATM    2  O   UNL     1      -7.318   6.733  72.157  1.00  0.00    -0.086 OA 
ENDROOT
BRANCH   2   3
HETATM    3  C   UNL     1      -8.191   7.097  71.168  1.00  0.00    -0.112 A  
HETATM    4  C   UNL     1      -9.297   6.348  70.776  1.00  0.00    -0.165 A  
HETATM    5  C   UNL     1     -10.124   6.797  69.742  1.00  0.00    -0.198 A  
HETATM    6  C   UNL     1      -9.866   8.004  69.079  1.00  0.00    -0.178 A  
HETATM    7  C   UNL     1      -7.948   8.322  70.554  1.00  0.00    -0.099 A  
HETATM    8  C   UNL     1      -8.770   8.768  69.512  1.00  0.00    -0.138 A  
BRANCH   6   9
HETATM    9  C   UNL     1     -10.708   8.497  67.917  1.00  0.00    -0.148 C  
HETATM   10  C   UNL     1     -10.950  10.003  67.868  1.00  0.00    -0.252 C  
HETATM   11  O   UNL     1     -11.487  10.706  68.706  1.00  0.00    -0.266 OA 
HETATM   12  C   UNL     1     -10.423  10.526  66.610  1.00  0.00    -0.290 A  
HETATM   13  C   UNL     1     -10.396  11.836  66.167  1.00  0.00    -0.266 A  
HETATM   14  C   UNL     1      -9.832  12.081  64.911  1.00  0.00    -0.198 A  
HETATM   15  C   UNL     1      -9.314  11.026  64.135  1.00  0.00    -0.235 A  
HETATM   16  C   UNL     1      -9.351   9.709  64.603  1.00  0.00    -0.271 A  
HETATM   17  C   UNL     1      -9.910   9.488  65.848  1.00  0.00    -0.360 A  
HETATM   18  C   UNL     1     -10.070   8.222  66.560  1.00  0.00    -0.233 C  
HETATM   19  O   UNL     1      -9.754   7.146  66.084  1.00  0.00    -0.051 OA 
ENDBRANCH   6   9
ENDBRANCH   2   3
TORSDOF 2
ENDMDL
MODEL      157
REMARK 921   NORMALIZED FREE ENERGY PREDICTED BY IDOCK:   -3.16 KCAL/MOL
REMARK 922        TOTAL FREE ENERGY PREDICTED BY IDOCK:   -4.09 KCAL/MOL
REMARK 923 INTER-LIGAND FREE ENERGY PREDICTED BY IDOCK:   -3.55 KCAL/MOL
REMARK 924 INTRA-LIGAND FREE ENERGY PREDICTED BY IDOCK:   -0.54 KCAL/MOL
REMARK 927      BINDING AFFINITY PREDICTED BY RF-SCORE:    0.00 PKD
ROOT
HETATM    1  C   UNL     1     -13.271  14.279  71.016  1.00  0.00    -0.303 C  
HETATM    2  O   UNL     1     -13.395  12.859  71.031  1.00  0.00     0.014 OA 
ENDROOT
BRANCH   2   3
HETATM    3  C   UNL     1     -12.355  12.186  70.451  1.00  0.00    -0.233 A  
HETATM    4  C   UNL     1     -11.515  12.717  69.476  1.00  0.00    -0.294 A  
HETATM    5  C   UNL     1     -10.486  11.944  68.931  1.00  0.00    -0.164 A  
HETATM    6  C   UNL     1     -10.272  10.624  69.349  1.00  0.00    -0.218 A  
HETATM    7  C   UNL     1     -12.125  10.893  70.913  1.00  0.00    -0.455 A  
HETATM    8  C   UNL     1     -11.101  10.114  70.362  1.00  0.00    -0.393 A  
BRANCH   6   9
HETATM    9  C   UNL     1      -9.201   9.736  68.743  1.00  0.00    -0.143 C  
HETATM   10  C   UNL     1      -8.098   9.285  69.696  1.00  0.00    -0.116 C  
HETATM   11  O   UNL     1      -7.325   9.978  70.334  1.00  0.00    -0.190 OA 
HETATM   12  C   UNL     1      -8.087   7.825  69.750  1.00  0.00    -0.117 A  
HETATM   13  C   UNL     1      -7.280   6.998  70.510  1.00  0.00    -0.068 A  
HETATM   14  C   UNL     1      -7.465   5.619  70.380  1.00  0.00    -0.080 A  
HETATM   15  C   UNL     1      -8.440   5.101  69.506  1.00  0.00    -0.093 A  
HETATM   16  C   UNL     1      -9.246   5.955  68.747  1.00  0.00    -0.120 A  
HETATM   17  C   UNL     1      -9.048   7.316  68.892  1.00  0.00    -0.132 A  
HETATM   18  C   UNL     1      -9.749   8.411  68.224  1.00  0.00    -0.155 C  
HETATM   19  O   UNL     1     -10.603   8.235  67.374  1.00  0.00    -0.284 OA 
ENDBRANCH   6   9
ENDBRANCH   2   3
TORSDOF 2
ENDMDL
MODEL      158
REMARK 921   NORMALIZED FREE ENERGY PREDICTED BY IDOCK:   -3.15 KCAL/MOL
REMARK 922        TOTAL FREE ENERGY PREDICTED BY IDOCK:   -4.07 KCAL/MOL
REMARK 923 INTER-LIGAND FREE ENERGY PREDICTED BY IDOCK:   -3.60 KCAL/MOL
REMARK 924 INTRA-LIGAND FREE ENERGY PREDICTED BY IDOCK:   -0.47 KCAL/MOL
REMARK 927      BINDING AFFINITY PREDICTED BY RF-SCORE:    0.00 PKD
ROOT
HETATM    1  C   UNL     1      -6.693   2.907  71.806  1.00  0.00    -0.022 C  
HETATM    2  O   UNL     1      -7.975   3.334  72.262  1.00  0.00    -0.058 OA 
ENDROOT
BRANCH   2   3
HETATM    3  C   UNL     1      -8.619   4.207  71.429  1.00  0.00    -0.101 A  
HETATM    4  C   UNL     1      -8.003   4.931  70.411  1.00  0.00    -0.070 A  
HETATM    5  C   UNL     1      -8.745   5.812  69.620  1.00  0.00    -0.122 A  
HETATM    6  C   UNL     1     -10.119   5.988  69.825  1.00  0.00    -0.246 A  
HETATM    7  C   UNL     1      -9.993   4.333  71.614  1.00  0.00    -0.250 A  
HETATM    8  C   UNL     1     -10.736   5.222  70.828  1.00  0.00    -0.196 A  
BRANCH   6   9
HETATM    9  C   UNL     1     -10.948   6.975  69.023  1.00  0.00    -0.169 C  
HETATM   10  C   UNL     1     -10.899   8.422  69.503  1.00  0.00    -0.117 C  
HETATM   11  O   UNL     1     -11.218   8.865  70.593  1.00  0.00    -0.256 OA 
HETATM   12  C   UNL     1     -10.391   9.263  68.421  1.00  0.00    -0.244 A  
HETATM   13  C   UNL     1     -10.151  10.625  68.430  1.00  0.00    -0.181 A  
HETATM   14  C   UNL     1      -9.660  11.201  67.255  1.00  0.00    -0.182 A  
HETATM   15  C   UNL     1      -9.422  10.415  66.111  1.00  0.00    -0.227 A  
HETATM   16  C   UNL     1      -9.671   9.039  66.124  1.00  0.00    -0.354 A  
HETATM   17  C   UNL     1     -10.154   8.488  67.297  1.00  0.00    -0.317 A  
HETATM   18  C   UNL     1     -10.492   7.094  67.573  1.00  0.00    -0.260 C  
HETATM   19  O   UNL     1     -10.430   6.215  66.731  1.00  0.00    -0.225 OA 
ENDBRANCH   6   9
ENDBRANCH   2   3
TORSDOF 2
ENDMDL
MODEL      159
REMARK 921   NORMALIZED FREE ENERGY PREDICTED BY IDOCK:   -3.10 KCAL/MOL
REMARK 922        TOTAL FREE ENERGY PREDICTED BY IDOCK:   -4.02 KCAL/MOL
REMARK 923 INTER-LIGAND FREE ENERGY PREDICTED BY IDOCK:   -3.50 KCAL/MOL
REMARK 924 INTRA-LIGAND FREE ENERGY PREDICTED BY IDOCK:   -0.52 KCAL/MOL
REMARK 927      BINDING AFFINITY PREDICTED BY RF-SCORE:    0.00 PKD
ROOT
HETATM    1  C   UNL     1     -12.625  11.839  63.426  1.00  0.00    -0.336 C  
HETATM    2  O   UNL     1     -12.744  13.161  63.945  1.00  0.00    -0.667 OA 
ENDROOT
BRANCH   2   3
HETATM    3  C   UNL     1     -11.972  13.418  65.046  1.00  0.00    -0.374 A  
HETATM    4  C   UNL     1     -10.583  13.329  65.075  1.00  0.00    -0.360 A  
HETATM    5  C   UNL     1      -9.882  13.597  66.254  1.00  0.00    -0.310 A  
HETATM    6  C   UNL     1     -10.553  13.961  67.430  1.00  0.00    -0.267 A  
HETATM    7  C   UNL     1     -12.651  13.826  66.191  1.00  0.00    -0.423 A  
HETATM    8  C   UNL     1     -11.950  14.085  67.375  1.00  0.00    -0.439 A  
BRANCH   6   9
HETATM    9  C   UNL     1      -9.831  14.206  68.742  1.00  0.00    -0.168 C  
HETATM   10  C   UNL     1      -8.715  13.221  69.077  1.00  0.00     0.443 C  
HETATM   11  O   UNL     1      -8.794  12.012  69.214  1.00  0.00     0.426 OA 
HETATM   12  C   UNL     1      -7.461  13.957  69.222  1.00  0.00     0.103 A  
HETATM   13  C   UNL     1      -6.198  13.461  69.487  1.00  0.00    -0.114 A  
HETATM   14  C   UNL     1      -5.150  14.382  69.581  1.00  0.00    -0.091 A  
HETATM   15  C   UNL     1      -5.383  15.760  69.410  1.00  0.00    -0.108 A  
HETATM   16  C   UNL     1      -6.669  16.240  69.142  1.00  0.00    -0.196 A  
HETATM   17  C   UNL     1      -7.691  15.313  69.051  1.00  0.00    -0.183 A  
HETATM   18  C   UNL     1      -9.108  15.548  68.782  1.00  0.00    -0.207 C  
HETATM   19  O   UNL     1      -9.585  16.661  68.651  1.00  0.00    -0.231 OA 
ENDBRANCH   6   9
ENDBRANCH   2   3
TORSDOF 2
ENDMDL
MODEL      160
REMARK 921   NORMALIZED FREE ENERGY PREDICTED BY IDOCK:   -3.08 KCAL/MOL
REMARK 922        TOTAL FREE ENERGY PREDICTED BY IDOCK:   -3.99 KCAL/MOL
REMARK 923 INTER-LIGAND FREE ENERGY PREDICTED BY IDOCK:   -3.98 KCAL/MOL
REMARK 924 INTRA-LIGAND FREE ENERGY PREDICTED BY IDOCK:   -0.02 KCAL/MOL
REMARK 927      BINDING AFFINITY PREDICTED BY RF-SCORE:    0.00 PKD
ROOT
HETATM    1  C   UNL     1      -7.111  19.860  70.532  1.00  0.00     0.424 C  
HETATM    2  O   UNL     1      -7.015  19.802  69.110  1.00  0.00    -0.341 OA 
ENDROOT
BRANCH   2   3
HETATM    3  C   UNL     1      -7.567  18.686  68.543  1.00  0.00    -0.311 A  
HETATM    4  C   UNL     1      -8.922  18.368  68.579  1.00  0.00    -0.336 A  
HETATM    5  C   UNL     1      -9.389  17.194  67.981  1.00  0.00    -0.254 A  
HETATM    6  C   UNL     1      -8.513  16.313  67.332  1.00  0.00    -0.190 A  
HETATM    7  C   UNL     1      -6.691  17.847  67.860  1.00  0.00    -0.193 A  
HETATM    8  C   UNL     1      -7.156  16.666  67.269  1.00  0.00    -0.208 A  
BRANCH   6   9
HETATM    9  C   UNL     1      -8.975  15.003  66.719  1.00  0.00    -0.293 C  
HETATM   10  C   UNL     1      -8.248  13.753  67.207  1.00  0.00    -0.159 C  
HETATM   11  O   UNL     1      -7.058  13.499  67.137  1.00  0.00    -0.053 OA 
HETATM   12  C   UNL     1      -9.222  12.842  67.804  1.00  0.00    -0.200 A  
HETATM   13  C   UNL     1      -8.998  11.615  68.402  1.00  0.00    -0.176 A  
HETATM   14  C   UNL     1     -10.109  10.929  68.901  1.00  0.00    -0.211 A  
HETATM   15  C   UNL     1     -11.402  11.476  68.795  1.00  0.00    -0.327 A  
HETATM   16  C   UNL     1     -11.606  12.719  68.187  1.00  0.00    -0.380 A  
HETATM   17  C   UNL     1     -10.494  13.382  67.702  1.00  0.00    -0.242 A  
HETATM   18  C   UNL     1     -10.431  14.680  67.032  1.00  0.00    -0.269 C  
HETATM   19  O   UNL     1     -11.420  15.339  66.765  1.00  0.00    -0.259 OA 
ENDBRANCH   6   9
ENDBRANCH   2   3
TORSDOF 2
ENDMDL
MODEL      161
REMARK 921   NORMALIZED FREE ENERGY PREDICTED BY IDOCK:   -3.07 KCAL/MOL
REMARK 922        TOTAL FREE ENERGY PREDICTED BY IDOCK:   -3.98 KCAL/MOL
REMARK 923 INTER-LIGAND FREE ENERGY PREDICTED BY IDOCK:   -4.01 KCAL/MOL
REMARK 924 INTRA-LIGAND FREE ENERGY PREDICTED BY IDOCK:    0.03 KCAL/MOL
REMARK 927      BINDING AFFINITY PREDICTED BY RF-SCORE:    0.00 PKD
ROOT
HETATM    1  C   UNL     1      -5.483  14.428  73.225  1.00  0.00    -0.178 C  
HETATM    2  O   UNL     1      -5.210  13.330  72.358  1.00  0.00    -0.334 OA 
ENDROOT
BRANCH   2   3
HETATM    3  C   UNL     1      -5.770  13.428  71.113  1.00  0.00    -0.140 A  
HETATM    4  C   UNL     1      -6.338  14.587  70.591  1.00  0.00    -0.081 A  
HETATM    5  C   UNL     1      -6.900  14.585  69.311  1.00  0.00    -0.134 A  
HETATM    6  C   UNL     1      -6.906  13.425  68.525  1.00  0.00    -0.099 A  
HETATM    7  C   UNL     1      -5.722  12.281  70.326  1.00  0.00    -0.167 A  
HETATM    8  C   UNL     1      -6.294  12.274  69.048  1.00  0.00    -0.088 A  
BRANCH   6   9
HETATM    9  C   UNL     1      -7.554  13.369  67.154  1.00  0.00     0.030 C  
HETATM   10  C   UNL     1      -8.529  12.217  66.930  1.00  0.00    -0.173 C  
HETATM   11  O   UNL     1      -8.309  11.020  67.002  1.00  0.00    -0.129 OA 
HETATM   12  C   UNL     1      -9.842  12.765  66.598  1.00  0.00    -0.250 A  
HETATM   13  C   UNL     1     -11.022  12.086  66.355  1.00  0.00    -0.337 A  
HETATM   14  C   UNL     1     -12.155  12.847  66.053  1.00  0.00    -0.484 A  
HETATM   15  C   UNL     1     -12.086  14.253  66.003  1.00  0.00    -0.423 A  
HETATM   16  C   UNL     1     -10.883  14.920  66.254  1.00  0.00    -0.331 A  
HETATM   17  C   UNL     1      -9.775  14.148  66.553  1.00  0.00    -0.307 A  
HETATM   18  C   UNL     1      -8.415  14.591  66.852  1.00  0.00    -0.150 C  
HETATM   19  O   UNL     1      -8.073  15.760  66.820  1.00  0.00    -0.233 OA 
ENDBRANCH   6   9
ENDBRANCH   2   3
TORSDOF 2
ENDMDL
MODEL      162
REMARK 921   NORMALIZED FREE ENERGY PREDICTED BY IDOCK:   -3.05 KCAL/MOL
REMARK 922        TOTAL FREE ENERGY PREDICTED BY IDOCK:   -3.96 KCAL/MOL
REMARK 923 INTER-LIGAND FREE ENERGY PREDICTED BY IDOCK:   -3.71 KCAL/MOL
REMARK 924 INTRA-LIGAND FREE ENERGY PREDICTED BY IDOCK:   -0.26 KCAL/MOL
REMARK 927      BINDING AFFINITY PREDICTED BY RF-SCORE:    0.00 PKD
ROOT
HETATM    1  C   UNL     1      -7.758   6.932  74.108  1.00  0.00    -0.107 C  
HETATM    2  O   UNL     1      -9.040   7.425  73.726  1.00  0.00    -0.204 OA 
ENDROOT
BRANCH   2   3
HETATM    3  C   UNL     1      -9.055   8.150  72.566  1.00  0.00    -0.235 A  
HETATM    4  C   UNL     1      -7.938   8.395  71.773  1.00  0.00    -0.173 A  
HETATM    5  C   UNL     1      -8.050   9.162  70.610  1.00  0.00    -0.198 A  
HETATM    6  C   UNL     1      -9.281   9.700  70.213  1.00  0.00    -0.285 A  
HETATM    7  C   UNL     1     -10.295   8.635  72.161  1.00  0.00    -0.403 A  
HETATM    8  C   UNL     1     -10.408   9.412  71.001  1.00  0.00    -0.382 A  
BRANCH   6   9
HETATM    9  C   UNL     1      -9.433  10.583  68.988  1.00  0.00    -0.211 C  
HETATM   10  C   UNL     1      -8.131  11.041  68.338  1.00  0.00    -0.134 C  
HETATM   11  O   UNL     1      -7.229  11.692  68.837  1.00  0.00    -0.107 OA 
HETATM   12  C   UNL     1      -8.101  10.571  66.955  1.00  0.00    -0.120 A  
HETATM   13  C   UNL     1      -7.098  10.727  66.015  1.00  0.00    -0.102 A  
HETATM   14  C   UNL     1      -7.313  10.181  64.746  1.00  0.00    -0.134 A  
HETATM   15  C   UNL     1      -8.508   9.499  64.448  1.00  0.00    -0.191 A  
HETATM   16  C   UNL     1      -9.508   9.352  65.413  1.00  0.00    -0.322 A  
HETATM   17  C   UNL     1      -9.276   9.897  66.663  1.00  0.00    -0.185 A  
HETATM   18  C   UNL     1     -10.147   9.884  67.836  1.00  0.00    -0.173 C  
HETATM   19  O   UNL     1     -11.267   9.405  67.828  1.00  0.00    -0.040 OA 
ENDBRANCH   6   9
ENDBRANCH   2   3
TORSDOF 2
ENDMDL
MODEL      163
REMARK 921   NORMALIZED FREE ENERGY PREDICTED BY IDOCK:   -2.96 KCAL/MOL
REMARK 922        TOTAL FREE ENERGY PREDICTED BY IDOCK:   -3.86 KCAL/MOL
REMARK 923 INTER-LIGAND FREE ENERGY PREDICTED BY IDOCK:   -3.38 KCAL/MOL
REMARK 924 INTRA-LIGAND FREE ENERGY PREDICTED BY IDOCK:   -0.49 KCAL/MOL
REMARK 927      BINDING AFFINITY PREDICTED BY RF-SCORE:    0.00 PKD
ROOT
HETATM    1  C   UNL     1      -7.704   4.697  63.820  1.00  0.00    -0.073 C  
HETATM    2  O   UNL     1      -8.952   5.377  63.936  1.00  0.00     0.056 OA 
ENDROOT
BRANCH   2   3
HETATM    3  C   UNL     1      -9.021   6.281  64.961  1.00  0.00     0.311 A  
HETATM    4  C   UNL     1      -9.819   6.135  66.092  1.00  0.00    -0.007 A  
HETATM    5  C   UNL     1      -9.832   7.123  67.081  1.00  0.00    -0.235 A  
HETATM    6  C   UNL     1      -9.048   8.277  66.962  1.00  0.00    -0.172 A  
HETATM    7  C   UNL     1      -8.197   7.398  64.851  1.00  0.00    -0.080 A  
HETATM    8  C   UNL     1      -8.217   8.393  65.836  1.00  0.00    -0.123 A  
BRANCH   6   9
HETATM    9  C   UNL     1      -9.077   9.396  67.987  1.00  0.00    -0.131 C  
HETATM   10  C   UNL     1     -10.262  10.352  67.890  1.00  0.00    -0.179 C  
HETATM   11  O   UNL     1     -10.588  11.052  66.947  1.00  0.00    -0.235 OA 
HETATM   12  C   UNL     1     -11.001  10.319  69.150  1.00  0.00    -0.280 A  
HETATM   13  C   UNL     1     -12.159  10.998  69.486  1.00  0.00    -0.400 A  
HETATM   14  C   UNL     1     -12.675  10.796  70.769  1.00  0.00    -0.451 A  
HETATM   15  C   UNL     1     -12.034   9.932  71.677  1.00  0.00    -0.427 A  
HETATM   16  C   UNL     1     -10.865   9.255  71.316  1.00  0.00    -0.417 A  
HETATM   17  C   UNL     1     -10.372   9.466  70.041  1.00  0.00    -0.265 A  
HETATM   18  C   UNL     1      -9.182   8.887  69.421  1.00  0.00    -0.146 C  
HETATM   19  O   UNL     1      -8.416   8.147  70.012  1.00  0.00    -0.124 OA 
ENDBRANCH   6   9
ENDBRANCH   2   3
TORSDOF 2
ENDMDL
MODEL      164
REMARK 921   NORMALIZED FREE ENERGY PREDICTED BY IDOCK:   -2.95 KCAL/MOL
REMARK 922        TOTAL FREE ENERGY PREDICTED BY IDOCK:   -3.85 KCAL/MOL
REMARK 923 INTER-LIGAND FREE ENERGY PREDICTED BY IDOCK:   -3.30 KCAL/MOL
REMARK 924 INTRA-LIGAND FREE ENERGY PREDICTED BY IDOCK:   -0.55 KCAL/MOL
REMARK 927      BINDING AFFINITY PREDICTED BY RF-SCORE:    0.00 PKD
ROOT
HETATM    1  C   UNL     1      -5.532  14.077  71.485  1.00  0.00    -0.223 C  
HETATM    2  O   UNL     1      -5.573  14.264  70.072  1.00  0.00    -0.101 OA 
ENDROOT
BRANCH   2   3
HETATM    3  C   UNL     1      -6.591  13.608  69.435  1.00  0.00    -0.090 A  
HETATM    4  C   UNL     1      -7.662  14.235  68.802  1.00  0.00    -0.134 A  
HETATM    5  C   UNL     1      -8.664  13.477  68.190  1.00  0.00    -0.174 A  
HETATM    6  C   UNL     1      -8.618  12.077  68.194  1.00  0.00    -0.173 A  
HETATM    7  C   UNL     1      -6.504  12.219  69.405  1.00  0.00    -0.105 A  
HETATM    8  C   UNL     1      -7.512  11.458  68.800  1.00  0.00    -0.124 A  
BRANCH   6   9
HETATM    9  C   UNL     1      -9.713  11.220  67.588  1.00  0.00    -0.183 C  
HETATM   10  C   UNL     1      -9.266  10.243  66.504  1.00  0.00    -0.153 C  
HETATM   11  O   UNL     1      -8.717  10.494  65.445  1.00  0.00    -0.172 OA 
HETATM   12  C   UNL     1      -9.600   8.884  66.924  1.00  0.00    -0.248 A  
HETATM   13  C   UNL     1      -9.343   7.694  66.269  1.00  0.00    -0.189 A  
HETATM   14  C   UNL     1      -9.770   6.513  66.885  1.00  0.00    -0.199 A  
HETATM   15  C   UNL     1     -10.433   6.547  68.126  1.00  0.00    -0.264 A  
HETATM   16  C   UNL     1     -10.680   7.762  68.772  1.00  0.00    -0.093 A  
HETATM   17  C   UNL     1     -10.249   8.917  68.148  1.00  0.00    -0.245 A  
HETATM   18  C   UNL     1     -10.380  10.299  68.604  1.00  0.00    -0.184 C  
HETATM   19  O   UNL     1     -10.967  10.610  69.626  1.00  0.00    -0.244 OA 
ENDBRANCH   6   9
ENDBRANCH   2   3
TORSDOF 2
ENDMDL
MODEL      165
REMARK 921   NORMALIZED FREE ENERGY PREDICTED BY IDOCK:   -2.94 KCAL/MOL
REMARK 922        TOTAL FREE ENERGY PREDICTED BY IDOCK:   -3.84 KCAL/MOL
REMARK 923 INTER-LIGAND FREE ENERGY PREDICTED BY IDOCK:   -3.29 KCAL/MOL
REMARK 924 INTRA-LIGAND FREE ENERGY PREDICTED BY IDOCK:   -0.55 KCAL/MOL
REMARK 927      BINDING AFFINITY PREDICTED BY RF-SCORE:    0.00 PKD
ROOT
HETATM    1  C   UNL     1      -7.541   4.539  66.638  1.00  0.00    -0.086 C  
HETATM    2  O   UNL     1      -7.178   4.873  67.976  1.00  0.00    -0.064 OA 
ENDROOT
BRANCH   2   3
HETATM    3  C   UNL     1      -7.569   6.120  68.383  1.00  0.00    -0.092 A  
HETATM    4  C   UNL     1      -7.735   6.502  69.712  1.00  0.00    -0.113 A  
HETATM    5  C   UNL     1      -8.153   7.798  70.028  1.00  0.00    -0.118 A  
HETATM    6  C   UNL     1      -8.412   8.740  69.025  1.00  0.00    -0.130 A  
HETATM    7  C   UNL     1      -7.774   7.059  67.376  1.00  0.00    -0.110 A  
HETATM    8  C   UNL     1      -8.202   8.354  67.691  1.00  0.00    -0.126 A  
BRANCH   6   9
HETATM    9  C   UNL     1      -8.920  10.139  69.327  1.00  0.00    -0.193 C  
HETATM   10  C   UNL     1      -8.250  11.267  68.548  1.00  0.00    -0.150 C  
HETATM   11  O   UNL     1      -7.070  11.574  68.533  1.00  0.00    -0.075 OA 
HETATM   12  C   UNL     1      -9.266  11.978  67.776  1.00  0.00    -0.190 A  
HETATM   13  C   UNL     1      -9.099  13.040  66.906  1.00  0.00    -0.227 A  
HETATM   14  C   UNL     1     -10.242  13.550  66.283  1.00  0.00    -0.299 A  
HETATM   15  C   UNL     1     -11.511  12.995  66.539  1.00  0.00    -0.385 A  
HETATM   16  C   UNL     1     -11.657  11.921  67.422  1.00  0.00    -0.367 A  
HETATM   17  C   UNL     1     -10.514  11.429  68.025  1.00  0.00    -0.215 A  
HETATM   18  C   UNL     1     -10.392  10.326  68.976  1.00  0.00    -0.211 C  
HETATM   19  O   UNL     1     -11.350   9.711  69.409  1.00  0.00    -0.137 OA 
ENDBRANCH   6   9
ENDBRANCH   2   3
TORSDOF 2
ENDMDL
MODEL      166
REMARK 921   NORMALIZED FREE ENERGY PREDICTED BY IDOCK:   -2.90 KCAL/MOL
REMARK 922        TOTAL FREE ENERGY PREDICTED BY IDOCK:   -3.80 KCAL/MOL
REMARK 923 INTER-LIGAND FREE ENERGY PREDICTED BY IDOCK:   -3.85 KCAL/MOL
REMARK 924 INTRA-LIGAND FREE ENERGY PREDICTED BY IDOCK:    0.05 KCAL/MOL
REMARK 927      BINDING AFFINITY PREDICTED BY RF-SCORE:    0.00 PKD
ROOT
HETATM    1  C   UNL     1     -11.153   2.299  73.744  1.00  0.00    -0.200 C  
HETATM    2  O   UNL     1     -10.664   3.626  73.924  1.00  0.00    -0.190 OA 
ENDROOT
BRANCH   2   3
HETATM    3  C   UNL     1     -10.654   4.394  72.792  1.00  0.00    -0.182 A  
HETATM    4  C   UNL     1      -9.930   4.096  71.640  1.00  0.00    -0.240 A  
HETATM    5  C   UNL     1      -9.973   4.952  70.536  1.00  0.00    -0.311 A  
HETATM    6  C   UNL     1     -10.740   6.124  70.558  1.00  0.00    -0.340 A  
HETATM    7  C   UNL     1     -11.461   5.528  72.812  1.00  0.00    -0.339 A  
HETATM    8  C   UNL     1     -11.497   6.392  71.710  1.00  0.00    -0.349 A  
BRANCH   6   9
HETATM    9  C   UNL     1     -10.769   7.105  69.401  1.00  0.00    -0.246 C  
HETATM   10  C   UNL     1     -10.539   8.568  69.769  1.00  0.00    -0.224 C  
HETATM   11  O   UNL     1     -11.192   9.265  70.526  1.00  0.00    -0.246 OA 
HETATM   12  C   UNL     1      -9.363   9.057  69.052  1.00  0.00    -0.140 A  
HETATM   13  C   UNL     1      -8.776  10.308  69.115  1.00  0.00    -0.176 A  
HETATM   14  C   UNL     1      -7.647  10.531  68.321  1.00  0.00    -0.096 A  
HETATM   15  C   UNL     1      -7.135   9.513  67.493  1.00  0.00    -0.085 A  
HETATM   16  C   UNL     1      -7.744   8.256  67.446  1.00  0.00    -0.102 A  
HETATM   17  C   UNL     1      -8.858   8.055  68.240  1.00  0.00    -0.133 A  
HETATM   18  C   UNL     1      -9.671   6.848  68.375  1.00  0.00    -0.137 C  
HETATM   19  O   UNL     1      -9.475   5.837  67.723  1.00  0.00    -0.111 OA 
ENDBRANCH   6   9
ENDBRANCH   2   3
TORSDOF 2
ENDMDL
MODEL      167
REMARK 921   NORMALIZED FREE ENERGY PREDICTED BY IDOCK:   -2.87 KCAL/MOL
REMARK 922        TOTAL FREE ENERGY PREDICTED BY IDOCK:   -3.76 KCAL/MOL
REMARK 923 INTER-LIGAND FREE ENERGY PREDICTED BY IDOCK:   -3.23 KCAL/MOL
REMARK 924 INTRA-LIGAND FREE ENERGY PREDICTED BY IDOCK:   -0.53 KCAL/MOL
REMARK 927      BINDING AFFINITY PREDICTED BY RF-SCORE:    0.00 PKD
ROOT
HETATM    1  C   UNL     1      -9.401   2.248  73.062  1.00  0.00    -0.080 C  
HETATM    2  O   UNL     1     -10.186   2.808  72.011  1.00  0.00    -0.151 OA 
ENDROOT
BRANCH   2   3
HETATM    3  C   UNL     1      -9.812   4.065  71.621  1.00  0.00    -0.183 A  
HETATM    4  C   UNL     1      -9.121   4.969  72.424  1.00  0.00    -0.146 A  
HETATM    5  C   UNL     1      -8.795   6.239  71.940  1.00  0.00    -0.139 A  
HETATM    6  C   UNL     1      -9.150   6.633  70.643  1.00  0.00    -0.155 A  
HETATM    7  C   UNL     1     -10.128   4.422  70.314  1.00  0.00    -0.173 A  
HETATM    8  C   UNL     1      -9.810   5.697  69.830  1.00  0.00    -0.250 A  
BRANCH   6   9
HETATM    9  C   UNL     1      -8.862   8.021  70.101  1.00  0.00    -0.143 C  
HETATM   10  C   UNL     1      -7.849   8.089  68.962  1.00  0.00    -0.109 C  
HETATM   11  O   UNL     1      -6.686   7.724  68.966  1.00  0.00    -0.047 OA 
HETATM   12  C   UNL     1      -8.491   8.685  67.792  1.00  0.00    -0.125 A  
HETATM   13  C   UNL     1      -7.957   8.903  66.535  1.00  0.00    -0.103 A  
HETATM   14  C   UNL     1      -8.784   9.497  65.577  1.00  0.00    -0.180 A  
HETATM   15  C   UNL     1     -10.110   9.855  65.891  1.00  0.00    -0.316 A  
HETATM   16  C   UNL     1     -10.629   9.625  67.168  1.00  0.00    -0.298 A  
HETATM   17  C   UNL     1      -9.796   9.034  68.100  1.00  0.00    -0.191 A  
HETATM   18  C   UNL     1     -10.089   8.688  69.490  1.00  0.00    -0.203 C  
HETATM   19  O   UNL     1     -11.151   8.944  70.030  1.00  0.00    -0.237 OA 
ENDBRANCH   6   9
ENDBRANCH   2   3
TORSDOF 2
ENDMDL
MODEL      168
REMARK 921   NORMALIZED FREE ENERGY PREDICTED BY IDOCK:   -2.86 KCAL/MOL
REMARK 922        TOTAL FREE ENERGY PREDICTED BY IDOCK:   -3.75 KCAL/MOL
REMARK 923 INTER-LIGAND FREE ENERGY PREDICTED BY IDOCK:   -3.26 KCAL/MOL
REMARK 924 INTRA-LIGAND FREE ENERGY PREDICTED BY IDOCK:   -0.49 KCAL/MOL
REMARK 927      BINDING AFFINITY PREDICTED BY RF-SCORE:    0.00 PKD
ROOT
HETATM    1  C   UNL     1      -9.485  17.170  67.602  1.00  0.00    -0.241 C  
HETATM    2  O   UNL     1      -9.797  16.308  66.510  1.00  0.00    -0.243 OA 
ENDROOT
BRANCH   2   3
HETATM    3  C   UNL     1      -9.743  14.972  66.799  1.00  0.00    -0.241 A  
HETATM    4  C   UNL     1      -9.003  14.417  67.840  1.00  0.00    -0.186 A  
HETATM    5  C   UNL     1      -8.999  13.035  68.047  1.00  0.00    -0.199 A  
HETATM    6  C   UNL     1      -9.736  12.176  67.220  1.00  0.00    -0.193 A  
HETATM    7  C   UNL     1     -10.520  14.138  65.999  1.00  0.00    -0.308 A  
HETATM    8  C   UNL     1     -10.510  12.752  66.200  1.00  0.00    -0.284 A  
BRANCH   6   9
HETATM    9  C   UNL     1      -9.714  10.667  67.380  1.00  0.00    -0.192 C  
HETATM   10  C   UNL     1      -8.490   9.960  66.806  1.00  0.00    -0.125 C  
HETATM   11  O   UNL     1      -8.092   9.959  65.654  1.00  0.00    -0.120 OA 
HETATM   12  C   UNL     1      -7.813   9.238  67.882  1.00  0.00    -0.092 A  
HETATM   13  C   UNL     1      -6.649   8.495  67.819  1.00  0.00    -0.062 A  
HETATM   14  C   UNL     1      -6.202   7.894  69.000  1.00  0.00    -0.039 A  
HETATM   15  C   UNL     1      -6.919   8.047  70.202  1.00  0.00    -0.048 A  
HETATM   16  C   UNL     1      -8.094   8.804  70.243  1.00  0.00    -0.116 A  
HETATM   17  C   UNL     1      -8.517   9.392  69.065  1.00  0.00    -0.129 A  
HETATM   18  C   UNL     1      -9.697  10.223  68.839  1.00  0.00    -0.189 C  
HETATM   19  O   UNL     1     -10.518  10.464  69.706  1.00  0.00    -0.249 OA 
ENDBRANCH   6   9
ENDBRANCH   2   3
TORSDOF 2
ENDMDL
MODEL      169
REMARK 921   NORMALIZED FREE ENERGY PREDICTED BY IDOCK:   -2.85 KCAL/MOL
REMARK 922        TOTAL FREE ENERGY PREDICTED BY IDOCK:   -3.74 KCAL/MOL
REMARK 923 INTER-LIGAND FREE ENERGY PREDICTED BY IDOCK:   -3.21 KCAL/MOL
REMARK 924 INTRA-LIGAND FREE ENERGY PREDICTED BY IDOCK:   -0.53 KCAL/MOL
REMARK 927      BINDING AFFINITY PREDICTED BY RF-SCORE:    0.00 PKD
ROOT
HETATM    1  C   UNL     1      -9.252   4.078  73.187  1.00  0.00    -0.109 C  
HETATM    2  O   UNL     1      -9.860   5.366  73.126  1.00  0.00    -0.158 OA 
ENDROOT
BRANCH   2   3
HETATM    3  C   UNL     1      -9.554   6.094  72.009  1.00  0.00    -0.152 A  
HETATM    4  C   UNL     1      -9.682   7.477  71.906  1.00  0.00    -0.191 A  
HETATM    5  C   UNL     1      -9.358   8.131  70.714  1.00  0.00    -0.174 A  
HETATM    6  C   UNL     1      -8.898   7.419  69.599  1.00  0.00    -0.141 A  
HETATM    7  C   UNL     1      -9.052   5.377  70.927  1.00  0.00    -0.164 A  
HETATM    8  C   UNL     1      -8.735   6.030  69.729  1.00  0.00    -0.130 A  
BRANCH   6   9
HETATM    9  C   UNL     1      -8.588   8.086  68.272  1.00  0.00    -0.130 C  
HETATM   10  C   UNL     1      -9.796   8.584  67.484  1.00  0.00    -0.177 C  
HETATM   11  O   UNL     1     -10.742   7.937  67.069  1.00  0.00    -0.339 OA 
HETATM   12  C   UNL     1      -9.666  10.024  67.277  1.00  0.00    -0.206 A  
HETATM   13  C   UNL     1     -10.546  10.887  66.649  1.00  0.00    -0.305 A  
HETATM   14  C   UNL     1     -10.187  12.236  66.578  1.00  0.00    -0.235 A  
HETATM   15  C   UNL     1      -8.974  12.690  67.131  1.00  0.00    -0.205 A  
HETATM   16  C   UNL     1      -8.100  11.801  67.763  1.00  0.00    -0.143 A  
HETATM   17  C   UNL     1      -8.474  10.471  67.824  1.00  0.00    -0.114 A  
HETATM   18  C   UNL     1      -7.750   9.351  68.423  1.00  0.00    -0.086 C  
HETATM   19  O   UNL     1      -6.644   9.463  68.921  1.00  0.00    -0.047 OA 
ENDBRANCH   6   9
ENDBRANCH   2   3
TORSDOF 2
ENDMDL
MODEL      170
REMARK 921   NORMALIZED FREE ENERGY PREDICTED BY IDOCK:   -2.81 KCAL/MOL
REMARK 922        TOTAL FREE ENERGY PREDICTED BY IDOCK:   -3.70 KCAL/MOL
REMARK 923 INTER-LIGAND FREE ENERGY PREDICTED BY IDOCK:   -3.81 KCAL/MOL
REMARK 924 INTRA-LIGAND FREE ENERGY PREDICTED BY IDOCK:    0.11 KCAL/MOL
REMARK 927      BINDING AFFINITY PREDICTED BY RF-SCORE:    0.00 PKD
ROOT
HETATM    1  C   UNL     1      -9.981  16.021  67.688  1.00  0.00    -0.239 C  
HETATM    2  O   UNL     1     -10.964  15.023  67.422  1.00  0.00    -0.298 OA 
ENDROOT
BRANCH   2   3
HETATM    3  C   UNL     1     -10.586  13.746  67.738  1.00  0.00    -0.246 A  
HETATM    4  C   UNL     1     -11.464  12.728  68.098  1.00  0.00    -0.357 A  
HETATM    5  C   UNL     1     -10.981  11.456  68.418  1.00  0.00    -0.263 A  
HETATM    6  C   UNL     1      -9.609  11.173  68.384  1.00  0.00    -0.192 A  
HETATM    7  C   UNL     1      -9.225  13.469  67.651  1.00  0.00    -0.214 A  
HETATM    8  C   UNL     1      -8.737  12.198  67.981  1.00  0.00    -0.180 A  
BRANCH   6   9
HETATM    9  C   UNL     1      -9.041   9.822  68.778  1.00  0.00    -0.136 C  
HETATM   10  C   UNL     1      -7.638   9.843  69.375  1.00  0.00    -0.113 C  
HETATM   11  O   UNL     1      -6.609  10.255  68.867  1.00  0.00    -0.051 OA 
HETATM   12  C   UNL     1      -7.686   9.269  70.718  1.00  0.00    -0.164 A  
HETATM   13  C   UNL     1      -6.656   9.125  71.630  1.00  0.00     0.000 A  
HETATM   14  C   UNL     1      -6.962   8.537  72.861  1.00  0.00    -0.058 A  
HETATM   15  C   UNL     1      -8.273   8.112  73.152  1.00  0.00    -0.253 A  
HETATM   16  C   UNL     1      -9.299   8.268  72.215  1.00  0.00    -0.323 A  
HETATM   17  C   UNL     1      -8.976   8.854  71.005  1.00  0.00    -0.298 A  
HETATM   18  C   UNL     1      -9.852   9.130  69.868  1.00  0.00    -0.190 C  
HETATM   19  O   UNL     1     -11.027   8.808  69.839  1.00  0.00    -0.239 OA 
ENDBRANCH   6   9
ENDBRANCH   2   3
TORSDOF 2
ENDMDL
MODEL      171
REMARK 921   NORMALIZED FREE ENERGY PREDICTED BY IDOCK:   -2.81 KCAL/MOL
REMARK 922        TOTAL FREE ENERGY PREDICTED BY IDOCK:   -3.70 KCAL/MOL
REMARK 923 INTER-LIGAND FREE ENERGY PREDICTED BY IDOCK:   -3.25 KCAL/MOL
REMARK 924 INTRA-LIGAND FREE ENERGY PREDICTED BY IDOCK:   -0.45 KCAL/MOL
REMARK 927      BINDING AFFINITY PREDICTED BY RF-SCORE:    0.00 PKD
ROOT
HETATM    1  C   UNL     1      -6.620   8.052  62.987  1.00  0.00    -0.084 C  
HETATM    2  O   UNL     1      -6.837   8.953  64.070  1.00  0.00    -0.086 OA 
ENDROOT
BRANCH   2   3
HETATM    3  C   UNL     1      -7.339   8.377  65.205  1.00  0.00    -0.081 A  
HETATM    4  C   UNL     1      -7.474   9.027  66.429  1.00  0.00    -0.092 A  
HETATM    5  C   UNL     1      -7.985   8.348  67.539  1.00  0.00    -0.106 A  
HETATM    6  C   UNL     1      -8.374   7.005  67.450  1.00  0.00    -0.122 A  
HETATM    7  C   UNL     1      -7.767   7.058  65.087  1.00  0.00    -0.113 A  
HETATM    8  C   UNL     1      -8.270   6.373  66.200  1.00  0.00    -0.122 A  
BRANCH   6   9
HETATM    9  C   UNL     1      -8.881   6.219  68.645  1.00  0.00    -0.119 C  
HETATM   10  C   UNL     1      -8.395   6.701  70.008  1.00  0.00    -0.135 C  
HETATM   11  O   UNL     1      -7.248   6.792  70.410  1.00  0.00    -0.072 OA 
HETATM   12  C   UNL     1      -9.553   7.064  70.823  1.00  0.00    -0.164 A  
HETATM   13  C   UNL     1      -9.575   7.581  72.105  1.00  0.00    -0.190 A  
HETATM   14  C   UNL     1     -10.825   7.845  72.673  1.00  0.00    -0.428 A  
HETATM   15  C   UNL     1     -12.010   7.591  71.957  1.00  0.00    -0.330 A  
HETATM   16  C   UNL     1     -11.965   7.069  70.660  1.00  0.00    -0.361 A  
HETATM   17  C   UNL     1     -10.719   6.817  70.116  1.00  0.00    -0.274 A  
HETATM   18  C   UNL     1     -10.397   6.279  68.796  1.00  0.00    -0.205 C  
HETATM   19  O   UNL     1     -11.245   5.922  67.998  1.00  0.00    -0.165 OA 
ENDBRANCH   6   9
ENDBRANCH   2   3
TORSDOF 2
ENDMDL
MODEL      172
REMARK 921   NORMALIZED FREE ENERGY PREDICTED BY IDOCK:   -2.76 KCAL/MOL
REMARK 922        TOTAL FREE ENERGY PREDICTED BY IDOCK:   -3.64 KCAL/MOL
REMARK 923 INTER-LIGAND FREE ENERGY PREDICTED BY IDOCK:   -3.21 KCAL/MOL
REMARK 924 INTRA-LIGAND FREE ENERGY PREDICTED BY IDOCK:   -0.43 KCAL/MOL
REMARK 927      BINDING AFFINITY PREDICTED BY RF-SCORE:    0.00 PKD
ROOT
HETATM    1  C   UNL     1     -12.923   8.279  71.747  1.00  0.00    -0.344 C  
HETATM    2  O   UNL     1     -11.868   8.807  70.948  1.00  0.00    -0.282 OA 
ENDROOT
BRANCH   2   3
HETATM    3  C   UNL     1     -11.073   7.866  70.351  1.00  0.00    -0.245 A  
HETATM    4  C   UNL     1     -11.532   6.658  69.831  1.00  0.00    -0.414 A  
HETATM    5  C   UNL     1     -10.640   5.753  69.252  1.00  0.00    -0.376 A  
HETATM    6  C   UNL     1      -9.269   6.034  69.177  1.00  0.00    -0.131 A  
HETATM    7  C   UNL     1      -9.723   8.183  70.240  1.00  0.00    -0.175 A  
HETATM    8  C   UNL     1      -8.825   7.272  69.668  1.00  0.00    -0.141 A  
BRANCH   6   9
HETATM    9  C   UNL     1      -8.262   5.053  68.605  1.00  0.00    -0.085 C  
HETATM   10  C   UNL     1      -8.665   3.582  68.664  1.00  0.00    -0.100 C  
HETATM   11  O   UNL     1      -8.930   2.913  69.647  1.00  0.00    -0.082 OA 
HETATM   12  C   UNL     1      -8.692   3.045  67.305  1.00  0.00    -0.141 A  
HETATM   13  C   UNL     1      -9.039   1.771  66.891  1.00  0.00    -0.089 A  
HETATM   14  C   UNL     1      -8.982   1.501  65.520  1.00  0.00    -0.117 A  
HETATM   15  C   UNL     1      -8.588   2.496  64.605  1.00  0.00    -0.092 A  
HETATM   16  C   UNL     1      -8.243   3.777  65.046  1.00  0.00    -0.097 A  
HETATM   17  C   UNL     1      -8.308   4.025  66.405  1.00  0.00    -0.105 A  
HETATM   18  C   UNL     1      -8.004   5.264  67.117  1.00  0.00    -0.101 C  
HETATM   19  O   UNL     1      -7.585   6.265  66.563  1.00  0.00    -0.091 OA 
ENDBRANCH   6   9
ENDBRANCH   2   3
TORSDOF 2
ENDMDL
MODEL      173
REMARK 921   NORMALIZED FREE ENERGY PREDICTED BY IDOCK:   -2.72 KCAL/MOL
REMARK 922        TOTAL FREE ENERGY PREDICTED BY IDOCK:   -3.59 KCAL/MOL
REMARK 923 INTER-LIGAND FREE ENERGY PREDICTED BY IDOCK:   -3.08 KCAL/MOL
REMARK 924 INTRA-LIGAND FREE ENERGY PREDICTED BY IDOCK:   -0.51 KCAL/MOL
REMARK 927      BINDING AFFINITY PREDICTED BY RF-SCORE:    0.00 PKD
ROOT
HETATM    1  C   UNL     1      -5.444   3.361  64.749  1.00  0.00    -0.010 C  
HETATM    2  O   UNL     1      -5.260   3.518  66.154  1.00  0.00    -0.008 OA 
ENDROOT
BRANCH   2   3
HETATM    3  C   UNL     1      -6.114   4.406  66.750  1.00  0.00    -0.031 A  
HETATM    4  C   UNL     1      -6.350   4.478  68.120  1.00  0.00    -0.037 A  
HETATM    5  C   UNL     1      -7.254   5.412  68.634  1.00  0.00    -0.066 A  
HETATM    6  C   UNL     1      -7.941   6.296  67.791  1.00  0.00    -0.114 A  
HETATM    7  C   UNL     1      -6.750   5.309  65.903  1.00  0.00    -0.053 A  
HETATM    8  C   UNL     1      -7.663   6.239  66.415  1.00  0.00    -0.099 A  
BRANCH   6   9
HETATM    9  C   UNL     1      -8.970   7.286  68.305  1.00  0.00    -0.125 C  
HETATM   10  C   UNL     1     -10.325   6.695  68.683  1.00  0.00    -0.188 C  
HETATM   11  O   UNL     1     -11.102   6.081  67.973  1.00  0.00    -0.304 OA 
HETATM   12  C   UNL     1     -10.589   6.978  70.092  1.00  0.00    -0.249 A  
HETATM   13  C   UNL     1     -11.677   6.599  70.856  1.00  0.00    -0.431 A  
HETATM   14  C   UNL     1     -11.696   7.000  72.195  1.00  0.00    -0.321 A  
HETATM   15  C   UNL     1     -10.640   7.760  72.735  1.00  0.00    -0.401 A  
HETATM   16  C   UNL     1      -9.549   8.131  71.945  1.00  0.00    -0.264 A  
HETATM   17  C   UNL     1      -9.548   7.723  70.623  1.00  0.00    -0.166 A  
HETATM   18  C   UNL     1      -8.540   7.974  69.596  1.00  0.00    -0.135 C  
HETATM   19  O   UNL     1      -7.550   8.657  69.788  1.00  0.00    -0.075 OA 
ENDBRANCH   6   9
ENDBRANCH   2   3
TORSDOF 2
ENDMDL
MODEL      174
REMARK 921   NORMALIZED FREE ENERGY PREDICTED BY IDOCK:   -2.70 KCAL/MOL
REMARK 922        TOTAL FREE ENERGY PREDICTED BY IDOCK:   -3.57 KCAL/MOL
REMARK 923 INTER-LIGAND FREE ENERGY PREDICTED BY IDOCK:   -3.69 KCAL/MOL
REMARK 924 INTRA-LIGAND FREE ENERGY PREDICTED BY IDOCK:    0.13 KCAL/MOL
REMARK 927      BINDING AFFINITY PREDICTED BY RF-SCORE:    0.00 PKD
ROOT
HETATM    1  C   UNL     1      -6.365   4.684  65.159  1.00  0.00    -0.035 C  
HETATM    2  O   UNL     1      -6.015   6.007  65.561  1.00  0.00    -0.024 OA 
ENDROOT
BRANCH   2   3
HETATM    3  C   UNL     1      -7.049   6.902  65.554  1.00  0.00    -0.068 A  
HETATM    4  C   UNL     1      -7.387   7.711  64.472  1.00  0.00    -0.086 A  
HETATM    5  C   UNL     1      -8.455   8.608  64.565  1.00  0.00    -0.128 A  
HETATM    6  C   UNL     1      -9.208   8.717  65.741  1.00  0.00    -0.269 A  
HETATM    7  C   UNL     1      -7.818   6.962  66.712  1.00  0.00    -0.107 A  
HETATM    8  C   UNL     1      -8.882   7.868  66.811  1.00  0.00    -0.154 A  
BRANCH   6   9
HETATM    9  C   UNL     1     -10.339   9.717  65.900  1.00  0.00    -0.148 C  
HETATM   10  C   UNL     1     -10.448  10.380  67.270  1.00  0.00    -0.252 C  
HETATM   11  O   UNL     1     -10.615   9.846  68.353  1.00  0.00    -0.201 OA 
HETATM   12  C   UNL     1     -10.319  11.826  67.108  1.00  0.00    -0.242 A  
HETATM   13  C   UNL     1     -10.323  12.805  68.086  1.00  0.00    -0.243 A  
HETATM   14  C   UNL     1     -10.184  14.132  67.670  1.00  0.00    -0.241 A  
HETATM   15  C   UNL     1     -10.046  14.450  66.305  1.00  0.00    -0.308 A  
HETATM   16  C   UNL     1     -10.044  13.444  65.333  1.00  0.00    -0.270 A  
HETATM   17  C   UNL     1     -10.180  12.138  65.766  1.00  0.00    -0.282 A  
HETATM   18  C   UNL     1     -10.209  10.915  64.965  1.00  0.00    -0.303 C  
HETATM   19  O   UNL     1     -10.164  10.915  63.748  1.00  0.00    -0.331 OA 
ENDBRANCH   6   9
ENDBRANCH   2   3
TORSDOF 2
ENDMDL
MODEL      175
REMARK 921   NORMALIZED FREE ENERGY PREDICTED BY IDOCK:   -2.68 KCAL/MOL
REMARK 922        TOTAL FREE ENERGY PREDICTED BY IDOCK:   -3.55 KCAL/MOL
REMARK 923 INTER-LIGAND FREE ENERGY PREDICTED BY IDOCK:   -3.02 KCAL/MOL
REMARK 924 INTRA-LIGAND FREE ENERGY PREDICTED BY IDOCK:   -0.53 KCAL/MOL
REMARK 927      BINDING AFFINITY PREDICTED BY RF-SCORE:    0.00 PKD
ROOT
HETATM    1  C   UNL     1      -9.170   2.455  68.960  1.00  0.00    -0.142 C  
HETATM    2  O   UNL     1      -9.380   2.907  67.624  1.00  0.00    -0.194 OA 
ENDROOT
BRANCH   2   3
HETATM    3  C   UNL     1      -9.460   4.266  67.483  1.00  0.00    -0.178 A  
HETATM    4  C   UNL     1      -8.475   5.162  67.893  1.00  0.00    -0.104 A  
HETATM    5  C   UNL     1      -8.654   6.537  67.719  1.00  0.00    -0.117 A  
HETATM    6  C   UNL     1      -9.819   7.048  67.132  1.00  0.00    -0.225 A  
HETATM    7  C   UNL     1     -10.600   4.753  66.852  1.00  0.00    -0.021 A  
HETATM    8  C   UNL     1     -10.785   6.131  66.686  1.00  0.00    -0.301 A  
BRANCH   6   9
HETATM    9  C   UNL     1     -10.073   8.536  66.976  1.00  0.00    -0.347 C  
HETATM   10  C   UNL     1      -9.968   9.362  68.254  1.00  0.00    -0.174 C  
HETATM   11  O   UNL     1     -10.613   9.243  69.282  1.00  0.00    -0.221 OA 
HETATM   12  C   UNL     1      -8.933  10.378  68.079  1.00  0.00    -0.129 A  
HETATM   13  C   UNL     1      -8.483  11.314  68.991  1.00  0.00     0.002 A  
HETATM   14  C   UNL     1      -7.472  12.186  68.576  1.00  0.00    -0.117 A  
HETATM   15  C   UNL     1      -6.939  12.104  67.275  1.00  0.00    -0.148 A  
HETATM   16  C   UNL     1      -7.408  11.148  66.369  1.00  0.00    -0.099 A  
HETATM   17  C   UNL     1      -8.406  10.294  66.800  1.00  0.00    -0.124 A  
HETATM   18  C   UNL     1      -9.064   9.219  66.060  1.00  0.00    -0.188 C  
HETATM   19  O   UNL     1      -8.826   8.974  64.890  1.00  0.00    -0.192 OA 
ENDBRANCH   6   9
ENDBRANCH   2   3
TORSDOF 2
ENDMDL
MODEL      176
REMARK 921   NORMALIZED FREE ENERGY PREDICTED BY IDOCK:   -2.63 KCAL/MOL
REMARK 922        TOTAL FREE ENERGY PREDICTED BY IDOCK:   -3.50 KCAL/MOL
REMARK 923 INTER-LIGAND FREE ENERGY PREDICTED BY IDOCK:   -3.01 KCAL/MOL
REMARK 924 INTRA-LIGAND FREE ENERGY PREDICTED BY IDOCK:   -0.48 KCAL/MOL
REMARK 927      BINDING AFFINITY PREDICTED BY RF-SCORE:    0.00 PKD
ROOT
HETATM    1  C   UNL     1      -8.450   4.862  68.725  1.00  0.00    -0.086 C  
HETATM    2  O   UNL     1      -8.039   5.974  69.517  1.00  0.00    -0.104 OA 
ENDROOT
BRANCH   2   3
HETATM    3  C   UNL     1      -8.208   7.196  68.924  1.00  0.00    -0.125 A  
HETATM    4  C   UNL     1      -8.819   8.291  69.530  1.00  0.00    -0.149 A  
HETATM    5  C   UNL     1      -8.960   9.496  68.837  1.00  0.00    -0.141 A  
HETATM    6  C   UNL     1      -8.492   9.635  67.523  1.00  0.00    -0.125 A  
HETATM    7  C   UNL     1      -7.694   7.332  67.638  1.00  0.00    -0.112 A  
HETATM    8  C   UNL     1      -7.842   8.535  66.938  1.00  0.00    -0.092 A  
BRANCH   6   9
HETATM    9  C   UNL     1      -8.675  10.909  66.719  1.00  0.00    -0.147 C  
HETATM   10  C   UNL     1      -9.939  11.707  67.023  1.00  0.00    -0.204 C  
HETATM   11  O   UNL     1     -11.099  11.344  66.928  1.00  0.00    -0.285 OA 
HETATM   12  C   UNL     1      -9.559  13.045  67.470  1.00  0.00    -0.204 A  
HETATM   13  C   UNL     1     -10.378  14.080  67.882  1.00  0.00    -0.239 A  
HETATM   14  C   UNL     1      -9.764  15.276  68.263  1.00  0.00    -0.210 A  
HETATM   15  C   UNL     1      -8.363  15.411  68.227  1.00  0.00    -0.150 A  
HETATM   16  C   UNL     1      -7.553  14.351  67.808  1.00  0.00    -0.175 A  
HETATM   17  C   UNL     1      -8.180  13.176  67.437  1.00  0.00    -0.187 A  
HETATM   18  C   UNL     1      -7.572  11.932  66.967  1.00  0.00    -0.134 C  
HETATM   19  O   UNL     1      -6.374  11.802  66.790  1.00  0.00    -0.144 OA 
ENDBRANCH   6   9
ENDBRANCH   2   3
TORSDOF 2
ENDMDL
MODEL      177
REMARK 921   NORMALIZED FREE ENERGY PREDICTED BY IDOCK:   -2.63 KCAL/MOL
REMARK 922        TOTAL FREE ENERGY PREDICTED BY IDOCK:   -3.49 KCAL/MOL
REMARK 923 INTER-LIGAND FREE ENERGY PREDICTED BY IDOCK:   -2.99 KCAL/MOL
REMARK 924 INTRA-LIGAND FREE ENERGY PREDICTED BY IDOCK:   -0.50 KCAL/MOL
REMARK 927      BINDING AFFINITY PREDICTED BY RF-SCORE:    0.00 PKD
ROOT
HETATM    1  C   UNL     1      -9.451   4.517  65.880  1.00  0.00    -0.171 C  
HETATM    2  O   UNL     1      -8.904   5.728  65.365  1.00  0.00    -0.151 OA 
ENDROOT
BRANCH   2   3
HETATM    3  C   UNL     1      -9.059   6.819  66.177  1.00  0.00    -0.109 A  
HETATM    4  C   UNL     1     -10.228   7.133  66.865  1.00  0.00    -0.330 A  
HETATM    5  C   UNL     1     -10.294   8.281  67.660  1.00  0.00    -0.313 A  
HETATM    6  C   UNL     1      -9.194   9.139  67.787  1.00  0.00    -0.145 A  
HETATM    7  C   UNL     1      -7.941   7.634  66.331  1.00  0.00    -0.107 A  
HETATM    8  C   UNL     1      -8.009   8.789  67.120  1.00  0.00    -0.096 A  
BRANCH   6   9
HETATM    9  C   UNL     1      -9.245  10.421  68.597  1.00  0.00    -0.164 C  
HETATM   10  C   UNL     1      -7.973  10.769  69.365  1.00  0.00    -0.067 C  
HETATM   11  O   UNL     1      -7.409  10.114  70.224  1.00  0.00    -0.160 OA 
HETATM   12  C   UNL     1      -7.486  12.070  68.911  1.00  0.00    -0.043 A  
HETATM   13  C   UNL     1      -6.350  12.750  69.309  1.00  0.00    -0.108 A  
HETATM   14  C   UNL     1      -6.103  13.994  68.720  1.00  0.00    -0.086 A  
HETATM   15  C   UNL     1      -6.984  14.524  67.757  1.00  0.00    -0.194 A  
HETATM   16  C   UNL     1      -8.127  13.818  67.369  1.00  0.00    -0.188 A  
HETATM   17  C   UNL     1      -8.352  12.589  67.961  1.00  0.00    -0.171 A  
HETATM   18  C   UNL     1      -9.458  11.661  67.735  1.00  0.00    -0.178 C  
HETATM   19  O   UNL     1     -10.390  11.905  66.990  1.00  0.00    -0.208 OA 
ENDBRANCH   6   9
ENDBRANCH   2   3
TORSDOF 2
ENDMDL
MODEL      178
REMARK 921   NORMALIZED FREE ENERGY PREDICTED BY IDOCK:   -2.62 KCAL/MOL
REMARK 922        TOTAL FREE ENERGY PREDICTED BY IDOCK:   -3.49 KCAL/MOL
REMARK 923 INTER-LIGAND FREE ENERGY PREDICTED BY IDOCK:   -2.96 KCAL/MOL
REMARK 924 INTRA-LIGAND FREE ENERGY PREDICTED BY IDOCK:   -0.52 KCAL/MOL
REMARK 927      BINDING AFFINITY PREDICTED BY RF-SCORE:    0.00 PKD
ROOT
HETATM    1  C   UNL     1      -9.381  10.739  64.553  1.00  0.00    -0.236 C  
HETATM    2  O   UNL     1      -8.879   9.438  64.850  1.00  0.00    -0.182 OA 
ENDROOT
BRANCH   2   3
HETATM    3  C   UNL     1      -9.234   8.953  66.079  1.00  0.00    -0.228 A  
HETATM    4  C   UNL     1     -10.490   9.110  66.659  1.00  0.00    -0.237 A  
HETATM    5  C   UNL     1     -10.754   8.589  67.929  1.00  0.00    -0.148 A  
HETATM    6  C   UNL     1      -9.769   7.899  68.648  1.00  0.00    -0.162 A  
HETATM    7  C   UNL     1      -8.259   8.227  66.758  1.00  0.00    -0.103 A  
HETATM    8  C   UNL     1      -8.519   7.713  68.035  1.00  0.00    -0.123 A  
BRANCH   6   9
HETATM    9  C   UNL     1     -10.000   7.367  70.050  1.00  0.00    -0.185 C  
HETATM   10  C   UNL     1      -9.437   5.977  70.331  1.00  0.00    -0.163 C  
HETATM   11  O   UNL     1      -9.702   4.930  69.766  1.00  0.00    -0.154 OA 
HETATM   12  C   UNL     1      -8.481   6.067  71.432  1.00  0.00    -0.128 A  
HETATM   13  C   UNL     1      -7.712   5.060  71.988  1.00  0.00    -0.104 A  
HETATM   14  C   UNL     1      -6.866   5.405  73.047  1.00  0.00    -0.078 A  
HETATM   15  C   UNL     1      -6.806   6.730  73.520  1.00  0.00    -0.075 A  
HETATM   16  C   UNL     1      -7.591   7.732  72.942  1.00  0.00    -0.131 A  
HETATM   17  C   UNL     1      -8.420   7.371  71.895  1.00  0.00    -0.117 A  
HETATM   18  C   UNL     1      -9.331   8.216  71.126  1.00  0.00    -0.154 C  
HETATM   19  O   UNL     1      -9.512   9.396  71.371  1.00  0.00    -0.254 OA 
ENDBRANCH   6   9
ENDBRANCH   2   3
TORSDOF 2
ENDMDL
MODEL      179
REMARK 921   NORMALIZED FREE ENERGY PREDICTED BY IDOCK:   -2.59 KCAL/MOL
REMARK 922        TOTAL FREE ENERGY PREDICTED BY IDOCK:   -3.45 KCAL/MOL
REMARK 923 INTER-LIGAND FREE ENERGY PREDICTED BY IDOCK:   -3.01 KCAL/MOL
REMARK 924 INTRA-LIGAND FREE ENERGY PREDICTED BY IDOCK:   -0.44 KCAL/MOL
REMARK 927      BINDING AFFINITY PREDICTED BY RF-SCORE:    0.00 PKD
ROOT
HETATM    1  C   UNL     1      -6.240  12.020  69.556  1.00  0.00    -0.117 C  
HETATM    2  O   UNL     1      -6.078  13.058  70.520  1.00  0.00    -0.133 OA 
ENDROOT
BRANCH   2   3
HETATM    3  C   UNL     1      -6.068  14.325  70.003  1.00  0.00    -0.150 A  
HETATM    4  C   UNL     1      -5.210  15.341  70.416  1.00  0.00    -0.124 A  
HETATM    5  C   UNL     1      -5.286  16.611  69.837  1.00  0.00    -0.172 A  
HETATM    6  C   UNL     1      -6.219  16.893  68.831  1.00  0.00    -0.173 A  
HETATM    7  C   UNL     1      -6.967  14.575  68.970  1.00  0.00    -0.121 A  
HETATM    8  C   UNL     1      -7.051  15.849  68.395  1.00  0.00    -0.117 A  
BRANCH   6   9
HETATM    9  C   UNL     1      -6.369  18.273  68.216  1.00  0.00    -0.198 C  
HETATM   10  C   UNL     1      -6.920  18.307  66.794  1.00  0.00    -0.196 C  
HETATM   11  O   UNL     1      -6.456  17.786  65.794  1.00  0.00    -0.237 OA 
HETATM   12  C   UNL     1      -8.151  19.093  66.782  1.00  0.00    -0.285 A  
HETATM   13  C   UNL     1      -8.996  19.352  65.718  1.00  0.00     0.187 A  
HETATM   14  C   UNL     1     -10.123  20.142  65.966  1.00  0.00    -0.497 A  
HETATM   15  C   UNL     1     -10.378  20.648  67.255  1.00  0.00    -0.048 A  
HETATM   16  C   UNL     1      -9.511  20.373  68.317  1.00  0.00    -0.093 A  
HETATM   17  C   UNL     1      -8.404  19.588  68.051  1.00  0.00    -0.355 A  
HETATM   18  C   UNL     1      -7.354  19.157  68.972  1.00  0.00    -0.325 C  
HETATM   19  O   UNL     1      -7.308  19.506  70.138  1.00  0.00     0.145 OA 
ENDBRANCH   6   9
ENDBRANCH   2   3
TORSDOF 2
ENDMDL
MODEL      180
REMARK 921   NORMALIZED FREE ENERGY PREDICTED BY IDOCK:   -2.57 KCAL/MOL
REMARK 922        TOTAL FREE ENERGY PREDICTED BY IDOCK:   -3.42 KCAL/MOL
REMARK 923 INTER-LIGAND FREE ENERGY PREDICTED BY IDOCK:   -2.90 KCAL/MOL
REMARK 924 INTRA-LIGAND FREE ENERGY PREDICTED BY IDOCK:   -0.52 KCAL/MOL
REMARK 927      BINDING AFFINITY PREDICTED BY RF-SCORE:    0.00 PKD
ROOT
HETATM    1  C   UNL     1      -6.904   4.133  63.973  1.00  0.00    -0.045 C  
HETATM    2  O   UNL     1      -6.277   4.728  65.107  1.00  0.00    -0.032 OA 
ENDROOT
BRANCH   2   3
HETATM    3  C   UNL     1      -6.665   6.014  65.370  1.00  0.00    -0.047 A  
HETATM    4  C   UNL     1      -7.854   6.368  66.000  1.00  0.00    -0.103 A  
HETATM    5  C   UNL     1      -8.170   7.714  66.211  1.00  0.00    -0.120 A  
HETATM    6  C   UNL     1      -7.303   8.734  65.798  1.00  0.00    -0.085 A  
HETATM    7  C   UNL     1      -5.770   7.013  64.998  1.00  0.00    -0.032 A  
HETATM    8  C   UNL     1      -6.089   8.362  65.200  1.00  0.00    -0.049 A  
BRANCH   6   9
HETATM    9  C   UNL     1      -7.635  10.206  65.960  1.00  0.00    -0.118 C  
HETATM   10  C   UNL     1      -8.777  10.726  65.092  1.00  0.00    -0.164 C  
HETATM   11  O   UNL     1      -8.858  10.724  63.876  1.00  0.00    -0.173 OA 
HETATM   12  C   UNL     1      -9.825  11.261  65.958  1.00  0.00    -0.267 A  
HETATM   13  C   UNL     1     -11.048  11.797  65.598  1.00  0.00    -0.340 A  
HETATM   14  C   UNL     1     -11.883  12.246  66.625  1.00  0.00    -0.362 A  
HETATM   15  C   UNL     1     -11.485  12.150  67.972  1.00  0.00    -0.380 A  
HETATM   16  C   UNL     1     -10.244  11.603  68.314  1.00  0.00    -0.206 A  
HETATM   17  C   UNL     1      -9.434  11.163  67.283  1.00  0.00    -0.178 A  
HETATM   18  C   UNL     1      -8.106  10.558  67.367  1.00  0.00    -0.111 C  
HETATM   19  O   UNL     1      -7.506  10.413  68.418  1.00  0.00    -0.086 OA 
ENDBRANCH   6   9
ENDBRANCH   2   3
TORSDOF 2
ENDMDL
MODEL      181
REMARK 921   NORMALIZED FREE ENERGY PREDICTED BY IDOCK:   -2.49 KCAL/MOL
REMARK 922        TOTAL FREE ENERGY PREDICTED BY IDOCK:   -3.33 KCAL/MOL
REMARK 923 INTER-LIGAND FREE ENERGY PREDICTED BY IDOCK:   -2.81 KCAL/MOL
REMARK 924 INTRA-LIGAND FREE ENERGY PREDICTED BY IDOCK:   -0.53 KCAL/MOL
REMARK 927      BINDING AFFINITY PREDICTED BY RF-SCORE:    0.00 PKD
ROOT
HETATM    1  C   UNL     1      -8.825   2.571  64.723  1.00  0.00    -0.116 C  
HETATM    2  O   UNL     1      -9.418   3.828  64.404  1.00  0.00    -0.140 OA 
ENDROOT
BRANCH   2   3
HETATM    3  C   UNL     1      -9.395   4.747  65.417  1.00  0.00    -0.156 A  
HETATM    4  C   UNL     1      -8.307   5.561  65.722  1.00  0.00    -0.129 A  
HETATM    5  C   UNL     1      -8.373   6.462  66.788  1.00  0.00    -0.111 A  
HETATM    6  C   UNL     1      -9.529   6.571  67.573  1.00  0.00    -0.131 A  
HETATM    7  C   UNL     1     -10.567   4.878  66.155  1.00  0.00    -0.322 A  
HETATM    8  C   UNL     1     -10.633   5.773  67.230  1.00  0.00    -0.353 A  
BRANCH   6   9
HETATM    9  C   UNL     1      -9.621   7.497  68.772  1.00  0.00    -0.149 C  
HETATM   10  C   UNL     1      -8.551   7.301  69.842  1.00  0.00    -0.141 C  
HETATM   11  O   UNL     1      -8.310   6.298  70.491  1.00  0.00    -0.125 OA 
HETATM   12  C   UNL     1      -7.805   8.548  70.000  1.00  0.00    -0.102 A  
HETATM   13  C   UNL     1      -6.730   8.808  70.830  1.00  0.00    -0.058 A  
HETATM   14  C   UNL     1      -6.187  10.096  70.799  1.00  0.00    -0.069 A  
HETATM   15  C   UNL     1      -6.722  11.083  69.949  1.00  0.00    -0.125 A  
HETATM   16  C   UNL     1      -7.809  10.798  69.117  1.00  0.00    -0.142 A  
HETATM   17  C   UNL     1      -8.330   9.518  69.162  1.00  0.00    -0.125 A  
HETATM   18  C   UNL     1      -9.451   8.967  68.403  1.00  0.00    -0.140 C  
HETATM   19  O   UNL     1     -10.126   9.630  67.636  1.00  0.00    -0.171 OA 
ENDBRANCH   6   9
ENDBRANCH   2   3
TORSDOF 2
ENDMDL
MODEL      182
REMARK 921   NORMALIZED FREE ENERGY PREDICTED BY IDOCK:   -2.46 KCAL/MOL
REMARK 922        TOTAL FREE ENERGY PREDICTED BY IDOCK:   -3.30 KCAL/MOL
REMARK 923 INTER-LIGAND FREE ENERGY PREDICTED BY IDOCK:   -2.77 KCAL/MOL
REMARK 924 INTRA-LIGAND FREE ENERGY PREDICTED BY IDOCK:   -0.54 KCAL/MOL
REMARK 927      BINDING AFFINITY PREDICTED BY RF-SCORE:    0.00 PKD
ROOT
HETATM    1  C   UNL     1      -6.840   4.807  63.058  1.00  0.00    -0.038 C  
HETATM    2  O   UNL     1      -6.187   5.174  64.271  1.00  0.00    -0.022 OA 
ENDROOT
BRANCH   2   3
HETATM    3  C   UNL     1      -6.801   6.175  64.973  1.00  0.00    -0.051 A  
HETATM    4  C   UNL     1      -7.287   7.353  64.411  1.00  0.00    -0.085 A  
HETATM    5  C   UNL     1      -7.887   8.326  65.215  1.00  0.00    -0.120 A  
HETATM    6  C   UNL     1      -8.016   8.143  66.598  1.00  0.00    -0.102 A  
HETATM    7  C   UNL     1      -6.966   5.956  66.338  1.00  0.00    -0.060 A  
HETATM    8  C   UNL     1      -7.558   6.934  67.147  1.00  0.00    -0.107 A  
BRANCH   6   9
HETATM    9  C   UNL     1      -8.612   9.199  67.511  1.00  0.00    -0.116 C  
HETATM   10  C   UNL     1      -7.948  10.571  67.457  1.00  0.00    -0.107 C  
HETATM   11  O   UNL     1      -6.787  10.856  67.696  1.00  0.00    -0.077 OA 
HETATM   12  C   UNL     1      -8.943  11.564  67.058  1.00  0.00    -0.174 A  
HETATM   13  C   UNL     1      -8.770  12.920  66.848  1.00  0.00    -0.164 A  
HETATM   14  C   UNL     1      -9.892  13.662  66.468  1.00  0.00    -0.295 A  
HETATM   15  C   UNL     1     -11.146  13.042  66.306  1.00  0.00    -0.314 A  
HETATM   16  C   UNL     1     -11.298  11.670  66.522  1.00  0.00    -0.331 A  
HETATM   17  C   UNL     1     -10.176  10.953  66.895  1.00  0.00    -0.272 A  
HETATM   18  C   UNL     1     -10.064   9.523  67.178  1.00  0.00    -0.229 C  
HETATM   19  O   UNL     1     -11.018   8.766  67.165  1.00  0.00    -0.105 OA 
ENDBRANCH   6   9
ENDBRANCH   2   3
TORSDOF 2
ENDMDL
MODEL      183
REMARK 921   NORMALIZED FREE ENERGY PREDICTED BY IDOCK:   -2.44 KCAL/MOL
REMARK 922        TOTAL FREE ENERGY PREDICTED BY IDOCK:   -3.29 KCAL/MOL
REMARK 923 INTER-LIGAND FREE ENERGY PREDICTED BY IDOCK:   -2.76 KCAL/MOL
REMARK 924 INTRA-LIGAND FREE ENERGY PREDICTED BY IDOCK:   -0.53 KCAL/MOL
REMARK 927      BINDING AFFINITY PREDICTED BY RF-SCORE:    0.00 PKD
ROOT
HETATM    1  C   UNL     1      -8.273   2.678  73.465  1.00  0.00    -0.064 C  
HETATM    2  O   UNL     1      -9.106   3.748  73.025  1.00  0.00    -0.099 OA 
ENDROOT
BRANCH   2   3
HETATM    3  C   UNL     1      -9.051   4.005  71.682  1.00  0.00    -0.123 A  
HETATM    4  C   UNL     1      -9.418   3.100  70.689  1.00  0.00    -0.233 A  
HETATM    5  C   UNL     1      -9.313   3.450  69.340  1.00  0.00    -0.237 A  
HETATM    6  C   UNL     1      -8.841   4.711  68.953  1.00  0.00    -0.128 A  
HETATM    7  C   UNL     1      -8.627   5.279  71.316  1.00  0.00    -0.132 A  
HETATM    8  C   UNL     1      -8.512   5.627  69.965  1.00  0.00    -0.122 A  
BRANCH   6   9
HETATM    9  C   UNL     1      -8.661   5.107  67.499  1.00  0.00    -0.103 C  
HETATM   10  C   UNL     1      -7.914   4.102  66.627  1.00  0.00    -0.098 C  
HETATM   11  O   UNL     1      -6.781   3.677  66.771  1.00  0.00    -0.044 OA 
HETATM   12  C   UNL     1      -8.785   3.688  65.529  1.00  0.00    -0.119 A  
HETATM   13  C   UNL     1      -8.530   2.769  64.528  1.00  0.00    -0.088 A  
HETATM   14  C   UNL     1      -9.536   2.548  63.583  1.00  0.00    -0.114 A  
HETATM   15  C   UNL     1     -10.761   3.240  63.658  1.00  0.00    -0.247 A  
HETATM   16  C   UNL     1     -10.998   4.164  64.680  1.00  0.00    -0.058 A  
HETATM   17  C   UNL     1      -9.991   4.367  65.606  1.00  0.00    -0.247 A  
HETATM   18  C   UNL     1      -9.984   5.266  66.758  1.00  0.00    -0.199 C  
HETATM   19  O   UNL     1     -10.903   6.022  67.017  1.00  0.00    -0.308 OA 
ENDBRANCH   6   9
ENDBRANCH   2   3
TORSDOF 2
ENDMDL
MODEL      184
REMARK 921   NORMALIZED FREE ENERGY PREDICTED BY IDOCK:   -2.42 KCAL/MOL
REMARK 922        TOTAL FREE ENERGY PREDICTED BY IDOCK:   -3.26 KCAL/MOL
REMARK 923 INTER-LIGAND FREE ENERGY PREDICTED BY IDOCK:   -2.70 KCAL/MOL
REMARK 924 INTRA-LIGAND FREE ENERGY PREDICTED BY IDOCK:   -0.56 KCAL/MOL
REMARK 927      BINDING AFFINITY PREDICTED BY RF-SCORE:    0.00 PKD
ROOT
HETATM    1  C   UNL     1     -10.928  13.659  67.018  1.00  0.00    -0.289 C  
HETATM    2  O   UNL     1      -9.514  13.574  67.177  1.00  0.00    -0.227 OA 
ENDROOT
BRANCH   2   3
HETATM    3  C   UNL     1      -9.028  12.304  67.325  1.00  0.00    -0.187 A  
HETATM    4  C   UNL     1      -8.084  11.924  68.276  1.00  0.00    -0.154 A  
HETATM    5  C   UNL     1      -7.636  10.601  68.340  1.00  0.00    -0.100 A  
HETATM    6  C   UNL     1      -8.123   9.629  67.457  1.00  0.00    -0.114 A  
HETATM    7  C   UNL     1      -9.558  11.339  66.473  1.00  0.00    -0.215 A  
HETATM    8  C   UNL     1      -9.104  10.016  66.529  1.00  0.00    -0.172 A  
BRANCH   6   9
HETATM    9  C   UNL     1      -7.622   8.196  67.459  1.00  0.00    -0.101 C  
HETATM   10  C   UNL     1      -8.682   7.126  67.703  1.00  0.00    -0.121 C  
HETATM   11  O   UNL     1      -9.409   6.994  68.672  1.00  0.00    -0.138 OA 
HETATM   12  C   UNL     1      -8.714   6.221  66.556  1.00  0.00    -0.131 A  
HETATM   13  C   UNL     1      -9.544   5.137  66.339  1.00  0.00    -0.171 A  
HETATM   14  C   UNL     1      -9.374   4.422  65.149  1.00  0.00    -0.165 A  
HETATM   15  C   UNL     1      -8.392   4.802  64.214  1.00  0.00    -0.127 A  
HETATM   16  C   UNL     1      -7.564   5.903  64.454  1.00  0.00    -0.087 A  
HETATM   17  C   UNL     1      -7.750   6.598  65.635  1.00  0.00    -0.095 A  
HETATM   18  C   UNL     1      -7.027   7.771  66.122  1.00  0.00    -0.062 C  
HETATM   19  O   UNL     1      -6.088   8.268  65.526  1.00  0.00    -0.044 OA 
ENDBRANCH   6   9
ENDBRANCH   2   3
TORSDOF 2
ENDMDL
MODEL      185
REMARK 921   NORMALIZED FREE ENERGY PREDICTED BY IDOCK:   -2.41 KCAL/MOL
REMARK 922        TOTAL FREE ENERGY PREDICTED BY IDOCK:   -3.25 KCAL/MOL
REMARK 923 INTER-LIGAND FREE ENERGY PREDICTED BY IDOCK:   -2.73 KCAL/MOL
REMARK 924 INTRA-LIGAND FREE ENERGY PREDICTED BY IDOCK:   -0.52 KCAL/MOL
REMARK 927      BINDING AFFINITY PREDICTED BY RF-SCORE:    0.00 PKD
ROOT
HETATM    1  C   UNL     1     -11.142   9.379  67.828  1.00  0.00     0.094 C  
HETATM    2  O   UNL     1     -11.702   9.739  69.089  1.00  0.00     0.095 OA 
ENDROOT
BRANCH   2   3
HETATM    3  C   UNL     1     -11.289   8.971  70.143  1.00  0.00    -0.121 A  
HETATM    4  C   UNL     1     -10.306   7.987  70.066  1.00  0.00    -0.218 A  
HETATM    5  C   UNL     1      -9.961   7.242  71.197  1.00  0.00    -0.186 A  
HETATM    6  C   UNL     1     -10.589   7.464  72.430  1.00  0.00    -0.285 A  
HETATM    7  C   UNL     1     -11.886   9.239  71.371  1.00  0.00    -0.428 A  
HETATM    8  C   UNL     1     -11.548   8.487  72.503  1.00  0.00    -0.376 A  
BRANCH   6   9
HETATM    9  C   UNL     1     -10.280   6.640  73.666  1.00  0.00    -0.325 C  
HETATM   10  C   UNL     1     -10.852   5.225  73.677  1.00  0.00    -0.294 C  
HETATM   11  O   UNL     1     -12.020   4.885  73.601  1.00  0.00     0.115 OA 
HETATM   12  C   UNL     1      -9.752   4.271  73.798  1.00  0.00    -0.148 A  
HETATM   13  C   UNL     1      -9.810   2.889  73.811  1.00  0.00    -0.148 A  
HETATM   14  C   UNL     1      -8.604   2.194  73.941  1.00  0.00    -0.062 A  
HETATM   15  C   UNL     1      -7.382   2.885  74.052  1.00  0.00    -0.043 A  
HETATM   16  C   UNL     1      -7.347   4.283  74.036  1.00  0.00    -0.068 A  
HETATM   17  C   UNL     1      -8.550   4.951  73.905  1.00  0.00    -0.103 A  
HETATM   18  C   UNL     1      -8.788   6.392  73.860  1.00  0.00    -0.127 C  
HETATM   19  O   UNL     1      -7.902   7.218  73.993  1.00  0.00    -0.106 OA 
ENDBRANCH   6   9
ENDBRANCH   2   3
TORSDOF 2
ENDMDL
MODEL      186
REMARK 921   NORMALIZED FREE ENERGY PREDICTED BY IDOCK:   -2.34 KCAL/MOL
REMARK 922        TOTAL FREE ENERGY PREDICTED BY IDOCK:   -3.17 KCAL/MOL
REMARK 923 INTER-LIGAND FREE ENERGY PREDICTED BY IDOCK:   -2.76 KCAL/MOL
REMARK 924 INTRA-LIGAND FREE ENERGY PREDICTED BY IDOCK:   -0.40 KCAL/MOL
REMARK 927      BINDING AFFINITY PREDICTED BY RF-SCORE:    0.00 PKD
ROOT
HETATM    1  C   UNL     1      -9.474  17.398  68.245  1.00  0.00    -0.290 C  
HETATM    2  O   UNL     1      -8.092  17.055  68.326  1.00  0.00    -0.210 OA 
ENDROOT
BRANCH   2   3
HETATM    3  C   UNL     1      -7.827  15.716  68.236  1.00  0.00    -0.128 A  
HETATM    4  C   UNL     1      -8.793  14.714  68.274  1.00  0.00    -0.176 A  
HETATM    5  C   UNL     1      -8.422  13.369  68.189  1.00  0.00    -0.172 A  
HETATM    6  C   UNL     1      -7.078  12.995  68.063  1.00  0.00    -0.115 A  
HETATM    7  C   UNL     1      -6.492  15.364  68.061  1.00  0.00    -0.148 A  
HETATM    8  C   UNL     1      -6.117  14.017  67.985  1.00  0.00    -0.144 A  
BRANCH   6   9
HETATM    9  C   UNL     1      -6.631  11.545  68.022  1.00  0.00    -0.058 C  
HETATM   10  C   UNL     1      -7.603  10.537  68.627  1.00  0.00    -0.099 C  
HETATM   11  O   UNL     1      -8.030  10.494  69.768  1.00  0.00    -0.127 OA 
HETATM   12  C   UNL     1      -7.981   9.569  67.600  1.00  0.00    -0.106 A  
HETATM   13  C   UNL     1      -8.865   8.510  67.700  1.00  0.00    -0.138 A  
HETATM   14  C   UNL     1      -9.056   7.720  66.562  1.00  0.00    -0.208 A  
HETATM   15  C   UNL     1      -8.371   8.002  65.365  1.00  0.00    -0.161 A  
HETATM   16  C   UNL     1      -7.483   9.079  65.286  1.00  0.00    -0.093 A  
HETATM   17  C   UNL     1      -7.309   9.849  66.421  1.00  0.00    -0.101 A  
HETATM   18  C   UNL     1      -6.450  11.017  66.604  1.00  0.00    -0.129 C  
HETATM   19  O   UNL     1      -5.706  11.438  65.736  1.00  0.00    -0.163 OA 
ENDBRANCH   6   9
ENDBRANCH   2   3
TORSDOF 2
ENDMDL
MODEL      187
REMARK 921   NORMALIZED FREE ENERGY PREDICTED BY IDOCK:   -2.31 KCAL/MOL
REMARK 922        TOTAL FREE ENERGY PREDICTED BY IDOCK:   -3.13 KCAL/MOL
REMARK 923 INTER-LIGAND FREE ENERGY PREDICTED BY IDOCK:   -2.60 KCAL/MOL
REMARK 924 INTRA-LIGAND FREE ENERGY PREDICTED BY IDOCK:   -0.53 KCAL/MOL
REMARK 927      BINDING AFFINITY PREDICTED BY RF-SCORE:    0.00 PKD
ROOT
HETATM    1  C   UNL     1      -7.758   2.465  65.084  1.00  0.00    -0.077 C  
HETATM    2  O   UNL     1      -8.590   3.623  65.098  1.00  0.00    -0.110 OA 
ENDROOT
BRANCH   2   3
HETATM    3  C   UNL     1      -8.820   4.150  66.340  1.00  0.00    -0.118 A  
HETATM    4  C   UNL     1      -7.840   4.350  67.309  1.00  0.00    -0.096 A  
HETATM    5  C   UNL     1      -8.177   4.882  68.557  1.00  0.00    -0.084 A  
HETATM    6  C   UNL     1      -9.500   5.226  68.865  1.00  0.00    -0.173 A  
HETATM    7  C   UNL     1     -10.131   4.532  66.612  1.00  0.00    -0.238 A  
HETATM    8  C   UNL     1     -10.472   5.056  67.865  1.00  0.00    -0.037 A  
BRANCH   6   9
HETATM    9  C   UNL     1      -9.913   5.754  70.226  1.00  0.00    -0.258 C  
HETATM   10  C   UNL     1      -9.313   5.028  71.426  1.00  0.00    -0.149 C  
HETATM   11  O   UNL     1      -9.419   3.851  71.724  1.00  0.00    -0.125 OA 
HETATM   12  C   UNL     1      -8.549   5.984  72.225  1.00  0.00    -0.124 A  
HETATM   13  C   UNL     1      -7.814   5.753  73.373  1.00  0.00    -0.109 A  
HETATM   14  C   UNL     1      -7.168   6.847  73.957  1.00  0.00    -0.094 A  
HETATM   15  C   UNL     1      -7.268   8.131  73.388  1.00  0.00    -0.170 A  
HETATM   16  C   UNL     1      -8.016   8.342  72.226  1.00  0.00    -0.189 A  
HETATM   17  C   UNL     1      -8.645   7.247  71.663  1.00  0.00    -0.120 A  
HETATM   18  C   UNL     1      -9.478   7.196  70.462  1.00  0.00    -0.162 C  
HETATM   19  O   UNL     1      -9.769   8.184  69.812  1.00  0.00    -0.171 OA 
ENDBRANCH   6   9
ENDBRANCH   2   3
TORSDOF 2
ENDMDL
MODEL      188
REMARK 921   NORMALIZED FREE ENERGY PREDICTED BY IDOCK:   -2.27 KCAL/MOL
REMARK 922        TOTAL FREE ENERGY PREDICTED BY IDOCK:   -3.09 KCAL/MOL
REMARK 923 INTER-LIGAND FREE ENERGY PREDICTED BY IDOCK:   -2.56 KCAL/MOL
REMARK 924 INTRA-LIGAND FREE ENERGY PREDICTED BY IDOCK:   -0.53 KCAL/MOL
REMARK 927      BINDING AFFINITY PREDICTED BY RF-SCORE:    0.00 PKD
ROOT
HETATM    1  C   UNL     1      -7.765  14.599  68.361  1.00  0.00    -0.125 C  
HETATM    2  O   UNL     1      -7.974  13.598  67.368  1.00  0.00    -0.171 OA 
ENDROOT
BRANCH   2   3
HETATM    3  C   UNL     1      -8.314  12.366  67.856  1.00  0.00    -0.165 A  
HETATM    4  C   UNL     1      -7.534  11.220  67.724  1.00  0.00    -0.095 A  
HETATM    5  C   UNL     1      -7.974  10.001  68.246  1.00  0.00    -0.097 A  
HETATM    6  C   UNL     1      -9.203   9.899  68.912  1.00  0.00    -0.160 A  
HETATM    7  C   UNL     1      -9.514  12.293  68.559  1.00  0.00    -0.115 A  
HETATM    8  C   UNL     1      -9.961  11.070  69.073  1.00  0.00    -0.184 A  
BRANCH   6   9
HETATM    9  C   UNL     1      -9.739   8.582  69.443  1.00  0.00    -0.177 C  
HETATM   10  C   UNL     1     -10.099   7.541  68.388  1.00  0.00    -0.180 C  
HETATM   11  O   UNL     1     -10.908   7.636  67.482  1.00  0.00    -0.223 OA 
HETATM   12  C   UNL     1      -9.300   6.339  68.618  1.00  0.00    -0.122 A  
HETATM   13  C   UNL     1      -9.277   5.168  67.882  1.00  0.00    -0.128 A  
HETATM   14  C   UNL     1      -8.418   4.152  68.313  1.00  0.00    -0.104 A  
HETATM   15  C   UNL     1      -7.611   4.326  69.453  1.00  0.00    -0.054 A  
HETATM   16  C   UNL     1      -7.650   5.518  70.182  1.00  0.00    -0.074 A  
HETATM   17  C   UNL     1      -8.504   6.511  69.738  1.00  0.00    -0.131 A  
HETATM   18  C   UNL     1      -8.732   7.836  70.312  1.00  0.00    -0.143 C  
HETATM   19  O   UNL     1      -8.198   8.218  71.338  1.00  0.00    -0.108 OA 
ENDBRANCH   6   9
ENDBRANCH   2   3
TORSDOF 2
ENDMDL
MODEL      189
REMARK 921   NORMALIZED FREE ENERGY PREDICTED BY IDOCK:   -2.22 KCAL/MOL
REMARK 922        TOTAL FREE ENERGY PREDICTED BY IDOCK:   -3.03 KCAL/MOL
REMARK 923 INTER-LIGAND FREE ENERGY PREDICTED BY IDOCK:   -2.52 KCAL/MOL
REMARK 924 INTRA-LIGAND FREE ENERGY PREDICTED BY IDOCK:   -0.52 KCAL/MOL
REMARK 927      BINDING AFFINITY PREDICTED BY RF-SCORE:    0.00 PKD
ROOT
HETATM    1  C   UNL     1      -9.005   3.252  71.916  1.00  0.00    -0.096 C  
HETATM    2  O   UNL     1      -7.812   4.011  72.103  1.00  0.00    -0.076 OA 
ENDROOT
BRANCH   2   3
HETATM    3  C   UNL     1      -7.606   4.996  71.177  1.00  0.00    -0.086 A  
HETATM    4  C   UNL     1      -6.495   5.075  70.340  1.00  0.00    -0.031 A  
HETATM    5  C   UNL     1      -6.366   6.131  69.433  1.00  0.00    -0.041 A  
HETATM    6  C   UNL     1      -7.345   7.129  69.340  1.00  0.00    -0.090 A  
HETATM    7  C   UNL     1      -8.611   5.952  71.062  1.00  0.00    -0.131 A  
HETATM    8  C   UNL     1      -8.479   7.015  70.161  1.00  0.00    -0.139 A  
BRANCH   6   9
HETATM    9  C   UNL     1      -7.215   8.319  68.407  1.00  0.00    -0.092 C  
HETATM   10  C   UNL     1      -8.118   8.297  67.178  1.00  0.00    -0.108 C  
HETATM   11  O   UNL     1      -8.162   7.461  66.291  1.00  0.00    -0.114 OA 
HETATM   12  C   UNL     1      -8.975   9.480  67.198  1.00  0.00    -0.148 A  
HETATM   13  C   UNL     1      -9.964   9.841  66.302  1.00  0.00    -0.331 A  
HETATM   14  C   UNL     1     -10.650  11.036  66.544  1.00  0.00    -0.310 A  
HETATM   15  C   UNL     1     -10.337  11.832  67.663  1.00  0.00    -0.219 A  
HETATM   16  C   UNL     1      -9.334  11.447  68.557  1.00  0.00    -0.180 A  
HETATM   17  C   UNL     1      -8.669  10.262  68.301  1.00  0.00    -0.126 A  
HETATM   18  C   UNL     1      -7.593   9.639  69.069  1.00  0.00    -0.076 C  
HETATM   19  O   UNL     1      -7.096  10.154  70.056  1.00  0.00    -0.124 OA 
ENDBRANCH   6   9
ENDBRANCH   2   3
TORSDOF 2
ENDMDL
MODEL      190
REMARK 921   NORMALIZED FREE ENERGY PREDICTED BY IDOCK:   -2.20 KCAL/MOL
REMARK 922        TOTAL FREE ENERGY PREDICTED BY IDOCK:   -3.01 KCAL/MOL
REMARK 923 INTER-LIGAND FREE ENERGY PREDICTED BY IDOCK:   -2.56 KCAL/MOL
REMARK 924 INTRA-LIGAND FREE ENERGY PREDICTED BY IDOCK:   -0.45 KCAL/MOL
REMARK 927      BINDING AFFINITY PREDICTED BY RF-SCORE:    0.00 PKD
ROOT
HETATM    1  C   UNL     1      -8.369   3.915  73.664  1.00  0.00    -0.088 C  
HETATM    2  O   UNL     1      -9.052   5.153  73.477  1.00  0.00    -0.124 OA 
ENDROOT
BRANCH   2   3
HETATM    3  C   UNL     1      -9.078   5.606  72.186  1.00  0.00    -0.140 A  
HETATM    4  C   UNL     1      -7.955   5.747  71.375  1.00  0.00    -0.113 A  
HETATM    5  C   UNL     1      -8.081   6.233  70.071  1.00  0.00    -0.120 A  
HETATM    6  C   UNL     1      -9.332   6.588  69.548  1.00  0.00    -0.148 A  
HETATM    7  C   UNL     1     -10.333   5.905  71.666  1.00  0.00    -0.268 A  
HETATM    8  C   UNL     1     -10.460   6.402  70.362  1.00  0.00    -0.269 A  
BRANCH   6   9
HETATM    9  C   UNL     1      -9.502   7.170  68.156  1.00  0.00    -0.132 C  
HETATM   10  C   UNL     1      -8.303   7.939  67.611  1.00  0.00    -0.124 C  
HETATM   11  O   UNL     1      -7.764   8.926  68.082  1.00  0.00    -0.098 OA 
HETATM   12  C   UNL     1      -7.856   7.304  66.373  1.00  0.00    -0.106 A  
HETATM   13  C   UNL     1      -6.785   7.647  65.568  1.00  0.00    -0.045 A  
HETATM   14  C   UNL     1      -6.565   6.875  64.423  1.00  0.00    -0.042 A  
HETATM   15  C   UNL     1      -7.408   5.791  64.112  1.00  0.00    -0.063 A  
HETATM   16  C   UNL     1      -8.485   5.461  64.941  1.00  0.00    -0.148 A  
HETATM   17  C   UNL     1      -8.684   6.235  66.069  1.00  0.00    -0.155 A  
HETATM   18  C   UNL     1      -9.723   6.104  67.088  1.00  0.00    -0.135 C  
HETATM   19  O   UNL     1     -10.615   5.278  67.026  1.00  0.00    -0.244 OA 
ENDBRANCH   6   9
ENDBRANCH   2   3
TORSDOF 2
ENDMDL
MODEL      191
REMARK 921   NORMALIZED FREE ENERGY PREDICTED BY IDOCK:   -2.16 KCAL/MOL
REMARK 922        TOTAL FREE ENERGY PREDICTED BY IDOCK:   -2.97 KCAL/MOL
REMARK 923 INTER-LIGAND FREE ENERGY PREDICTED BY IDOCK:   -2.44 KCAL/MOL
REMARK 924 INTRA-LIGAND FREE ENERGY PREDICTED BY IDOCK:   -0.53 KCAL/MOL
REMARK 927      BINDING AFFINITY PREDICTED BY RF-SCORE:    0.00 PKD
ROOT
HETATM    1  C   UNL     1      -9.732  12.902  68.485  1.00  0.00    -0.127 C  
HETATM    2  O   UNL     1      -8.507  12.172  68.531  1.00  0.00    -0.151 OA 
ENDROOT
BRANCH   2   3
HETATM    3  C   UNL     1      -8.646  10.813  68.469  1.00  0.00    -0.148 A  
HETATM    4  C   UNL     1      -9.088  10.014  69.521  1.00  0.00    -0.236 A  
HETATM    5  C   UNL     1      -9.183   8.628  69.367  1.00  0.00    -0.150 A  
HETATM    6  C   UNL     1      -8.840   8.009  68.157  1.00  0.00    -0.132 A  
HETATM    7  C   UNL     1      -8.349  10.219  67.246  1.00  0.00    -0.121 A  
HETATM    8  C   UNL     1      -8.435   8.830  67.092  1.00  0.00    -0.110 A  
BRANCH   6   9
HETATM    9  C   UNL     1      -8.878   6.504  67.968  1.00  0.00    -0.114 C  
HETATM   10  C   UNL     1      -9.880   5.992  66.938  1.00  0.00    -0.158 C  
HETATM   11  O   UNL     1     -11.090   6.139  66.927  1.00  0.00    -0.334 OA 
HETATM   12  C   UNL     1      -9.160   5.257  65.901  1.00  0.00    -0.159 A  
HETATM   13  C   UNL     1      -9.666   4.657  64.762  1.00  0.00    -0.020 A  
HETATM   14  C   UNL     1      -8.760   4.006  63.919  1.00  0.00    -0.113 A  
HETATM   15  C   UNL     1      -7.386   3.969  64.228  1.00  0.00    -0.066 A  
HETATM   16  C   UNL     1      -6.896   4.583  65.384  1.00  0.00    -0.057 A  
HETATM   17  C   UNL     1      -7.808   5.224  66.203  1.00  0.00    -0.103 A  
HETATM   18  C   UNL     1      -7.560   5.935  67.455  1.00  0.00    -0.093 C  
HETATM   19  O   UNL     1      -6.460   6.004  67.976  1.00  0.00    -0.045 OA 
ENDBRANCH   6   9
ENDBRANCH   2   3
TORSDOF 2
ENDMDL
MODEL      192
REMARK 921   NORMALIZED FREE ENERGY PREDICTED BY IDOCK:   -2.10 KCAL/MOL
REMARK 922        TOTAL FREE ENERGY PREDICTED BY IDOCK:   -2.90 KCAL/MOL
REMARK 923 INTER-LIGAND FREE ENERGY PREDICTED BY IDOCK:   -2.45 KCAL/MOL
REMARK 924 INTRA-LIGAND FREE ENERGY PREDICTED BY IDOCK:   -0.45 KCAL/MOL
REMARK 927      BINDING AFFINITY PREDICTED BY RF-SCORE:    0.00 PKD
ROOT
HETATM    1  C   UNL     1      -5.988  14.214  73.936  1.00  0.00     0.203 C  
HETATM    2  O   UNL     1      -5.145  13.512  73.025  1.00  0.00    -0.289 OA 
ENDROOT
BRANCH   2   3
HETATM    3  C   UNL     1      -5.528  13.588  71.714  1.00  0.00    -0.141 A  
HETATM    4  C   UNL     1      -5.645  14.773  70.991  1.00  0.00    -0.121 A  
HETATM    5  C   UNL     1      -6.059  14.749  69.656  1.00  0.00    -0.121 A  
HETATM    6  C   UNL     1      -6.364  13.542  69.013  1.00  0.00    -0.099 A  
HETATM    7  C   UNL     1      -5.778  12.376  71.076  1.00  0.00     0.041 A  
HETATM    8  C   UNL     1      -6.202  12.352  69.741  1.00  0.00    -0.119 A  
BRANCH   6   9
HETATM    9  C   UNL     1      -6.868  13.481  67.583  1.00  0.00    -0.178 C  
HETATM   10  C   UNL     1      -6.525  12.207  66.816  1.00  0.00     0.125 C  
HETATM   11  O   UNL     1      -5.422  11.752  66.568  1.00  0.00    -0.265 OA 
HETATM   12  C   UNL     1      -7.766  11.564  66.388  1.00  0.00     0.003 A  
HETATM   13  C   UNL     1      -7.925  10.375  65.701  1.00  0.00    -0.153 A  
HETATM   14  C   UNL     1      -9.230   9.970  65.405  1.00  0.00    -0.259 A  
HETATM   15  C   UNL     1     -10.334  10.751  65.800  1.00  0.00    -0.295 A  
HETATM   16  C   UNL     1     -10.150  11.950  66.495  1.00  0.00    -0.229 A  
HETATM   17  C   UNL     1      -8.851  12.331  66.779  1.00  0.00    -0.195 A  
HETATM   18  C   UNL     1      -8.389  13.524  67.486  1.00  0.00    -0.184 C  
HETATM   19  O   UNL     1      -9.142  14.395  67.884  1.00  0.00    -0.176 OA 
ENDBRANCH   6   9
ENDBRANCH   2   3
TORSDOF 2
ENDMDL
MODEL      193
REMARK 921   NORMALIZED FREE ENERGY PREDICTED BY IDOCK:   -2.06 KCAL/MOL
REMARK 922        TOTAL FREE ENERGY PREDICTED BY IDOCK:   -2.85 KCAL/MOL
REMARK 923 INTER-LIGAND FREE ENERGY PREDICTED BY IDOCK:   -2.63 KCAL/MOL
REMARK 924 INTRA-LIGAND FREE ENERGY PREDICTED BY IDOCK:   -0.23 KCAL/MOL
REMARK 927      BINDING AFFINITY PREDICTED BY RF-SCORE:    0.00 PKD
ROOT
HETATM    1  C   UNL     1      -6.404   3.118  73.683  1.00  0.00    -0.024 C  
HETATM    2  O   UNL     1      -7.647   3.738  74.004  1.00  0.00    -0.070 OA 
ENDROOT
BRANCH   2   3
HETATM    3  C   UNL     1      -8.194   4.486  72.996  1.00  0.00    -0.099 A  
HETATM    4  C   UNL     1      -9.207   5.425  73.169  1.00  0.00    -0.133 A  
HETATM    5  C   UNL     1      -9.712   6.131  72.074  1.00  0.00    -0.167 A  
HETATM    6  C   UNL     1      -9.215   5.915  70.781  1.00  0.00    -0.167 A  
HETATM    7  C   UNL     1      -7.655   4.295  71.727  1.00  0.00    -0.070 A  
HETATM    8  C   UNL     1      -8.166   4.994  70.627  1.00  0.00    -0.102 A  
BRANCH   6   9
HETATM    9  C   UNL     1      -9.774   6.622  69.560  1.00  0.00    -0.156 C  
HETATM   10  C   UNL     1     -11.024   7.464  69.799  1.00  0.00    -0.200 C  
HETATM   11  O   UNL     1     -12.106   7.102  70.227  1.00  0.00    -0.157 OA 
HETATM   12  C   UNL     1     -10.740   8.848  69.424  1.00  0.00    -0.192 A  
HETATM   13  C   UNL     1     -11.571   9.950  69.512  1.00  0.00    -0.056 A  
HETATM   14  C   UNL     1     -11.059  11.179  69.083  1.00  0.00    -0.306 A  
HETATM   15  C   UNL     1      -9.746  11.279  68.585  1.00  0.00    -0.200 A  
HETATM   16  C   UNL     1      -8.923  10.152  68.506  1.00  0.00    -0.127 A  
HETATM   17  C   UNL     1      -9.447   8.947  68.937  1.00  0.00    -0.152 A  
HETATM   18  C   UNL     1      -8.804   7.634  68.962  1.00  0.00    -0.135 C  
HETATM   19  O   UNL     1      -7.682   7.435  68.532  1.00  0.00    -0.114 OA 
ENDBRANCH   6   9
ENDBRANCH   2   3
TORSDOF 2
ENDMDL
MODEL      194
REMARK 921   NORMALIZED FREE ENERGY PREDICTED BY IDOCK:   -1.81 KCAL/MOL
REMARK 922        TOTAL FREE ENERGY PREDICTED BY IDOCK:   -2.58 KCAL/MOL
REMARK 923 INTER-LIGAND FREE ENERGY PREDICTED BY IDOCK:   -2.27 KCAL/MOL
REMARK 924 INTRA-LIGAND FREE ENERGY PREDICTED BY IDOCK:   -0.30 KCAL/MOL
REMARK 927      BINDING AFFINITY PREDICTED BY RF-SCORE:    0.00 PKD
ROOT
HETATM    1  C   UNL     1     -12.603  15.647  74.292  1.00  0.00    -0.577 C  
HETATM    2  O   UNL     1     -13.299  14.956  73.257  1.00  0.00    -0.517 OA 
ENDROOT
BRANCH   2   3
HETATM    3  C   UNL     1     -12.679  14.974  72.037  1.00  0.00    -0.333 A  
HETATM    4  C   UNL     1     -13.081  15.757  70.958  1.00  0.00    -0.308 A  
HETATM    5  C   UNL     1     -12.391  15.695  69.744  1.00  0.00    -0.216 A  
HETATM    6  C   UNL     1     -11.284  14.852  69.582  1.00  0.00    -0.300 A  
HETATM    7  C   UNL     1     -11.552  14.169  71.909  1.00  0.00     0.785 A  
HETATM    8  C   UNL     1     -10.865  14.099  70.690  1.00  0.00     0.807 A  
BRANCH   6   9
HETATM    9  C   UNL     1     -10.543  14.717  68.264  1.00  0.00    -0.241 C  
HETATM   10  C   UNL     1      -9.514  15.805  67.970  1.00  0.00    -0.202 C  
HETATM   11  O   UNL     1      -9.694  17.006  67.878  1.00  0.00    -0.253 OA 
HETATM   12  C   UNL     1      -8.202  15.182  67.803  1.00  0.00    -0.159 A  
HETATM   13  C   UNL     1      -6.985  15.792  67.562  1.00  0.00    -0.216 A  
HETATM   14  C   UNL     1      -5.863  14.967  67.438  1.00  0.00     0.228 A  
HETATM   15  C   UNL     1      -5.980  13.568  67.557  1.00  0.00    -0.023 A  
HETATM   16  C   UNL     1      -7.221  12.973  67.802  1.00  0.00    -0.139 A  
HETATM   17  C   UNL     1      -8.317  13.806  67.923  1.00  0.00    -0.172 A  
HETATM   18  C   UNL     1      -9.710  13.444  68.177  1.00  0.00    -0.226 C  
HETATM   19  O   UNL     1     -10.092  12.290  68.265  1.00  0.00    -0.209 OA 
ENDBRANCH   6   9
ENDBRANCH   2   3
TORSDOF 2
ENDMDL
MODEL      195
REMARK 921   NORMALIZED FREE ENERGY PREDICTED BY IDOCK:   -1.80 KCAL/MOL
REMARK 922        TOTAL FREE ENERGY PREDICTED BY IDOCK:   -2.56 KCAL/MOL
REMARK 923 INTER-LIGAND FREE ENERGY PREDICTED BY IDOCK:   -2.09 KCAL/MOL
REMARK 924 INTRA-LIGAND FREE ENERGY PREDICTED BY IDOCK:   -0.47 KCAL/MOL
REMARK 927      BINDING AFFINITY PREDICTED BY RF-SCORE:    0.00 PKD
ROOT
HETATM    1  C   UNL     1      -9.166   1.528  72.066  1.00  0.00    -0.076 C  
HETATM    2  O   UNL     1      -9.628   2.510  71.140  1.00  0.00    -0.144 OA 
ENDROOT
BRANCH   2   3
HETATM    3  C   UNL     1      -9.203   3.785  71.396  1.00  0.00    -0.126 A  
HETATM    4  C   UNL     1      -9.319   4.425  72.628  1.00  0.00    -0.157 A  
HETATM    5  C   UNL     1      -8.869   5.738  72.788  1.00  0.00    -0.121 A  
HETATM    6  C   UNL     1      -8.291   6.441  71.722  1.00  0.00    -0.120 A  
HETATM    7  C   UNL     1      -8.587   4.451  70.341  1.00  0.00    -0.106 A  
HETATM    8  C   UNL     1      -8.144   5.771  70.497  1.00  0.00    -0.110 A  
BRANCH   6   9
HETATM    9  C   UNL     1      -7.840   7.885  71.843  1.00  0.00    -0.120 C  
HETATM   10  C   UNL     1      -6.634   8.274  70.993  1.00  0.00    -0.040 C  
HETATM   11  O   UNL     1      -5.511   7.801  71.019  1.00  0.00    -0.030 OA 
HETATM   12  C   UNL     1      -7.021   9.354  70.088  1.00  0.00    -0.077 A  
HETATM   13  C   UNL     1      -6.256   9.983  69.122  1.00  0.00    -0.040 A  
HETATM   14  C   UNL     1      -6.864  11.000  68.380  1.00  0.00    -0.065 A  
HETATM   15  C   UNL     1      -8.205  11.361  68.614  1.00  0.00    -0.142 A  
HETATM   16  C   UNL     1      -8.960  10.711  69.594  1.00  0.00     0.136 A  
HETATM   17  C   UNL     1      -8.341   9.707  70.316  1.00  0.00    -0.216 A  
HETATM   18  C   UNL     1      -8.900   8.880  71.384  1.00  0.00    -0.213 C  
HETATM   19  O   UNL     1     -10.029   9.028  71.819  1.00  0.00    -0.325 OA 
ENDBRANCH   6   9
ENDBRANCH   2   3
TORSDOF 2
ENDMDL
MODEL      196
REMARK 921   NORMALIZED FREE ENERGY PREDICTED BY IDOCK:   -1.55 KCAL/MOL
REMARK 922        TOTAL FREE ENERGY PREDICTED BY IDOCK:   -2.28 KCAL/MOL
REMARK 923 INTER-LIGAND FREE ENERGY PREDICTED BY IDOCK:   -2.14 KCAL/MOL
REMARK 924 INTRA-LIGAND FREE ENERGY PREDICTED BY IDOCK:   -0.14 KCAL/MOL
REMARK 927      BINDING AFFINITY PREDICTED BY RF-SCORE:    0.00 PKD
ROOT
HETATM    1  C   UNL     1      -7.918   3.380  74.528  1.00  0.00    -0.065 C  
HETATM    2  O   UNL     1      -9.077   4.152  74.224  1.00  0.00    -0.100 OA 
ENDROOT
BRANCH   2   3
HETATM    3  C   UNL     1      -9.079   4.720  72.979  1.00  0.00    -0.120 A  
HETATM    4  C   UNL     1      -9.005   6.088  72.734  1.00  0.00    -0.123 A  
HETATM    5  C   UNL     1      -9.029   6.575  71.424  1.00  0.00    -0.140 A  
HETATM    6  C   UNL     1      -9.126   5.705  70.330  1.00  0.00    -0.163 A  
HETATM    7  C   UNL     1      -9.125   3.839  71.902  1.00  0.00    -0.163 A  
HETATM    8  C   UNL     1      -9.159   4.325  70.589  1.00  0.00    -0.175 A  
BRANCH   6   9
HETATM    9  C   UNL     1      -9.209   6.198  68.897  1.00  0.00    -0.125 C  
HETATM   10  C   UNL     1      -9.213   7.713  68.718  1.00  0.00    -0.142 C  
HETATM   11  O   UNL     1     -10.009   8.522  69.163  1.00  0.00    -0.182 OA 
HETATM   12  C   UNL     1      -8.070   8.096  67.892  1.00  0.00    -0.128 A  
HETATM   13  C   UNL     1      -7.670   9.363  67.511  1.00  0.00    -0.091 A  
HETATM   14  C   UNL     1      -6.530   9.466  66.708  1.00  0.00    -0.067 A  
HETATM   15  C   UNL     1      -5.822   8.315  66.310  1.00  0.00    -0.040 A  
HETATM   16  C   UNL     1      -6.245   7.043  66.708  1.00  0.00    -0.042 A  
HETATM   17  C   UNL     1      -7.373   6.963  67.503  1.00  0.00    -0.096 A  
HETATM   18  C   UNL     1      -8.016   5.770  68.050  1.00  0.00    -0.101 C  
HETATM   19  O   UNL     1      -7.635   4.639  67.808  1.00  0.00    -0.077 OA 
ENDBRANCH   6   9
ENDBRANCH   2   3
TORSDOF 2
ENDMDL
MODEL      197
REMARK 921   NORMALIZED FREE ENERGY PREDICTED BY IDOCK:    1.85 KCAL/MOL
REMARK 922        TOTAL FREE ENERGY PREDICTED BY IDOCK:    1.51 KCAL/MOL
REMARK 923 INTER-LIGAND FREE ENERGY PREDICTED BY IDOCK:    1.49 KCAL/MOL
REMARK 924 INTRA-LIGAND FREE ENERGY PREDICTED BY IDOCK:    0.02 KCAL/MOL
REMARK 927      BINDING AFFINITY PREDICTED BY RF-SCORE:    0.00 PKD
ROOT
HETATM    1  C   UNL     1     -10.371  20.227  65.168  1.00  0.00     0.512 C  
HETATM    2  O   UNL     1      -9.582  19.050  65.321  1.00  0.00     0.320 OA 
ENDROOT
BRANCH   2   3
HETATM    3  C   UNL     1      -9.870  18.305  66.432  1.00  0.00    -0.357 A  
HETATM    4  C   UNL     1     -10.998  18.479  67.230  1.00  0.00    -0.184 A  
HETATM    5  C   UNL     1     -11.199  17.676  68.356  1.00  0.00     0.411 A  
HETATM    6  C   UNL     1     -10.279  16.680  68.709  1.00  0.00    -0.288 A  
HETATM    7  C   UNL     1      -8.972  17.287  66.740  1.00  0.00    -0.269 A  
HETATM    8  C   UNL     1      -9.167  16.488  67.873  1.00  0.00    -0.211 A  
BRANCH   6   9
HETATM    9  C   UNL     1     -10.434  15.826  69.954  1.00  0.00    -0.324 C  
HETATM   10  C   UNL     1     -11.793  15.904  70.644  1.00  0.00    -0.370 C  
HETATM   11  O   UNL     1     -12.345  16.885  71.109  1.00  0.00     1.178 OA 
HETATM   12  C   UNL     1     -12.384  14.568  70.678  1.00  0.00    -0.407 A  
HETATM   13  C   UNL     1     -13.616  14.185  71.175  1.00  0.00    -0.254 A  
HETATM   14  C   UNL     1     -13.953  12.830  71.091  1.00  0.00     1.493 A  
HETATM   15  C   UNL     1     -13.064  11.900  70.519  1.00  0.00     0.367 A  
HETATM   16  C   UNL     1     -11.823  12.310  70.022  1.00  0.00    -0.372 A  
HETATM   17  C   UNL     1     -11.510  13.654  70.112  1.00  0.00    -0.111 A  
HETATM   18  C   UNL     1     -10.293  14.334  69.673  1.00  0.00     0.212 C  
HETATM   19  O   UNL     1      -9.339  13.748  69.194  1.00  0.00     0.149 OA 
ENDBRANCH   6   9
ENDBRANCH   2   3
TORSDOF 2
ENDMDL
MODEL      198
REMARK 921   NORMALIZED FREE ENERGY PREDICTED BY IDOCK:   14.85 KCAL/MOL
REMARK 922        TOTAL FREE ENERGY PREDICTED BY IDOCK:   16.03 KCAL/MOL
REMARK 923 INTER-LIGAND FREE ENERGY PREDICTED BY IDOCK:   16.14 KCAL/MOL
REMARK 924 INTRA-LIGAND FREE ENERGY PREDICTED BY IDOCK:   -0.10 KCAL/MOL
REMARK 927      BINDING AFFINITY PREDICTED BY RF-SCORE:    0.00 PKD
ROOT
HETATM    1  C   UNL     1     -12.014  20.500  64.132  1.00  0.00     5.531 C  
HETATM    2  O   UNL     1     -10.721  20.971  64.505  1.00  0.00     1.426 OA 
ENDROOT
BRANCH   2   3
HETATM    3  C   UNL     1     -10.188  20.370  65.613  1.00  0.00     0.067 A  
HETATM    4  C   UNL     1     -10.915  19.617  66.530  1.00  0.00    -0.322 A  
HETATM    5  C   UNL     1     -10.283  19.054  67.643  1.00  0.00    -0.478 A  
HETATM    6  C   UNL     1      -8.910  19.229  67.861  1.00  0.00    -0.355 A  
HETATM    7  C   UNL     1      -8.815  20.513  65.788  1.00  0.00     0.343 A  
HETATM    8  C   UNL     1      -8.181  19.957  66.907  1.00  0.00    -0.358 A  
BRANCH   6   9
HETATM    9  C   UNL     1      -8.200  18.680  69.084  1.00  0.00    -0.013 C  
HETATM   10  C   UNL     1      -6.706  18.981  69.172  1.00  0.00    -0.304 C  
HETATM   11  O   UNL     1      -5.829  18.676  68.383  1.00  0.00    -0.194 OA 
HETATM   12  C   UNL     1      -6.446  19.729  70.401  1.00  0.00    -0.195 A  
HETATM   13  C   UNL     1      -5.245  20.237  70.860  1.00  0.00    -0.296 A  
HETATM   14  C   UNL     1      -5.258  20.921  72.079  1.00  0.00     0.025 A  
HETATM   15  C   UNL     1      -6.455  21.083  72.803  1.00  0.00     3.988 A  
HETATM   16  C   UNL     1      -7.659  20.562  72.319  1.00  0.00     2.354 A  
HETATM   17  C   UNL     1      -7.625  19.890  71.110  1.00  0.00     1.512 A  
HETATM   18  C   UNL     1      -8.730  19.259  70.391  1.00  0.00     1.939 C  
HETATM   19  O   UNL     1      -9.865  19.206  70.829  1.00  0.00     1.467 OA 
ENDBRANCH   6   9
ENDBRANCH   2   3
TORSDOF 2
ENDMDL
MODEL      199
REMARK 921   NORMALIZED FREE ENERGY PREDICTED BY IDOCK:   18.78 KCAL/MOL
REMARK 922        TOTAL FREE ENERGY PREDICTED BY IDOCK:   20.42 KCAL/MOL
REMARK 923 INTER-LIGAND FREE ENERGY PREDICTED BY IDOCK:   20.95 KCAL/MOL
REMARK 924 INTRA-LIGAND FREE ENERGY PREDICTED BY IDOCK:   -0.53 KCAL/MOL
REMARK 927      BINDING AFFINITY PREDICTED BY RF-SCORE:    0.00 PKD
ROOT
HETATM    1  C   UNL     1      -9.809  17.264  72.280  1.00  0.00     8.624 C  
HETATM    2  O   UNL     1     -10.825  17.942  71.545  1.00  0.00     1.615 OA 
ENDROOT
BRANCH   2   3
HETATM    3  C   UNL     1     -10.596  18.033  70.199  1.00  0.00     1.409 A  
HETATM    4  C   UNL     1     -11.504  17.650  69.215  1.00  0.00     1.853 A  
HETATM    5  C   UNL     1     -11.173  17.767  67.862  1.00  0.00     0.267 A  
HETATM    6  C   UNL     1      -9.928  18.272  67.462  1.00  0.00    -0.345 A  
HETATM    7  C   UNL     1      -9.376  18.583  69.818  1.00  0.00     0.861 A  
HETATM    8  C   UNL     1      -9.038  18.692  68.464  1.00  0.00    -0.358 A  
BRANCH   6   9
HETATM    9  C   UNL     1      -9.512  18.364  66.006  1.00  0.00    -0.035 C  
HETATM   10  C   UNL     1      -8.753  19.629  65.614  1.00  0.00     0.281 C  
HETATM   11  O   UNL     1      -9.125  20.786  65.700  1.00  0.00     0.428 OA 
HETATM   12  C   UNL     1      -7.443  19.251  65.089  1.00  0.00     0.579 A  
HETATM   13  C   UNL     1      -6.421  20.075  64.652  1.00  0.00    -0.255 A  
HETATM   14  C   UNL     1      -5.252  19.463  64.189  1.00  0.00    -0.246 A  
HETATM   15  C   UNL     1      -5.131  18.060  64.173  1.00  0.00     0.338 A  
HETATM   16  C   UNL     1      -6.176  17.246  64.620  1.00  0.00     3.608 A  
HETATM   17  C   UNL     1      -7.322  17.871  65.076  1.00  0.00     1.989 A  
HETATM   18  C   UNL     1      -8.545  17.260  65.592  1.00  0.00     0.541 C  
HETATM   19  O   UNL     1      -8.721  16.055  65.633  1.00  0.00    -0.206 OA 
ENDBRANCH   6   9
ENDBRANCH   2   3
TORSDOF 2
ENDMDL
MODEL      200
REMARK 921   NORMALIZED FREE ENERGY PREDICTED BY IDOCK:   26.75 KCAL/MOL
REMARK 922        TOTAL FREE ENERGY PREDICTED BY IDOCK:   29.32 KCAL/MOL
REMARK 923 INTER-LIGAND FREE ENERGY PREDICTED BY IDOCK:   29.42 KCAL/MOL
REMARK 924 INTRA-LIGAND FREE ENERGY PREDICTED BY IDOCK:   -0.09 KCAL/MOL
REMARK 927      BINDING AFFINITY PREDICTED BY RF-SCORE:    0.00 PKD
ROOT
HETATM    1  C   UNL     1      -7.102  14.470  74.261  1.00  0.00     4.026 C  
HETATM    2  O   UNL     1      -6.184  13.394  74.083  1.00  0.00     0.057 OA 
ENDROOT
BRANCH   2   3
HETATM    3  C   UNL     1      -6.533  12.496  73.112  1.00  0.00     5.035 A  
HETATM    4  C   UNL     1      -7.352  12.786  72.024  1.00  0.00     9.101 A  
HETATM    5  C   UNL     1      -7.665  11.794  71.090  1.00  0.00     6.859 A  
HETATM    6  C   UNL     1      -7.166  10.492  71.221  1.00  0.00     2.064 A  
HETATM    7  C   UNL     1      -5.989  11.220  73.231  1.00  0.00     2.529 A  
HETATM    8  C   UNL     1      -6.309  10.223  72.301  1.00  0.00     1.435 A  
BRANCH   6   9
HETATM    9  C   UNL     1      -7.527   9.375  70.259  1.00  0.00    -0.131 C  
HETATM   10  C   UNL     1      -6.922   8.010  70.573  1.00  0.00    -0.041 C  
HETATM   11  O   UNL     1      -5.744   7.710  70.659  1.00  0.00    -0.030 OA 
HETATM   12  C   UNL     1      -8.004   7.047  70.770  1.00  0.00    -0.101 A  
HETATM   13  C   UNL     1      -7.914   5.709  71.107  1.00  0.00    -0.112 A  
HETATM   14  C   UNL     1      -9.109   4.994  71.235  1.00  0.00    -0.176 A  
HETATM   15  C   UNL     1     -10.351   5.624  71.029  1.00  0.00    -0.297 A  
HETATM   16  C   UNL     1     -10.419   6.978  70.690  1.00  0.00    -0.229 A  
HETATM   17  C   UNL     1      -9.227   7.668  70.570  1.00  0.00    -0.159 A  
HETATM   18  C   UNL     1      -9.021   9.074  70.230  1.00  0.00    -0.198 C  
HETATM   19  O   UNL     1      -9.934   9.831  69.947  1.00  0.00    -0.217 OA 
ENDBRANCH   6   9
ENDBRANCH   2   3
TORSDOF 2
ENDMDL
