MODEL        1
REMARK 921   NORMALIZED FREE ENERGY PREDICTED BY IDOCK:   -6.49 KCAL/MOL
REMARK 922        TOTAL FREE ENERGY PREDICTED BY IDOCK:   -8.98 KCAL/MOL
REMARK 923 INTER-LIGAND FREE ENERGY PREDICTED BY IDOCK:   -8.39 KCAL/MOL
REMARK 924 INTRA-LIGAND FREE ENERGY PREDICTED BY IDOCK:   -0.59 KCAL/MOL
REMARK 927      BINDING AFFINITY PREDICTED BY RF-SCORE:    0.00 PKD
ROOT
HETATM    1  C   UNL     1     -10.819  12.888  68.738  1.00  0.00    -0.242 C  
ENDROOT
BRANCH   1   2
HETATM    2  C   UNL     1     -11.667  12.920  67.468  1.00  0.00    -0.367 A  
HETATM    3  H   UNL     1     -11.407  10.950  66.803  1.00  0.00     0.000 HD 
HETATM    4  N   UNL     1     -11.690  11.915  66.631  1.00  0.00    -0.579 NA 
HETATM    5  N   UNL     1     -12.277  14.085  67.063  1.00  0.00    -0.409 NA 
HETATM    6  C   UNL     1     -12.582  13.961  65.661  1.00  0.00    -0.517 A  
HETATM    7  C   UNL     1     -12.222  12.500  65.373  1.00  0.00    -0.412 A  
ENDBRANCH   1   2
BRANCH   1   8
HETATM    8  N   UNL     1     -11.691  12.439  69.839  1.00  0.00    -0.298 NA 
BRANCH   8   9
HETATM    9  C   UNL     1     -12.336  13.355  70.655  1.00  0.00    -0.348 A  
HETATM   10  C   UNL     1     -13.286  12.987  71.614  1.00  0.00    -0.426 A  
HETATM   11  C   UNL     1     -13.888  13.937  72.446  1.00  0.00    -0.668 A  
HETATM   12  C   UNL     1     -12.650  15.681  71.348  1.00  0.00    -0.519 A  
HETATM   13  C   UNL     1     -12.043  14.722  70.536  1.00  0.00    -0.378 A  
HETATM   14  C   UNL     1     -13.572  15.289  72.312  1.00  0.00    -0.586 A  
ENDBRANCH   8   9
BRANCH   8  15
HETATM   15  C   UNL     1     -12.305  11.087  69.728  1.00  0.00    -0.262 C  
BRANCH  15  16
HETATM   16  C   UNL     1     -11.632  10.009  70.558  1.00  0.00    -0.403 A  
HETATM   17  C   UNL     1     -10.413   8.270  72.390  1.00  0.00    -0.404 A  
HETATM   18  C   UNL     1     -12.403   9.290  71.485  1.00  0.00    -0.439 A  
HETATM   19  C   UNL     1     -11.795   8.435  72.406  1.00  0.00    -0.452 A  
HETATM   20  C   UNL     1      -9.651   8.886  71.402  1.00  0.00    -0.359 A  
HETATM   21  C   UNL     1     -10.262   9.725  70.471  1.00  0.00    -0.321 A  
ENDBRANCH  15  16
ENDBRANCH   8  15
ENDBRANCH   1   8
TORSDOF 5
ENDMDL
MODEL        2
REMARK 921   NORMALIZED FREE ENERGY PREDICTED BY IDOCK:   -6.40 KCAL/MOL
REMARK 922        TOTAL FREE ENERGY PREDICTED BY IDOCK:   -8.87 KCAL/MOL
REMARK 923 INTER-LIGAND FREE ENERGY PREDICTED BY IDOCK:   -8.27 KCAL/MOL
REMARK 924 INTRA-LIGAND FREE ENERGY PREDICTED BY IDOCK:   -0.60 KCAL/MOL
REMARK 927      BINDING AFFINITY PREDICTED BY RF-SCORE:    0.00 PKD
ROOT
HETATM    1  C   UNL     1     -10.828  12.972  68.721  1.00  0.00    -0.244 C  
ENDROOT
BRANCH   1   2
HETATM    2  C   UNL     1     -11.681  12.982  67.454  1.00  0.00    -0.374 A  
HETATM    3  H   UNL     1     -11.464  10.988  66.849  1.00  0.00     0.000 HD 
HETATM    4  N   UNL     1     -11.728  11.953  66.648  1.00  0.00    -0.579 NA 
HETATM    5  N   UNL     1     -12.269  14.147  67.016  1.00  0.00    -0.406 NA 
HETATM    6  C   UNL     1     -12.583  13.986  65.619  1.00  0.00    -0.512 A  
HETATM    7  C   UNL     1     -12.255  12.510  65.375  1.00  0.00    -0.412 A  
ENDBRANCH   1   2
BRANCH   1   8
HETATM    8  N   UNL     1     -11.719  12.648  69.850  1.00  0.00    -0.285 NA 
BRANCH   8   9
HETATM    9  C   UNL     1     -12.190  13.642  70.693  1.00  0.00    -0.360 A  
HETATM   10  C   UNL     1     -13.220  13.435  71.617  1.00  0.00    -0.449 A  
HETATM   11  C   UNL     1     -13.641  14.455  72.478  1.00  0.00    -0.598 A  
HETATM   12  C   UNL     1     -12.048  15.954  71.483  1.00  0.00    -0.533 A  
HETATM   13  C   UNL     1     -11.625  14.926  70.641  1.00  0.00    -0.341 A  
HETATM   14  C   UNL     1     -13.056  15.718  72.411  1.00  0.00    -0.544 A  
ENDBRANCH   8   9
BRANCH   8  15
HETATM   15  C   UNL     1     -12.535  11.406  69.754  1.00  0.00    -0.096 C  
BRANCH  15  16
HETATM   16  C   UNL     1     -12.160  10.317  70.742  1.00  0.00    -0.451 A  
HETATM   17  C   UNL     1     -11.497   8.057  72.267  1.00  0.00    -0.419 A  
HETATM   18  C   UNL     1     -10.870   9.767  70.684  1.00  0.00    -0.396 A  
HETATM   19  C   UNL     1     -10.544   8.635  71.432  1.00  0.00    -0.334 A  
HETATM   20  C   UNL     1     -12.742   8.662  72.421  1.00  0.00    -0.423 A  
HETATM   21  C   UNL     1     -13.058   9.804  71.688  1.00  0.00    -0.516 A  
ENDBRANCH  15  16
ENDBRANCH   8  15
ENDBRANCH   1   8
TORSDOF 5
ENDMDL
MODEL        3
REMARK 921   NORMALIZED FREE ENERGY PREDICTED BY IDOCK:   -6.33 KCAL/MOL
REMARK 922        TOTAL FREE ENERGY PREDICTED BY IDOCK:   -8.77 KCAL/MOL
REMARK 923 INTER-LIGAND FREE ENERGY PREDICTED BY IDOCK:   -7.95 KCAL/MOL
REMARK 924 INTRA-LIGAND FREE ENERGY PREDICTED BY IDOCK:   -0.82 KCAL/MOL
REMARK 927      BINDING AFFINITY PREDICTED BY RF-SCORE:    0.00 PKD
ROOT
HETATM    1  C   UNL     1     -10.289  14.260  67.851  1.00  0.00    -0.233 C  
ENDROOT
BRANCH   1   2
HETATM    2  C   UNL     1     -11.309  14.022  66.740  1.00  0.00    -0.334 A  
HETATM    3  H   UNL     1     -12.241  12.290  67.462  1.00  0.00     0.000 HD 
HETATM    4  N   UNL     1     -12.044  12.941  66.701  1.00  0.00    -0.458 NA 
HETATM    5  N   UNL     1     -11.345  14.843  65.635  1.00  0.00    -0.342 NA 
HETATM    6  C   UNL     1     -12.027  14.137  64.582  1.00  0.00    -0.445 A  
HETATM    7  C   UNL     1     -12.527  12.878  65.297  1.00  0.00    -0.493 A  
ENDBRANCH   1   2
BRANCH   1   8
HETATM    8  N   UNL     1     -10.709  15.467  68.585  1.00  0.00    -0.243 NA 
BRANCH   8   9
HETATM    9  C   UNL     1     -10.076  16.683  68.377  1.00  0.00    -0.268 A  
HETATM   10  C   UNL     1     -10.762  17.851  68.029  1.00  0.00    -0.307 A  
HETATM   11  C   UNL     1     -10.092  19.069  67.865  1.00  0.00    -0.455 A  
HETATM   12  C   UNL     1      -8.001  17.981  68.339  1.00  0.00    -0.306 A  
HETATM   13  C   UNL     1      -8.683  16.776  68.517  1.00  0.00    -0.245 A  
HETATM   14  C   UNL     1      -8.707  19.134  68.018  1.00  0.00    -0.347 A  
ENDBRANCH   8   9
BRANCH   8  15
HETATM   15  C   UNL     1     -12.107  15.515  69.096  1.00  0.00    -0.240 C  
BRANCH  15  16
HETATM   16  C   UNL     1     -12.250  15.284  70.589  1.00  0.00    -0.412 A  
HETATM   17  C   UNL     1     -12.884  14.976  73.304  1.00  0.00    -0.647 A  
HETATM   18  C   UNL     1     -12.977  14.168  71.033  1.00  0.00    -0.399 A  
HETATM   19  C   UNL     1     -13.305  14.022  72.381  1.00  0.00    -0.617 A  
HETATM   20  C   UNL     1     -12.064  16.024  72.894  1.00  0.00    -0.626 A  
HETATM   21  C   UNL     1     -11.721  16.157  71.550  1.00  0.00    -0.533 A  
ENDBRANCH  15  16
ENDBRANCH   8  15
ENDBRANCH   1   8
TORSDOF 5
ENDMDL
MODEL        4
REMARK 921   NORMALIZED FREE ENERGY PREDICTED BY IDOCK:   -6.21 KCAL/MOL
REMARK 922        TOTAL FREE ENERGY PREDICTED BY IDOCK:   -8.61 KCAL/MOL
REMARK 923 INTER-LIGAND FREE ENERGY PREDICTED BY IDOCK:   -7.79 KCAL/MOL
REMARK 924 INTRA-LIGAND FREE ENERGY PREDICTED BY IDOCK:   -0.82 KCAL/MOL
REMARK 927      BINDING AFFINITY PREDICTED BY RF-SCORE:    0.00 PKD
ROOT
HETATM    1  C   UNL     1     -10.244  14.083  68.322  1.00  0.00    -0.249 C  
ENDROOT
BRANCH   1   2
HETATM    2  C   UNL     1     -11.006  14.002  67.001  1.00  0.00    -0.297 A  
HETATM    3  H   UNL     1     -12.426  12.539  67.484  1.00  0.00     0.000 HD 
HETATM    4  N   UNL     1     -11.924  13.095  66.791  1.00  0.00    -0.388 NA 
HETATM    5  N   UNL     1     -10.610  14.754  65.918  1.00  0.00    -0.300 NA 
HETATM    6  C   UNL     1     -11.164  14.150  64.733  1.00  0.00    -0.378 A  
HETATM    7  C   UNL     1     -12.071  13.059  65.312  1.00  0.00    -0.441 A  
ENDBRANCH   1   2
BRANCH   1   8
HETATM    8  N   UNL     1     -10.590  15.369  68.953  1.00  0.00    -0.235 NA 
BRANCH   8   9
HETATM    9  C   UNL     1      -9.777  16.480  68.796  1.00  0.00    -0.251 A  
HETATM   10  C   UNL     1      -8.380  16.413  68.818  1.00  0.00    -0.242 A  
HETATM   11  C   UNL     1      -7.592  17.553  68.618  1.00  0.00    -0.273 A  
HETATM   12  C   UNL     1      -9.579  18.891  68.421  1.00  0.00    -0.420 A  
HETATM   13  C   UNL     1     -10.354  17.745  68.604  1.00  0.00    -0.351 A  
HETATM   14  C   UNL     1      -8.192  18.796  68.421  1.00  0.00    -0.372 A  
ENDBRANCH   8   9
BRANCH   8  15
HETATM   15  C   UNL     1     -12.023  15.624  69.266  1.00  0.00    -0.320 C  
BRANCH  15  16
HETATM   16  C   UNL     1     -12.419  15.362  70.707  1.00  0.00    -0.476 A  
HETATM   17  C   UNL     1     -12.795  14.723  73.413  1.00  0.00    -0.597 A  
HETATM   18  C   UNL     1     -11.867  16.166  71.717  1.00  0.00    -0.581 A  
HETATM   19  C   UNL     1     -12.041  15.841  73.062  1.00  0.00    -0.601 A  
HETATM   20  C   UNL     1     -13.444  13.987  72.427  1.00  0.00    -0.639 A  
HETATM   21  C   UNL     1     -13.284  14.325  71.084  1.00  0.00    -0.387 A  
ENDBRANCH  15  16
ENDBRANCH   8  15
ENDBRANCH   1   8
TORSDOF 5
ENDMDL
MODEL        5
REMARK 921   NORMALIZED FREE ENERGY PREDICTED BY IDOCK:   -6.20 KCAL/MOL
REMARK 922        TOTAL FREE ENERGY PREDICTED BY IDOCK:   -8.61 KCAL/MOL
REMARK 923 INTER-LIGAND FREE ENERGY PREDICTED BY IDOCK:   -7.80 KCAL/MOL
REMARK 924 INTRA-LIGAND FREE ENERGY PREDICTED BY IDOCK:   -0.81 KCAL/MOL
REMARK 927      BINDING AFFINITY PREDICTED BY RF-SCORE:    0.00 PKD
ROOT
HETATM    1  C   UNL     1     -10.710  13.069  68.327  1.00  0.00    -0.245 C  
ENDROOT
BRANCH   1   2
HETATM    2  C   UNL     1     -11.682  13.130  67.150  1.00  0.00    -0.377 A  
HETATM    3  H   UNL     1     -11.807  11.095  66.670  1.00  0.00     0.000 HD 
HETATM    4  N   UNL     1     -11.955  12.075  66.428  1.00  0.00    -0.593 NA 
HETATM    5  N   UNL     1     -12.146  14.341  66.688  1.00  0.00    -0.436 NA 
HETATM    6  C   UNL     1     -12.624  14.147  65.343  1.00  0.00    -0.466 A  
HETATM    7  C   UNL     1     -12.530  12.628  65.174  1.00  0.00    -0.463 A  
ENDBRANCH   1   2
BRANCH   1   8
HETATM    8  N   UNL     1     -10.958  14.255  69.166  1.00  0.00    -0.259 NA 
BRANCH   8   9
HETATM    9  C   UNL     1     -11.922  14.234  70.162  1.00  0.00    -0.326 A  
HETATM   10  C   UNL     1     -12.561  15.387  70.630  1.00  0.00    -0.491 A  
HETATM   11  C   UNL     1     -13.557  15.320  71.612  1.00  0.00    -0.586 A  
HETATM   12  C   UNL     1     -13.272  12.937  71.738  1.00  0.00    -0.479 A  
HETATM   13  C   UNL     1     -12.293  13.014  70.747  1.00  0.00    -0.394 A  
HETATM   14  C   UNL     1     -13.912  14.093  72.169  1.00  0.00    -0.626 A  
ENDBRANCH   8   9
BRANCH   8  15
HETATM   15  C   UNL     1      -9.849  15.236  69.324  1.00  0.00    -0.255 C  
BRANCH  15  16
HETATM   16  C   UNL     1      -9.870  16.390  68.338  1.00  0.00    -0.233 A  
HETATM   17  C   UNL     1      -9.547  18.601  66.643  1.00  0.00    -0.347 A  
HETATM   18  C   UNL     1      -9.123  16.282  67.155  1.00  0.00    -0.217 A  
HETATM   19  C   UNL     1      -8.950  17.385  66.319  1.00  0.00    -0.239 A  
HETATM   20  C   UNL     1     -10.386  18.689  67.750  1.00  0.00    -0.454 A  
HETATM   21  C   UNL     1     -10.572  17.580  68.574  1.00  0.00    -0.312 A  
ENDBRANCH  15  16
ENDBRANCH   8  15
ENDBRANCH   1   8
TORSDOF 5
ENDMDL
MODEL        6
REMARK 921   NORMALIZED FREE ENERGY PREDICTED BY IDOCK:   -6.13 KCAL/MOL
REMARK 922        TOTAL FREE ENERGY PREDICTED BY IDOCK:   -8.51 KCAL/MOL
REMARK 923 INTER-LIGAND FREE ENERGY PREDICTED BY IDOCK:   -7.58 KCAL/MOL
REMARK 924 INTRA-LIGAND FREE ENERGY PREDICTED BY IDOCK:   -0.93 KCAL/MOL
REMARK 927      BINDING AFFINITY PREDICTED BY RF-SCORE:    0.00 PKD
ROOT
HETATM    1  C   UNL     1     -12.032  14.574  67.474  1.00  0.00    -0.325 C  
ENDROOT
BRANCH   1   2
HETATM    2  C   UNL     1     -11.425  13.292  66.908  1.00  0.00    -0.338 A  
HETATM    3  H   UNL     1     -12.737  11.875  67.719  1.00  0.00     0.000 HD 
HETATM    4  N   UNL     1     -11.851  12.110  67.271  1.00  0.00    -0.579 NA 
HETATM    5  N   UNL     1     -10.277  13.336  66.150  1.00  0.00    -0.290 NA 
HETATM    6  C   UNL     1      -9.687  12.022  66.163  1.00  0.00    -0.238 A  
HETATM    7  C   UNL     1     -10.751  11.189  66.883  1.00  0.00    -0.274 A  
ENDBRANCH   1   2
BRANCH   1   8
HETATM    8  N   UNL     1     -10.986  15.244  68.268  1.00  0.00    -0.265 NA 
BRANCH   8   9
HETATM    9  C   UNL     1     -10.627  16.557  68.008  1.00  0.00    -0.328 A  
HETATM   10  C   UNL     1     -10.371  17.492  69.016  1.00  0.00    -0.303 A  
HETATM   11  C   UNL     1      -9.973  18.800  68.713  1.00  0.00    -0.442 A  
HETATM   12  C   UNL     1     -10.127  18.303  66.367  1.00  0.00    -0.406 A  
HETATM   13  C   UNL     1     -10.506  16.998  66.681  1.00  0.00    -0.253 A  
HETATM   14  C   UNL     1      -9.853  19.208  67.386  1.00  0.00    -0.404 A  
ENDBRANCH   8   9
BRANCH   8  15
HETATM   15  C   UNL     1     -10.730  14.736  69.644  1.00  0.00    -0.189 C  
BRANCH  15  16
HETATM   16  C   UNL     1     -11.976  14.412  70.448  1.00  0.00    -0.395 A  
HETATM   17  C   UNL     1     -14.095  13.980  72.235  1.00  0.00    -0.633 A  
HETATM   18  C   UNL     1     -12.858  15.452  70.778  1.00  0.00    -0.524 A  
HETATM   19  C   UNL     1     -13.903  15.242  71.678  1.00  0.00    -0.615 A  
HETATM   20  C   UNL     1     -13.300  12.913  71.826  1.00  0.00    -0.451 A  
HETATM   21  C   UNL     1     -12.268  13.121  70.912  1.00  0.00    -0.330 A  
ENDBRANCH  15  16
ENDBRANCH   8  15
ENDBRANCH   1   8
TORSDOF 5
ENDMDL
MODEL        7
REMARK 921   NORMALIZED FREE ENERGY PREDICTED BY IDOCK:   -6.10 KCAL/MOL
REMARK 922        TOTAL FREE ENERGY PREDICTED BY IDOCK:   -8.48 KCAL/MOL
REMARK 923 INTER-LIGAND FREE ENERGY PREDICTED BY IDOCK:   -7.65 KCAL/MOL
REMARK 924 INTRA-LIGAND FREE ENERGY PREDICTED BY IDOCK:   -0.83 KCAL/MOL
REMARK 927      BINDING AFFINITY PREDICTED BY RF-SCORE:    0.00 PKD
ROOT
HETATM    1  C   UNL     1      -9.935  15.236  69.222  1.00  0.00    -0.251 C  
ENDROOT
BRANCH   1   2
HETATM    2  C   UNL     1     -10.217  16.315  68.179  1.00  0.00    -0.258 A  
HETATM    3  H   UNL     1      -9.444  15.385  66.468  1.00  0.00     0.000 HD 
HETATM    4  N   UNL     1      -9.771  16.221  66.953  1.00  0.00    -0.232 NA 
HETATM    5  N   UNL     1     -10.779  17.517  68.549  1.00  0.00    -0.295 NA 
HETATM    6  C   UNL     1     -10.494  18.476  67.513  1.00  0.00    -0.418 A  
HETATM    7  C   UNL     1      -9.849  17.609  66.428  1.00  0.00    -0.309 A  
ENDBRANCH   1   2
BRANCH   1   8
HETATM    8  N   UNL     1     -11.221  14.595  69.552  1.00  0.00    -0.260 NA 
BRANCH   8   9
HETATM    9  C   UNL     1     -11.810  14.778  70.793  1.00  0.00    -0.312 A  
HETATM   10  C   UNL     1     -11.564  15.896  71.597  1.00  0.00    -0.541 A  
HETATM   11  C   UNL     1     -12.208  16.063  72.829  1.00  0.00    -0.617 A  
HETATM   12  C   UNL     1     -13.334  13.961  72.525  1.00  0.00    -0.656 A  
HETATM   13  C   UNL     1     -12.699  13.814  71.292  1.00  0.00    -0.450 A  
HETATM   14  C   UNL     1     -13.093  15.093  73.296  1.00  0.00    -0.622 A  
ENDBRANCH   8   9
BRANCH   8  15
HETATM   15  C   UNL     1     -12.125  14.237  68.424  1.00  0.00    -0.262 C  
BRANCH  15  16
HETATM   16  C   UNL     1     -11.767  12.952  67.701  1.00  0.00    -0.422 A  
HETATM   17  C   UNL     1     -10.745  10.628  66.507  1.00  0.00    -0.218 A  
HETATM   18  C   UNL     1     -11.581  11.781  68.454  1.00  0.00    -0.380 A  
HETATM   19  C   UNL     1     -11.059  10.630  67.864  1.00  0.00    -0.371 A  
HETATM   20  C   UNL     1     -11.035  11.743  65.726  1.00  0.00    -0.353 A  
HETATM   21  C   UNL     1     -11.574  12.886  66.314  1.00  0.00    -0.424 A  
ENDBRANCH  15  16
ENDBRANCH   8  15
ENDBRANCH   1   8
TORSDOF 5
ENDMDL
MODEL        8
REMARK 921   NORMALIZED FREE ENERGY PREDICTED BY IDOCK:   -6.09 KCAL/MOL
REMARK 922        TOTAL FREE ENERGY PREDICTED BY IDOCK:   -8.46 KCAL/MOL
REMARK 923 INTER-LIGAND FREE ENERGY PREDICTED BY IDOCK:   -7.60 KCAL/MOL
REMARK 924 INTRA-LIGAND FREE ENERGY PREDICTED BY IDOCK:   -0.85 KCAL/MOL
REMARK 927      BINDING AFFINITY PREDICTED BY RF-SCORE:    0.00 PKD
ROOT
HETATM    1  C   UNL     1     -12.292  15.696  69.589  1.00  0.00    -0.151 C  
ENDROOT
BRANCH   1   2
HETATM    2  C   UNL     1     -12.241  15.344  71.075  1.00  0.00    -0.376 A  
HETATM    3  H   UNL     1     -12.985  13.386  71.014  1.00  0.00     0.000 HD 
HETATM    4  N   UNL     1     -12.751  14.231  71.535  1.00  0.00    -0.332 NA 
HETATM    5  N   UNL     1     -11.835  16.277  72.002  1.00  0.00    -0.524 NA 
HETATM    6  C   UNL     1     -12.326  15.862  73.291  1.00  0.00    -0.523 A  
HETATM    7  C   UNL     1     -12.911  14.478  72.992  1.00  0.00    -0.496 A  
ENDBRANCH   1   2
BRANCH   1   8
HETATM    8  N   UNL     1     -11.107  15.094  68.952  1.00  0.00    -0.256 NA 
BRANCH   8   9
HETATM    9  C   UNL     1     -11.240  14.096  68.000  1.00  0.00    -0.281 A  
HETATM   10  C   UNL     1     -12.070  14.214  66.880  1.00  0.00    -0.466 A  
HETATM   11  C   UNL     1     -12.149  13.199  65.921  1.00  0.00    -0.501 A  
HETATM   12  C   UNL     1     -10.605  11.872  67.199  1.00  0.00    -0.264 A  
HETATM   13  C   UNL     1     -10.522  12.898  68.140  1.00  0.00    -0.245 A  
HETATM   14  C   UNL     1     -11.417  12.023  66.080  1.00  0.00    -0.401 A  
ENDBRANCH   8   9
BRANCH   8  15
HETATM   15  C   UNL     1      -9.859  15.904  68.906  1.00  0.00    -0.226 C  
BRANCH  15  16
HETATM   16  C   UNL     1      -9.974  17.214  68.148  1.00  0.00    -0.297 A  
HETATM   17  C   UNL     1     -10.556  19.645  66.875  1.00  0.00    -0.603 A  
HETATM   18  C   UNL     1      -9.989  18.416  68.872  1.00  0.00    -0.374 A  
HETATM   19  C   UNL     1     -10.292  19.623  68.243  1.00  0.00    -0.539 A  
HETATM   20  C   UNL     1     -10.430  18.479  66.126  1.00  0.00    -0.447 A  
HETATM   21  C   UNL     1     -10.108  17.277  66.753  1.00  0.00    -0.302 A  
ENDBRANCH  15  16
ENDBRANCH   8  15
ENDBRANCH   1   8
TORSDOF 5
ENDMDL
MODEL        9
REMARK 921   NORMALIZED FREE ENERGY PREDICTED BY IDOCK:   -6.08 KCAL/MOL
REMARK 922        TOTAL FREE ENERGY PREDICTED BY IDOCK:   -8.45 KCAL/MOL
REMARK 923 INTER-LIGAND FREE ENERGY PREDICTED BY IDOCK:   -7.55 KCAL/MOL
REMARK 924 INTRA-LIGAND FREE ENERGY PREDICTED BY IDOCK:   -0.91 KCAL/MOL
REMARK 927      BINDING AFFINITY PREDICTED BY RF-SCORE:    0.00 PKD
ROOT
HETATM    1  C   UNL     1      -9.267  16.010  67.165  1.00  0.00    -0.207 C  
ENDROOT
BRANCH   1   2
HETATM    2  C   UNL     1     -10.066  17.272  66.848  1.00  0.00    -0.304 A  
HETATM    3  H   UNL     1     -10.097  17.173  64.756  1.00  0.00     0.000 HD 
HETATM    4  N   UNL     1     -10.223  17.698  65.622  1.00  0.00    -0.614 NA 
HETATM    5  N   UNL     1     -10.479  18.111  67.859  1.00  0.00    -0.395 NA 
HETATM    6  C   UNL     1     -10.763  19.398  67.277  1.00  0.00    -0.490 A  
HETATM    7  C   UNL     1     -10.626  19.120  65.777  1.00  0.00    -0.341 A  
ENDBRANCH   1   2
BRANCH   1   8
HETATM    8  N   UNL     1     -10.234  14.925  67.411  1.00  0.00    -0.233 NA 
BRANCH   8   9
HETATM    9  C   UNL     1     -10.882  14.297  66.359  1.00  0.00    -0.307 A  
HETATM   10  C   UNL     1     -12.272  14.146  66.300  1.00  0.00    -0.474 A  
HETATM   11  C   UNL     1     -12.893  13.539  65.202  1.00  0.00    -0.381 A  
HETATM   12  C   UNL     1     -10.743  13.157  64.198  1.00  0.00    -0.399 A  
HETATM   13  C   UNL     1     -10.136  13.779  65.289  1.00  0.00    -0.312 A  
HETATM   14  C   UNL     1     -12.127  13.041  64.149  1.00  0.00    -0.497 A  
ENDBRANCH   8   9
BRANCH   8  15
HETATM   15  C   UNL     1     -10.099  14.151  68.676  1.00  0.00    -0.229 C  
BRANCH  15  16
HETATM   16  C   UNL     1     -11.142  14.466  69.732  1.00  0.00    -0.202 A  
HETATM   17  C   UNL     1     -12.785  14.992  71.945  1.00  0.00    -0.407 A  
HETATM   18  C   UNL     1     -11.095  15.710  70.380  1.00  0.00    -0.369 A  
HETATM   19  C   UNL     1     -11.901  15.967  71.489  1.00  0.00    -0.554 A  
HETATM   20  C   UNL     1     -12.925  13.800  71.241  1.00  0.00    -0.409 A  
HETATM   21  C   UNL     1     -12.132  13.553  70.121  1.00  0.00    -0.425 A  
ENDBRANCH  15  16
ENDBRANCH   8  15
ENDBRANCH   1   8
TORSDOF 5
ENDMDL
MODEL       10
REMARK 921   NORMALIZED FREE ENERGY PREDICTED BY IDOCK:   -6.07 KCAL/MOL
REMARK 922        TOTAL FREE ENERGY PREDICTED BY IDOCK:   -8.44 KCAL/MOL
REMARK 923 INTER-LIGAND FREE ENERGY PREDICTED BY IDOCK:   -7.79 KCAL/MOL
REMARK 924 INTRA-LIGAND FREE ENERGY PREDICTED BY IDOCK:   -0.65 KCAL/MOL
REMARK 927      BINDING AFFINITY PREDICTED BY RF-SCORE:    0.00 PKD
ROOT
HETATM    1  C   UNL     1     -12.339  14.036  66.501  1.00  0.00    -0.404 C  
ENDROOT
BRANCH   1   2
HETATM    2  C   UNL     1     -12.019  13.091  65.345  1.00  0.00    -0.414 A  
HETATM    3  H   UNL     1      -9.932  13.270  65.290  1.00  0.00     0.000 HD 
HETATM    4  N   UNL     1     -10.811  12.988  64.855  1.00  0.00    -0.308 NA 
HETATM    5  N   UNL     1     -13.030  12.466  64.651  1.00  0.00    -0.802 NA 
HETATM    6  C   UNL     1     -12.502  12.048  63.378  1.00  0.00    -0.509 A  
HETATM    7  C   UNL     1     -11.010  12.364  63.520  1.00  0.00    -0.450 A  
ENDBRANCH   1   2
BRANCH   1   8
HETATM    8  N   UNL     1     -11.056  14.491  67.067  1.00  0.00    -0.313 NA 
BRANCH   8   9
HETATM    9  C   UNL     1     -10.735  15.838  67.112  1.00  0.00    -0.312 A  
HETATM   10  C   UNL     1     -10.466  16.598  65.969  1.00  0.00    -0.306 A  
HETATM   11  C   UNL     1     -10.182  17.966  66.053  1.00  0.00    -0.297 A  
HETATM   12  C   UNL     1     -10.369  17.857  68.447  1.00  0.00    -0.380 A  
HETATM   13  C   UNL     1     -10.668  16.498  68.349  1.00  0.00    -0.339 A  
HETATM   14  C   UNL     1     -10.132  18.597  67.294  1.00  0.00    -0.388 A  
ENDBRANCH   8   9
BRANCH   8  15
HETATM   15  C   UNL     1     -10.386  13.606  68.060  1.00  0.00    -0.250 C  
BRANCH  15  16
HETATM   16  C   UNL     1     -11.325  12.867  68.994  1.00  0.00    -0.341 A  
HETATM   17  C   UNL     1     -12.774  11.521  70.985  1.00  0.00    -0.426 A  
HETATM   18  C   UNL     1     -11.937  13.577  70.039  1.00  0.00    -0.410 A  
HETATM   19  C   UNL     1     -12.645  12.907  71.037  1.00  0.00    -0.376 A  
HETATM   20  C   UNL     1     -12.272  10.819  69.893  1.00  0.00    -0.384 A  
HETATM   21  C   UNL     1     -11.582  11.493  68.887  1.00  0.00    -0.384 A  
ENDBRANCH  15  16
ENDBRANCH   8  15
ENDBRANCH   1   8
TORSDOF 5
ENDMDL
MODEL       11
REMARK 921   NORMALIZED FREE ENERGY PREDICTED BY IDOCK:   -6.06 KCAL/MOL
REMARK 922        TOTAL FREE ENERGY PREDICTED BY IDOCK:   -8.42 KCAL/MOL
REMARK 923 INTER-LIGAND FREE ENERGY PREDICTED BY IDOCK:   -7.79 KCAL/MOL
REMARK 924 INTRA-LIGAND FREE ENERGY PREDICTED BY IDOCK:   -0.63 KCAL/MOL
REMARK 927      BINDING AFFINITY PREDICTED BY RF-SCORE:    0.00 PKD
ROOT
HETATM    1  C   UNL     1     -11.134  16.553  68.525  1.00  0.00    -0.335 C  
ENDROOT
BRANCH   1   2
HETATM    2  C   UNL     1      -9.920  17.442  68.788  1.00  0.00    -0.329 A  
HETATM    3  H   UNL     1     -10.871  19.283  69.092  1.00  0.00     0.000 HD 
HETATM    4  N   UNL     1     -10.029  18.740  68.900  1.00  0.00    -0.404 NA 
HETATM    5  N   UNL     1      -8.645  16.925  68.716  1.00  0.00    -0.257 NA 
HETATM    6  C   UNL     1      -7.733  18.024  68.530  1.00  0.00    -0.302 A  
HETATM    7  C   UNL     1      -8.647  19.243  68.685  1.00  0.00    -0.366 A  
ENDBRANCH   1   2
BRANCH   1   8
HETATM    8  N   UNL     1     -10.940  15.306  69.287  1.00  0.00    -0.246 NA 
BRANCH   8   9
HETATM    9  C   UNL     1     -11.644  15.070  70.457  1.00  0.00    -0.298 A  
HETATM   10  C   UNL     1     -11.775  16.022  71.474  1.00  0.00    -0.554 A  
HETATM   11  C   UNL     1     -12.526  15.759  72.626  1.00  0.00    -0.546 A  
HETATM   12  C   UNL     1     -13.001  13.548  71.811  1.00  0.00    -0.439 A  
HETATM   13  C   UNL     1     -12.264  13.828  70.660  1.00  0.00    -0.434 A  
HETATM   14  C   UNL     1     -13.139  14.519  72.797  1.00  0.00    -0.589 A  
ENDBRANCH   8   9
BRANCH   8  15
HETATM   15  C   UNL     1     -10.448  14.112  68.546  1.00  0.00    -0.252 C  
BRANCH  15  16
HETATM   16  C   UNL     1     -10.896  14.028  67.098  1.00  0.00    -0.288 A  
HETATM   17  C   UNL     1     -11.714  13.485  64.470  1.00  0.00    -0.431 A  
HETATM   18  C   UNL     1     -12.224  13.667  66.821  1.00  0.00    -0.416 A  
HETATM   19  C   UNL     1     -12.628  13.383  65.517  1.00  0.00    -0.520 A  
HETATM   20  C   UNL     1     -10.427  13.955  64.716  1.00  0.00    -0.451 A  
HETATM   21  C   UNL     1     -10.032  14.256  66.019  1.00  0.00    -0.337 A  
ENDBRANCH  15  16
ENDBRANCH   8  15
ENDBRANCH   1   8
TORSDOF 5
ENDMDL
MODEL       12
REMARK 921   NORMALIZED FREE ENERGY PREDICTED BY IDOCK:   -6.06 KCAL/MOL
REMARK 922        TOTAL FREE ENERGY PREDICTED BY IDOCK:   -8.42 KCAL/MOL
REMARK 923 INTER-LIGAND FREE ENERGY PREDICTED BY IDOCK:   -7.75 KCAL/MOL
REMARK 924 INTRA-LIGAND FREE ENERGY PREDICTED BY IDOCK:   -0.68 KCAL/MOL
REMARK 927      BINDING AFFINITY PREDICTED BY RF-SCORE:    0.00 PKD
ROOT
HETATM    1  C   UNL     1     -12.271  13.909  66.576  1.00  0.00    -0.442 C  
ENDROOT
BRANCH   1   2
HETATM    2  C   UNL     1     -12.128  13.301  65.183  1.00  0.00    -0.413 A  
HETATM    3  H   UNL     1     -14.124  12.801  64.793  1.00  0.00     0.000 HD 
HETATM    4  N   UNL     1     -13.130  12.714  64.583  1.00  0.00    -0.848 NA 
HETATM    5  N   UNL     1     -10.888  13.175  64.598  1.00  0.00    -0.345 NA 
HETATM    6  C   UNL     1     -10.986  12.179  63.562  1.00  0.00    -0.453 A  
HETATM    7  C   UNL     1     -12.490  11.890  63.523  1.00  0.00    -0.492 A  
ENDBRANCH   1   2
BRANCH   1   8
HETATM    8  N   UNL     1     -10.912  14.136  67.100  1.00  0.00    -0.294 NA 
BRANCH   8   9
HETATM    9  C   UNL     1     -10.374  15.413  67.156  1.00  0.00    -0.271 A  
HETATM   10  C   UNL     1     -10.907  16.431  67.953  1.00  0.00    -0.328 A  
HETATM   11  C   UNL     1     -10.313  17.697  68.012  1.00  0.00    -0.375 A  
HETATM   12  C   UNL     1      -8.652  16.991  66.425  1.00  0.00    -0.311 A  
HETATM   13  C   UNL     1      -9.243  15.727  66.388  1.00  0.00    -0.347 A  
HETATM   14  C   UNL     1      -9.184  17.979  67.245  1.00  0.00    -0.255 A  
ENDBRANCH   8   9
BRANCH   8  15
HETATM   15  C   UNL     1     -10.359  13.132  68.050  1.00  0.00    -0.238 C  
BRANCH  15  16
HETATM   16  C   UNL     1     -11.343  12.623  69.087  1.00  0.00    -0.339 A  
HETATM   17  C   UNL     1     -12.864  11.702  71.257  1.00  0.00    -0.430 A  
HETATM   18  C   UNL     1     -11.836  13.519  70.048  1.00  0.00    -0.371 A  
HETATM   19  C   UNL     1     -12.580  13.060  71.135  1.00  0.00    -0.388 A  
HETATM   20  C   UNL     1     -12.482  10.820  70.250  1.00  0.00    -0.395 A  
HETATM   21  C   UNL     1     -11.754  11.285  69.155  1.00  0.00    -0.410 A  
ENDBRANCH  15  16
ENDBRANCH   8  15
ENDBRANCH   1   8
TORSDOF 5
ENDMDL
MODEL       13
REMARK 921   NORMALIZED FREE ENERGY PREDICTED BY IDOCK:   -6.06 KCAL/MOL
REMARK 922        TOTAL FREE ENERGY PREDICTED BY IDOCK:   -8.42 KCAL/MOL
REMARK 923 INTER-LIGAND FREE ENERGY PREDICTED BY IDOCK:   -7.61 KCAL/MOL
REMARK 924 INTRA-LIGAND FREE ENERGY PREDICTED BY IDOCK:   -0.81 KCAL/MOL
REMARK 927      BINDING AFFINITY PREDICTED BY RF-SCORE:    0.00 PKD
ROOT
HETATM    1  C   UNL     1      -9.500  15.525  68.992  1.00  0.00    -0.242 C  
ENDROOT
BRANCH   1   2
HETATM    2  C   UNL     1     -10.881  15.426  69.637  1.00  0.00    -0.283 A  
HETATM    3  H   UNL     1     -10.909  17.218  70.723  1.00  0.00     0.000 HD 
HETATM    4  N   UNL     1     -11.284  16.288  70.534  1.00  0.00    -0.368 NA 
HETATM    5  N   UNL     1     -11.666  14.312  69.443  1.00  0.00    -0.295 NA 
HETATM    6  C   UNL     1     -12.643  14.270  70.500  1.00  0.00    -0.353 A  
HETATM    7  C   UNL     1     -12.415  15.605  71.215  1.00  0.00    -0.444 A  
ENDBRANCH   1   2
BRANCH   1   8
HETATM    8  N   UNL     1      -9.686  16.061  67.632  1.00  0.00    -0.223 NA 
BRANCH   8   9
HETATM    9  C   UNL     1      -9.769  17.427  67.411  1.00  0.00    -0.269 A  
HETATM   10  C   UNL     1     -10.346  17.981  66.263  1.00  0.00    -0.384 A  
HETATM   11  C   UNL     1     -10.445  19.367  66.093  1.00  0.00    -0.600 A  
HETATM   12  C   UNL     1      -9.335  19.704  68.198  1.00  0.00    -0.433 A  
HETATM   13  C   UNL     1      -9.258  18.320  68.365  1.00  0.00    -0.332 A  
HETATM   14  C   UNL     1      -9.936  20.231  67.062  1.00  0.00    -0.601 A  
ENDBRANCH   8   9
BRANCH   8  15
HETATM   15  C   UNL     1      -9.235  15.221  66.489  1.00  0.00    -0.290 C  
BRANCH  15  16
HETATM   16  C   UNL     1     -10.305  14.325  65.893  1.00  0.00    -0.325 A  
HETATM   17  C   UNL     1     -12.540  12.898  64.977  1.00  0.00    -0.538 A  
HETATM   18  C   UNL     1     -11.079  14.812  64.828  1.00  0.00    -0.393 A  
HETATM   19  C   UNL     1     -12.199  14.110  64.381  1.00  0.00    -0.466 A  
HETATM   20  C   UNL     1     -11.715  12.348  65.954  1.00  0.00    -0.476 A  
HETATM   21  C   UNL     1     -10.586  13.042  66.385  1.00  0.00    -0.294 A  
ENDBRANCH  15  16
ENDBRANCH   8  15
ENDBRANCH   1   8
TORSDOF 5
ENDMDL
MODEL       14
REMARK 921   NORMALIZED FREE ENERGY PREDICTED BY IDOCK:   -6.05 KCAL/MOL
REMARK 922        TOTAL FREE ENERGY PREDICTED BY IDOCK:   -8.42 KCAL/MOL
REMARK 923 INTER-LIGAND FREE ENERGY PREDICTED BY IDOCK:   -7.64 KCAL/MOL
REMARK 924 INTRA-LIGAND FREE ENERGY PREDICTED BY IDOCK:   -0.77 KCAL/MOL
REMARK 927      BINDING AFFINITY PREDICTED BY RF-SCORE:    0.00 PKD
ROOT
HETATM    1  C   UNL     1     -12.171  14.442  66.520  1.00  0.00    -0.332 C  
ENDROOT
BRANCH   1   2
HETATM    2  C   UNL     1     -11.931  13.378  65.450  1.00  0.00    -0.387 A  
HETATM    3  H   UNL     1      -9.842  13.449  65.322  1.00  0.00     0.000 HD 
HETATM    4  N   UNL     1     -10.746  13.171  64.940  1.00  0.00    -0.328 NA 
HETATM    5  N   UNL     1     -12.993  12.742  64.846  1.00  0.00    -0.853 NA 
HETATM    6  C   UNL     1     -12.524  12.183  63.605  1.00  0.00    -0.549 A  
HETATM    7  C   UNL     1     -11.015  12.437  63.676  1.00  0.00    -0.470 A  
ENDBRANCH   1   2
BRANCH   1   8
HETATM    8  N   UNL     1     -10.870  14.739  67.146  1.00  0.00    -0.303 NA 
BRANCH   8   9
HETATM    9  C   UNL     1     -10.237  15.953  66.933  1.00  0.00    -0.277 A  
HETATM   10  C   UNL     1     -10.876  17.186  67.102  1.00  0.00    -0.080 A  
HETATM   11  C   UNL     1     -10.192  18.393  66.913  1.00  0.00    -0.403 A  
HETATM   12  C   UNL     1      -8.206  17.175  66.321  1.00  0.00    -0.306 A  
HETATM   13  C   UNL     1      -8.894  15.978  66.528  1.00  0.00    -0.340 A  
HETATM   14  C   UNL     1      -8.855  18.388  66.520  1.00  0.00    -0.289 A  
ENDBRANCH   8   9
BRANCH   8  15
HETATM   15  C   UNL     1     -10.521  14.009  68.396  1.00  0.00    -0.253 C  
BRANCH  15  16
HETATM   16  C   UNL     1     -11.235  14.498  69.642  1.00  0.00    -0.292 A  
HETATM   17  C   UNL     1     -12.838  15.524  71.704  1.00  0.00    -0.518 A  
HETATM   18  C   UNL     1     -12.348  13.781  70.109  1.00  0.00    -0.390 A  
HETATM   19  C   UNL     1     -13.154  14.297  71.124  1.00  0.00    -0.412 A  
HETATM   20  C   UNL     1     -11.673  16.187  71.332  1.00  0.00    -0.506 A  
HETATM   21  C   UNL     1     -10.859  15.660  70.331  1.00  0.00    -0.358 A  
ENDBRANCH  15  16
ENDBRANCH   8  15
ENDBRANCH   1   8
TORSDOF 5
ENDMDL
MODEL       15
REMARK 921   NORMALIZED FREE ENERGY PREDICTED BY IDOCK:   -6.04 KCAL/MOL
REMARK 922        TOTAL FREE ENERGY PREDICTED BY IDOCK:   -8.40 KCAL/MOL
REMARK 923 INTER-LIGAND FREE ENERGY PREDICTED BY IDOCK:   -7.81 KCAL/MOL
REMARK 924 INTRA-LIGAND FREE ENERGY PREDICTED BY IDOCK:   -0.59 KCAL/MOL
REMARK 927      BINDING AFFINITY PREDICTED BY RF-SCORE:    0.00 PKD
ROOT
HETATM    1  C   UNL     1      -9.693  15.100  68.959  1.00  0.00    -0.234 C  
ENDROOT
BRANCH   1   2
HETATM    2  C   UNL     1     -10.290  13.896  68.234  1.00  0.00    -0.249 A  
HETATM    3  H   UNL     1     -10.238  14.593  66.259  1.00  0.00     0.000 HD 
HETATM    4  N   UNL     1     -10.581  13.935  66.960  1.00  0.00    -0.278 NA 
HETATM    5  N   UNL     1     -10.726  12.799  68.942  1.00  0.00    -0.205 NA 
HETATM    6  C   UNL     1     -11.641  12.067  68.104  1.00  0.00    -0.340 A  
HETATM    7  C   UNL     1     -11.523  12.802  66.765  1.00  0.00    -0.343 A  
ENDBRANCH   1   2
BRANCH   1   8
HETATM    8  N   UNL     1     -10.713  16.164  68.962  1.00  0.00    -0.266 NA 
BRANCH   8   9
HETATM    9  C   UNL     1     -10.495  17.362  68.301  1.00  0.00    -0.385 A  
HETATM   10  C   UNL     1     -10.601  17.499  66.913  1.00  0.00    -0.219 A  
HETATM   11  C   UNL     1     -10.410  18.735  66.286  1.00  0.00    -0.497 A  
HETATM   12  C   UNL     1      -9.941  19.744  68.417  1.00  0.00    -0.549 A  
HETATM   13  C   UNL     1     -10.151  18.509  69.033  1.00  0.00    -0.276 A  
HETATM   14  C   UNL     1     -10.077  19.861  67.038  1.00  0.00    -0.578 A  
ENDBRANCH   8   9
BRANCH   8  15
HETATM   15  C   UNL     1     -12.131  15.762  69.175  1.00  0.00    -0.198 C  
BRANCH  15  16
HETATM   16  C   UNL     1     -12.519  15.533  70.624  1.00  0.00    -0.483 A  
HETATM   17  C   UNL     1     -12.925  14.875  73.322  1.00  0.00    -0.635 A  
HETATM   18  C   UNL     1     -11.760  16.146  71.633  1.00  0.00    -0.558 A  
HETATM   19  C   UNL     1     -11.951  15.808  72.973  1.00  0.00    -0.596 A  
HETATM   20  C   UNL     1     -13.763  14.349  72.343  1.00  0.00    -0.590 A  
HETATM   21  C   UNL     1     -13.582  14.702  71.006  1.00  0.00    -0.331 A  
ENDBRANCH  15  16
ENDBRANCH   8  15
ENDBRANCH   1   8
TORSDOF 5
ENDMDL
MODEL       16
REMARK 921   NORMALIZED FREE ENERGY PREDICTED BY IDOCK:   -6.03 KCAL/MOL
REMARK 922        TOTAL FREE ENERGY PREDICTED BY IDOCK:   -8.38 KCAL/MOL
REMARK 923 INTER-LIGAND FREE ENERGY PREDICTED BY IDOCK:   -7.75 KCAL/MOL
REMARK 924 INTRA-LIGAND FREE ENERGY PREDICTED BY IDOCK:   -0.63 KCAL/MOL
REMARK 927      BINDING AFFINITY PREDICTED BY RF-SCORE:    0.00 PKD
ROOT
HETATM    1  C   UNL     1      -9.957  14.319  68.419  1.00  0.00    -0.240 C  
ENDROOT
BRANCH   1   2
HETATM    2  C   UNL     1     -10.226  15.671  67.763  1.00  0.00    -0.252 A  
HETATM    3  H   UNL     1      -9.157  15.432  65.977  1.00  0.00     0.000 HD 
HETATM    4  N   UNL     1      -9.628  16.030  66.656  1.00  0.00    -0.226 NA 
HETATM    5  N   UNL     1     -10.956  16.636  68.420  1.00  0.00    -0.357 NA 
HETATM    6  C   UNL     1     -10.653  17.908  67.816  1.00  0.00    -0.389 A  
HETATM    7  C   UNL     1      -9.792  17.507  66.614  1.00  0.00    -0.306 A  
ENDBRANCH   1   2
BRANCH   1   8
HETATM    8  N   UNL     1     -11.208  13.542  68.358  1.00  0.00    -0.261 NA 
BRANCH   8   9
HETATM    9  C   UNL     1     -11.811  13.072  69.514  1.00  0.00    -0.323 A  
HETATM   10  C   UNL     1     -12.389  13.913  70.470  1.00  0.00    -0.439 A  
HETATM   11  C   UNL     1     -13.023  13.398  71.607  1.00  0.00    -0.445 A  
HETATM   12  C   UNL     1     -12.474  11.167  70.900  1.00  0.00    -0.509 A  
HETATM   13  C   UNL     1     -11.860  11.691  69.763  1.00  0.00    -0.428 A  
HETATM   14  C   UNL     1     -13.064  12.021  71.824  1.00  0.00    -0.460 A  
ENDBRANCH   8   9
BRANCH   8  15
HETATM   15  C   UNL     1     -12.086  13.737  67.172  1.00  0.00    -0.378 C  
BRANCH  15  16
HETATM   16  C   UNL     1     -11.776  12.835  65.991  1.00  0.00    -0.470 A  
HETATM   17  C   UNL     1     -10.859  11.357  63.790  1.00  0.00    -0.468 A  
HETATM   18  C   UNL     1     -10.861  11.785  66.165  1.00  0.00    -0.336 A  
HETATM   19  C   UNL     1     -10.394  11.058  65.069  1.00  0.00    -0.360 A  
HETATM   20  C   UNL     1     -11.852  12.316  63.620  1.00  0.00    -0.610 A  
HETATM   21  C   UNL     1     -12.332  13.028  64.719  1.00  0.00    -0.490 A  
ENDBRANCH  15  16
ENDBRANCH   8  15
ENDBRANCH   1   8
TORSDOF 5
ENDMDL
MODEL       17
REMARK 921   NORMALIZED FREE ENERGY PREDICTED BY IDOCK:   -6.02 KCAL/MOL
REMARK 922        TOTAL FREE ENERGY PREDICTED BY IDOCK:   -8.37 KCAL/MOL
REMARK 923 INTER-LIGAND FREE ENERGY PREDICTED BY IDOCK:   -7.55 KCAL/MOL
REMARK 924 INTRA-LIGAND FREE ENERGY PREDICTED BY IDOCK:   -0.82 KCAL/MOL
REMARK 927      BINDING AFFINITY PREDICTED BY RF-SCORE:    0.00 PKD
ROOT
HETATM    1  C   UNL     1      -9.848  16.298  68.874  1.00  0.00    -0.246 C  
ENDROOT
BRANCH   1   2
HETATM    2  C   UNL     1     -10.219  17.625  68.215  1.00  0.00    -0.374 A  
HETATM    3  H   UNL     1     -10.654  16.964  66.276  1.00  0.00     0.000 HD 
HETATM    4  N   UNL     1     -10.439  17.717  66.930  1.00  0.00    -0.318 NA 
HETATM    5  N   UNL     1     -10.137  18.804  68.922  1.00  0.00    -0.375 NA 
HETATM    6  C   UNL     1     -10.071  19.885  67.972  1.00  0.00    -0.440 A  
HETATM    7  C   UNL     1     -10.305  19.168  66.639  1.00  0.00    -0.430 A  
ENDBRANCH   1   2
BRANCH   1   8
HETATM    8  N   UNL     1     -10.948  15.352  68.611  1.00  0.00    -0.259 NA 
BRANCH   8   9
HETATM    9  C   UNL     1     -10.687  14.037  68.262  1.00  0.00    -0.254 A  
HETATM   10  C   UNL     1      -9.410  13.469  68.320  1.00  0.00    -0.205 A  
HETATM   11  C   UNL     1      -9.194  12.125  67.995  1.00  0.00    -0.194 A  
HETATM   12  C   UNL     1     -11.529  11.874  67.482  1.00  0.00    -0.396 A  
HETATM   13  C   UNL     1     -11.735  13.211  67.825  1.00  0.00    -0.401 A  
HETATM   14  C   UNL     1     -10.255  11.325  67.573  1.00  0.00    -0.217 A  
ENDBRANCH   8   9
BRANCH   8  15
HETATM   15  C   UNL     1     -12.267  15.632  69.242  1.00  0.00    -0.142 C  
BRANCH  15  16
HETATM   16  C   UNL     1     -12.344  15.325  70.726  1.00  0.00    -0.433 A  
HETATM   17  C   UNL     1     -12.861  14.864  73.445  1.00  0.00    -0.638 A  
HETATM   18  C   UNL     1     -13.001  14.157  71.142  1.00  0.00    -0.419 A  
HETATM   19  C   UNL     1     -13.272  13.934  72.493  1.00  0.00    -0.601 A  
HETATM   20  C   UNL     1     -12.106  15.967  73.056  1.00  0.00    -0.628 A  
HETATM   21  C   UNL     1     -11.820  16.178  71.708  1.00  0.00    -0.581 A  
ENDBRANCH  15  16
ENDBRANCH   8  15
ENDBRANCH   1   8
TORSDOF 5
ENDMDL
MODEL       18
REMARK 921   NORMALIZED FREE ENERGY PREDICTED BY IDOCK:   -6.01 KCAL/MOL
REMARK 922        TOTAL FREE ENERGY PREDICTED BY IDOCK:   -8.36 KCAL/MOL
REMARK 923 INTER-LIGAND FREE ENERGY PREDICTED BY IDOCK:   -7.74 KCAL/MOL
REMARK 924 INTRA-LIGAND FREE ENERGY PREDICTED BY IDOCK:   -0.61 KCAL/MOL
REMARK 927      BINDING AFFINITY PREDICTED BY RF-SCORE:    0.00 PKD
ROOT
HETATM    1  C   UNL     1     -11.176  16.627  68.511  1.00  0.00    -0.239 C  
ENDROOT
BRANCH   1   2
HETATM    2  C   UNL     1      -9.941  17.497  68.741  1.00  0.00    -0.342 A  
HETATM    3  H   UNL     1     -10.859  19.314  69.235  1.00  0.00     0.000 HD 
HETATM    4  N   UNL     1     -10.036  18.785  68.946  1.00  0.00    -0.404 NA 
HETATM    5  N   UNL     1      -8.679  16.987  68.540  1.00  0.00    -0.246 NA 
HETATM    6  C   UNL     1      -7.777  18.095  68.360  1.00  0.00    -0.295 A  
HETATM    7  C   UNL     1      -8.671  19.302  68.663  1.00  0.00    -0.365 A  
ENDBRANCH   1   2
BRANCH   1   8
HETATM    8  N   UNL     1     -10.973  15.369  69.251  1.00  0.00    -0.245 NA 
BRANCH   8   9
HETATM    9  C   UNL     1     -11.684  15.103  70.411  1.00  0.00    -0.293 A  
HETATM   10  C   UNL     1     -12.461  13.953  70.582  1.00  0.00    -0.436 A  
HETATM   11  C   UNL     1     -13.135  13.701  71.783  1.00  0.00    -0.468 A  
HETATM   12  C   UNL     1     -12.321  15.779  72.675  1.00  0.00    -0.559 A  
HETATM   13  C   UNL     1     -11.640  16.011  71.479  1.00  0.00    -0.529 A  
HETATM   14  C   UNL     1     -13.067  14.617  72.832  1.00  0.00    -0.609 A  
ENDBRANCH   8   9
BRANCH   8  15
HETATM   15  C   UNL     1     -10.458  14.195  68.493  1.00  0.00    -0.252 C  
BRANCH  15  16
HETATM   16  C   UNL     1     -10.973  14.077  67.071  1.00  0.00    -0.302 A  
HETATM   17  C   UNL     1     -11.942  14.249  64.444  1.00  0.00    -0.476 A  
HETATM   18  C   UNL     1     -10.115  14.409  66.011  1.00  0.00    -0.338 A  
HETATM   19  C   UNL     1     -10.599  14.509  64.707  1.00  0.00    -0.401 A  
HETATM   20  C   UNL     1     -12.775  13.805  65.466  1.00  0.00    -0.530 A  
HETATM   21  C   UNL     1     -12.285  13.687  66.765  1.00  0.00    -0.416 A  
ENDBRANCH  15  16
ENDBRANCH   8  15
ENDBRANCH   1   8
TORSDOF 5
ENDMDL
MODEL       19
REMARK 921   NORMALIZED FREE ENERGY PREDICTED BY IDOCK:   -6.00 KCAL/MOL
REMARK 922        TOTAL FREE ENERGY PREDICTED BY IDOCK:   -8.35 KCAL/MOL
REMARK 923 INTER-LIGAND FREE ENERGY PREDICTED BY IDOCK:   -7.67 KCAL/MOL
REMARK 924 INTRA-LIGAND FREE ENERGY PREDICTED BY IDOCK:   -0.68 KCAL/MOL
REMARK 927      BINDING AFFINITY PREDICTED BY RF-SCORE:    0.00 PKD
ROOT
HETATM    1  C   UNL     1     -12.025  14.358  68.461  1.00  0.00    -0.298 C  
ENDROOT
BRANCH   1   2
HETATM    2  C   UNL     1     -11.375  13.037  68.867  1.00  0.00    -0.287 A  
HETATM    3  H   UNL     1      -9.510  13.243  67.935  1.00  0.00     0.000 HD 
HETATM    4  N   UNL     1     -10.218  12.663  68.385  1.00  0.00    -0.234 NA 
HETATM    5  N   UNL     1     -12.078  12.107  69.600  1.00  0.00    -0.256 NA 
HETATM    6  C   UNL     1     -11.434  10.830  69.428  1.00  0.00    -0.295 A  
HETATM    7  C   UNL     1     -10.170  11.200  68.644  1.00  0.00    -0.205 A  
ENDBRANCH   1   2
BRANCH   1   8
HETATM    8  N   UNL     1     -11.590  15.380  69.430  1.00  0.00    -0.317 NA 
BRANCH   8   9
HETATM    9  C   UNL     1     -12.133  15.430  70.704  1.00  0.00    -0.369 A  
HETATM   10  C   UNL     1     -11.359  15.583  71.859  1.00  0.00    -0.456 A  
HETATM   11  C   UNL     1     -11.948  15.668  73.125  1.00  0.00    -0.584 A  
HETATM   12  C   UNL     1     -14.120  15.390  72.134  1.00  0.00    -0.651 A  
HETATM   13  C   UNL     1     -13.523  15.324  70.874  1.00  0.00    -0.441 A  
HETATM   14  C   UNL     1     -13.332  15.568  73.265  1.00  0.00    -0.583 A  
ENDBRANCH   8   9
BRANCH   8  15
HETATM   15  C   UNL     1     -10.234  15.968  69.253  1.00  0.00    -0.249 C  
BRANCH  15  16
HETATM   16  C   UNL     1     -10.171  17.160  68.315  1.00  0.00    -0.334 A  
HETATM   17  C   UNL     1     -10.433  19.414  66.665  1.00  0.00    -0.568 A  
HETATM   18  C   UNL     1     -10.168  18.452  68.862  1.00  0.00    -0.284 A  
HETATM   19  C   UNL     1     -10.313  19.573  68.044  1.00  0.00    -0.564 A  
HETATM   20  C   UNL     1     -10.321  18.147  66.101  1.00  0.00    -0.394 A  
HETATM   21  C   UNL     1     -10.157  17.030  66.919  1.00  0.00    -0.298 A  
ENDBRANCH  15  16
ENDBRANCH   8  15
ENDBRANCH   1   8
TORSDOF 5
ENDMDL
MODEL       20
REMARK 921   NORMALIZED FREE ENERGY PREDICTED BY IDOCK:   -6.00 KCAL/MOL
REMARK 922        TOTAL FREE ENERGY PREDICTED BY IDOCK:   -8.34 KCAL/MOL
REMARK 923 INTER-LIGAND FREE ENERGY PREDICTED BY IDOCK:   -7.62 KCAL/MOL
REMARK 924 INTRA-LIGAND FREE ENERGY PREDICTED BY IDOCK:   -0.72 KCAL/MOL
REMARK 927      BINDING AFFINITY PREDICTED BY RF-SCORE:    0.00 PKD
ROOT
HETATM    1  C   UNL     1     -11.517  16.035  68.264  1.00  0.00    -0.291 C  
ENDROOT
BRANCH   1   2
HETATM    2  C   UNL     1     -10.004  16.168  68.105  1.00  0.00    -0.230 A  
HETATM    3  H   UNL     1      -9.411  16.048  70.111  1.00  0.00     0.000 HD 
HETATM    4  N   UNL     1      -9.211  16.283  69.139  1.00  0.00    -0.253 NA 
HETATM    5  N   UNL     1      -9.446  16.372  66.863  1.00  0.00    -0.228 NA 
HETATM    6  C   UNL     1      -8.129  16.923  67.055  1.00  0.00    -0.198 A  
HETATM    7  C   UNL     1      -7.952  16.836  68.574  1.00  0.00    -0.235 A  
ENDBRANCH   1   2
BRANCH   1   8
HETATM    8  N   UNL     1     -11.819  14.603  68.433  1.00  0.00    -0.313 NA 
BRANCH   8   9
HETATM    9  C   UNL     1     -11.761  13.731  67.357  1.00  0.00    -0.382 A  
HETATM   10  C   UNL     1     -11.061  12.521  67.391  1.00  0.00    -0.317 A  
HETATM   11  C   UNL     1     -11.057  11.649  66.296  1.00  0.00    -0.345 A  
HETATM   12  C   UNL     1     -12.415  13.200  65.059  1.00  0.00    -0.516 A  
HETATM   13  C   UNL     1     -12.426  14.052  66.163  1.00  0.00    -0.467 A  
HETATM   14  C   UNL     1     -11.734  11.990  65.125  1.00  0.00    -0.315 A  
ENDBRANCH   8   9
BRANCH   8  15
HETATM   15  C   UNL     1     -11.636  14.011  69.787  1.00  0.00    -0.281 C  
BRANCH  15  16
HETATM   16  C   UNL     1     -12.280  14.792  70.918  1.00  0.00    -0.384 A  
HETATM   17  C   UNL     1     -13.369  15.936  73.237  1.00  0.00    -0.660 A  
HETATM   18  C   UNL     1     -11.454  15.421  71.862  1.00  0.00    -0.513 A  
HETATM   19  C   UNL     1     -11.993  15.977  73.022  1.00  0.00    -0.597 A  
HETATM   20  C   UNL     1     -14.209  15.421  72.254  1.00  0.00    -0.639 A  
HETATM   21  C   UNL     1     -13.669  14.883  71.086  1.00  0.00    -0.452 A  
ENDBRANCH  15  16
ENDBRANCH   8  15
ENDBRANCH   1   8
TORSDOF 5
ENDMDL
MODEL       21
REMARK 921   NORMALIZED FREE ENERGY PREDICTED BY IDOCK:   -5.92 KCAL/MOL
REMARK 922        TOTAL FREE ENERGY PREDICTED BY IDOCK:   -8.25 KCAL/MOL
REMARK 923 INTER-LIGAND FREE ENERGY PREDICTED BY IDOCK:   -7.16 KCAL/MOL
REMARK 924 INTRA-LIGAND FREE ENERGY PREDICTED BY IDOCK:   -1.08 KCAL/MOL
REMARK 927      BINDING AFFINITY PREDICTED BY RF-SCORE:    0.00 PKD
ROOT
HETATM    1  C   UNL     1     -11.283  15.895  68.556  1.00  0.00    -0.362 C  
ENDROOT
BRANCH   1   2
HETATM    2  C   UNL     1      -9.833  15.538  68.236  1.00  0.00    -0.213 A  
HETATM    3  H   UNL     1      -9.928  15.452  66.145  1.00  0.00     0.000 HD 
HETATM    4  N   UNL     1      -9.449  15.243  67.022  1.00  0.00    -0.217 NA 
HETATM    5  N   UNL     1      -8.927  15.320  69.249  1.00  0.00    -0.242 NA 
HETATM    6  C   UNL     1      -7.830  14.561  68.705  1.00  0.00    -0.145 A  
HETATM    7  C   UNL     1      -8.156  14.535  67.209  1.00  0.00    -0.196 A  
ENDBRANCH   1   2
BRANCH   1   8
HETATM    8  N   UNL     1     -11.805  14.853  69.458  1.00  0.00    -0.308 NA 
BRANCH   8   9
HETATM    9  C   UNL     1     -12.341  15.184  70.693  1.00  0.00    -0.368 A  
HETATM   10  C   UNL     1     -13.712  15.138  70.967  1.00  0.00    -0.450 A  
HETATM   11  C   UNL     1     -14.211  15.443  72.239  1.00  0.00    -0.639 A  
HETATM   12  C   UNL     1     -11.981  15.911  73.002  1.00  0.00    -0.596 A  
HETATM   13  C   UNL     1     -11.493  15.588  71.735  1.00  0.00    -0.504 A  
HETATM   14  C   UNL     1     -13.345  15.833  73.259  1.00  0.00    -0.649 A  
ENDBRANCH   8   9
BRANCH   8  15
HETATM   15  C   UNL     1     -12.262  13.574  68.848  1.00  0.00    -0.159 C  
BRANCH  15  16
HETATM   16  C   UNL     1     -11.724  12.321  69.514  1.00  0.00    -0.398 A  
HETATM   17  C   UNL     1     -10.879   9.811  70.440  1.00  0.00    -0.370 A  
HETATM   18  C   UNL     1     -10.583  11.705  68.975  1.00  0.00    -0.188 A  
HETATM   19  C   UNL     1     -10.171  10.450  69.425  1.00  0.00    -0.257 A  
HETATM   20  C   UNL     1     -11.940  10.462  71.062  1.00  0.00    -0.481 A  
HETATM   21  C   UNL     1     -12.338  11.724  70.624  1.00  0.00    -0.421 A  
ENDBRANCH  15  16
ENDBRANCH   8  15
ENDBRANCH   1   8
TORSDOF 5
ENDMDL
MODEL       22
REMARK 921   NORMALIZED FREE ENERGY PREDICTED BY IDOCK:   -5.91 KCAL/MOL
REMARK 922        TOTAL FREE ENERGY PREDICTED BY IDOCK:   -8.24 KCAL/MOL
REMARK 923 INTER-LIGAND FREE ENERGY PREDICTED BY IDOCK:   -7.47 KCAL/MOL
REMARK 924 INTRA-LIGAND FREE ENERGY PREDICTED BY IDOCK:   -0.77 KCAL/MOL
REMARK 927      BINDING AFFINITY PREDICTED BY RF-SCORE:    0.00 PKD
ROOT
HETATM    1  C   UNL     1     -11.001  12.183  68.949  1.00  0.00    -0.224 C  
ENDROOT
BRANCH   1   2
HETATM    2  C   UNL     1     -11.613  12.613  67.617  1.00  0.00    -0.357 A  
HETATM    3  H   UNL     1     -12.205  10.749  66.866  1.00  0.00     0.000 HD 
HETATM    4  N   UNL     1     -12.004  11.740  66.726  1.00  0.00    -0.529 NA 
HETATM    5  N   UNL     1     -11.588  13.934  67.229  1.00  0.00    -0.344 NA 
HETATM    6  C   UNL     1     -11.775  13.979  65.802  1.00  0.00    -0.363 A  
HETATM    7  C   UNL     1     -12.088  12.518  65.463  1.00  0.00    -0.419 A  
ENDBRANCH   1   2
BRANCH   1   8
HETATM    8  N   UNL     1     -12.104  11.731  69.815  1.00  0.00    -0.290 NA 
BRANCH   8   9
HETATM    9  C   UNL     1     -11.957  10.625  70.638  1.00  0.00    -0.367 A  
HETATM   10  C   UNL     1     -10.761   9.907  70.744  1.00  0.00    -0.350 A  
HETATM   11  C   UNL     1     -10.640   8.818  71.614  1.00  0.00    -0.401 A  
HETATM   12  C   UNL     1     -12.937   9.087  72.270  1.00  0.00    -0.490 A  
HETATM   13  C   UNL     1     -13.040  10.182  71.412  1.00  0.00    -0.512 A  
HETATM   14  C   UNL     1     -11.730   8.405  72.379  1.00  0.00    -0.452 A  
ENDBRANCH   8   9
BRANCH   8  15
HETATM   15  C   UNL     1     -13.125  12.737  70.219  1.00  0.00     0.707 C  
BRANCH  15  16
HETATM   16  C   UNL     1     -12.628  13.802  71.180  1.00  0.00    -0.452 A  
HETATM   17  C   UNL     1     -12.070  15.919  72.934  1.00  0.00    -0.612 A  
HETATM   18  C   UNL     1     -13.042  13.750  72.520  1.00  0.00    -0.517 A  
HETATM   19  C   UNL     1     -12.778  14.809  73.389  1.00  0.00    -0.588 A  
HETATM   20  C   UNL     1     -11.553  15.930  71.642  1.00  0.00    -0.541 A  
HETATM   21  C   UNL     1     -11.802  14.863  70.781  1.00  0.00    -0.368 A  
ENDBRANCH  15  16
ENDBRANCH   8  15
ENDBRANCH   1   8
TORSDOF 5
ENDMDL
MODEL       23
REMARK 921   NORMALIZED FREE ENERGY PREDICTED BY IDOCK:   -5.90 KCAL/MOL
REMARK 922        TOTAL FREE ENERGY PREDICTED BY IDOCK:   -8.22 KCAL/MOL
REMARK 923 INTER-LIGAND FREE ENERGY PREDICTED BY IDOCK:   -7.38 KCAL/MOL
REMARK 924 INTRA-LIGAND FREE ENERGY PREDICTED BY IDOCK:   -0.84 KCAL/MOL
REMARK 927      BINDING AFFINITY PREDICTED BY RF-SCORE:    0.00 PKD
ROOT
HETATM    1  C   UNL     1     -12.018  15.828  69.618  1.00  0.00    -0.317 C  
ENDROOT
BRANCH   1   2
HETATM    2  C   UNL     1     -12.224  15.073  70.929  1.00  0.00    -0.329 A  
HETATM    3  H   UNL     1     -13.408  13.482  70.255  1.00  0.00     0.000 HD 
HETATM    4  N   UNL     1     -13.038  14.053  71.015  1.00  0.00    -0.305 NA 
HETATM    5  N   UNL     1     -11.714  15.566  72.109  1.00  0.00    -0.439 NA 
HETATM    6  C   UNL     1     -12.435  14.953  73.194  1.00  0.00    -0.412 A  
HETATM    7  C   UNL     1     -13.299  13.915  72.471  1.00  0.00    -0.554 A  
ENDBRANCH   1   2
BRANCH   1   8
HETATM    8  N   UNL     1     -10.757  15.347  69.025  1.00  0.00    -0.231 NA 
BRANCH   8   9
HETATM    9  C   UNL     1     -10.748  14.279  68.142  1.00  0.00    -0.244 A  
HETATM   10  C   UNL     1     -11.856  13.917  67.370  1.00  0.00    -0.437 A  
HETATM   11  C   UNL     1     -11.795  12.855  66.460  1.00  0.00    -0.473 A  
HETATM   12  C   UNL     1      -9.517  12.435  67.104  1.00  0.00    -0.198 A  
HETATM   13  C   UNL     1      -9.585  13.507  67.995  1.00  0.00    -0.221 A  
HETATM   14  C   UNL     1     -10.624  12.110  66.328  1.00  0.00    -0.285 A  
ENDBRANCH   8   9
BRANCH   8  15
HETATM   15  C   UNL     1      -9.626  16.311  68.928  1.00  0.00    -0.243 C  
BRANCH  15  16
HETATM   16  C   UNL     1      -9.937  17.586  68.167  1.00  0.00    -0.321 A  
HETATM   17  C   UNL     1     -10.162  19.895  66.589  1.00  0.00    -0.609 A  
HETATM   18  C   UNL     1     -10.286  17.496  66.810  1.00  0.00    -0.314 A  
HETATM   19  C   UNL     1     -10.384  18.643  66.022  1.00  0.00    -0.436 A  
HETATM   20  C   UNL     1      -9.930  20.006  67.957  1.00  0.00    -0.550 A  
HETATM   21  C   UNL     1      -9.852  18.860  68.747  1.00  0.00    -0.461 A  
ENDBRANCH  15  16
ENDBRANCH   8  15
ENDBRANCH   1   8
TORSDOF 5
ENDMDL
MODEL       24
REMARK 921   NORMALIZED FREE ENERGY PREDICTED BY IDOCK:   -5.90 KCAL/MOL
REMARK 922        TOTAL FREE ENERGY PREDICTED BY IDOCK:   -8.22 KCAL/MOL
REMARK 923 INTER-LIGAND FREE ENERGY PREDICTED BY IDOCK:   -7.60 KCAL/MOL
REMARK 924 INTRA-LIGAND FREE ENERGY PREDICTED BY IDOCK:   -0.61 KCAL/MOL
REMARK 927      BINDING AFFINITY PREDICTED BY RF-SCORE:    0.00 PKD
ROOT
HETATM    1  C   UNL     1     -12.625  14.299  69.405  1.00  0.00     0.083 C  
ENDROOT
BRANCH   1   2
HETATM    2  C   UNL     1     -12.561  15.158  70.666  1.00  0.00    -0.395 A  
HETATM    3  H   UNL     1     -10.486  15.262  70.934  1.00  0.00     0.000 HD 
HETATM    4  N   UNL     1     -11.434  15.376  71.292  1.00  0.00    -0.359 NA 
HETATM    5  N   UNL     1     -13.715  15.565  71.296  1.00  0.00    -0.559 NA 
HETATM    6  C   UNL     1     -13.379  15.921  72.650  1.00  0.00    -0.472 A  
HETATM    7  C   UNL     1     -11.849  15.828  72.646  1.00  0.00    -0.491 A  
ENDBRANCH   1   2
BRANCH   1   8
HETATM    8  N   UNL     1     -11.567  13.279  69.511  1.00  0.00    -0.293 NA 
BRANCH   8   9
HETATM    9  C   UNL     1     -11.803  12.073  70.153  1.00  0.00    -0.301 A  
HETATM   10  C   UNL     1     -12.735  11.926  71.185  1.00  0.00    -0.384 A  
HETATM   11  C   UNL     1     -12.972  10.683  71.782  1.00  0.00    -0.577 A  
HETATM   12  C   UNL     1     -11.302   9.687  70.370  1.00  0.00    -0.337 A  
HETATM   13  C   UNL     1     -11.087  10.928  69.770  1.00  0.00    -0.328 A  
HETATM   14  C   UNL     1     -12.252   9.560  71.376  1.00  0.00    -0.455 A  
ENDBRANCH   8   9
BRANCH   8  15
HETATM   15  C   UNL     1     -10.483  13.297  68.491  1.00  0.00    -0.250 C  
BRANCH  15  16
HETATM   16  C   UNL     1     -10.956  13.442  67.057  1.00  0.00    -0.298 A  
HETATM   17  C   UNL     1     -12.079  13.979  64.543  1.00  0.00    -0.484 A  
HETATM   18  C   UNL     1     -10.573  14.579  66.329  1.00  0.00    -0.304 A  
HETATM   19  C   UNL     1     -11.142  14.855  65.086  1.00  0.00    -0.399 A  
HETATM   20  C   UNL     1     -12.379  12.790  65.200  1.00  0.00    -0.555 A  
HETATM   21  C   UNL     1     -11.795  12.507  66.434  1.00  0.00    -0.445 A  
ENDBRANCH  15  16
ENDBRANCH   8  15
ENDBRANCH   1   8
TORSDOF 5
ENDMDL
MODEL       25
REMARK 921   NORMALIZED FREE ENERGY PREDICTED BY IDOCK:   -5.89 KCAL/MOL
REMARK 922        TOTAL FREE ENERGY PREDICTED BY IDOCK:   -8.21 KCAL/MOL
REMARK 923 INTER-LIGAND FREE ENERGY PREDICTED BY IDOCK:   -7.00 KCAL/MOL
REMARK 924 INTRA-LIGAND FREE ENERGY PREDICTED BY IDOCK:   -1.21 KCAL/MOL
REMARK 927      BINDING AFFINITY PREDICTED BY RF-SCORE:    0.00 PKD
ROOT
HETATM    1  C   UNL     1     -11.335  15.193  64.718  1.00  0.00    -0.395 C  
ENDROOT
BRANCH   1   2
HETATM    2  C   UNL     1     -11.412  13.818  64.058  1.00  0.00    -0.216 A  
HETATM    3  H   UNL     1     -13.367  13.877  63.309  1.00  0.00     0.000 HD 
HETATM    4  N   UNL     1     -12.530  13.354  63.563  1.00  0.00    -0.756 NA 
HETATM    5  N   UNL     1     -10.353  12.941  64.141  1.00  0.00    -0.406 NA 
HETATM    6  C   UNL     1     -10.853  11.617  63.875  1.00  0.00    -0.405 A  
HETATM    7  C   UNL     1     -12.301  11.889  63.454  1.00  0.00    -0.462 A  
ENDBRANCH   1   2
BRANCH   1   8
HETATM    8  N   UNL     1     -11.109  14.979  66.158  1.00  0.00    -0.338 NA 
BRANCH   8   9
HETATM    9  C   UNL     1     -10.071  15.617  66.819  1.00  0.00    -0.272 A  
HETATM   10  C   UNL     1     -10.267  16.694  67.689  1.00  0.00    -0.285 A  
HETATM   11  C   UNL     1      -9.196  17.288  68.367  1.00  0.00    -0.268 A  
HETATM   12  C   UNL     1      -7.672  15.780  67.280  1.00  0.00    -0.232 A  
HETATM   13  C   UNL     1      -8.750  15.185  66.624  1.00  0.00    -0.308 A  
HETATM   14  C   UNL     1      -7.895  16.833  68.161  1.00  0.00    -0.182 A  
ENDBRANCH   8   9
BRANCH   8  15
HETATM   15  C   UNL     1     -12.270  14.552  66.986  1.00  0.00    -0.164 C  
BRANCH  15  16
HETATM   16  C   UNL     1     -11.966  13.472  68.007  1.00  0.00    -0.372 A  
HETATM   17  C   UNL     1     -11.747  11.319  69.793  1.00  0.00    -0.422 A  
HETATM   18  C   UNL     1     -11.589  12.198  67.552  1.00  0.00    -0.413 A  
HETATM   19  C   UNL     1     -11.494  11.125  68.437  1.00  0.00    -0.377 A  
HETATM   20  C   UNL     1     -12.006  12.599  70.273  1.00  0.00    -0.363 A  
HETATM   21  C   UNL     1     -12.082  13.675  69.389  1.00  0.00    -0.364 A  
ENDBRANCH  15  16
ENDBRANCH   8  15
ENDBRANCH   1   8
TORSDOF 5
ENDMDL
MODEL       26
REMARK 921   NORMALIZED FREE ENERGY PREDICTED BY IDOCK:   -5.88 KCAL/MOL
REMARK 922        TOTAL FREE ENERGY PREDICTED BY IDOCK:   -8.19 KCAL/MOL
REMARK 923 INTER-LIGAND FREE ENERGY PREDICTED BY IDOCK:   -7.34 KCAL/MOL
REMARK 924 INTRA-LIGAND FREE ENERGY PREDICTED BY IDOCK:   -0.84 KCAL/MOL
REMARK 927      BINDING AFFINITY PREDICTED BY RF-SCORE:    0.00 PKD
ROOT
HETATM    1  C   UNL     1     -12.136  14.282  66.982  1.00  0.00    -0.390 C  
ENDROOT
BRANCH   1   2
HETATM    2  C   UNL     1     -11.183  15.366  67.482  1.00  0.00    -0.302 A  
HETATM    3  H   UNL     1     -12.175  15.950  69.232  1.00  0.00     0.000 HD 
HETATM    4  N   UNL     1     -11.477  16.121  68.507  1.00  0.00    -0.369 NA 
HETATM    5  N   UNL     1     -10.072  15.715  66.746  1.00  0.00    -0.265 NA 
HETATM    6  C   UNL     1      -9.650  17.023  67.177  1.00  0.00    -0.253 A  
HETATM    7  C   UNL     1     -10.564  17.287  68.378  1.00  0.00    -0.368 A  
ENDBRANCH   1   2
BRANCH   1   8
HETATM    8  N   UNL     1     -11.454  12.986  67.144  1.00  0.00    -0.312 NA 
BRANCH   8   9
HETATM    9  C   UNL     1     -10.987  12.284  66.045  1.00  0.00    -0.292 A  
HETATM   10  C   UNL     1     -10.335  11.050  66.146  1.00  0.00    -0.306 A  
HETATM   11  C   UNL     1      -9.912  10.354  65.008  1.00  0.00    -0.399 A  
HETATM   12  C   UNL     1     -10.728  12.134  63.615  1.00  0.00    -0.518 A  
HETATM   13  C   UNL     1     -11.161  12.811  64.756  1.00  0.00    -0.339 A  
HETATM   14  C   UNL     1     -10.106  10.897  63.739  1.00  0.00    -0.413 A  
ENDBRANCH   8   9
BRANCH   8  15
HETATM   15  C   UNL     1     -10.789  12.712  68.448  1.00  0.00    -0.245 C  
BRANCH  15  16
HETATM   16  C   UNL     1     -11.715  12.223  69.547  1.00  0.00    -0.398 A  
HETATM   17  C   UNL     1     -13.118  11.357  71.817  1.00  0.00    -0.523 A  
HETATM   18  C   UNL     1     -12.188  13.146  70.493  1.00  0.00    -0.405 A  
HETATM   19  C   UNL     1     -12.873  12.715  71.629  1.00  0.00    -0.367 A  
HETATM   20  C   UNL     1     -12.757  10.444  70.830  1.00  0.00    -0.477 A  
HETATM   21  C   UNL     1     -12.090  10.880  69.687  1.00  0.00    -0.400 A  
ENDBRANCH  15  16
ENDBRANCH   8  15
ENDBRANCH   1   8
TORSDOF 5
ENDMDL
MODEL       27
REMARK 921   NORMALIZED FREE ENERGY PREDICTED BY IDOCK:   -5.86 KCAL/MOL
REMARK 922        TOTAL FREE ENERGY PREDICTED BY IDOCK:   -8.16 KCAL/MOL
REMARK 923 INTER-LIGAND FREE ENERGY PREDICTED BY IDOCK:   -8.14 KCAL/MOL
REMARK 924 INTRA-LIGAND FREE ENERGY PREDICTED BY IDOCK:   -0.02 KCAL/MOL
REMARK 927      BINDING AFFINITY PREDICTED BY RF-SCORE:    0.00 PKD
ROOT
HETATM    1  C   UNL     1     -12.532  14.514  66.032  1.00  0.00    -0.167 C  
ENDROOT
BRANCH   1   2
HETATM    2  C   UNL     1     -12.061  13.382  65.120  1.00  0.00    -0.409 A  
HETATM    3  H   UNL     1     -10.022  13.844  64.985  1.00  0.00     0.000 HD 
HETATM    4  N   UNL     1     -10.844  13.344  64.644  1.00  0.00    -0.371 NA 
HETATM    5  N   UNL     1     -12.962  12.475  64.610  1.00  0.00    -0.844 NA 
HETATM    6  C   UNL     1     -12.359  11.854  63.458  1.00  0.00    -0.490 A  
HETATM    7  C   UNL     1     -10.931  12.407  63.494  1.00  0.00    -0.450 A  
ENDBRANCH   1   2
BRANCH   1   8
HETATM    8  N   UNL     1     -11.629  14.546  67.197  1.00  0.00    -0.375 NA 
BRANCH   8   9
HETATM    9  C   UNL     1     -11.785  13.651  68.243  1.00  0.00    -0.363 A  
HETATM   10  C   UNL     1     -12.096  14.048  69.548  1.00  0.00    -0.397 A  
HETATM   11  C   UNL     1     -12.283  13.110  70.570  1.00  0.00    -0.405 A  
HETATM   12  C   UNL     1     -11.795  11.332  69.028  1.00  0.00    -0.421 A  
HETATM   13  C   UNL     1     -11.629  12.275  68.013  1.00  0.00    -0.408 A  
HETATM   14  C   UNL     1     -12.130  11.749  70.311  1.00  0.00    -0.426 A  
ENDBRANCH   8   9
BRANCH   8  15
HETATM   15  C   UNL     1     -10.272  15.126  67.004  1.00  0.00    -0.262 C  
BRANCH  15  16
HETATM   16  C   UNL     1     -10.211  16.642  67.057  1.00  0.00    -0.290 A  
HETATM   17  C   UNL     1     -10.458  19.425  67.306  1.00  0.00    -0.579 A  
HETATM   18  C   UNL     1     -10.028  17.269  68.299  1.00  0.00    -0.313 A  
HETATM   19  C   UNL     1     -10.165  18.651  68.426  1.00  0.00    -0.415 A  
HETATM   20  C   UNL     1     -10.525  18.830  66.050  1.00  0.00    -0.483 A  
HETATM   21  C   UNL     1     -10.369  17.450  65.922  1.00  0.00    -0.276 A  
ENDBRANCH  15  16
ENDBRANCH   8  15
ENDBRANCH   1   8
TORSDOF 5
ENDMDL
MODEL       28
REMARK 921   NORMALIZED FREE ENERGY PREDICTED BY IDOCK:   -5.86 KCAL/MOL
REMARK 922        TOTAL FREE ENERGY PREDICTED BY IDOCK:   -8.16 KCAL/MOL
REMARK 923 INTER-LIGAND FREE ENERGY PREDICTED BY IDOCK:   -7.25 KCAL/MOL
REMARK 924 INTRA-LIGAND FREE ENERGY PREDICTED BY IDOCK:   -0.91 KCAL/MOL
REMARK 927      BINDING AFFINITY PREDICTED BY RF-SCORE:    0.00 PKD
ROOT
HETATM    1  C   UNL     1      -9.277  15.437  65.956  1.00  0.00    -0.298 C  
ENDROOT
BRANCH   1   2
HETATM    2  C   UNL     1     -10.092  16.695  66.248  1.00  0.00    -0.328 A  
HETATM    3  H   UNL     1     -10.698  17.199  64.307  1.00  0.00     0.000 HD 
HETATM    4  N   UNL     1     -10.565  17.447  65.288  1.00  0.00    -0.640 NA 
HETATM    5  N   UNL     1     -10.185  17.188  67.530  1.00  0.00    -0.313 NA 
HETATM    6  C   UNL     1     -10.576  18.571  67.446  1.00  0.00    -0.424 A  
HETATM    7  C   UNL     1     -10.865  18.743  65.951  1.00  0.00    -0.113 A  
ENDBRANCH   1   2
BRANCH   1   8
HETATM    8  N   UNL     1     -10.079  14.281  66.395  1.00  0.00    -0.279 NA 
BRANCH   8   9
HETATM    9  C   UNL     1     -10.848  13.564  65.492  1.00  0.00    -0.288 A  
HETATM   10  C   UNL     1     -12.243  13.488  65.568  1.00  0.00    -0.490 A  
HETATM   11  C   UNL     1     -12.988  12.785  64.614  1.00  0.00    -0.231 A  
HETATM   12  C   UNL     1     -10.957  12.153  63.495  1.00  0.00    -0.521 A  
HETATM   13  C   UNL     1     -10.226  12.872  64.442  1.00  0.00    -0.342 A  
HETATM   14  C   UNL     1     -12.344  12.114  63.576  1.00  0.00    -0.682 A  
ENDBRANCH   8   9
BRANCH   8  15
HETATM   15  C   UNL     1      -9.645  13.564  67.626  1.00  0.00    -0.222 C  
BRANCH  15  16
HETATM   16  C   UNL     1     -10.746  13.312  68.641  1.00  0.00    -0.281 A  
HETATM   17  C   UNL     1     -12.519  12.960  70.785  1.00  0.00    -0.370 A  
HETATM   18  C   UNL     1     -11.392  14.413  69.224  1.00  0.00    -0.319 A  
HETATM   19  C   UNL     1     -12.263  14.240  70.300  1.00  0.00    -0.407 A  
HETATM   20  C   UNL     1     -11.976  11.852  70.142  1.00  0.00    -0.413 A  
HETATM   21  C   UNL     1     -11.121  12.027  69.054  1.00  0.00    -0.291 A  
ENDBRANCH  15  16
ENDBRANCH   8  15
ENDBRANCH   1   8
TORSDOF 5
ENDMDL
MODEL       29
REMARK 921   NORMALIZED FREE ENERGY PREDICTED BY IDOCK:   -5.85 KCAL/MOL
REMARK 922        TOTAL FREE ENERGY PREDICTED BY IDOCK:   -8.16 KCAL/MOL
REMARK 923 INTER-LIGAND FREE ENERGY PREDICTED BY IDOCK:   -7.30 KCAL/MOL
REMARK 924 INTRA-LIGAND FREE ENERGY PREDICTED BY IDOCK:   -0.86 KCAL/MOL
REMARK 927      BINDING AFFINITY PREDICTED BY RF-SCORE:    0.00 PKD
ROOT
HETATM    1  C   UNL     1      -9.486  13.639  68.525  1.00  0.00    -0.143 C  
ENDROOT
BRANCH   1   2
HETATM    2  C   UNL     1      -9.318  15.011  67.876  1.00  0.00    -0.183 A  
HETATM    3  H   UNL     1     -10.269  16.212  69.305  1.00  0.00     0.000 HD 
HETATM    4  N   UNL     1      -9.893  16.079  68.366  1.00  0.00    -0.209 NA 
HETATM    5  N   UNL     1      -8.720  15.134  66.642  1.00  0.00    -0.276 NA 
HETATM    6  C   UNL     1      -9.116  16.401  66.083  1.00  0.00    -0.326 A  
HETATM    7  C   UNL     1      -9.873  17.053  67.244  1.00  0.00    -0.260 A  
ENDBRANCH   1   2
BRANCH   1   8
HETATM    8  N   UNL     1     -10.887  13.226  68.328  1.00  0.00    -0.248 NA 
BRANCH   8   9
HETATM    9  C   UNL     1     -11.414  13.081  67.054  1.00  0.00    -0.333 A  
HETATM   10  C   UNL     1     -12.405  13.922  66.537  1.00  0.00    -0.447 A  
HETATM   11  C   UNL     1     -12.885  13.767  65.232  1.00  0.00    -0.430 A  
HETATM   12  C   UNL     1     -11.435  11.875  64.925  1.00  0.00    -0.315 A  
HETATM   13  C   UNL     1     -10.951  12.051  66.222  1.00  0.00    -0.340 A  
HETATM   14  C   UNL     1     -12.401  12.739  64.423  1.00  0.00    -0.498 A  
ENDBRANCH   8   9
BRANCH   8  15
HETATM   15  C   UNL     1     -11.540  12.451  69.418  1.00  0.00    -0.307 C  
BRANCH  15  16
HETATM   16  C   UNL     1     -12.294  13.288  70.435  1.00  0.00    -0.365 A  
HETATM   17  C   UNL     1     -14.012  14.694  72.150  1.00  0.00    -0.591 A  
HETATM   18  C   UNL     1     -12.908  12.643  71.520  1.00  0.00    -0.368 A  
HETATM   19  C   UNL     1     -13.774  13.338  72.365  1.00  0.00    -0.678 A  
HETATM   20  C   UNL     1     -13.319  15.370  71.151  1.00  0.00    -0.580 A  
HETATM   21  C   UNL     1     -12.440  14.678  70.320  1.00  0.00    -0.401 A  
ENDBRANCH  15  16
ENDBRANCH   8  15
ENDBRANCH   1   8
TORSDOF 5
ENDMDL
MODEL       30
REMARK 921   NORMALIZED FREE ENERGY PREDICTED BY IDOCK:   -5.85 KCAL/MOL
REMARK 922        TOTAL FREE ENERGY PREDICTED BY IDOCK:   -8.15 KCAL/MOL
REMARK 923 INTER-LIGAND FREE ENERGY PREDICTED BY IDOCK:   -7.42 KCAL/MOL
REMARK 924 INTRA-LIGAND FREE ENERGY PREDICTED BY IDOCK:   -0.73 KCAL/MOL
REMARK 927      BINDING AFFINITY PREDICTED BY RF-SCORE:    0.00 PKD
ROOT
HETATM    1  C   UNL     1      -9.611  14.998  67.005  1.00  0.00    -0.225 C  
ENDROOT
BRANCH   1   2
HETATM    2  C   UNL     1      -9.729  16.521  67.001  1.00  0.00    -0.250 A  
HETATM    3  H   UNL     1      -9.808  16.888  69.062  1.00  0.00     0.000 HD 
HETATM    4  N   UNL     1      -9.947  17.196  68.099  1.00  0.00    -0.282 NA 
HETATM    5  N   UNL     1      -9.810  17.214  65.814  1.00  0.00    -0.558 NA 
HETATM    6  C   UNL     1     -10.379  18.507  66.095  1.00  0.00    -0.426 A  
HETATM    7  C   UNL     1     -10.442  18.515  67.626  1.00  0.00    -0.417 A  
ENDBRANCH   1   2
BRANCH   1   8
HETATM    8  N   UNL     1     -10.870  14.457  66.462  1.00  0.00    -0.305 NA 
BRANCH   8   9
HETATM    9  C   UNL     1     -10.859  13.497  65.462  1.00  0.00    -0.288 A  
HETATM   10  C   UNL     1      -9.879  12.504  65.366  1.00  0.00    -0.179 A  
HETATM   11  C   UNL     1      -9.925  11.529  64.363  1.00  0.00    -0.311 A  
HETATM   12  C   UNL     1     -11.913  12.542  63.469  1.00  0.00    -0.629 A  
HETATM   13  C   UNL     1     -11.867  13.498  64.485  1.00  0.00    -0.442 A  
HETATM   14  C   UNL     1     -10.942  11.549  63.410  1.00  0.00    -0.397 A  
ENDBRANCH   8   9
BRANCH   8  15
HETATM   15  C   UNL     1     -12.078  14.509  67.331  1.00  0.00    -0.257 C  
BRANCH  15  16
HETATM   16  C   UNL     1     -12.026  13.609  68.552  1.00  0.00    -0.396 A  
HETATM   17  C   UNL     1     -12.277  11.810  70.689  1.00  0.00    -0.443 A  
HETATM   18  C   UNL     1     -11.755  12.243  68.374  1.00  0.00    -0.390 A  
HETATM   19  C   UNL     1     -11.893  11.346  69.433  1.00  0.00    -0.419 A  
HETATM   20  C   UNL     1     -12.435  13.175  70.906  1.00  0.00    -0.407 A  
HETATM   21  C   UNL     1     -12.277  14.072  69.851  1.00  0.00    -0.399 A  
ENDBRANCH  15  16
ENDBRANCH   8  15
ENDBRANCH   1   8
TORSDOF 5
ENDMDL
MODEL       31
REMARK 921   NORMALIZED FREE ENERGY PREDICTED BY IDOCK:   -5.81 KCAL/MOL
REMARK 922        TOTAL FREE ENERGY PREDICTED BY IDOCK:   -8.10 KCAL/MOL
REMARK 923 INTER-LIGAND FREE ENERGY PREDICTED BY IDOCK:   -7.07 KCAL/MOL
REMARK 924 INTRA-LIGAND FREE ENERGY PREDICTED BY IDOCK:   -1.03 KCAL/MOL
REMARK 927      BINDING AFFINITY PREDICTED BY RF-SCORE:    0.00 PKD
ROOT
HETATM    1  C   UNL     1     -11.451  16.270  68.493  1.00  0.00    -0.272 C  
ENDROOT
BRANCH   1   2
HETATM    2  C   UNL     1     -10.014  16.004  68.049  1.00  0.00    -0.229 A  
HETATM    3  H   UNL     1      -9.006  16.322  69.858  1.00  0.00     0.000 HD 
HETATM    4  N   UNL     1      -8.998  16.222  68.843  1.00  0.00    -0.238 NA 
HETATM    5  N   UNL     1      -9.729  15.716  66.733  1.00  0.00    -0.234 NA 
HETATM    6  C   UNL     1      -8.331  15.984  66.514  1.00  0.00    -0.313 A  
HETATM    7  C   UNL     1      -7.828  16.290  67.928  1.00  0.00    -0.145 A  
ENDBRANCH   1   2
BRANCH   1   8
HETATM    8  N   UNL     1     -11.864  15.144  69.350  1.00  0.00    -0.321 NA 
BRANCH   8   9
HETATM    9  C   UNL     1     -12.374  15.365  70.619  1.00  0.00    -0.403 A  
HETATM   10  C   UNL     1     -11.599  15.838  71.683  1.00  0.00    -0.537 A  
HETATM   11  C   UNL     1     -12.161  16.085  72.941  1.00  0.00    -0.626 A  
HETATM   12  C   UNL     1     -14.298  15.338  72.133  1.00  0.00    -0.651 A  
HETATM   13  C   UNL     1     -13.730  15.112  70.879  1.00  0.00    -0.352 A  
HETATM   14  C   UNL     1     -13.513  15.833  73.168  1.00  0.00    -0.652 A  
ENDBRANCH   8   9
BRANCH   8  15
HETATM   15  C   UNL     1     -12.251  13.871  68.682  1.00  0.00    -0.178 C  
BRANCH  15  16
HETATM   16  C   UNL     1     -11.538  12.635  69.200  1.00  0.00    -0.374 A  
HETATM   17  C   UNL     1     -10.338  10.178  69.826  1.00  0.00    -0.297 A  
HETATM   18  C   UNL     1     -10.314  12.268  68.621  1.00  0.00    -0.204 A  
HETATM   19  C   UNL     1      -9.723  11.040  68.921  1.00  0.00    -0.184 A  
HETATM   20  C   UNL     1     -11.490  10.580  70.495  1.00  0.00    -0.433 A  
HETATM   21  C   UNL     1     -12.068  11.816  70.207  1.00  0.00    -0.426 A  
ENDBRANCH  15  16
ENDBRANCH   8  15
ENDBRANCH   1   8
TORSDOF 5
ENDMDL
MODEL       32
REMARK 921   NORMALIZED FREE ENERGY PREDICTED BY IDOCK:   -5.80 KCAL/MOL
REMARK 922        TOTAL FREE ENERGY PREDICTED BY IDOCK:   -8.09 KCAL/MOL
REMARK 923 INTER-LIGAND FREE ENERGY PREDICTED BY IDOCK:   -7.43 KCAL/MOL
REMARK 924 INTRA-LIGAND FREE ENERGY PREDICTED BY IDOCK:   -0.66 KCAL/MOL
REMARK 927      BINDING AFFINITY PREDICTED BY RF-SCORE:    0.00 PKD
ROOT
HETATM    1  C   UNL     1     -12.388  14.209  67.476  1.00  0.00    -0.071 C  
ENDROOT
BRANCH   1   2
HETATM    2  C   UNL     1     -11.303  15.252  67.738  1.00  0.00    -0.326 A  
HETATM    3  H   UNL     1     -11.796  15.810  69.697  1.00  0.00     0.000 HD 
HETATM    4  N   UNL     1     -11.301  15.984  68.821  1.00  0.00    -0.365 NA 
HETATM    5  N   UNL     1     -10.407  15.593  66.751  1.00  0.00    -0.281 NA 
HETATM    6  C   UNL     1      -9.845  16.876  67.087  1.00  0.00    -0.270 A  
HETATM    7  C   UNL     1     -10.413  17.129  68.487  1.00  0.00    -0.377 A  
ENDBRANCH   1   2
BRANCH   1   8
HETATM    8  N   UNL     1     -11.718  12.906  67.319  1.00  0.00    -0.362 NA 
BRANCH   8   9
HETATM    9  C   UNL     1     -11.490  12.370  66.062  1.00  0.00    -0.382 A  
HETATM   10  C   UNL     1     -12.211  12.751  64.926  1.00  0.00    -0.519 A  
HETATM   11  C   UNL     1     -11.925  12.214  63.666  1.00  0.00    -0.628 A  
HETATM   12  C   UNL     1     -10.210  10.840  64.641  1.00  0.00    -0.419 A  
HETATM   13  C   UNL     1     -10.493  11.396  65.890  1.00  0.00    -0.309 A  
HETATM   14  C   UNL     1     -10.924  11.254  63.522  1.00  0.00    -0.329 A  
ENDBRANCH   8   9
BRANCH   8  15
HETATM   15  C   UNL     1     -10.820  12.452  68.417  1.00  0.00    -0.238 C  
BRANCH  15  16
HETATM   16  C   UNL     1     -11.532  11.975  69.669  1.00  0.00    -0.322 A  
HETATM   17  C   UNL     1     -13.128  10.964  71.743  1.00  0.00    -0.564 A  
HETATM   18  C   UNL     1     -11.549  10.601  69.956  1.00  0.00    -0.406 A  
HETATM   19  C   UNL     1     -12.354  10.096  70.977  1.00  0.00    -0.474 A  
HETATM   20  C   UNL     1     -13.030  12.338  71.546  1.00  0.00    -0.390 A  
HETATM   21  C   UNL     1     -12.211  12.842  70.537  1.00  0.00    -0.395 A  
ENDBRANCH  15  16
ENDBRANCH   8  15
ENDBRANCH   1   8
TORSDOF 5
ENDMDL
MODEL       33
REMARK 921   NORMALIZED FREE ENERGY PREDICTED BY IDOCK:   -5.76 KCAL/MOL
REMARK 922        TOTAL FREE ENERGY PREDICTED BY IDOCK:   -8.03 KCAL/MOL
REMARK 923 INTER-LIGAND FREE ENERGY PREDICTED BY IDOCK:   -7.11 KCAL/MOL
REMARK 924 INTRA-LIGAND FREE ENERGY PREDICTED BY IDOCK:   -0.92 KCAL/MOL
REMARK 927      BINDING AFFINITY PREDICTED BY RF-SCORE:    0.00 PKD
ROOT
HETATM    1  C   UNL     1     -11.191  13.578  69.319  1.00  0.00    -0.231 C  
ENDROOT
BRANCH   1   2
HETATM    2  C   UNL     1     -12.329  14.029  70.232  1.00  0.00    -0.358 A  
HETATM    3  H   UNL     1     -12.455  16.049  69.692  1.00  0.00     0.000 HD 
HETATM    4  N   UNL     1     -12.671  15.287  70.335  1.00  0.00    -0.375 NA 
HETATM    5  N   UNL     1     -12.898  13.151  71.127  1.00  0.00    -0.306 NA 
HETATM    6  C   UNL     1     -13.564  13.925  72.143  1.00  0.00    -0.506 A  
HETATM    7  C   UNL     1     -13.445  15.353  71.602  1.00  0.00    -0.502 A  
ENDBRANCH   1   2
BRANCH   1   8
HETATM    8  N   UNL     1     -11.311  14.333  68.058  1.00  0.00    -0.280 NA 
BRANCH   8   9
HETATM    9  C   UNL     1     -10.240  15.055  67.555  1.00  0.00    -0.234 A  
HETATM   10  C   UNL     1      -8.909  14.653  67.709  1.00  0.00    -0.177 A  
HETATM   11  C   UNL     1      -7.857  15.389  67.154  1.00  0.00    -0.249 A  
HETATM   12  C   UNL     1      -9.429  17.000  66.311  1.00  0.00    -0.281 A  
HETATM   13  C   UNL     1     -10.471  16.248  66.854  1.00  0.00    -0.302 A  
HETATM   14  C   UNL     1      -8.116  16.567  66.454  1.00  0.00    -0.362 A  
ENDBRANCH   8   9
BRANCH   8  15
HETATM   15  C   UNL     1     -12.340  13.886  67.079  1.00  0.00    -0.249 C  
BRANCH  15  16
HETATM   16  C   UNL     1     -11.796  13.132  65.880  1.00  0.00    -0.453 A  
HETATM   17  C   UNL     1     -11.155  11.606  63.615  1.00  0.00    -0.506 A  
HETATM   18  C   UNL     1     -12.100  13.599  64.592  1.00  0.00    -0.449 A  
HETATM   19  C   UNL     1     -11.795  12.835  63.466  1.00  0.00    -0.618 A  
HETATM   20  C   UNL     1     -10.744  11.186  64.876  1.00  0.00    -0.318 A  
HETATM   21  C   UNL     1     -11.033  11.961  65.998  1.00  0.00    -0.355 A  
ENDBRANCH  15  16
ENDBRANCH   8  15
ENDBRANCH   1   8
TORSDOF 5
ENDMDL
MODEL       34
REMARK 921   NORMALIZED FREE ENERGY PREDICTED BY IDOCK:   -5.68 KCAL/MOL
REMARK 922        TOTAL FREE ENERGY PREDICTED BY IDOCK:   -7.93 KCAL/MOL
REMARK 923 INTER-LIGAND FREE ENERGY PREDICTED BY IDOCK:   -7.17 KCAL/MOL
REMARK 924 INTRA-LIGAND FREE ENERGY PREDICTED BY IDOCK:   -0.76 KCAL/MOL
REMARK 927      BINDING AFFINITY PREDICTED BY RF-SCORE:    0.00 PKD
ROOT
HETATM    1  C   UNL     1     -12.389  14.159  67.552  1.00  0.00    -0.071 C  
ENDROOT
BRANCH   1   2
HETATM    2  C   UNL     1     -11.376  15.270  67.819  1.00  0.00    -0.326 A  
HETATM    3  H   UNL     1     -11.728  15.606  69.857  1.00  0.00     0.000 HD 
HETATM    4  N   UNL     1     -11.333  15.901  68.964  1.00  0.00    -0.347 NA 
HETATM    5  N   UNL     1     -10.608  15.778  66.796  1.00  0.00    -0.310 NA 
HETATM    6  C   UNL     1     -10.126  17.072  67.205  1.00  0.00    -0.292 A  
HETATM    7  C   UNL     1     -10.580  17.147  68.666  1.00  0.00    -0.352 A  
ENDBRANCH   1   2
BRANCH   1   8
HETATM    8  N   UNL     1     -11.632  12.913  67.336  1.00  0.00    -0.339 NA 
BRANCH   8   9
HETATM    9  C   UNL     1     -11.368  12.453  66.055  1.00  0.00    -0.353 A  
HETATM   10  C   UNL     1     -12.259  12.613  64.988  1.00  0.00    -0.535 A  
HETATM   11  C   UNL     1     -11.940  12.167  63.700  1.00  0.00    -0.628 A  
HETATM   12  C   UNL     1      -9.839  11.328  64.511  1.00  0.00    -0.317 A  
HETATM   13  C   UNL     1     -10.160  11.792  65.787  1.00  0.00    -0.270 A  
HETATM   14  C   UNL     1     -10.728  11.521  63.460  1.00  0.00    -0.483 A  
ENDBRANCH   8   9
BRANCH   8  15
HETATM   15  C   UNL     1     -10.703  12.472  68.413  1.00  0.00    -0.240 C  
BRANCH  15  16
HETATM   16  C   UNL     1     -11.311  11.528  69.434  1.00  0.00    -0.355 A  
HETATM   17  C   UNL     1     -12.193   9.951  71.580  1.00  0.00    -0.505 A  
HETATM   18  C   UNL     1     -12.210  12.045  70.381  1.00  0.00    -0.379 A  
HETATM   19  C   UNL     1     -12.637  11.265  71.456  1.00  0.00    -0.418 A  
HETATM   20  C   UNL     1     -11.396   9.391  70.586  1.00  0.00    -0.352 A  
HETATM   21  C   UNL     1     -10.986  10.166  69.502  1.00  0.00    -0.295 A  
ENDBRANCH  15  16
ENDBRANCH   8  15
ENDBRANCH   1   8
TORSDOF 5
ENDMDL
MODEL       35
REMARK 921   NORMALIZED FREE ENERGY PREDICTED BY IDOCK:   -5.67 KCAL/MOL
REMARK 922        TOTAL FREE ENERGY PREDICTED BY IDOCK:   -7.92 KCAL/MOL
REMARK 923 INTER-LIGAND FREE ENERGY PREDICTED BY IDOCK:   -7.14 KCAL/MOL
REMARK 924 INTRA-LIGAND FREE ENERGY PREDICTED BY IDOCK:   -0.79 KCAL/MOL
REMARK 927      BINDING AFFINITY PREDICTED BY RF-SCORE:    0.00 PKD
ROOT
HETATM    1  C   UNL     1     -11.698  15.316  67.691  1.00  0.00    -0.167 C  
ENDROOT
BRANCH   1   2
HETATM    2  C   UNL     1     -10.289  15.869  67.889  1.00  0.00    -0.269 A  
HETATM    3  H   UNL     1     -10.351  16.309  69.936  1.00  0.00     0.000 HD 
HETATM    4  N   UNL     1      -9.915  16.409  69.019  1.00  0.00    -0.254 NA 
HETATM    5  N   UNL     1      -9.431  15.998  66.820  1.00  0.00    -0.221 NA 
HETATM    6  C   UNL     1      -8.411  16.948  67.184  1.00  0.00    -0.197 A  
HETATM    7  C   UNL     1      -8.709  17.202  68.665  1.00  0.00    -0.266 A  
ENDBRANCH   1   2
BRANCH   1   8
HETATM    8  N   UNL     1     -11.582  13.853  67.546  1.00  0.00    -0.339 NA 
BRANCH   8   9
HETATM    9  C   UNL     1     -11.609  13.258  66.295  1.00  0.00    -0.346 A  
HETATM   10  C   UNL     1     -12.386  13.739  65.236  1.00  0.00    -0.491 A  
HETATM   11  C   UNL     1     -12.358  13.132  63.976  1.00  0.00    -0.425 A  
HETATM   12  C   UNL     1     -10.808  11.491  64.802  1.00  0.00    -0.360 A  
HETATM   13  C   UNL     1     -10.831  12.116  66.049  1.00  0.00    -0.318 A  
HETATM   14  C   UNL     1     -11.569  12.004  63.757  1.00  0.00    -0.565 A  
ENDBRANCH   8   9
BRANCH   8  15
HETATM   15  C   UNL     1     -10.896  13.102  68.633  1.00  0.00    -0.259 C  
BRANCH  15  16
HETATM   16  C   UNL     1     -11.820  12.505  69.678  1.00  0.00    -0.382 A  
HETATM   17  C   UNL     1     -13.234  11.454  71.862  1.00  0.00    -0.485 A  
HETATM   18  C   UNL     1     -12.406  13.355  70.629  1.00  0.00    -0.423 A  
HETATM   19  C   UNL     1     -13.096  12.833  71.723  1.00  0.00    -0.455 A  
HETATM   20  C   UNL     1     -12.760  10.606  70.866  1.00  0.00    -0.498 A  
HETATM   21  C   UNL     1     -12.087  11.131  69.764  1.00  0.00    -0.414 A  
ENDBRANCH  15  16
ENDBRANCH   8  15
ENDBRANCH   1   8
TORSDOF 5
ENDMDL
MODEL       36
REMARK 921   NORMALIZED FREE ENERGY PREDICTED BY IDOCK:   -5.66 KCAL/MOL
REMARK 922        TOTAL FREE ENERGY PREDICTED BY IDOCK:   -7.91 KCAL/MOL
REMARK 923 INTER-LIGAND FREE ENERGY PREDICTED BY IDOCK:   -7.22 KCAL/MOL
REMARK 924 INTRA-LIGAND FREE ENERGY PREDICTED BY IDOCK:   -0.69 KCAL/MOL
REMARK 927      BINDING AFFINITY PREDICTED BY RF-SCORE:    0.00 PKD
ROOT
HETATM    1  C   UNL     1     -10.607  13.495  68.558  1.00  0.00    -0.247 C  
ENDROOT
BRANCH   1   2
HETATM    2  C   UNL     1     -11.205  13.484  67.153  1.00  0.00    -0.305 A  
HETATM    3  H   UNL     1     -12.494  15.130  67.289  1.00  0.00     0.000 HD 
HETATM    4  N   UNL     1     -12.188  14.279  66.818  1.00  0.00    -0.423 NA 
HETATM    5  N   UNL     1     -10.863  12.500  66.254  1.00  0.00    -0.262 NA 
HETATM    6  C   UNL     1     -11.886  12.450  65.241  1.00  0.00    -0.399 A  
HETATM    7  C   UNL     1     -12.758  13.659  65.593  1.00  0.00    -0.454 A  
ENDBRANCH   1   2
BRANCH   1   8
HETATM    8  N   UNL     1     -11.529  12.751  69.435  1.00  0.00    -0.272 NA 
BRANCH   8   9
HETATM    9  C   UNL     1     -12.314  13.412  70.367  1.00  0.00    -0.312 A  
HETATM   10  C   UNL     1     -12.501  14.798  70.363  1.00  0.00    -0.405 A  
HETATM   11  C   UNL     1     -13.332  15.425  71.298  1.00  0.00    -0.598 A  
HETATM   12  C   UNL     1     -13.782  13.297  72.322  1.00  0.00    -0.686 A  
HETATM   13  C   UNL     1     -12.965  12.682  71.374  1.00  0.00    -0.353 A  
HETATM   14  C   UNL     1     -13.973  14.674  72.282  1.00  0.00    -0.589 A  
ENDBRANCH   8   9
BRANCH   8  15
HETATM   15  C   UNL     1     -12.019  11.427  68.961  1.00  0.00    -0.320 C  
BRANCH  15  16
HETATM   16  C   UNL     1     -11.123  10.253  69.307  1.00  0.00    -0.293 A  
HETATM   17  C   UNL     1      -9.769   7.855  69.848  1.00  0.00    -0.176 A  
HETATM   18  C   UNL     1     -10.580   9.486  68.265  1.00  0.00    -0.260 A  
HETATM   19  C   UNL     1      -9.920   8.286  68.532  1.00  0.00    -0.206 A  
HETATM   20  C   UNL     1     -10.199   8.664  70.896  1.00  0.00    -0.261 A  
HETATM   21  C   UNL     1     -10.842   9.872  70.627  1.00  0.00    -0.400 A  
ENDBRANCH  15  16
ENDBRANCH   8  15
ENDBRANCH   1   8
TORSDOF 5
ENDMDL
MODEL       37
REMARK 921   NORMALIZED FREE ENERGY PREDICTED BY IDOCK:   -5.65 KCAL/MOL
REMARK 922        TOTAL FREE ENERGY PREDICTED BY IDOCK:   -7.89 KCAL/MOL
REMARK 923 INTER-LIGAND FREE ENERGY PREDICTED BY IDOCK:   -7.01 KCAL/MOL
REMARK 924 INTRA-LIGAND FREE ENERGY PREDICTED BY IDOCK:   -0.88 KCAL/MOL
REMARK 927      BINDING AFFINITY PREDICTED BY RF-SCORE:    0.00 PKD
ROOT
HETATM    1  C   UNL     1     -11.046  14.901  69.850  1.00  0.00    -0.259 C  
ENDROOT
BRANCH   1   2
HETATM    2  C   UNL     1     -12.350  14.729  70.625  1.00  0.00    -0.337 A  
HETATM    3  H   UNL     1     -13.062  16.699  70.590  1.00  0.00     0.000 HD 
HETATM    4  N   UNL     1     -13.084  15.754  70.973  1.00  0.00    -0.521 NA 
HETATM    5  N   UNL     1     -12.693  13.506  71.155  1.00  0.00    -0.354 NA 
HETATM    6  C   UNL     1     -13.667  13.730  72.193  1.00  0.00    -0.540 A  
HETATM    7  C   UNL     1     -13.958  15.228  72.054  1.00  0.00    -0.543 A  
ENDBRANCH   1   2
BRANCH   1   8
HETATM    8  N   UNL     1     -11.387  15.465  68.531  1.00  0.00    -0.318 NA 
BRANCH   8   9
HETATM    9  C   UNL     1     -10.770  16.616  68.068  1.00  0.00    -0.350 A  
HETATM   10  C   UNL     1     -10.404  16.801  66.730  1.00  0.00    -0.293 A  
HETATM   11  C   UNL     1      -9.817  17.994  66.293  1.00  0.00    -0.310 A  
HETATM   12  C   UNL     1      -9.886  18.849  68.538  1.00  0.00    -0.455 A  
HETATM   13  C   UNL     1     -10.486  17.662  68.959  1.00  0.00    -0.200 A  
HETATM   14  C   UNL     1      -9.555  19.020  67.199  1.00  0.00    -0.360 A  
ENDBRANCH   8   9
BRANCH   8  15
HETATM   15  C   UNL     1     -11.941  14.539  67.505  1.00  0.00    -0.325 C  
BRANCH  15  16
HETATM   16  C   UNL     1     -11.194  13.226  67.360  1.00  0.00    -0.316 A  
HETATM   17  C   UNL     1      -9.955  10.790  66.726  1.00  0.00    -0.249 A  
HETATM   18  C   UNL     1     -10.016  13.198  66.597  1.00  0.00    -0.270 A  
HETATM   19  C   UNL     1      -9.408  11.986  66.269  1.00  0.00    -0.228 A  
HETATM   20  C   UNL     1     -11.054  10.811  67.579  1.00  0.00    -0.374 A  
HETATM   21  C   UNL     1     -11.649  12.024  67.921  1.00  0.00    -0.405 A  
ENDBRANCH  15  16
ENDBRANCH   8  15
ENDBRANCH   1   8
TORSDOF 5
ENDMDL
MODEL       38
REMARK 921   NORMALIZED FREE ENERGY PREDICTED BY IDOCK:   -5.64 KCAL/MOL
REMARK 922        TOTAL FREE ENERGY PREDICTED BY IDOCK:   -7.88 KCAL/MOL
REMARK 923 INTER-LIGAND FREE ENERGY PREDICTED BY IDOCK:   -7.12 KCAL/MOL
REMARK 924 INTRA-LIGAND FREE ENERGY PREDICTED BY IDOCK:   -0.77 KCAL/MOL
REMARK 927      BINDING AFFINITY PREDICTED BY RF-SCORE:    0.00 PKD
ROOT
HETATM    1  C   UNL     1     -11.318  13.399  69.682  1.00  0.00    -0.137 C  
ENDROOT
BRANCH   1   2
HETATM    2  C   UNL     1     -12.500  13.934  70.487  1.00  0.00    -0.352 A  
HETATM    3  H   UNL     1     -12.700  15.834  69.628  1.00  0.00     0.000 HD 
HETATM    4  N   UNL     1     -12.900  15.174  70.380  1.00  0.00    -0.336 NA 
HETATM    5  N   UNL     1     -13.056  13.182  71.498  1.00  0.00    -0.353 NA 
HETATM    6  C   UNL     1     -13.786  14.074  72.362  1.00  0.00    -0.568 A  
HETATM    7  C   UNL     1     -13.714  15.403  71.603  1.00  0.00    -0.509 A  
ENDBRANCH   1   2
BRANCH   1   8
HETATM    8  N   UNL     1     -11.865  12.590  68.578  1.00  0.00    -0.315 NA 
BRANCH   8   9
HETATM    9  C   UNL     1     -11.649  12.949  67.257  1.00  0.00    -0.360 A  
HETATM   10  C   UNL     1     -11.673  14.275  66.813  1.00  0.00    -0.424 A  
HETATM   11  C   UNL     1     -11.413  14.601  65.477  1.00  0.00    -0.341 A  
HETATM   12  C   UNL     1     -11.149  12.269  64.960  1.00  0.00    -0.359 A  
HETATM   13  C   UNL     1     -11.392  11.958  66.298  1.00  0.00    -0.394 A  
HETATM   14  C   UNL     1     -11.152  13.596  64.547  1.00  0.00    -0.396 A  
ENDBRANCH   8   9
BRANCH   8  15
HETATM   15  C   UNL     1     -12.146  11.153  68.847  1.00  0.00    -0.207 C  
BRANCH  15  16
HETATM   16  C   UNL     1     -11.142  10.464  69.753  1.00  0.00    -0.352 A  
HETATM   17  C   UNL     1      -9.309   8.889  71.177  1.00  0.00    -0.326 A  
HETATM   18  C   UNL     1      -9.811  10.349  69.323  1.00  0.00    -0.243 A  
HETATM   19  C   UNL     1      -8.902   9.555  70.023  1.00  0.00    -0.246 A  
HETATM   20  C   UNL     1     -10.592   9.088  71.677  1.00  0.00    -0.434 A  
HETATM   21  C   UNL     1     -11.492   9.898  70.987  1.00  0.00    -0.466 A  
ENDBRANCH  15  16
ENDBRANCH   8  15
ENDBRANCH   1   8
TORSDOF 5
ENDMDL
MODEL       39
REMARK 921   NORMALIZED FREE ENERGY PREDICTED BY IDOCK:   -5.63 KCAL/MOL
REMARK 922        TOTAL FREE ENERGY PREDICTED BY IDOCK:   -7.86 KCAL/MOL
REMARK 923 INTER-LIGAND FREE ENERGY PREDICTED BY IDOCK:   -6.69 KCAL/MOL
REMARK 924 INTRA-LIGAND FREE ENERGY PREDICTED BY IDOCK:   -1.17 KCAL/MOL
REMARK 927      BINDING AFFINITY PREDICTED BY RF-SCORE:    0.00 PKD
ROOT
HETATM    1  C   UNL     1      -8.907  15.010  68.343  1.00  0.00    -0.178 C  
ENDROOT
BRANCH   1   2
HETATM    2  C   UNL     1      -7.765  16.011  68.175  1.00  0.00    -0.133 A  
HETATM    3  H   UNL     1      -7.284  16.359  70.184  1.00  0.00     0.000 HD 
HETATM    4  N   UNL     1      -7.231  16.623  69.200  1.00  0.00    -0.226 NA 
HETATM    5  N   UNL     1      -7.397  16.450  66.923  1.00  0.00    -0.216 NA 
HETATM    6  C   UNL     1      -6.674  17.685  67.082  1.00  0.00    -0.165 A  
HETATM    7  C   UNL     1      -6.530  17.790  68.604  1.00  0.00    -0.210 A  
ENDBRANCH   1   2
BRANCH   1   8
HETATM    8  N   UNL     1     -10.043  15.498  67.540  1.00  0.00    -0.239 NA 
BRANCH   8   9
HETATM    9  C   UNL     1     -10.611  14.705  66.556  1.00  0.00    -0.300 A  
HETATM   10  C   UNL     1     -10.002  14.469  65.319  1.00  0.00    -0.322 A  
HETATM   11  C   UNL     1     -10.591  13.632  64.365  1.00  0.00    -0.360 A  
HETATM   12  C   UNL     1     -12.461  13.275  65.832  1.00  0.00    -0.433 A  
HETATM   13  C   UNL     1     -11.856  14.098  66.782  1.00  0.00    -0.449 A  
HETATM   14  C   UNL     1     -11.825  13.034  64.620  1.00  0.00    -0.422 A  
ENDBRANCH   8   9
BRANCH   8  15
HETATM   15  C   UNL     1     -10.906  16.555  68.134  1.00  0.00    -0.345 C  
BRANCH  15  16
HETATM   16  C   UNL     1     -10.476  17.978  67.827  1.00  0.00    -0.421 A  
HETATM   17  C   UNL     1      -9.355  20.450  67.115  1.00  0.00    -0.537 A  
HETATM   18  C   UNL     1     -10.506  18.421  66.495  1.00  0.00    -0.411 A  
HETATM   19  C   UNL     1      -9.936  19.643  66.138  1.00  0.00    -0.554 A  
HETATM   20  C   UNL     1      -9.424  20.076  68.454  1.00  0.00    -0.303 A  
HETATM   21  C   UNL     1     -10.012  18.863  68.811  1.00  0.00    -0.466 A  
ENDBRANCH  15  16
ENDBRANCH   8  15
ENDBRANCH   1   8
TORSDOF 5
ENDMDL
MODEL       40
REMARK 921   NORMALIZED FREE ENERGY PREDICTED BY IDOCK:   -5.62 KCAL/MOL
REMARK 922        TOTAL FREE ENERGY PREDICTED BY IDOCK:   -7.85 KCAL/MOL
REMARK 923 INTER-LIGAND FREE ENERGY PREDICTED BY IDOCK:   -7.44 KCAL/MOL
REMARK 924 INTRA-LIGAND FREE ENERGY PREDICTED BY IDOCK:   -0.42 KCAL/MOL
REMARK 927      BINDING AFFINITY PREDICTED BY RF-SCORE:    0.00 PKD
ROOT
HETATM    1  C   UNL     1     -12.274  11.098  69.410  1.00  0.00    -0.259 C  
ENDROOT
BRANCH   1   2
HETATM    2  C   UNL     1     -11.302  10.392  70.353  1.00  0.00    -0.337 A  
HETATM    3  H   UNL     1      -9.524  10.585  69.262  1.00  0.00     0.000 HD 
HETATM    4  N   UNL     1     -10.064  10.148  70.009  1.00  0.00    -0.233 NA 
HETATM    5  N   UNL     1     -11.754   9.810  71.516  1.00  0.00    -0.389 NA 
HETATM    6  C   UNL     1     -10.771   8.846  71.940  1.00  0.00    -0.356 A  
HETATM    7  C   UNL     1      -9.623   9.090  70.955  1.00  0.00    -0.279 A  
ENDBRANCH   1   2
BRANCH   1   8
HETATM    8  N   UNL     1     -11.911  12.527  69.393  1.00  0.00    -0.286 NA 
BRANCH   8   9
HETATM    9  C   UNL     1     -12.272  13.366  70.435  1.00  0.00    -0.345 A  
HETATM   10  C   UNL     1     -13.141  12.979  71.460  1.00  0.00    -0.400 A  
HETATM   11  C   UNL     1     -13.452  13.843  72.517  1.00  0.00    -0.676 A  
HETATM   12  C   UNL     1     -12.072  15.546  71.530  1.00  0.00    -0.458 A  
HETATM   13  C   UNL     1     -11.756  14.670  70.491  1.00  0.00    -0.345 A  
HETATM   14  C   UNL     1     -12.918  15.130  72.552  1.00  0.00    -0.470 A  
ENDBRANCH   8   9
BRANCH   8  15
HETATM   15  C   UNL     1     -10.730  12.931  68.582  1.00  0.00    -0.247 C  
BRANCH  15  16
HETATM   16  C   UNL     1     -11.021  13.202  67.117  1.00  0.00    -0.289 A  
HETATM   17  C   UNL     1     -11.811  13.402  64.433  1.00  0.00    -0.452 A  
HETATM   18  C   UNL     1     -12.235  13.816  66.772  1.00  0.00    -0.440 A  
HETATM   19  C   UNL     1     -12.635  13.903  65.438  1.00  0.00    -0.538 A  
HETATM   20  C   UNL     1     -10.554  12.898  64.753  1.00  0.00    -0.362 A  
HETATM   21  C   UNL     1     -10.148  12.830  66.085  1.00  0.00    -0.274 A  
ENDBRANCH  15  16
ENDBRANCH   8  15
ENDBRANCH   1   8
TORSDOF 5
ENDMDL
MODEL       41
REMARK 921   NORMALIZED FREE ENERGY PREDICTED BY IDOCK:   -5.61 KCAL/MOL
REMARK 922        TOTAL FREE ENERGY PREDICTED BY IDOCK:   -7.84 KCAL/MOL
REMARK 923 INTER-LIGAND FREE ENERGY PREDICTED BY IDOCK:   -7.11 KCAL/MOL
REMARK 924 INTRA-LIGAND FREE ENERGY PREDICTED BY IDOCK:   -0.74 KCAL/MOL
REMARK 927      BINDING AFFINITY PREDICTED BY RF-SCORE:    0.00 PKD
ROOT
HETATM    1  C   UNL     1      -9.733  13.276  68.509  1.00  0.00    -0.145 C  
ENDROOT
BRANCH   1   2
HETATM    2  C   UNL     1     -10.408  14.634  68.690  1.00  0.00    -0.246 A  
HETATM    3  H   UNL     1      -9.964  15.515  66.842  1.00  0.00     0.000 HD 
HETATM    4  N   UNL     1     -10.271  15.593  67.812  1.00  0.00    -0.248 NA 
HETATM    5  N   UNL     1     -11.020  14.959  69.880  1.00  0.00    -0.251 NA 
HETATM    6  C   UNL     1     -11.132  16.393  69.943  1.00  0.00    -0.310 A  
HETATM    7  C   UNL     1     -10.664  16.823  68.549  1.00  0.00    -0.358 A  
ENDBRANCH   1   2
BRANCH   1   8
HETATM    8  N   UNL     1     -10.799  12.269  68.361  1.00  0.00    -0.220 NA 
BRANCH   8   9
HETATM    9  C   UNL     1     -11.083  11.378  69.383  1.00  0.00    -0.241 A  
HETATM   10  C   UNL     1     -10.347  10.208  69.603  1.00  0.00    -0.278 A  
HETATM   11  C   UNL     1     -10.641   9.352  70.670  1.00  0.00    -0.354 A  
HETATM   12  C   UNL     1     -12.466  10.778  71.312  1.00  0.00    -0.504 A  
HETATM   13  C   UNL     1     -12.153  11.634  70.255  1.00  0.00    -0.443 A  
HETATM   14  C   UNL     1     -11.705   9.635  71.526  1.00  0.00    -0.472 A  
ENDBRANCH   8   9
BRANCH   8  15
HETATM   15  C   UNL     1     -11.897  12.560  67.398  1.00  0.00    -0.312 C  
BRANCH  15  16
HETATM   16  C   UNL     1     -11.626  12.123  65.970  1.00  0.00    -0.420 A  
HETATM   17  C   UNL     1     -10.805  11.539  63.352  1.00  0.00    -0.423 A  
HETATM   18  C   UNL     1     -10.610  11.185  65.730  1.00  0.00    -0.289 A  
HETATM   19  C   UNL     1     -10.192  10.905  64.429  1.00  0.00    -0.423 A  
HETATM   20  C   UNL     1     -11.892  12.382  63.569  1.00  0.00    -0.605 A  
HETATM   21  C   UNL     1     -12.321  12.645  64.869  1.00  0.00    -0.563 A  
ENDBRANCH  15  16
ENDBRANCH   8  15
ENDBRANCH   1   8
TORSDOF 5
ENDMDL
MODEL       42
REMARK 921   NORMALIZED FREE ENERGY PREDICTED BY IDOCK:   -5.61 KCAL/MOL
REMARK 922        TOTAL FREE ENERGY PREDICTED BY IDOCK:   -7.84 KCAL/MOL
REMARK 923 INTER-LIGAND FREE ENERGY PREDICTED BY IDOCK:   -6.99 KCAL/MOL
REMARK 924 INTRA-LIGAND FREE ENERGY PREDICTED BY IDOCK:   -0.84 KCAL/MOL
REMARK 927      BINDING AFFINITY PREDICTED BY RF-SCORE:    0.00 PKD
ROOT
HETATM    1  C   UNL     1     -12.016  14.353  67.637  1.00  0.00    -0.343 C  
ENDROOT
BRANCH   1   2
HETATM    2  C   UNL     1     -11.954  13.683  69.008  1.00  0.00    -0.353 A  
HETATM    3  H   UNL     1     -11.584  11.703  68.434  1.00  0.00     0.000 HD 
HETATM    4  N   UNL     1     -11.872  12.384  69.136  1.00  0.00    -0.310 NA 
HETATM    5  N   UNL     1     -12.185  14.411  70.153  1.00  0.00    -0.323 NA 
HETATM    6  C   UNL     1     -12.533  13.487  71.202  1.00  0.00    -0.339 A  
HETATM    7  C   UNL     1     -12.293  12.128  70.538  1.00  0.00    -0.272 A  
ENDBRANCH   1   2
BRANCH   1   8
HETATM    8  N   UNL     1     -10.791  13.978  66.907  1.00  0.00    -0.288 NA 
BRANCH   8   9
HETATM    9  C   UNL     1     -10.859  13.294  65.704  1.00  0.00    -0.279 A  
HETATM   10  C   UNL     1     -10.014  12.227  65.382  1.00  0.00    -0.264 A  
HETATM   11  C   UNL     1     -10.140  11.537  64.171  1.00  0.00    -0.354 A  
HETATM   12  C   UNL     1     -11.935  12.999  63.525  1.00  0.00    -0.615 A  
HETATM   13  C   UNL     1     -11.812  13.668  64.743  1.00  0.00    -0.414 A  
HETATM   14  C   UNL     1     -11.101  11.924  63.239  1.00  0.00    -0.390 A  
ENDBRANCH   8   9
BRANCH   8  15
HETATM   15  C   UNL     1      -9.565  14.787  67.152  1.00  0.00    -0.227 C  
BRANCH  15  16
HETATM   16  C   UNL     1      -9.788  16.287  67.203  1.00  0.00    -0.243 A  
HETATM   17  C   UNL     1     -10.555  18.975  67.438  1.00  0.00    -0.559 A  
HETATM   18  C   UNL     1      -9.763  16.933  68.449  1.00  0.00    -0.263 A  
HETATM   19  C   UNL     1     -10.158  18.265  68.569  1.00  0.00    -0.419 A  
HETATM   20  C   UNL     1     -10.473  18.382  66.182  1.00  0.00    -0.422 A  
HETATM   21  C   UNL     1     -10.059  17.056  66.062  1.00  0.00    -0.318 A  
ENDBRANCH  15  16
ENDBRANCH   8  15
ENDBRANCH   1   8
TORSDOF 5
ENDMDL
MODEL       43
REMARK 921   NORMALIZED FREE ENERGY PREDICTED BY IDOCK:   -5.59 KCAL/MOL
REMARK 922        TOTAL FREE ENERGY PREDICTED BY IDOCK:   -7.81 KCAL/MOL
REMARK 923 INTER-LIGAND FREE ENERGY PREDICTED BY IDOCK:   -7.31 KCAL/MOL
REMARK 924 INTRA-LIGAND FREE ENERGY PREDICTED BY IDOCK:   -0.50 KCAL/MOL
REMARK 927      BINDING AFFINITY PREDICTED BY RF-SCORE:    0.00 PKD
ROOT
HETATM    1  C   UNL     1     -11.922  15.057  68.725  1.00  0.00    -0.249 C  
ENDROOT
BRANCH   1   2
HETATM    2  C   UNL     1     -10.811  16.105  68.737  1.00  0.00    -0.310 A  
HETATM    3  H   UNL     1     -11.653  17.549  67.475  1.00  0.00     0.000 HD 
HETATM    4  N   UNL     1     -10.845  17.154  67.957  1.00  0.00    -0.366 NA 
HETATM    5  N   UNL     1      -9.641  15.876  69.425  1.00  0.00    -0.266 NA 
HETATM    6  C   UNL     1      -8.634  16.757  68.892  1.00  0.00    -0.218 A  
HETATM    7  C   UNL     1      -9.440  17.638  67.933  1.00  0.00    -0.276 A  
ENDBRANCH   1   2
BRANCH   1   8
HETATM    8  N   UNL     1     -11.319  13.770  69.115  1.00  0.00    -0.268 NA 
BRANCH   8   9
HETATM    9  C   UNL     1     -11.949  12.936  70.026  1.00  0.00    -0.309 A  
HETATM   10  C   UNL     1     -11.802  11.545  70.016  1.00  0.00    -0.435 A  
HETATM   11  C   UNL     1     -12.425  10.740  70.976  1.00  0.00    -0.522 A  
HETATM   12  C   UNL     1     -13.419  12.691  71.967  1.00  0.00    -0.516 A  
HETATM   13  C   UNL     1     -12.779  13.485  71.015  1.00  0.00    -0.399 A  
HETATM   14  C   UNL     1     -13.237  11.313  71.953  1.00  0.00    -0.491 A  
ENDBRANCH   8   9
BRANCH   8  15
HETATM   15  C   UNL     1     -10.373  13.130  68.160  1.00  0.00    -0.244 C  
BRANCH  15  16
HETATM   16  C   UNL     1     -10.807  13.172  66.706  1.00  0.00    -0.289 A  
HETATM   17  C   UNL     1     -11.813  13.568  64.118  1.00  0.00    -0.483 A  
HETATM   18  C   UNL     1     -10.251  14.147  65.863  1.00  0.00    -0.332 A  
HETATM   19  C   UNL     1     -10.760  14.354  64.581  1.00  0.00    -0.357 A  
HETATM   20  C   UNL     1     -12.294  12.522  64.900  1.00  0.00    -0.539 A  
HETATM   21  C   UNL     1     -11.770  12.305  66.173  1.00  0.00    -0.440 A  
ENDBRANCH  15  16
ENDBRANCH   8  15
ENDBRANCH   1   8
TORSDOF 5
ENDMDL
MODEL       44
REMARK 921   NORMALIZED FREE ENERGY PREDICTED BY IDOCK:   -5.56 KCAL/MOL
REMARK 922        TOTAL FREE ENERGY PREDICTED BY IDOCK:   -7.78 KCAL/MOL
REMARK 923 INTER-LIGAND FREE ENERGY PREDICTED BY IDOCK:   -7.05 KCAL/MOL
REMARK 924 INTRA-LIGAND FREE ENERGY PREDICTED BY IDOCK:   -0.73 KCAL/MOL
REMARK 927      BINDING AFFINITY PREDICTED BY RF-SCORE:    0.00 PKD
ROOT
HETATM    1  C   UNL     1     -10.410  14.878  69.205  1.00  0.00    -0.234 C  
ENDROOT
BRANCH   1   2
HETATM    2  C   UNL     1     -11.547  15.207  70.170  1.00  0.00    -0.292 A  
HETATM    3  H   UNL     1     -10.716  16.850  71.170  1.00  0.00     0.000 HD 
HETATM    4  N   UNL     1     -11.413  16.107  71.109  1.00  0.00    -0.417 NA 
HETATM    5  N   UNL     1     -12.680  14.426  70.209  1.00  0.00    -0.322 NA 
HETATM    6  C   UNL     1     -13.331  14.654  71.474  1.00  0.00    -0.364 A  
HETATM    7  C   UNL     1     -12.507  15.801  72.067  1.00  0.00    -0.457 A  
ENDBRANCH   1   2
BRANCH   1   8
HETATM    8  N   UNL     1     -10.793  15.395  67.879  1.00  0.00    -0.290 NA 
BRANCH   8   9
HETATM    9  C   UNL     1     -11.191  14.536  66.867  1.00  0.00    -0.336 A  
HETATM   10  C   UNL     1     -11.308  14.932  65.531  1.00  0.00    -0.339 A  
HETATM   11  C   UNL     1     -11.676  14.024  64.531  1.00  0.00    -0.428 A  
HETATM   12  C   UNL     1     -11.883  12.290  66.183  1.00  0.00    -0.398 A  
HETATM   13  C   UNL     1     -11.498  13.200  67.168  1.00  0.00    -0.378 A  
HETATM   14  C   UNL     1     -11.967  12.700  64.857  1.00  0.00    -0.459 A  
ENDBRANCH   8   9
BRANCH   8  15
HETATM   15  C   UNL     1     -11.280  16.800  67.798  1.00  0.00    -0.026 C  
BRANCH  15  16
HETATM   16  C   UNL     1     -10.202  17.836  67.535  1.00  0.00    -0.356 A  
HETATM   17  C   UNL     1      -8.452  19.893  66.775  1.00  0.00    -0.377 A  
HETATM   18  C   UNL     1     -10.402  19.150  67.986  1.00  0.00    -0.483 A  
HETATM   19  C   UNL     1      -9.540  20.175  67.597  1.00  0.00    -0.534 A  
HETATM   20  C   UNL     1      -8.177  18.576  66.417  1.00  0.00    -0.289 A  
HETATM   21  C   UNL     1      -9.028  17.550  66.823  1.00  0.00    -0.272 A  
ENDBRANCH  15  16
ENDBRANCH   8  15
ENDBRANCH   1   8
TORSDOF 5
ENDMDL
MODEL       45
REMARK 921   NORMALIZED FREE ENERGY PREDICTED BY IDOCK:   -5.56 KCAL/MOL
REMARK 922        TOTAL FREE ENERGY PREDICTED BY IDOCK:   -7.77 KCAL/MOL
REMARK 923 INTER-LIGAND FREE ENERGY PREDICTED BY IDOCK:   -6.58 KCAL/MOL
REMARK 924 INTRA-LIGAND FREE ENERGY PREDICTED BY IDOCK:   -1.19 KCAL/MOL
REMARK 927      BINDING AFFINITY PREDICTED BY RF-SCORE:    0.00 PKD
ROOT
HETATM    1  C   UNL     1     -10.401  10.859  66.682  1.00  0.00    -0.239 C  
ENDROOT
BRANCH   1   2
HETATM    2  C   UNL     1     -11.088  11.868  65.763  1.00  0.00    -0.317 A  
HETATM    3  H   UNL     1      -9.584  12.143  64.331  1.00  0.00     0.000 HD 
HETATM    4  N   UNL     1     -10.451  12.443  64.776  1.00  0.00    -0.293 NA 
HETATM    5  N   UNL     1     -12.340  12.353  66.067  1.00  0.00    -0.551 NA 
HETATM    6  C   UNL     1     -12.526  13.583  65.341  1.00  0.00    -0.497 A  
HETATM    7  C   UNL     1     -11.281  13.632  64.450  1.00  0.00    -0.367 A  
ENDBRANCH   1   2
BRANCH   1   8
HETATM    8  N   UNL     1     -10.252  11.497  68.003  1.00  0.00    -0.186 NA 
BRANCH   8   9
HETATM    9  C   UNL     1     -10.781  10.909  69.141  1.00  0.00    -0.226 A  
HETATM   10  C   UNL     1     -10.122   9.905  69.858  1.00  0.00    -0.297 A  
HETATM   11  C   UNL     1     -10.673   9.363  71.025  1.00  0.00    -0.407 A  
HETATM   12  C   UNL     1     -12.601  10.775  70.771  1.00  0.00    -0.476 A  
HETATM   13  C   UNL     1     -12.035  11.320  69.619  1.00  0.00    -0.423 A  
HETATM   14  C   UNL     1     -11.916   9.797  71.483  1.00  0.00    -0.488 A  
ENDBRANCH   8   9
BRANCH   8  15
HETATM   15  C   UNL     1      -9.105  12.426  68.197  1.00  0.00    -0.200 C  
BRANCH  15  16
HETATM   16  C   UNL     1      -9.402  13.882  67.888  1.00  0.00    -0.208 A  
HETATM   17  C   UNL     1     -10.224  16.437  67.072  1.00  0.00    -0.282 A  
HETATM   18  C   UNL     1     -10.573  14.457  68.407  1.00  0.00    -0.248 A  
HETATM   19  C   UNL     1     -10.990  15.722  67.990  1.00  0.00    -0.330 A  
HETATM   20  C   UNL     1      -9.003  15.928  66.641  1.00  0.00    -0.301 A  
HETATM   21  C   UNL     1      -8.579  14.672  67.074  1.00  0.00    -0.249 A  
ENDBRANCH  15  16
ENDBRANCH   8  15
ENDBRANCH   1   8
TORSDOF 5
ENDMDL
MODEL       46
REMARK 921   NORMALIZED FREE ENERGY PREDICTED BY IDOCK:   -5.54 KCAL/MOL
REMARK 922        TOTAL FREE ENERGY PREDICTED BY IDOCK:   -7.75 KCAL/MOL
REMARK 923 INTER-LIGAND FREE ENERGY PREDICTED BY IDOCK:   -7.22 KCAL/MOL
REMARK 924 INTRA-LIGAND FREE ENERGY PREDICTED BY IDOCK:   -0.53 KCAL/MOL
REMARK 927      BINDING AFFINITY PREDICTED BY RF-SCORE:    0.00 PKD
ROOT
HETATM    1  C   UNL     1     -10.140  12.901  67.658  1.00  0.00    -0.221 C  
ENDROOT
BRANCH   1   2
HETATM    2  C   UNL     1     -11.081  13.213  66.496  1.00  0.00    -0.294 A  
HETATM    3  H   UNL     1     -11.769  15.105  67.076  1.00  0.00     0.000 HD 
HETATM    4  N   UNL     1     -11.856  14.266  66.501  1.00  0.00    -0.402 NA 
HETATM    5  N   UNL     1     -11.290  12.288  65.497  1.00  0.00    -0.336 NA 
HETATM    6  C   UNL     1     -12.525  12.623  64.835  1.00  0.00    -0.494 A  
HETATM    7  C   UNL     1     -12.892  13.964  65.479  1.00  0.00    -0.431 A  
ENDBRANCH   1   2
BRANCH   1   8
HETATM    8  N   UNL     1     -10.973  12.697  68.857  1.00  0.00    -0.243 NA 
BRANCH   8   9
HETATM    9  C   UNL     1     -11.319  13.762  69.673  1.00  0.00    -0.178 A  
HETATM   10  C   UNL     1     -12.340  13.694  70.627  1.00  0.00    -0.440 A  
HETATM   11  C   UNL     1     -12.634  14.780  71.459  1.00  0.00    -0.400 A  
HETATM   12  C   UNL     1     -10.926  16.075  70.372  1.00  0.00    -0.347 A  
HETATM   13  C   UNL     1     -10.630  14.980  69.560  1.00  0.00    -0.264 A  
HETATM   14  C   UNL     1     -11.928  15.975  71.331  1.00  0.00    -0.507 A  
ENDBRANCH   8   9
BRANCH   8  15
HETATM   15  C   UNL     1     -11.873  11.511  68.881  1.00  0.00    -0.341 C  
BRANCH  15  16
HETATM   16  C   UNL     1     -11.507  10.452  69.904  1.00  0.00    -0.368 A  
HETATM   17  C   UNL     1     -10.854   8.780  72.060  1.00  0.00    -0.428 A  
HETATM   18  C   UNL     1     -12.505   9.970  70.765  1.00  0.00    -0.386 A  
HETATM   19  C   UNL     1     -12.179   9.150  71.846  1.00  0.00    -0.449 A  
HETATM   20  C   UNL     1      -9.872   9.155  71.147  1.00  0.00    -0.371 A  
HETATM   21  C   UNL     1     -10.204   9.958  70.057  1.00  0.00    -0.319 A  
ENDBRANCH  15  16
ENDBRANCH   8  15
ENDBRANCH   1   8
TORSDOF 5
ENDMDL
MODEL       47
REMARK 921   NORMALIZED FREE ENERGY PREDICTED BY IDOCK:   -5.51 KCAL/MOL
REMARK 922        TOTAL FREE ENERGY PREDICTED BY IDOCK:   -7.71 KCAL/MOL
REMARK 923 INTER-LIGAND FREE ENERGY PREDICTED BY IDOCK:   -6.77 KCAL/MOL
REMARK 924 INTRA-LIGAND FREE ENERGY PREDICTED BY IDOCK:   -0.93 KCAL/MOL
REMARK 927      BINDING AFFINITY PREDICTED BY RF-SCORE:    0.00 PKD
ROOT
HETATM    1  C   UNL     1      -8.841  12.684  67.329  1.00  0.00    -0.196 C  
ENDROOT
BRANCH   1   2
HETATM    2  C   UNL     1      -9.430  14.069  67.586  1.00  0.00    -0.210 A  
HETATM    3  H   UNL     1     -10.403  13.724  69.408  1.00  0.00     0.000 HD 
HETATM    4  N   UNL     1     -10.254  14.294  68.575  1.00  0.00    -0.241 NA 
HETATM    5  N   UNL     1      -9.268  15.080  66.665  1.00  0.00    -0.258 NA 
HETATM    6  C   UNL     1     -10.282  16.072  66.914  1.00  0.00    -0.280 A  
HETATM    7  C   UNL     1     -10.925  15.569  68.211  1.00  0.00    -0.305 A  
ENDBRANCH   1   2
BRANCH   1   8
HETATM    8  N   UNL     1      -9.961  11.780  67.012  1.00  0.00    -0.203 NA 
BRANCH   8   9
HETATM    9  C   UNL     1     -10.667  11.911  65.826  1.00  0.00    -0.284 A  
HETATM   10  C   UNL     1     -10.159  11.510  64.586  1.00  0.00    -0.318 A  
HETATM   11  C   UNL     1     -10.919  11.623  63.416  1.00  0.00    -0.442 A  
HETATM   12  C   UNL     1     -12.715  12.603  64.677  1.00  0.00    -0.458 A  
HETATM   13  C   UNL     1     -11.955  12.469  65.840  1.00  0.00    -0.472 A  
HETATM   14  C   UNL     1     -12.199  12.173  63.460  1.00  0.00    -0.670 A  
ENDBRANCH   8   9
BRANCH   8  15
HETATM   15  C   UNL     1      -9.973  10.438  67.656  1.00  0.00    -0.174 C  
BRANCH  15  16
HETATM   16  C   UNL     1     -10.620  10.394  69.028  1.00  0.00    -0.247 A  
HETATM   17  C   UNL     1     -11.953   9.961  71.458  1.00  0.00    -0.473 A  
HETATM   18  C   UNL     1     -10.066   9.559  70.011  1.00  0.00    -0.279 A  
HETATM   19  C   UNL     1     -10.735   9.332  71.213  1.00  0.00    -0.422 A  
HETATM   20  C   UNL     1     -12.455  10.881  70.543  1.00  0.00    -0.438 A  
HETATM   21  C   UNL     1     -11.775  11.121  69.350  1.00  0.00    -0.402 A  
ENDBRANCH  15  16
ENDBRANCH   8  15
ENDBRANCH   1   8
TORSDOF 5
ENDMDL
MODEL       48
REMARK 921   NORMALIZED FREE ENERGY PREDICTED BY IDOCK:   -5.43 KCAL/MOL
REMARK 922        TOTAL FREE ENERGY PREDICTED BY IDOCK:   -7.61 KCAL/MOL
REMARK 923 INTER-LIGAND FREE ENERGY PREDICTED BY IDOCK:   -6.79 KCAL/MOL
REMARK 924 INTRA-LIGAND FREE ENERGY PREDICTED BY IDOCK:   -0.82 KCAL/MOL
REMARK 927      BINDING AFFINITY PREDICTED BY RF-SCORE:    0.00 PKD
ROOT
HETATM    1  C   UNL     1     -11.804  12.868  68.152  1.00  0.00    -0.336 C  
ENDROOT
BRANCH   1   2
HETATM    2  C   UNL     1     -10.416  12.412  67.707  1.00  0.00    -0.218 A  
HETATM    3  H   UNL     1      -9.222  13.651  68.902  1.00  0.00     0.000 HD 
HETATM    4  N   UNL     1      -9.331  13.025  68.104  1.00  0.00    -0.214 NA 
HETATM    5  N   UNL     1     -10.274  11.468  66.715  1.00  0.00    -0.214 NA 
HETATM    6  C   UNL     1      -8.941  11.583  66.182  1.00  0.00    -0.197 A  
HETATM    7  C   UNL     1      -8.293  12.599  67.129  1.00  0.00    -0.172 A  
ENDBRANCH   1   2
BRANCH   1   8
HETATM    8  N   UNL     1     -12.005  12.388  69.531  1.00  0.00    -0.288 NA 
BRANCH   8   9
HETATM    9  C   UNL     1     -12.350  13.265  70.547  1.00  0.00    -0.316 A  
HETATM   10  C   UNL     1     -13.178  12.907  71.616  1.00  0.00    -0.416 A  
HETATM   11  C   UNL     1     -13.473  13.810  72.644  1.00  0.00    -0.638 A  
HETATM   12  C   UNL     1     -12.160  15.494  71.540  1.00  0.00    -0.458 A  
HETATM   13  C   UNL     1     -11.859  14.580  70.530  1.00  0.00    -0.372 A  
HETATM   14  C   UNL     1     -12.965  15.108  72.605  1.00  0.00    -0.493 A  
ENDBRANCH   8   9
BRANCH   8  15
HETATM   15  C   UNL     1     -12.382  10.960  69.718  1.00  0.00    -0.256 C  
BRANCH  15  16
HETATM   16  C   UNL     1     -11.389  10.136  70.517  1.00  0.00    -0.416 A  
HETATM   17  C   UNL     1      -9.583   8.349  71.708  1.00  0.00    -0.303 A  
HETATM   18  C   UNL     1     -10.064  10.047  70.063  1.00  0.00    -0.289 A  
HETATM   19  C   UNL     1      -9.169   9.148  70.645  1.00  0.00    -0.310 A  
HETATM   20  C   UNL     1     -10.858   8.511  72.243  1.00  0.00    -0.418 A  
HETATM   21  C   UNL     1     -11.743   9.424  71.672  1.00  0.00    -0.468 A  
ENDBRANCH  15  16
ENDBRANCH   8  15
ENDBRANCH   1   8
TORSDOF 5
ENDMDL
MODEL       49
REMARK 921   NORMALIZED FREE ENERGY PREDICTED BY IDOCK:   -5.43 KCAL/MOL
REMARK 922        TOTAL FREE ENERGY PREDICTED BY IDOCK:   -7.60 KCAL/MOL
REMARK 923 INTER-LIGAND FREE ENERGY PREDICTED BY IDOCK:   -6.86 KCAL/MOL
REMARK 924 INTRA-LIGAND FREE ENERGY PREDICTED BY IDOCK:   -0.75 KCAL/MOL
REMARK 927      BINDING AFFINITY PREDICTED BY RF-SCORE:    0.00 PKD
ROOT
HETATM    1  C   UNL     1     -11.470  14.510  69.700  1.00  0.00    -0.288 C  
ENDROOT
BRANCH   1   2
HETATM    2  C   UNL     1     -12.708  14.446  70.592  1.00  0.00    -0.357 A  
HETATM    3  H   UNL     1     -13.544  16.326  70.197  1.00  0.00     0.000 HD 
HETATM    4  N   UNL     1     -13.481  15.485  70.772  1.00  0.00    -0.468 NA 
HETATM    5  N   UNL     1     -12.937  13.350  71.393  1.00  0.00    -0.349 NA 
HETATM    6  C   UNL     1     -13.853  13.745  72.432  1.00  0.00    -0.579 A  
HETATM    7  C   UNL     1     -14.247  15.162  72.003  1.00  0.00    -0.577 A  
ENDBRANCH   1   2
BRANCH   1   8
HETATM    8  N   UNL     1     -11.772  13.754  68.471  1.00  0.00    -0.335 NA 
BRANCH   8   9
HETATM    9  C   UNL     1     -11.630  14.339  67.222  1.00  0.00    -0.377 A  
HETATM   10  C   UNL     1     -10.666  15.312  66.940  1.00  0.00    -0.313 A  
HETATM   11  C   UNL     1     -10.529  15.852  65.656  1.00  0.00    -0.411 A  
HETATM   12  C   UNL     1     -12.365  14.501  64.893  1.00  0.00    -0.378 A  
HETATM   13  C   UNL     1     -12.480  13.957  66.173  1.00  0.00    -0.478 A  
HETATM   14  C   UNL     1     -11.382  15.447  64.630  1.00  0.00    -0.361 A  
ENDBRANCH   8   9
BRANCH   8  15
HETATM   15  C   UNL     1     -11.682  12.269  68.532  1.00  0.00    -0.331 C  
BRANCH  15  16
HETATM   16  C   UNL     1     -10.521  11.667  67.763  1.00  0.00    -0.213 A  
HETATM   17  C   UNL     1      -8.333  10.906  66.180  1.00  0.00    -0.168 A  
HETATM   18  C   UNL     1      -9.212  12.009  68.138  1.00  0.00    -0.195 A  
HETATM   19  C   UNL     1      -8.125  11.644  67.344  1.00  0.00    -0.153 A  
HETATM   20  C   UNL     1      -9.612  10.461  65.861  1.00  0.00    -0.258 A  
HETATM   21  C   UNL     1     -10.695  10.811  66.666  1.00  0.00    -0.268 A  
ENDBRANCH  15  16
ENDBRANCH   8  15
ENDBRANCH   1   8
TORSDOF 5
ENDMDL
MODEL       50
REMARK 921   NORMALIZED FREE ENERGY PREDICTED BY IDOCK:   -5.41 KCAL/MOL
REMARK 922        TOTAL FREE ENERGY PREDICTED BY IDOCK:   -7.59 KCAL/MOL
REMARK 923 INTER-LIGAND FREE ENERGY PREDICTED BY IDOCK:   -6.70 KCAL/MOL
REMARK 924 INTRA-LIGAND FREE ENERGY PREDICTED BY IDOCK:   -0.89 KCAL/MOL
REMARK 927      BINDING AFFINITY PREDICTED BY RF-SCORE:    0.00 PKD
ROOT
HETATM    1  C   UNL     1     -12.331  14.031  66.437  1.00  0.00    -0.431 C  
ENDROOT
BRANCH   1   2
HETATM    2  C   UNL     1     -11.956  13.999  67.917  1.00  0.00    -0.351 A  
HETATM    3  H   UNL     1     -11.950  11.930  68.250  1.00  0.00     0.000 HD 
HETATM    4  N   UNL     1     -11.966  12.887  68.605  1.00  0.00    -0.297 NA 
HETATM    5  N   UNL     1     -11.790  15.169  68.622  1.00  0.00    -0.329 NA 
HETATM    6  C   UNL     1     -11.920  14.864  70.024  1.00  0.00    -0.329 A  
HETATM    7  C   UNL     1     -12.005  13.334  70.022  1.00  0.00    -0.329 A  
ENDBRANCH   1   2
BRANCH   1   8
HETATM    8  N   UNL     1     -11.076  14.029  65.664  1.00  0.00    -0.298 NA 
BRANCH   8   9
HETATM    9  C   UNL     1     -10.562  12.852  65.143  1.00  0.00    -0.302 A  
HETATM   10  C   UNL     1      -9.724  11.998  65.868  1.00  0.00    -0.256 A  
HETATM   11  C   UNL     1      -9.256  10.799  65.320  1.00  0.00    -0.233 A  
HETATM   12  C   UNL     1     -10.404  11.289  63.267  1.00  0.00    -0.406 A  
HETATM   13  C   UNL     1     -10.880  12.473  63.830  1.00  0.00    -0.489 A  
HETATM   14  C   UNL     1      -9.594  10.443  64.016  1.00  0.00    -0.376 A  
ENDBRANCH   8   9
BRANCH   8  15
HETATM   15  C   UNL     1     -10.679  15.294  64.986  1.00  0.00    -0.439 C  
BRANCH  15  16
HETATM   16  C   UNL     1      -9.873  16.252  65.843  1.00  0.00    -0.365 A  
HETATM   17  C   UNL     1      -8.279  18.195  67.090  1.00  0.00    -0.237 A  
HETATM   18  C   UNL     1     -10.350  17.559  66.028  1.00  0.00    -0.309 A  
HETATM   19  C   UNL     1      -9.552  18.529  66.635  1.00  0.00    -0.328 A  
HETATM   20  C   UNL     1      -7.840  16.876  67.017  1.00  0.00    -0.232 A  
HETATM   21  C   UNL     1      -8.647  15.904  66.428  1.00  0.00    -0.364 A  
ENDBRANCH  15  16
ENDBRANCH   8  15
ENDBRANCH   1   8
TORSDOF 5
ENDMDL
MODEL       51
REMARK 921   NORMALIZED FREE ENERGY PREDICTED BY IDOCK:   -5.38 KCAL/MOL
REMARK 922        TOTAL FREE ENERGY PREDICTED BY IDOCK:   -7.54 KCAL/MOL
REMARK 923 INTER-LIGAND FREE ENERGY PREDICTED BY IDOCK:   -6.73 KCAL/MOL
REMARK 924 INTRA-LIGAND FREE ENERGY PREDICTED BY IDOCK:   -0.81 KCAL/MOL
REMARK 927      BINDING AFFINITY PREDICTED BY RF-SCORE:    0.00 PKD
ROOT
HETATM    1  C   UNL     1     -10.344  13.668  66.943  1.00  0.00    -0.262 C  
ENDROOT
BRANCH   1   2
HETATM    2  C   UNL     1     -11.006  13.251  65.631  1.00  0.00    -0.277 A  
HETATM    3  H   UNL     1     -12.875  12.629  66.343  1.00  0.00     0.000 HD 
HETATM    4  N   UNL     1     -12.170  12.656  65.606  1.00  0.00    -0.590 NA 
HETATM    5  N   UNL     1     -10.307  13.307  64.446  1.00  0.00    -0.404 NA 
HETATM    6  C   UNL     1     -10.966  12.442  63.502  1.00  0.00    -0.450 A  
HETATM    7  C   UNL     1     -12.231  12.029  64.260  1.00  0.00    -0.308 A  
ENDBRANCH   1   2
BRANCH   1   8
HETATM    8  N   UNL     1     -11.202  14.695  67.562  1.00  0.00    -0.320 NA 
BRANCH   8   9
HETATM    9  C   UNL     1     -11.773  14.489  68.807  1.00  0.00    -0.327 A  
HETATM   10  C   UNL     1     -11.901  13.224  69.389  1.00  0.00    -0.386 A  
HETATM   11  C   UNL     1     -12.450  13.060  70.666  1.00  0.00    -0.347 A  
HETATM   12  C   UNL     1     -12.820  15.431  70.810  1.00  0.00    -0.524 A  
HETATM   13  C   UNL     1     -12.255  15.583  69.543  1.00  0.00    -0.264 A  
HETATM   14  C   UNL     1     -12.913  14.166  71.378  1.00  0.00    -0.422 A  
ENDBRANCH   8   9
BRANCH   8  15
HETATM   15  C   UNL     1     -11.005  16.109  67.138  1.00  0.00    -0.144 C  
BRANCH  15  16
HETATM   16  C   UNL     1      -9.579  16.616  67.246  1.00  0.00    -0.243 A  
HETATM   17  C   UNL     1      -7.096  17.911  67.413  1.00  0.00    -0.201 A  
HETATM   18  C   UNL     1      -9.164  17.218  68.444  1.00  0.00    -0.268 A  
HETATM   19  C   UNL     1      -7.936  17.875  68.523  1.00  0.00    -0.302 A  
HETATM   20  C   UNL     1      -7.444  17.218  66.257  1.00  0.00    -0.354 A  
HETATM   21  C   UNL     1      -8.663  16.546  66.186  1.00  0.00    -0.335 A  
ENDBRANCH  15  16
ENDBRANCH   8  15
ENDBRANCH   1   8
TORSDOF 5
ENDMDL
MODEL       52
REMARK 921   NORMALIZED FREE ENERGY PREDICTED BY IDOCK:   -5.37 KCAL/MOL
REMARK 922        TOTAL FREE ENERGY PREDICTED BY IDOCK:   -7.53 KCAL/MOL
REMARK 923 INTER-LIGAND FREE ENERGY PREDICTED BY IDOCK:   -6.88 KCAL/MOL
REMARK 924 INTRA-LIGAND FREE ENERGY PREDICTED BY IDOCK:   -0.65 KCAL/MOL
REMARK 927      BINDING AFFINITY PREDICTED BY RF-SCORE:    0.00 PKD
ROOT
HETATM    1  C   UNL     1     -11.647  14.958  67.022  1.00  0.00    -0.304 C  
ENDROOT
BRANCH   1   2
HETATM    2  C   UNL     1     -10.548  15.960  66.675  1.00  0.00    -0.305 A  
HETATM    3  H   UNL     1      -9.216  14.706  65.656  1.00  0.00     0.000 HD 
HETATM    4  N   UNL     1      -9.418  15.583  66.137  1.00  0.00    -0.314 NA 
HETATM    5  N   UNL     1     -10.632  17.267  67.101  1.00  0.00    -0.298 NA 
HETATM    6  C   UNL     1      -9.307  17.831  67.061  1.00  0.00    -0.259 A  
HETATM    7  C   UNL     1      -8.496  16.721  66.385  1.00  0.00    -0.303 A  
ENDBRANCH   1   2
BRANCH   1   8
HETATM    8  N   UNL     1     -11.203  14.211  68.212  1.00  0.00    -0.260 NA 
BRANCH   8   9
HETATM    9  C   UNL     1     -10.768  12.899  68.108  1.00  0.00    -0.241 A  
HETATM   10  C   UNL     1     -11.623  11.833  67.812  1.00  0.00    -0.374 A  
HETATM   11  C   UNL     1     -11.139  10.526  67.677  1.00  0.00    -0.375 A  
HETATM   12  C   UNL     1      -8.920  11.296  68.189  1.00  0.00    -0.166 A  
HETATM   13  C   UNL     1      -9.411  12.597  68.303  1.00  0.00    -0.203 A  
HETATM   14  C   UNL     1      -9.784  10.256  67.868  1.00  0.00    -0.165 A  
ENDBRANCH   8   9
BRANCH   8  15
HETATM   15  C   UNL     1     -10.702  14.995  69.375  1.00  0.00    -0.261 C  
BRANCH  15  16
HETATM   16  C   UNL     1     -11.608  14.982  70.593  1.00  0.00    -0.358 A  
HETATM   17  C   UNL     1     -12.958  14.893  73.050  1.00  0.00    -0.599 A  
HETATM   18  C   UNL     1     -11.590  16.085  71.460  1.00  0.00    -0.529 A  
HETATM   19  C   UNL     1     -12.249  16.036  72.689  1.00  0.00    -0.619 A  
HETATM   20  C   UNL     1     -13.081  13.839  72.149  1.00  0.00    -0.497 A  
HETATM   21  C   UNL     1     -12.437  13.898  70.914  1.00  0.00    -0.447 A  
ENDBRANCH  15  16
ENDBRANCH   8  15
ENDBRANCH   1   8
TORSDOF 5
ENDMDL
MODEL       53
REMARK 921   NORMALIZED FREE ENERGY PREDICTED BY IDOCK:   -5.36 KCAL/MOL
REMARK 922        TOTAL FREE ENERGY PREDICTED BY IDOCK:   -7.51 KCAL/MOL
REMARK 923 INTER-LIGAND FREE ENERGY PREDICTED BY IDOCK:   -6.64 KCAL/MOL
REMARK 924 INTRA-LIGAND FREE ENERGY PREDICTED BY IDOCK:   -0.87 KCAL/MOL
REMARK 927      BINDING AFFINITY PREDICTED BY RF-SCORE:    0.00 PKD
ROOT
HETATM    1  C   UNL     1     -10.458  14.204  69.246  1.00  0.00    -0.061 C  
ENDROOT
BRANCH   1   2
HETATM    2  C   UNL     1     -10.801  13.009  68.359  1.00  0.00    -0.258 A  
HETATM    3  H   UNL     1     -12.423  12.217  69.421  1.00  0.00     0.000 HD 
HETATM    4  N   UNL     1     -11.693  12.122  68.715  1.00  0.00    -0.306 NA 
HETATM    5  N   UNL     1     -10.038  12.719  67.250  1.00  0.00    -0.224 NA 
HETATM    6  C   UNL     1     -10.270  11.341  66.902  1.00  0.00    -0.219 A  
HETATM    7  C   UNL     1     -11.400  10.944  67.857  1.00  0.00    -0.308 A  
ENDBRANCH   1   2
BRANCH   1   8
HETATM    8  N   UNL     1     -11.665  15.044  69.342  1.00  0.00    -0.307 NA 
BRANCH   8   9
HETATM    9  C   UNL     1     -12.281  15.268  70.563  1.00  0.00    -0.371 A  
HETATM   10  C   UNL     1     -13.619  14.944  70.815  1.00  0.00    -0.221 A  
HETATM   11  C   UNL     1     -14.194  15.152  72.073  1.00  0.00    -0.673 A  
HETATM   12  C   UNL     1     -12.122  16.074  72.869  1.00  0.00    -0.626 A  
HETATM   13  C   UNL     1     -11.554  15.847  71.615  1.00  0.00    -0.541 A  
HETATM   14  C   UNL     1     -13.446  15.720  73.103  1.00  0.00    -0.652 A  
ENDBRANCH   8   9
BRANCH   8  15
HETATM   15  C   UNL     1     -11.886  16.064  68.280  1.00  0.00     0.005 C  
BRANCH  15  16
HETATM   16  C   UNL     1     -10.653  16.860  67.894  1.00  0.00    -0.361 A  
HETATM   17  C   UNL     1      -8.172  18.009  67.262  1.00  0.00    -0.224 A  
HETATM   18  C   UNL     1     -10.029  16.587  66.666  1.00  0.00    -0.284 A  
HETATM   19  C   UNL     1      -8.788  17.147  66.358  1.00  0.00    -0.288 A  
HETATM   20  C   UNL     1      -8.835  18.379  68.429  1.00  0.00    -0.340 A  
HETATM   21  C   UNL     1     -10.083  17.834  68.726  1.00  0.00    -0.381 A  
ENDBRANCH  15  16
ENDBRANCH   8  15
ENDBRANCH   1   8
TORSDOF 5
ENDMDL
MODEL       54
REMARK 921   NORMALIZED FREE ENERGY PREDICTED BY IDOCK:   -5.35 KCAL/MOL
REMARK 922        TOTAL FREE ENERGY PREDICTED BY IDOCK:   -7.50 KCAL/MOL
REMARK 923 INTER-LIGAND FREE ENERGY PREDICTED BY IDOCK:   -6.53 KCAL/MOL
REMARK 924 INTRA-LIGAND FREE ENERGY PREDICTED BY IDOCK:   -0.97 KCAL/MOL
REMARK 927      BINDING AFFINITY PREDICTED BY RF-SCORE:    0.00 PKD
ROOT
HETATM    1  C   UNL     1     -11.457  14.177  69.931  1.00  0.00    -0.226 C  
ENDROOT
BRANCH   1   2
HETATM    2  C   UNL     1     -12.124  15.036  71.003  1.00  0.00    -0.324 A  
HETATM    3  H   UNL     1     -10.431  15.728  72.025  1.00  0.00     0.000 HD 
HETATM    4  N   UNL     1     -11.438  15.573  71.979  1.00  0.00    -0.437 NA 
HETATM    5  N   UNL     1     -13.496  15.106  71.090  1.00  0.00    -0.457 NA 
HETATM    6  C   UNL     1     -13.832  15.560  72.415  1.00  0.00    -0.568 A  
HETATM    7  C   UNL     1     -12.461  15.906  73.004  1.00  0.00    -0.491 A  
ENDBRANCH   1   2
BRANCH   1   8
HETATM    8  N   UNL     1     -11.441  14.963  68.684  1.00  0.00    -0.291 NA 
BRANCH   8   9
HETATM    9  C   UNL     1     -10.388  15.815  68.393  1.00  0.00    -0.233 A  
HETATM   10  C   UNL     1     -10.565  17.083  67.828  1.00  0.00    -0.350 A  
HETATM   11  C   UNL     1      -9.479  17.931  67.584  1.00  0.00    -0.260 A  
HETATM   12  C   UNL     1      -7.978  16.245  68.411  1.00  0.00    -0.173 A  
HETATM   13  C   UNL     1      -9.071  15.415  68.666  1.00  0.00    -0.195 A  
HETATM   14  C   UNL     1      -8.181  17.511  67.874  1.00  0.00    -0.231 A  
ENDBRANCH   8   9
BRANCH   8  15
HETATM   15  C   UNL     1     -12.225  14.445  67.529  1.00  0.00    -0.175 C  
BRANCH  15  16
HETATM   16  C   UNL     1     -11.450  13.548  66.580  1.00  0.00    -0.366 A  
HETATM   17  C   UNL     1     -10.358  11.841  64.641  1.00  0.00    -0.336 A  
HETATM   18  C   UNL     1     -11.150  14.024  65.295  1.00  0.00    -0.325 A  
HETATM   19  C   UNL     1     -10.620  13.172  64.325  1.00  0.00    -0.432 A  
HETATM   20  C   UNL     1     -10.542  11.388  65.944  1.00  0.00    -0.317 A  
HETATM   21  C   UNL     1     -11.053  12.246  66.916  1.00  0.00    -0.341 A  
ENDBRANCH  15  16
ENDBRANCH   8  15
ENDBRANCH   1   8
TORSDOF 5
ENDMDL
MODEL       55
REMARK 921   NORMALIZED FREE ENERGY PREDICTED BY IDOCK:   -5.32 KCAL/MOL
REMARK 922        TOTAL FREE ENERGY PREDICTED BY IDOCK:   -7.47 KCAL/MOL
REMARK 923 INTER-LIGAND FREE ENERGY PREDICTED BY IDOCK:   -6.69 KCAL/MOL
REMARK 924 INTRA-LIGAND FREE ENERGY PREDICTED BY IDOCK:   -0.78 KCAL/MOL
REMARK 927      BINDING AFFINITY PREDICTED BY RF-SCORE:    0.00 PKD
ROOT
HETATM    1  C   UNL     1     -10.023   9.812  70.324  1.00  0.00    -0.253 C  
ENDROOT
BRANCH   1   2
HETATM    2  C   UNL     1     -10.878   8.726  70.975  1.00  0.00    -0.260 A  
HETATM    3  H   UNL     1     -11.117   9.544  72.889  1.00  0.00     0.000 HD 
HETATM    4  N   UNL     1     -11.167   8.750  72.250  1.00  0.00    -0.332 NA 
HETATM    5  N   UNL     1     -11.205   7.583  70.280  1.00  0.00    -0.263 NA 
HETATM    6  C   UNL     1     -11.575   6.574  71.239  1.00  0.00    -0.327 A  
HETATM    7  C   UNL     1     -11.584   7.357  72.556  1.00  0.00    -0.275 A  
ENDBRANCH   1   2
BRANCH   1   8
HETATM    8  N   UNL     1     -10.886  10.550  69.385  1.00  0.00    -0.232 NA 
BRANCH   8   9
HETATM    9  C   UNL     1     -10.635  10.531  68.022  1.00  0.00    -0.214 A  
HETATM   10  C   UNL     1     -10.011   9.460  67.375  1.00  0.00    -0.252 A  
HETATM   11  C   UNL     1      -9.808   9.462  65.990  1.00  0.00    -0.366 A  
HETATM   12  C   UNL     1     -10.802  11.646  65.849  1.00  0.00    -0.339 A  
HETATM   13  C   UNL     1     -11.014  11.625  67.228  1.00  0.00    -0.318 A  
HETATM   14  C   UNL     1     -10.203  10.558  65.225  1.00  0.00    -0.352 A  
ENDBRANCH   8   9
BRANCH   8  15
HETATM   15  C   UNL     1     -12.286  10.832  69.807  1.00  0.00    -0.236 C  
BRANCH  15  16
HETATM   16  C   UNL     1     -12.466  12.101  70.618  1.00  0.00    -0.330 A  
HETATM   17  C   UNL     1     -13.160  14.459  71.971  1.00  0.00    -0.444 A  
HETATM   18  C   UNL     1     -13.252  12.055  71.780  1.00  0.00    -0.421 A  
HETATM   19  C   UNL     1     -13.610  13.228  72.445  1.00  0.00    -0.694 A  
HETATM   20  C   UNL     1     -12.286  14.508  70.890  1.00  0.00    -0.409 A  
HETATM   21  C   UNL     1     -11.914  13.333  70.239  1.00  0.00    -0.372 A  
ENDBRANCH  15  16
ENDBRANCH   8  15
ENDBRANCH   1   8
TORSDOF 5
ENDMDL
MODEL       56
REMARK 921   NORMALIZED FREE ENERGY PREDICTED BY IDOCK:   -5.32 KCAL/MOL
REMARK 922        TOTAL FREE ENERGY PREDICTED BY IDOCK:   -7.46 KCAL/MOL
REMARK 923 INTER-LIGAND FREE ENERGY PREDICTED BY IDOCK:   -6.50 KCAL/MOL
REMARK 924 INTRA-LIGAND FREE ENERGY PREDICTED BY IDOCK:   -0.96 KCAL/MOL
REMARK 927      BINDING AFFINITY PREDICTED BY RF-SCORE:    0.00 PKD
ROOT
HETATM    1  C   UNL     1     -11.095  15.142  67.020  1.00  0.00    -0.328 C  
ENDROOT
BRANCH   1   2
HETATM    2  C   UNL     1      -9.617  15.250  67.388  1.00  0.00    -0.207 A  
HETATM    3  H   UNL     1      -8.804  13.849  66.060  1.00  0.00     0.000 HD 
HETATM    4  N   UNL     1      -8.723  14.435  66.891  1.00  0.00    -0.217 NA 
HETATM    5  N   UNL     1      -9.208  16.078  68.409  1.00  0.00    -0.191 NA 
HETATM    6  C   UNL     1      -7.908  15.637  68.844  1.00  0.00    -0.186 A  
HETATM    7  C   UNL     1      -7.562  14.560  67.810  1.00  0.00    -0.159 A  
ENDBRANCH   1   2
BRANCH   1   8
HETATM    8  N   UNL     1     -11.543  13.786  67.384  1.00  0.00    -0.341 NA 
BRANCH   8   9
HETATM    9  C   UNL     1     -11.887  13.476  68.690  1.00  0.00    -0.369 A  
HETATM   10  C   UNL     1     -12.398  14.418  69.589  1.00  0.00    -0.300 A  
HETATM   11  C   UNL     1     -12.770  14.058  70.889  1.00  0.00    -0.420 A  
HETATM   12  C   UNL     1     -12.077  11.796  70.460  1.00  0.00    -0.439 A  
HETATM   13  C   UNL     1     -11.727  12.164  69.160  1.00  0.00    -0.384 A  
HETATM   14  C   UNL     1     -12.607  12.744  71.328  1.00  0.00    -0.347 A  
ENDBRANCH   8   9
BRANCH   8  15
HETATM   15  C   UNL     1     -12.145  12.945  66.312  1.00  0.00    -0.365 C  
BRANCH  15  16
HETATM   16  C   UNL     1     -11.146  12.195  65.451  1.00  0.00    -0.362 A  
HETATM   17  C   UNL     1      -9.609  10.666  63.670  1.00  0.00    -0.360 A  
HETATM   18  C   UNL     1     -10.916  12.639  64.139  1.00  0.00    -0.427 A  
HETATM   19  C   UNL     1     -10.164  11.872  63.249  1.00  0.00    -0.428 A  
HETATM   20  C   UNL     1      -9.732  10.273  64.999  1.00  0.00    -0.370 A  
HETATM   21  C   UNL     1     -10.467  11.051  65.892  1.00  0.00    -0.300 A  
ENDBRANCH  15  16
ENDBRANCH   8  15
ENDBRANCH   1   8
TORSDOF 5
ENDMDL
MODEL       57
REMARK 921   NORMALIZED FREE ENERGY PREDICTED BY IDOCK:   -5.31 KCAL/MOL
REMARK 922        TOTAL FREE ENERGY PREDICTED BY IDOCK:   -7.45 KCAL/MOL
REMARK 923 INTER-LIGAND FREE ENERGY PREDICTED BY IDOCK:   -6.68 KCAL/MOL
REMARK 924 INTRA-LIGAND FREE ENERGY PREDICTED BY IDOCK:   -0.77 KCAL/MOL
REMARK 927      BINDING AFFINITY PREDICTED BY RF-SCORE:    0.00 PKD
ROOT
HETATM    1  C   UNL     1      -8.525  15.514  66.640  1.00  0.00    -0.279 C  
ENDROOT
BRANCH   1   2
HETATM    2  C   UNL     1      -7.382  15.453  67.651  1.00  0.00    -0.180 A  
HETATM    3  H   UNL     1      -8.437  14.871  69.364  1.00  0.00     0.000 HD 
HETATM    4  N   UNL     1      -7.601  15.255  68.924  1.00  0.00    -0.138 NA 
HETATM    5  N   UNL     1      -6.103  15.805  67.283  1.00  0.00    -0.324 NA 
HETATM    6  C   UNL     1      -5.366  16.112  68.482  1.00  0.00    -0.103 A  
HETATM    7  C   UNL     1      -6.351  15.714  69.586  1.00  0.00    -0.174 A  
ENDBRANCH   1   2
BRANCH   1   8
HETATM    8  N   UNL     1      -9.697  16.079  67.332  1.00  0.00    -0.230 NA 
BRANCH   8   9
HETATM    9  C   UNL     1      -9.936  17.444  67.330  1.00  0.00    -0.305 A  
HETATM   10  C   UNL     1      -9.906  18.227  68.490  1.00  0.00    -0.400 A  
HETATM   11  C   UNL     1     -10.114  19.610  68.442  1.00  0.00    -0.557 A  
HETATM   12  C   UNL     1     -10.451  19.476  66.065  1.00  0.00    -0.611 A  
HETATM   13  C   UNL     1     -10.223  18.100  66.123  1.00  0.00    -0.372 A  
HETATM   14  C   UNL     1     -10.390  20.236  67.227  1.00  0.00    -0.420 A  
ENDBRANCH   8   9
BRANCH   8  15
HETATM   15  C   UNL     1     -10.875  15.191  67.537  1.00  0.00    -0.301 C  
BRANCH  15  16
HETATM   16  C   UNL     1     -11.210  14.292  66.361  1.00  0.00    -0.337 A  
HETATM   17  C   UNL     1     -12.204  12.697  64.279  1.00  0.00    -0.524 A  
HETATM   18  C   UNL     1     -11.694  14.876  65.180  1.00  0.00    -0.295 A  
HETATM   19  C   UNL     1     -12.201  14.084  64.150  1.00  0.00    -0.433 A  
HETATM   20  C   UNL     1     -11.621  12.103  65.393  1.00  0.00    -0.383 A  
HETATM   21  C   UNL     1     -11.096  12.896  66.413  1.00  0.00    -0.316 A  
ENDBRANCH  15  16
ENDBRANCH   8  15
ENDBRANCH   1   8
TORSDOF 5
ENDMDL
MODEL       58
REMARK 921   NORMALIZED FREE ENERGY PREDICTED BY IDOCK:   -5.31 KCAL/MOL
REMARK 922        TOTAL FREE ENERGY PREDICTED BY IDOCK:   -7.45 KCAL/MOL
REMARK 923 INTER-LIGAND FREE ENERGY PREDICTED BY IDOCK:   -6.60 KCAL/MOL
REMARK 924 INTRA-LIGAND FREE ENERGY PREDICTED BY IDOCK:   -0.85 KCAL/MOL
REMARK 927      BINDING AFFINITY PREDICTED BY RF-SCORE:    0.00 PKD
ROOT
HETATM    1  C   UNL     1     -10.691   9.577  68.430  1.00  0.00    -0.186 C  
ENDROOT
BRANCH   1   2
HETATM    2  C   UNL     1      -9.229   9.561  68.873  1.00  0.00    -0.145 A  
HETATM    3  H   UNL     1      -8.287   9.306  67.019  1.00  0.00     0.000 HD 
HETATM    4  N   UNL     1      -8.261   9.282  68.039  1.00  0.00    -0.115 NA 
HETATM    5  N   UNL     1      -8.900   9.642  70.207  1.00  0.00    -0.233 NA 
HETATM    6  C   UNL     1      -7.561   9.135  70.365  1.00  0.00    -0.115 A  
HETATM    7  C   UNL     1      -7.115   8.924  68.915  1.00  0.00    -0.066 A  
ENDBRANCH   1   2
BRANCH   1   8
HETATM    8  N   UNL     1     -11.168  10.968  68.536  1.00  0.00    -0.244 NA 
BRANCH   8   9
HETATM    9  C   UNL     1     -11.856  11.401  69.658  1.00  0.00    -0.362 A  
HETATM   10  C   UNL     1     -12.478  10.528  70.557  1.00  0.00    -0.433 A  
HETATM   11  C   UNL     1     -13.132  11.002  71.700  1.00  0.00    -0.543 A  
HETATM   12  C   UNL     1     -12.614  13.260  71.058  1.00  0.00    -0.408 A  
HETATM   13  C   UNL     1     -11.950  12.774  69.931  1.00  0.00    -0.368 A  
HETATM   14  C   UNL     1     -13.203  12.372  71.951  1.00  0.00    -0.486 A  
ENDBRANCH   8   9
BRANCH   8  15
HETATM   15  C   UNL     1     -10.456  12.006  67.742  1.00  0.00    -0.203 C  
BRANCH  15  16
HETATM   16  C   UNL     1     -10.924  12.145  66.305  1.00  0.00    -0.332 A  
HETATM   17  C   UNL     1     -12.076  12.154  63.747  1.00  0.00    -0.620 A  
HETATM   18  C   UNL     1     -12.073  12.907  66.039  1.00  0.00    -0.484 A  
HETATM   19  C   UNL     1     -12.654  12.900  64.771  1.00  0.00    -0.493 A  
HETATM   20  C   UNL     1     -10.874  11.489  63.967  1.00  0.00    -0.453 A  
HETATM   21  C   UNL     1     -10.284  11.513  65.230  1.00  0.00    -0.315 A  
ENDBRANCH  15  16
ENDBRANCH   8  15
ENDBRANCH   1   8
TORSDOF 5
ENDMDL
MODEL       59
REMARK 921   NORMALIZED FREE ENERGY PREDICTED BY IDOCK:   -5.31 KCAL/MOL
REMARK 922        TOTAL FREE ENERGY PREDICTED BY IDOCK:   -7.45 KCAL/MOL
REMARK 923 INTER-LIGAND FREE ENERGY PREDICTED BY IDOCK:   -6.47 KCAL/MOL
REMARK 924 INTRA-LIGAND FREE ENERGY PREDICTED BY IDOCK:   -0.98 KCAL/MOL
REMARK 927      BINDING AFFINITY PREDICTED BY RF-SCORE:    0.00 PKD
ROOT
HETATM    1  C   UNL     1     -11.482  16.383  68.681  1.00  0.00    -0.224 C  
ENDROOT
BRANCH   1   2
HETATM    2  C   UNL     1     -10.017  16.302  68.257  1.00  0.00    -0.236 A  
HETATM    3  H   UNL     1     -10.174  16.941  66.268  1.00  0.00     0.000 HD 
HETATM    4  N   UNL     1      -9.649  16.488  67.016  1.00  0.00    -0.237 NA 
HETATM    5  N   UNL     1      -9.060  15.834  69.129  1.00  0.00    -0.246 NA 
HETATM    6  C   UNL     1      -7.918  15.423  68.355  1.00  0.00    -0.131 A  
HETATM    7  C   UNL     1      -8.291  15.888  66.943  1.00  0.00    -0.246 A  
ENDBRANCH   1   2
BRANCH   1   8
HETATM    8  N   UNL     1     -11.823  15.106  69.333  1.00  0.00    -0.321 NA 
BRANCH   8   9
HETATM    9  C   UNL     1     -12.236  15.069  70.656  1.00  0.00    -0.326 A  
HETATM   10  C   UNL     1     -13.044  14.053  71.176  1.00  0.00    -0.373 A  
HETATM   11  C   UNL     1     -13.408  14.032  72.527  1.00  0.00    -0.639 A  
HETATM   12  C   UNL     1     -12.211  16.085  72.883  1.00  0.00    -0.621 A  
HETATM   13  C   UNL     1     -11.839  16.087  71.538  1.00  0.00    -0.554 A  
HETATM   14  C   UNL     1     -12.993  15.051  73.383  1.00  0.00    -0.622 A  
ENDBRANCH   8   9
BRANCH   8  15
HETATM   15  C   UNL     1     -12.256  13.978  68.463  1.00  0.00    -0.174 C  
BRANCH  15  16
HETATM   16  C   UNL     1     -11.130  13.248  67.754  1.00  0.00    -0.289 A  
HETATM   17  C   UNL     1      -9.320  11.638  66.339  1.00  0.00    -0.224 A  
HETATM   18  C   UNL     1     -11.059  13.310  66.354  1.00  0.00    -0.313 A  
HETATM   19  C   UNL     1     -10.169  12.500  65.649  1.00  0.00    -0.287 A  
HETATM   20  C   UNL     1      -9.299  11.653  67.731  1.00  0.00    -0.178 A  
HETATM   21  C   UNL     1     -10.176  12.478  68.434  1.00  0.00    -0.230 A  
ENDBRANCH  15  16
ENDBRANCH   8  15
ENDBRANCH   1   8
TORSDOF 5
ENDMDL
MODEL       60
REMARK 921   NORMALIZED FREE ENERGY PREDICTED BY IDOCK:   -5.31 KCAL/MOL
REMARK 922        TOTAL FREE ENERGY PREDICTED BY IDOCK:   -7.45 KCAL/MOL
REMARK 923 INTER-LIGAND FREE ENERGY PREDICTED BY IDOCK:   -6.62 KCAL/MOL
REMARK 924 INTRA-LIGAND FREE ENERGY PREDICTED BY IDOCK:   -0.83 KCAL/MOL
REMARK 927      BINDING AFFINITY PREDICTED BY RF-SCORE:    0.00 PKD
ROOT
HETATM    1  C   UNL     1      -9.371  15.141  66.437  1.00  0.00    -0.301 C  
ENDROOT
BRANCH   1   2
HETATM    2  C   UNL     1      -8.961  13.871  67.179  1.00  0.00    -0.235 A  
HETATM    3  H   UNL     1      -8.121  14.707  68.905  1.00  0.00     0.000 HD 
HETATM    4  N   UNL     1      -8.256  13.914  68.279  1.00  0.00    -0.152 NA 
HETATM    5  N   UNL     1      -9.149  12.634  66.604  1.00  0.00    -0.217 NA 
HETATM    6  C   UNL     1      -8.274  11.701  67.267  1.00  0.00    -0.159 A  
HETATM    7  C   UNL     1      -7.699  12.542  68.410  1.00  0.00    -0.136 A  
ENDBRANCH   1   2
BRANCH   1   8
HETATM    8  N   UNL     1     -10.320  15.868  67.299  1.00  0.00    -0.286 NA 
BRANCH   8   9
HETATM    9  C   UNL     1     -10.234  17.243  67.453  1.00  0.00    -0.325 A  
HETATM   10  C   UNL     1      -9.776  17.852  68.625  1.00  0.00    -0.355 A  
HETATM   11  C   UNL     1      -9.667  19.244  68.729  1.00  0.00    -0.510 A  
HETATM   12  C   UNL     1     -10.529  19.477  66.497  1.00  0.00    -0.595 A  
HETATM   13  C   UNL     1     -10.617  18.088  66.400  1.00  0.00    -0.259 A  
HETATM   14  C   UNL     1     -10.046  20.059  67.664  1.00  0.00    -0.562 A  
ENDBRANCH   8   9
BRANCH   8  15
HETATM   15  C   UNL     1     -11.652  15.247  67.538  1.00  0.00    -0.214 C  
BRANCH  15  16
HETATM   16  C   UNL     1     -11.878  14.744  68.952  1.00  0.00    -0.331 A  
HETATM   17  C   UNL     1     -12.634  13.671  71.432  1.00  0.00    -0.415 A  
HETATM   18  C   UNL     1     -11.738  13.372  69.212  1.00  0.00    -0.383 A  
HETATM   19  C   UNL     1     -12.127  12.835  70.439  1.00  0.00    -0.382 A  
HETATM   20  C   UNL     1     -12.668  15.047  71.229  1.00  0.00    -0.419 A  
HETATM   21  C   UNL     1     -12.260  15.583  70.008  1.00  0.00    -0.380 A  
ENDBRANCH  15  16
ENDBRANCH   8  15
ENDBRANCH   1   8
TORSDOF 5
ENDMDL
MODEL       61
REMARK 921   NORMALIZED FREE ENERGY PREDICTED BY IDOCK:   -5.29 KCAL/MOL
REMARK 922        TOTAL FREE ENERGY PREDICTED BY IDOCK:   -7.42 KCAL/MOL
REMARK 923 INTER-LIGAND FREE ENERGY PREDICTED BY IDOCK:   -6.69 KCAL/MOL
REMARK 924 INTRA-LIGAND FREE ENERGY PREDICTED BY IDOCK:   -0.74 KCAL/MOL
REMARK 927      BINDING AFFINITY PREDICTED BY RF-SCORE:    0.00 PKD
ROOT
HETATM    1  C   UNL     1     -11.473  14.493  66.273  1.00  0.00    -0.358 C  
ENDROOT
BRANCH   1   2
HETATM    2  C   UNL     1     -11.653  13.677  64.995  1.00  0.00    -0.332 A  
HETATM    3  H   UNL     1     -13.740  13.499  64.963  1.00  0.00     0.000 HD 
HETATM    4  N   UNL     1     -12.819  13.203  64.640  1.00  0.00    -0.720 NA 
HETATM    5  N   UNL     1     -10.559  13.246  64.280  1.00  0.00    -0.419 NA 
HETATM    6  C   UNL     1     -10.979  12.148  63.448  1.00  0.00    -0.412 A  
HETATM    7  C   UNL     1     -12.496  12.135  63.659  1.00  0.00    -0.549 A  
ENDBRANCH   1   2
BRANCH   1   8
HETATM    8  N   UNL     1     -10.932  13.588  67.302  1.00  0.00    -0.276 NA 
BRANCH   8   9
HETATM    9  C   UNL     1      -9.634  13.733  67.767  1.00  0.00    -0.219 A  
HETATM   10  C   UNL     1      -9.036  14.979  67.983  1.00  0.00    -0.173 A  
HETATM   11  C   UNL     1      -7.736  15.085  68.490  1.00  0.00    -0.121 A  
HETATM   12  C   UNL     1      -7.558  12.688  68.534  1.00  0.00    -0.121 A  
HETATM   13  C   UNL     1      -8.861  12.595  68.044  1.00  0.00    -0.195 A  
HETATM   14  C   UNL     1      -6.993  13.937  68.765  1.00  0.00    -0.108 A  
ENDBRANCH   8   9
BRANCH   8  15
HETATM   15  C   UNL     1     -11.900  12.914  68.210  1.00  0.00    -0.330 C  
BRANCH  15  16
HETATM   16  C   UNL     1     -12.134  13.620  69.533  1.00  0.00    -0.368 A  
HETATM   17  C   UNL     1     -12.941  14.829  71.932  1.00  0.00    -0.405 A  
HETATM   18  C   UNL     1     -12.377  12.847  70.679  1.00  0.00    -0.385 A  
HETATM   19  C   UNL     1     -12.792  13.446  71.868  1.00  0.00    -0.354 A  
HETATM   20  C   UNL     1     -12.591  15.616  70.839  1.00  0.00    -0.503 A  
HETATM   21  C   UNL     1     -12.157  15.016  69.658  1.00  0.00    -0.337 A  
ENDBRANCH  15  16
ENDBRANCH   8  15
ENDBRANCH   1   8
TORSDOF 5
ENDMDL
MODEL       62
REMARK 921   NORMALIZED FREE ENERGY PREDICTED BY IDOCK:   -5.26 KCAL/MOL
REMARK 922        TOTAL FREE ENERGY PREDICTED BY IDOCK:   -7.39 KCAL/MOL
REMARK 923 INTER-LIGAND FREE ENERGY PREDICTED BY IDOCK:   -6.85 KCAL/MOL
REMARK 924 INTRA-LIGAND FREE ENERGY PREDICTED BY IDOCK:   -0.54 KCAL/MOL
REMARK 927      BINDING AFFINITY PREDICTED BY RF-SCORE:    0.00 PKD
ROOT
HETATM    1  C   UNL     1      -9.560  11.529  68.371  1.00  0.00    -0.195 C  
ENDROOT
BRANCH   1   2
HETATM    2  C   UNL     1      -9.672  10.095  68.884  1.00  0.00    -0.187 A  
HETATM    3  H   UNL     1     -10.313   9.129  67.139  1.00  0.00     0.000 HD 
HETATM    4  N   UNL     1     -10.182   9.140  68.151  1.00  0.00    -0.198 NA 
HETATM    5  N   UNL     1      -9.424   9.804  70.207  1.00  0.00    -0.240 NA 
HETATM    6  C   UNL     1     -10.048   8.540  70.506  1.00  0.00    -0.192 A  
HETATM    7  C   UNL     1     -10.528   8.074  69.128  1.00  0.00    -0.208 A  
ENDBRANCH   1   2
BRANCH   1   8
HETATM    8  N   UNL     1     -10.930  12.024  68.143  1.00  0.00    -0.217 NA 
BRANCH   8   9
HETATM    9  C   UNL     1     -11.351  12.397  66.876  1.00  0.00    -0.333 A  
HETATM   10  C   UNL     1     -12.141  13.525  66.634  1.00  0.00    -0.447 A  
HETATM   11  C   UNL     1     -12.514  13.890  65.335  1.00  0.00    -0.528 A  
HETATM   12  C   UNL     1     -11.362  11.968  64.466  1.00  0.00    -0.393 A  
HETATM   13  C   UNL     1     -10.982  11.624  65.763  1.00  0.00    -0.329 A  
HETATM   14  C   UNL     1     -12.126  13.108  64.248  1.00  0.00    -0.477 A  
ENDBRANCH   8   9
BRANCH   8  15
HETATM   15  C   UNL     1     -11.986  11.609  69.106  1.00  0.00    -0.313 C  
BRANCH  15  16
HETATM   16  C   UNL     1     -12.272  12.608  70.212  1.00  0.00    -0.347 A  
HETATM   17  C   UNL     1     -13.169  14.457  72.122  1.00  0.00    -0.472 A  
HETATM   18  C   UNL     1     -12.989  12.182  71.341  1.00  0.00    -0.357 A  
HETATM   19  C   UNL     1     -13.447  13.102  72.283  1.00  0.00    -0.665 A  
HETATM   20  C   UNL     1     -12.360  14.879  71.070  1.00  0.00    -0.388 A  
HETATM   21  C   UNL     1     -11.887  13.954  70.140  1.00  0.00    -0.368 A  
ENDBRANCH  15  16
ENDBRANCH   8  15
ENDBRANCH   1   8
TORSDOF 5
ENDMDL
MODEL       63
REMARK 921   NORMALIZED FREE ENERGY PREDICTED BY IDOCK:   -5.26 KCAL/MOL
REMARK 922        TOTAL FREE ENERGY PREDICTED BY IDOCK:   -7.38 KCAL/MOL
REMARK 923 INTER-LIGAND FREE ENERGY PREDICTED BY IDOCK:   -6.62 KCAL/MOL
REMARK 924 INTRA-LIGAND FREE ENERGY PREDICTED BY IDOCK:   -0.76 KCAL/MOL
REMARK 927      BINDING AFFINITY PREDICTED BY RF-SCORE:    0.00 PKD
ROOT
HETATM    1  C   UNL     1     -10.638  17.161  68.450  1.00  0.00    -0.371 C  
ENDROOT
BRANCH   1   2
HETATM    2  C   UNL     1     -10.624  18.461  67.648  1.00  0.00    -0.408 A  
HETATM    3  H   UNL     1     -11.118  17.728  65.749  1.00  0.00     0.000 HD 
HETATM    4  N   UNL     1     -10.750  18.468  66.347  1.00  0.00    -0.291 NA 
HETATM    5  N   UNL     1     -10.278  19.650  68.250  1.00  0.00    -0.441 NA 
HETATM    6  C   UNL     1      -9.891  20.573  67.215  1.00  0.00    -0.441 A  
HETATM    7  C   UNL     1     -10.236  19.801  65.937  1.00  0.00    -0.459 A  
ENDBRANCH   1   2
BRANCH   1   8
HETATM    8  N   UNL     1      -9.635  16.262  67.850  1.00  0.00    -0.226 NA 
BRANCH   8   9
HETATM    9  C   UNL     1      -8.316  16.664  67.704  1.00  0.00    -0.173 A  
HETATM   10  C   UNL     1      -7.651  16.668  66.474  1.00  0.00    -0.327 A  
HETATM   11  C   UNL     1      -6.330  17.116  66.361  1.00  0.00    -0.217 A  
HETATM   12  C   UNL     1      -6.267  17.524  68.729  1.00  0.00    -0.188 A  
HETATM   13  C   UNL     1      -7.589  17.091  68.826  1.00  0.00    -0.243 A  
HETATM   14  C   UNL     1      -5.634  17.544  67.491  1.00  0.00    -0.147 A  
ENDBRANCH   8   9
BRANCH   8  15
HETATM   15  C   UNL     1      -9.888  14.797  67.921  1.00  0.00    -0.212 C  
BRANCH  15  16
HETATM   16  C   UNL     1     -10.667  14.225  66.750  1.00  0.00    -0.287 A  
HETATM   17  C   UNL     1     -12.023  13.503  64.403  1.00  0.00    -0.466 A  
HETATM   18  C   UNL     1      -9.961  13.765  65.628  1.00  0.00    -0.275 A  
HETATM   19  C   UNL     1     -10.634  13.420  64.456  1.00  0.00    -0.441 A  
HETATM   20  C   UNL     1     -12.741  13.845  65.545  1.00  0.00    -0.536 A  
HETATM   21  C   UNL     1     -12.068  14.171  66.721  1.00  0.00    -0.474 A  
ENDBRANCH  15  16
ENDBRANCH   8  15
ENDBRANCH   1   8
TORSDOF 5
ENDMDL
MODEL       64
REMARK 921   NORMALIZED FREE ENERGY PREDICTED BY IDOCK:   -5.23 KCAL/MOL
REMARK 922        TOTAL FREE ENERGY PREDICTED BY IDOCK:   -7.35 KCAL/MOL
REMARK 923 INTER-LIGAND FREE ENERGY PREDICTED BY IDOCK:   -6.64 KCAL/MOL
REMARK 924 INTRA-LIGAND FREE ENERGY PREDICTED BY IDOCK:   -0.72 KCAL/MOL
REMARK 927      BINDING AFFINITY PREDICTED BY RF-SCORE:    0.00 PKD
ROOT
HETATM    1  C   UNL     1      -9.679  11.918  68.677  1.00  0.00    -0.108 C  
ENDROOT
BRANCH   1   2
HETATM    2  C   UNL     1      -9.798  11.284  67.293  1.00  0.00    -0.182 A  
HETATM    3  H   UNL     1     -11.265   9.838  67.675  1.00  0.00     0.000 HD 
HETATM    4  N   UNL     1     -10.523  10.216  67.085  1.00  0.00    -0.238 NA 
HETATM    5  N   UNL     1      -8.988  11.700  66.260  1.00  0.00    -0.204 NA 
HETATM    6  C   UNL     1      -8.970  10.659  65.265  1.00  0.00    -0.190 A  
HETATM    7  C   UNL     1     -10.021   9.678  65.794  1.00  0.00    -0.272 A  
ENDBRANCH   1   2
BRANCH   1   8
HETATM    8  N   UNL     1     -10.801  12.861  68.829  1.00  0.00    -0.253 NA 
BRANCH   8   9
HETATM    9  C   UNL     1     -11.696  12.740  69.880  1.00  0.00    -0.251 A  
HETATM   10  C   UNL     1     -12.078  11.507  70.420  1.00  0.00    -0.471 A  
HETATM   11  C   UNL     1     -12.956  11.428  71.507  1.00  0.00    -0.505 A  
HETATM   12  C   UNL     1     -13.151  13.823  71.524  1.00  0.00    -0.435 A  
HETATM   13  C   UNL     1     -12.261  13.891  70.451  1.00  0.00    -0.438 A  
HETATM   14  C   UNL     1     -13.496  12.588  72.060  1.00  0.00    -0.486 A  
ENDBRANCH   8   9
BRANCH   8  15
HETATM   15  C   UNL     1     -10.656  14.213  68.222  1.00  0.00    -0.251 C  
BRANCH  15  16
HETATM   16  C   UNL     1     -11.286  14.369  66.850  1.00  0.00    -0.340 A  
HETATM   17  C   UNL     1     -12.239  14.344  64.212  1.00  0.00    -0.450 A  
HETATM   18  C   UNL     1     -12.283  13.463  66.457  1.00  0.00    -0.414 A  
HETATM   19  C   UNL     1     -12.747  13.440  65.142  1.00  0.00    -0.459 A  
HETATM   20  C   UNL     1     -11.336  15.323  64.617  1.00  0.00    -0.364 A  
HETATM   21  C   UNL     1     -10.889  15.355  65.937  1.00  0.00    -0.328 A  
ENDBRANCH  15  16
ENDBRANCH   8  15
ENDBRANCH   1   8
TORSDOF 5
ENDMDL
MODEL       65
REMARK 921   NORMALIZED FREE ENERGY PREDICTED BY IDOCK:   -5.21 KCAL/MOL
REMARK 922        TOTAL FREE ENERGY PREDICTED BY IDOCK:   -7.33 KCAL/MOL
REMARK 923 INTER-LIGAND FREE ENERGY PREDICTED BY IDOCK:   -6.38 KCAL/MOL
REMARK 924 INTRA-LIGAND FREE ENERGY PREDICTED BY IDOCK:   -0.95 KCAL/MOL
REMARK 927      BINDING AFFINITY PREDICTED BY RF-SCORE:    0.00 PKD
ROOT
HETATM    1  C   UNL     1     -10.171  15.528  69.753  1.00  0.00    -0.294 C  
ENDROOT
BRANCH   1   2
HETATM    2  C   UNL     1      -8.893  15.581  68.918  1.00  0.00    -0.217 A  
HETATM    3  H   UNL     1      -8.252  13.595  69.100  1.00  0.00     0.000 HD 
HETATM    4  N   UNL     1      -8.067  14.569  68.860  1.00  0.00    -0.145 NA 
HETATM    5  N   UNL     1      -8.470  16.767  68.361  1.00  0.00    -0.221 NA 
HETATM    6  C   UNL     1      -7.066  16.639  68.063  1.00  0.00    -0.148 A  
HETATM    7  C   UNL     1      -6.798  15.161  68.363  1.00  0.00    -0.109 A  
ENDBRANCH   1   2
BRANCH   1   8
HETATM    8  N   UNL     1     -11.113  14.631  69.060  1.00  0.00    -0.247 NA 
BRANCH   8   9
HETATM    9  C   UNL     1     -11.645  13.524  69.702  1.00  0.00    -0.275 A  
HETATM   10  C   UNL     1     -11.497  12.218  69.221  1.00  0.00    -0.352 A  
HETATM   11  C   UNL     1     -12.017  11.122  69.918  1.00  0.00    -0.439 A  
HETATM   12  C   UNL     1     -12.907  12.605  71.587  1.00  0.00    -0.367 A  
HETATM   13  C   UNL     1     -12.370  13.689  70.892  1.00  0.00    -0.450 A  
HETATM   14  C   UNL     1     -12.725  11.314  71.104  1.00  0.00    -0.492 A  
ENDBRANCH   8   9
BRANCH   8  15
HETATM   15  C   UNL     1     -11.900  15.194  67.928  1.00  0.00    -0.170 C  
BRANCH  15  16
HETATM   16  C   UNL     1     -11.649  14.535  66.585  1.00  0.00    -0.385 A  
HETATM   17  C   UNL     1     -11.133  12.986  64.303  1.00  0.00    -0.418 A  
HETATM   18  C   UNL     1     -12.644  13.709  66.039  1.00  0.00    -0.441 A  
HETATM   19  C   UNL     1     -12.384  12.928  64.913  1.00  0.00    -0.532 A  
HETATM   20  C   UNL     1     -10.178  13.888  64.763  1.00  0.00    -0.353 A  
HETATM   21  C   UNL     1     -10.447  14.682  65.877  1.00  0.00    -0.325 A  
ENDBRANCH  15  16
ENDBRANCH   8  15
ENDBRANCH   1   8
TORSDOF 5
ENDMDL
MODEL       66
REMARK 921   NORMALIZED FREE ENERGY PREDICTED BY IDOCK:   -5.20 KCAL/MOL
REMARK 922        TOTAL FREE ENERGY PREDICTED BY IDOCK:   -7.31 KCAL/MOL
REMARK 923 INTER-LIGAND FREE ENERGY PREDICTED BY IDOCK:   -6.51 KCAL/MOL
REMARK 924 INTRA-LIGAND FREE ENERGY PREDICTED BY IDOCK:   -0.80 KCAL/MOL
REMARK 927      BINDING AFFINITY PREDICTED BY RF-SCORE:    0.00 PKD
ROOT
HETATM    1  C   UNL     1     -10.196  11.665  68.399  1.00  0.00    -0.207 C  
ENDROOT
BRANCH   1   2
HETATM    2  C   UNL     1     -11.067  10.845  69.350  1.00  0.00    -0.260 A  
HETATM    3  H   UNL     1     -12.971  11.446  68.715  1.00  0.00     0.000 HD 
HETATM    4  N   UNL     1     -12.363  11.007  69.407  1.00  0.00    -0.369 NA 
HETATM    5  N   UNL     1     -10.491  10.054  70.318  1.00  0.00    -0.285 NA 
HETATM    6  C   UNL     1     -11.486   9.798  71.328  1.00  0.00    -0.385 A  
HETATM    7  C   UNL     1     -12.749  10.404  70.709  1.00  0.00    -0.371 A  
ENDBRANCH   1   2
BRANCH   1   8
HETATM    8  N   UNL     1     -10.177  10.963  67.103  1.00  0.00    -0.201 NA 
BRANCH   8   9
HETATM    9  C   UNL     1     -10.839  11.482  66.002  1.00  0.00    -0.276 A  
HETATM   10  C   UNL     1     -11.889  12.400  66.105  1.00  0.00    -0.442 A  
HETATM   11  C   UNL     1     -12.508  12.930  64.967  1.00  0.00    -0.553 A  
HETATM   12  C   UNL     1     -11.079  11.596  63.569  1.00  0.00    -0.476 A  
HETATM   13  C   UNL     1     -10.459  11.087  64.710  1.00  0.00    -0.384 A  
HETATM   14  C   UNL     1     -12.104  12.526  63.695  1.00  0.00    -0.642 A  
ENDBRANCH   8   9
BRANCH   8  15
HETATM   15  C   UNL     1      -9.037  10.044  66.831  1.00  0.00    -0.139 C  
BRANCH  15  16
HETATM   16  C   UNL     1      -9.389   8.567  66.849  1.00  0.00    -0.219 A  
HETATM   17  C   UNL     1     -10.100   5.876  66.498  1.00  0.00    -0.206 A  
HETATM   18  C   UNL     1      -8.472   7.647  66.317  1.00  0.00    -0.140 A  
HETATM   19  C   UNL     1      -8.830   6.312  66.128  1.00  0.00    -0.160 A  
HETATM   20  C   UNL     1     -10.976   6.751  67.134  1.00  0.00    -0.458 A  
HETATM   21  C   UNL     1     -10.609   8.080  67.339  1.00  0.00    -0.337 A  
ENDBRANCH  15  16
ENDBRANCH   8  15
ENDBRANCH   1   8
TORSDOF 5
ENDMDL
MODEL       67
REMARK 921   NORMALIZED FREE ENERGY PREDICTED BY IDOCK:   -5.19 KCAL/MOL
REMARK 922        TOTAL FREE ENERGY PREDICTED BY IDOCK:   -7.30 KCAL/MOL
REMARK 923 INTER-LIGAND FREE ENERGY PREDICTED BY IDOCK:   -6.39 KCAL/MOL
REMARK 924 INTRA-LIGAND FREE ENERGY PREDICTED BY IDOCK:   -0.91 KCAL/MOL
REMARK 927      BINDING AFFINITY PREDICTED BY RF-SCORE:    0.00 PKD
ROOT
HETATM    1  C   UNL     1      -9.318  10.183  68.724  1.00  0.00    -0.168 C  
ENDROOT
BRANCH   1   2
HETATM    2  C   UNL     1      -9.523   9.115  67.652  1.00  0.00    -0.140 A  
HETATM    3  H   UNL     1     -11.537   8.644  67.983  1.00  0.00     0.000 HD 
HETATM    4  N   UNL     1     -10.629   8.422  67.574  1.00  0.00    -0.246 NA 
HETATM    5  N   UNL     1      -8.473   8.709  66.859  1.00  0.00    -0.111 NA 
HETATM    6  C   UNL     1      -8.808   7.421  66.308  1.00  0.00    -0.159 A  
HETATM    7  C   UNL     1     -10.261   7.238  66.755  1.00  0.00    -0.235 A  
ENDBRANCH   1   2
BRANCH   1   8
HETATM    8  N   UNL     1     -10.338  11.225  68.509  1.00  0.00    -0.195 NA 
BRANCH   8   9
HETATM    9  C   UNL     1     -11.232  11.565  69.513  1.00  0.00    -0.236 A  
HETATM   10  C   UNL     1     -11.663  12.876  69.740  1.00  0.00    -0.351 A  
HETATM   11  C   UNL     1     -12.596  13.174  70.739  1.00  0.00    -0.338 A  
HETATM   12  C   UNL     1     -12.662  10.855  71.368  1.00  0.00    -0.539 A  
HETATM   13  C   UNL     1     -11.744  10.568  70.357  1.00  0.00    -0.434 A  
HETATM   14  C   UNL     1     -13.096  12.162  71.558  1.00  0.00    -0.357 A  
ENDBRANCH   8   9
BRANCH   8  15
HETATM   15  C   UNL     1     -10.062  12.261  67.476  1.00  0.00    -0.201 C  
BRANCH  15  16
HETATM   16  C   UNL     1     -10.871  12.121  66.199  1.00  0.00    -0.317 A  
HETATM   17  C   UNL     1     -12.115  12.120  63.685  1.00  0.00    -0.648 A  
HETATM   18  C   UNL     1     -10.329  11.388  65.132  1.00  0.00    -0.344 A  
HETATM   19  C   UNL     1     -10.940  11.398  63.878  1.00  0.00    -0.442 A  
HETATM   20  C   UNL     1     -12.724  12.755  64.763  1.00  0.00    -0.469 A  
HETATM   21  C   UNL     1     -12.123  12.727  66.020  1.00  0.00    -0.458 A  
ENDBRANCH  15  16
ENDBRANCH   8  15
ENDBRANCH   1   8
TORSDOF 5
ENDMDL
MODEL       68
REMARK 921   NORMALIZED FREE ENERGY PREDICTED BY IDOCK:   -5.17 KCAL/MOL
REMARK 922        TOTAL FREE ENERGY PREDICTED BY IDOCK:   -7.27 KCAL/MOL
REMARK 923 INTER-LIGAND FREE ENERGY PREDICTED BY IDOCK:   -6.48 KCAL/MOL
REMARK 924 INTRA-LIGAND FREE ENERGY PREDICTED BY IDOCK:   -0.79 KCAL/MOL
REMARK 927      BINDING AFFINITY PREDICTED BY RF-SCORE:    0.00 PKD
ROOT
HETATM    1  C   UNL     1     -11.702  14.487  67.264  1.00  0.00    -0.406 C  
ENDROOT
BRANCH   1   2
HETATM    2  C   UNL     1     -11.796  14.429  68.787  1.00  0.00    -0.325 A  
HETATM    3  H   UNL     1     -11.635  12.362  69.087  1.00  0.00     0.000 HD 
HETATM    4  N   UNL     1     -11.877  13.292  69.429  1.00  0.00    -0.319 NA 
HETATM    5  N   UNL     1     -12.001  15.576  69.520  1.00  0.00    -0.358 NA 
HETATM    6  C   UNL     1     -12.514  15.192  70.810  1.00  0.00    -0.372 A  
HETATM    7  C   UNL     1     -12.403  13.664  70.768  1.00  0.00    -0.371 A  
ENDBRANCH   1   2
BRANCH   1   8
HETATM    8  N   UNL     1     -10.312  14.838  66.921  1.00  0.00    -0.264 NA 
BRANCH   8   9
HETATM    9  C   UNL     1      -9.296  13.901  67.019  1.00  0.00    -0.251 A  
HETATM   10  C   UNL     1      -9.478  12.545  66.731  1.00  0.00    -0.231 A  
HETATM   11  C   UNL     1      -8.417  11.635  66.804  1.00  0.00    -0.177 A  
HETATM   12  C   UNL     1      -6.952  13.403  67.516  1.00  0.00    -0.153 A  
HETATM   13  C   UNL     1      -8.013  14.303  67.422  1.00  0.00    -0.211 A  
HETATM   14  C   UNL     1      -7.151  12.064  67.200  1.00  0.00    -0.130 A  
ENDBRANCH   8   9
BRANCH   8  15
HETATM   15  C   UNL     1     -10.097  15.968  65.975  1.00  0.00    -0.341 C  
BRANCH  15  16
HETATM   16  C   UNL     1     -10.088  17.344  66.614  1.00  0.00    -0.317 A  
HETATM   17  C   UNL     1     -10.399  19.776  67.978  1.00  0.00    -0.567 A  
HETATM   18  C   UNL     1      -9.719  17.461  67.963  1.00  0.00    -0.281 A  
HETATM   19  C   UNL     1      -9.887  18.666  68.646  1.00  0.00    -0.427 A  
HETATM   20  C   UNL     1     -10.658  19.705  66.613  1.00  0.00    -0.599 A  
HETATM   21  C   UNL     1     -10.471  18.505  65.928  1.00  0.00    -0.379 A  
ENDBRANCH  15  16
ENDBRANCH   8  15
ENDBRANCH   1   8
TORSDOF 5
ENDMDL
MODEL       69
REMARK 921   NORMALIZED FREE ENERGY PREDICTED BY IDOCK:   -5.16 KCAL/MOL
REMARK 922        TOTAL FREE ENERGY PREDICTED BY IDOCK:   -7.26 KCAL/MOL
REMARK 923 INTER-LIGAND FREE ENERGY PREDICTED BY IDOCK:   -6.42 KCAL/MOL
REMARK 924 INTRA-LIGAND FREE ENERGY PREDICTED BY IDOCK:   -0.84 KCAL/MOL
REMARK 927      BINDING AFFINITY PREDICTED BY RF-SCORE:    0.00 PKD
ROOT
HETATM    1  C   UNL     1      -9.799  11.742  67.440  1.00  0.00    -0.178 C  
ENDROOT
BRANCH   1   2
HETATM    2  C   UNL     1     -10.111  11.401  65.984  1.00  0.00    -0.234 A  
HETATM    3  H   UNL     1      -9.974   9.312  66.058  1.00  0.00     0.000 HD 
HETATM    4  N   UNL     1     -10.003  10.182  65.525  1.00  0.00    -0.292 NA 
HETATM    5  N   UNL     1     -10.321  12.401  65.061  1.00  0.00    -0.287 NA 
HETATM    6  C   UNL     1     -10.115  11.842  63.749  1.00  0.00    -0.398 A  
HETATM    7  C   UNL     1      -9.935  10.351  64.050  1.00  0.00    -0.235 A  
ENDBRANCH   1   2
BRANCH   1   8
HETATM    8  N   UNL     1     -11.065  11.668  68.191  1.00  0.00    -0.224 NA 
BRANCH   8   9
HETATM    9  C   UNL     1     -11.164  10.909  69.347  1.00  0.00    -0.272 A  
HETATM   10  C   UNL     1     -12.281  10.941  70.187  1.00  0.00    -0.423 A  
HETATM   11  C   UNL     1     -12.359  10.131  71.326  1.00  0.00    -0.501 A  
HETATM   12  C   UNL     1     -10.168   9.261  70.858  1.00  0.00    -0.371 A  
HETATM   13  C   UNL     1     -10.109  10.061  69.716  1.00  0.00    -0.284 A  
HETATM   14  C   UNL     1     -11.300   9.290  71.664  1.00  0.00    -0.467 A  
ENDBRANCH   8   9
BRANCH   8  15
HETATM   15  C   UNL     1     -12.024  12.797  68.044  1.00  0.00    -0.264 C  
BRANCH  15  16
HETATM   16  C   UNL     1     -11.457  14.165  68.377  1.00  0.00    -0.334 A  
HETATM   17  C   UNL     1     -10.779  16.802  69.055  1.00  0.00    -0.331 A  
HETATM   18  C   UNL     1     -11.415  14.571  69.720  1.00  0.00    -0.327 A  
HETATM   19  C   UNL     1     -11.092  15.886  70.057  1.00  0.00    -0.356 A  
HETATM   20  C   UNL     1     -10.702  16.382  67.730  1.00  0.00    -0.328 A  
HETATM   21  C   UNL     1     -11.007  15.062  67.398  1.00  0.00    -0.315 A  
ENDBRANCH  15  16
ENDBRANCH   8  15
ENDBRANCH   1   8
TORSDOF 5
ENDMDL
MODEL       70
REMARK 921   NORMALIZED FREE ENERGY PREDICTED BY IDOCK:   -5.14 KCAL/MOL
REMARK 922        TOTAL FREE ENERGY PREDICTED BY IDOCK:   -7.24 KCAL/MOL
REMARK 923 INTER-LIGAND FREE ENERGY PREDICTED BY IDOCK:   -6.46 KCAL/MOL
REMARK 924 INTRA-LIGAND FREE ENERGY PREDICTED BY IDOCK:   -0.77 KCAL/MOL
REMARK 927      BINDING AFFINITY PREDICTED BY RF-SCORE:    0.00 PKD
ROOT
HETATM    1  C   UNL     1     -10.640  15.837  65.451  1.00  0.00    -0.421 C  
ENDROOT
BRANCH   1   2
HETATM    2  C   UNL     1     -11.218  14.465  65.111  1.00  0.00    -0.359 A  
HETATM    3  H   UNL     1     -12.857  15.036  63.938  1.00  0.00     0.000 HD 
HETATM    4  N   UNL     1     -12.360  14.335  64.487  1.00  0.00    -0.615 NA 
HETATM    5  N   UNL     1     -10.654  13.320  65.628  1.00  0.00    -0.278 NA 
HETATM    6  C   UNL     1     -11.637  12.269  65.552  1.00  0.00    -0.371 A  
HETATM    7  C   UNL     1     -12.769  12.932  64.760  1.00  0.00    -0.370 A  
ENDBRANCH   1   2
BRANCH   1   8
HETATM    8  N   UNL     1     -10.216  15.800  66.862  1.00  0.00    -0.274 NA 
BRANCH   8   9
HETATM    9  C   UNL     1      -8.879  15.659  67.200  1.00  0.00    -0.208 A  
HETATM   10  C   UNL     1      -8.408  14.655  68.051  1.00  0.00    -0.146 A  
HETATM   11  C   UNL     1      -7.045  14.523  68.339  1.00  0.00    -0.111 A  
HETATM   12  C   UNL     1      -6.571  16.442  66.973  1.00  0.00    -0.225 A  
HETATM   13  C   UNL     1      -7.931  16.553  66.679  1.00  0.00    -0.320 A  
HETATM   14  C   UNL     1      -6.123  15.420  67.800  1.00  0.00    -0.173 A  
ENDBRANCH   8   9
BRANCH   8  15
HETATM   15  C   UNL     1     -11.099  16.452  67.867  1.00  0.00    -0.249 C  
BRANCH  15  16
HETATM   16  C   UNL     1     -11.405  15.609  69.092  1.00  0.00    -0.341 A  
HETATM   17  C   UNL     1     -12.348  14.114  71.270  1.00  0.00    -0.447 A  
HETATM   18  C   UNL     1     -11.882  14.301  68.910  1.00  0.00    -0.372 A  
HETATM   19  C   UNL     1     -12.365  13.563  69.991  1.00  0.00    -0.315 A  
HETATM   20  C   UNL     1     -11.771  15.362  71.480  1.00  0.00    -0.467 A  
HETATM   21  C   UNL     1     -11.271  16.091  70.401  1.00  0.00    -0.401 A  
ENDBRANCH  15  16
ENDBRANCH   8  15
ENDBRANCH   1   8
TORSDOF 5
ENDMDL
MODEL       71
REMARK 921   NORMALIZED FREE ENERGY PREDICTED BY IDOCK:   -5.12 KCAL/MOL
REMARK 922        TOTAL FREE ENERGY PREDICTED BY IDOCK:   -7.21 KCAL/MOL
REMARK 923 INTER-LIGAND FREE ENERGY PREDICTED BY IDOCK:   -6.37 KCAL/MOL
REMARK 924 INTRA-LIGAND FREE ENERGY PREDICTED BY IDOCK:   -0.84 KCAL/MOL
REMARK 927      BINDING AFFINITY PREDICTED BY RF-SCORE:    0.00 PKD
ROOT
HETATM    1  C   UNL     1     -11.861  12.487  68.523  1.00  0.00    -0.295 C  
ENDROOT
BRANCH   1   2
HETATM    2  C   UNL     1     -11.673  11.181  69.292  1.00  0.00    -0.331 A  
HETATM    3  H   UNL     1     -12.729  11.631  71.044  1.00  0.00     0.000 HD 
HETATM    4  N   UNL     1     -12.063  11.052  70.533  1.00  0.00    -0.348 NA 
HETATM    5  N   UNL     1     -10.908  10.164  68.767  1.00  0.00    -0.217 NA 
HETATM    6  C   UNL     1     -10.517   9.300  69.851  1.00  0.00    -0.227 A  
HETATM    7  C   UNL     1     -11.313   9.869  71.030  1.00  0.00    -0.386 A  
ENDBRANCH   1   2
BRANCH   1   8
HETATM    8  N   UNL     1     -10.850  12.517  67.450  1.00  0.00    -0.234 NA 
BRANCH   8   9
HETATM    9  C   UNL     1     -11.225  12.460  66.117  1.00  0.00    -0.322 A  
HETATM   10  C   UNL     1     -10.566  11.669  65.171  1.00  0.00    -0.343 A  
HETATM   11  C   UNL     1     -10.998  11.610  63.841  1.00  0.00    -0.478 A  
HETATM   12  C   UNL     1     -12.744  13.185  64.339  1.00  0.00    -0.235 A  
HETATM   13  C   UNL     1     -12.314  13.223  65.666  1.00  0.00    -0.521 A  
HETATM   14  C   UNL     1     -12.089  12.371  63.423  1.00  0.00    -0.620 A  
ENDBRANCH   8   9
BRANCH   8  15
HETATM   15  C   UNL     1      -9.537  13.150  67.753  1.00  0.00    -0.208 C  
BRANCH  15  16
HETATM   16  C   UNL     1      -9.501  14.658  67.586  1.00  0.00    -0.205 A  
HETATM   17  C   UNL     1      -9.046  17.413  67.315  1.00  0.00    -0.239 A  
HETATM   18  C   UNL     1      -9.046  15.193  66.371  1.00  0.00    -0.331 A  
HETATM   19  C   UNL     1      -8.806  16.561  66.240  1.00  0.00    -0.364 A  
HETATM   20  C   UNL     1      -9.608  16.911  68.486  1.00  0.00    -0.262 A  
HETATM   21  C   UNL     1      -9.865  15.547  68.607  1.00  0.00    -0.207 A  
ENDBRANCH  15  16
ENDBRANCH   8  15
ENDBRANCH   1   8
TORSDOF 5
ENDMDL
MODEL       72
REMARK 921   NORMALIZED FREE ENERGY PREDICTED BY IDOCK:   -5.10 KCAL/MOL
REMARK 922        TOTAL FREE ENERGY PREDICTED BY IDOCK:   -7.18 KCAL/MOL
REMARK 923 INTER-LIGAND FREE ENERGY PREDICTED BY IDOCK:   -6.54 KCAL/MOL
REMARK 924 INTRA-LIGAND FREE ENERGY PREDICTED BY IDOCK:   -0.64 KCAL/MOL
REMARK 927      BINDING AFFINITY PREDICTED BY RF-SCORE:    0.00 PKD
ROOT
HETATM    1  C   UNL     1     -12.281  13.748  67.219  1.00  0.00    -0.278 C  
ENDROOT
BRANCH   1   2
HETATM    2  C   UNL     1     -11.980  12.736  68.323  1.00  0.00    -0.229 A  
HETATM    3  H   UNL     1     -11.989  10.962  67.209  1.00  0.00     0.000 HD 
HETATM    4  N   UNL     1     -12.023  11.447  68.105  1.00  0.00    -0.630 NA 
HETATM    5  N   UNL     1     -11.850  13.145  69.631  1.00  0.00    -0.320 NA 
HETATM    6  C   UNL     1     -12.049  11.996  70.476  1.00  0.00    -0.311 A  
HETATM    7  C   UNL     1     -12.132  10.851  69.462  1.00  0.00    -0.309 A  
ENDBRANCH   1   2
BRANCH   1   8
HETATM    8  N   UNL     1     -11.001  14.360  66.821  1.00  0.00    -0.308 NA 
BRANCH   8   9
HETATM    9  C   UNL     1     -10.777  15.717  66.993  1.00  0.00    -0.314 A  
HETATM   10  C   UNL     1     -10.816  16.345  68.242  1.00  0.00    -0.347 A  
HETATM   11  C   UNL     1     -10.546  17.711  68.380  1.00  0.00    -0.318 A  
HETATM   12  C   UNL     1     -10.242  17.890  66.002  1.00  0.00    -0.297 A  
HETATM   13  C   UNL     1     -10.496  16.524  65.879  1.00  0.00    -0.335 A  
HETATM   14  C   UNL     1     -10.261  18.487  67.257  1.00  0.00    -0.400 A  
ENDBRANCH   8   9
BRANCH   8  15
HETATM   15  C   UNL     1      -9.800  13.482  66.768  1.00  0.00    -0.267 C  
BRANCH  15  16
HETATM   16  C   UNL     1      -9.753  12.535  65.582  1.00  0.00    -0.169 A  
HETATM   17  C   UNL     1     -10.046  10.730  63.455  1.00  0.00    -0.364 A  
HETATM   18  C   UNL     1     -10.311  12.949  64.363  1.00  0.00    -0.393 A  
HETATM   19  C   UNL     1     -10.471  12.048  63.310  1.00  0.00    -0.403 A  
HETATM   20  C   UNL     1      -9.385  10.338  64.615  1.00  0.00    -0.320 A  
HETATM   21  C   UNL     1      -9.209  11.245  65.659  1.00  0.00    -0.231 A  
ENDBRANCH  15  16
ENDBRANCH   8  15
ENDBRANCH   1   8
TORSDOF 5
ENDMDL
MODEL       73
REMARK 921   NORMALIZED FREE ENERGY PREDICTED BY IDOCK:   -5.09 KCAL/MOL
REMARK 922        TOTAL FREE ENERGY PREDICTED BY IDOCK:   -7.17 KCAL/MOL
REMARK 923 INTER-LIGAND FREE ENERGY PREDICTED BY IDOCK:   -6.45 KCAL/MOL
REMARK 924 INTRA-LIGAND FREE ENERGY PREDICTED BY IDOCK:   -0.72 KCAL/MOL
REMARK 927      BINDING AFFINITY PREDICTED BY RF-SCORE:    0.00 PKD
ROOT
HETATM    1  C   UNL     1     -10.728  11.241  66.751  1.00  0.00    -0.275 C  
ENDROOT
BRANCH   1   2
HETATM    2  C   UNL     1     -11.220  12.337  65.808  1.00  0.00    -0.337 A  
HETATM    3  H   UNL     1      -9.450  12.748  64.765  1.00  0.00     0.000 HD 
HETATM    4  N   UNL     1     -10.398  13.005  65.041  1.00  0.00    -0.317 NA 
HETATM    5  N   UNL     1     -12.517  12.793  65.882  1.00  0.00    -0.534 NA 
HETATM    6  C   UNL     1     -12.566  14.090  65.256  1.00  0.00    -0.470 A  
HETATM    7  C   UNL     1     -11.160  14.223  64.661  1.00  0.00    -0.363 A  
ENDBRANCH   1   2
BRANCH   1   8
HETATM    8  N   UNL     1     -10.820  11.766  68.125  1.00  0.00    -0.206 NA 
BRANCH   8   9
HETATM    9  C   UNL     1     -10.245  12.981  68.463  1.00  0.00    -0.215 A  
HETATM   10  C   UNL     1      -8.890  13.266  68.264  1.00  0.00    -0.168 A  
HETATM   11  C   UNL     1      -8.355  14.519  68.583  1.00  0.00    -0.164 A  
HETATM   12  C   UNL     1     -10.509  15.238  69.372  1.00  0.00    -0.253 A  
HETATM   13  C   UNL     1     -11.035  13.991  69.033  1.00  0.00    -0.287 A  
HETATM   14  C   UNL     1      -9.165  15.508  69.141  1.00  0.00    -0.246 A  
ENDBRANCH   8   9
BRANCH   8  15
HETATM   15  C   UNL     1     -11.956  11.302  68.968  1.00  0.00    -0.325 C  
BRANCH  15  16
HETATM   16  C   UNL     1     -11.590  10.274  70.023  1.00  0.00    -0.349 A  
HETATM   17  C   UNL     1     -10.918   8.671  72.225  1.00  0.00    -0.392 A  
HETATM   18  C   UNL     1     -12.573   9.863  70.937  1.00  0.00    -0.392 A  
HETATM   19  C   UNL     1     -12.237   9.078  72.040  1.00  0.00    -0.446 A  
HETATM   20  C   UNL     1      -9.958   8.972  71.264  1.00  0.00    -0.381 A  
HETATM   21  C   UNL     1     -10.300   9.741  70.152  1.00  0.00    -0.335 A  
ENDBRANCH  15  16
ENDBRANCH   8  15
ENDBRANCH   1   8
TORSDOF 5
ENDMDL
MODEL       74
REMARK 921   NORMALIZED FREE ENERGY PREDICTED BY IDOCK:   -5.09 KCAL/MOL
REMARK 922        TOTAL FREE ENERGY PREDICTED BY IDOCK:   -7.17 KCAL/MOL
REMARK 923 INTER-LIGAND FREE ENERGY PREDICTED BY IDOCK:   -6.70 KCAL/MOL
REMARK 924 INTRA-LIGAND FREE ENERGY PREDICTED BY IDOCK:   -0.47 KCAL/MOL
REMARK 927      BINDING AFFINITY PREDICTED BY RF-SCORE:    0.00 PKD
ROOT
HETATM    1  C   UNL     1     -10.099  14.517  69.075  1.00  0.00    -0.183 C  
ENDROOT
BRANCH   1   2
HETATM    2  C   UNL     1     -11.367  14.973  69.794  1.00  0.00    -0.283 A  
HETATM    3  H   UNL     1     -10.774  16.885  70.410  1.00  0.00     0.000 HD 
HETATM    4  N   UNL     1     -11.409  16.090  70.473  1.00  0.00    -0.381 NA 
HETATM    5  N   UNL     1     -12.445  14.125  69.917  1.00  0.00    -0.319 NA 
HETATM    6  C   UNL     1     -13.263  14.604  71.001  1.00  0.00    -0.374 A  
HETATM    7  C   UNL     1     -12.595  15.936  71.356  1.00  0.00    -0.381 A  
ENDBRANCH   1   2
BRANCH   1   8
HETATM    8  N   UNL     1     -10.498  13.517  68.068  1.00  0.00    -0.236 NA 
BRANCH   8   9
HETATM    9  C   UNL     1     -11.068  13.905  66.866  1.00  0.00    -0.301 A  
HETATM   10  C   UNL     1     -12.328  13.470  66.443  1.00  0.00    -0.413 A  
HETATM   11  C   UNL     1     -12.886  13.915  65.238  1.00  0.00    -0.437 A  
HETATM   12  C   UNL     1     -10.909  15.211  64.802  1.00  0.00    -0.378 A  
HETATM   13  C   UNL     1     -10.371  14.774  66.013  1.00  0.00    -0.318 A  
HETATM   14  C   UNL     1     -12.174  14.785  64.414  1.00  0.00    -0.447 A  
ENDBRANCH   8   9
BRANCH   8  15
HETATM   15  C   UNL     1      -9.806  12.199  68.090  1.00  0.00    -0.207 C  
BRANCH  15  16
HETATM   16  C   UNL     1     -10.399  11.181  69.047  1.00  0.00    -0.214 A  
HETATM   17  C   UNL     1     -11.513   9.594  71.075  1.00  0.00    -0.444 A  
HETATM   18  C   UNL     1     -11.774  11.234  69.325  1.00  0.00    -0.403 A  
HETATM   19  C   UNL     1     -12.326  10.456  70.342  1.00  0.00    -0.370 A  
HETATM   20  C   UNL     1     -10.172   9.446  70.732  1.00  0.00    -0.368 A  
HETATM   21  C   UNL     1      -9.627  10.211  69.702  1.00  0.00    -0.237 A  
ENDBRANCH  15  16
ENDBRANCH   8  15
ENDBRANCH   1   8
TORSDOF 5
ENDMDL
MODEL       75
REMARK 921   NORMALIZED FREE ENERGY PREDICTED BY IDOCK:   -5.09 KCAL/MOL
REMARK 922        TOTAL FREE ENERGY PREDICTED BY IDOCK:   -7.16 KCAL/MOL
REMARK 923 INTER-LIGAND FREE ENERGY PREDICTED BY IDOCK:   -6.31 KCAL/MOL
REMARK 924 INTRA-LIGAND FREE ENERGY PREDICTED BY IDOCK:   -0.85 KCAL/MOL
REMARK 927      BINDING AFFINITY PREDICTED BY RF-SCORE:    0.00 PKD
ROOT
HETATM    1  C   UNL     1     -10.989  10.154  70.623  1.00  0.00    -0.285 C  
ENDROOT
BRANCH   1   2
HETATM    2  C   UNL     1     -11.637   8.773  70.707  1.00  0.00    -0.251 A  
HETATM    3  H   UNL     1     -13.324   9.228  71.862  1.00  0.00     0.000 HD 
HETATM    4  N   UNL     1     -12.676   8.546  71.467  1.00  0.00    -0.317 NA 
HETATM    5  N   UNL     1     -11.025   7.678  70.140  1.00  0.00    -0.256 NA 
HETATM    6  C   UNL     1     -11.570   6.497  70.759  1.00  0.00    -0.377 A  
HETATM    7  C   UNL     1     -12.699   7.068  71.624  1.00  0.00    -0.377 A  
ENDBRANCH   1   2
BRANCH   1   8
HETATM    8  N   UNL     1     -11.948  11.051  69.954  1.00  0.00    -0.321 NA 
BRANCH   8   9
HETATM    9  C   UNL     1     -12.408  12.198  70.581  1.00  0.00    -0.295 A  
HETATM   10  C   UNL     1     -13.146  12.175  71.769  1.00  0.00    -0.457 A  
HETATM   11  C   UNL     1     -13.560  13.358  72.393  1.00  0.00    -0.708 A  
HETATM   12  C   UNL     1     -12.557  14.641  70.625  1.00  0.00    -0.419 A  
HETATM   13  C   UNL     1     -12.135  13.456  70.022  1.00  0.00    -0.404 A  
HETATM   14  C   UNL     1     -13.267  14.594  71.819  1.00  0.00    -0.434 A  
ENDBRANCH   8   9
BRANCH   8  15
HETATM   15  C   UNL     1     -11.986  11.038  68.465  1.00  0.00    -0.135 C  
BRANCH  15  16
HETATM   16  C   UNL     1     -10.638  10.848  67.794  1.00  0.00    -0.255 A  
HETATM   17  C   UNL     1      -8.288  10.722  66.267  1.00  0.00    -0.160 A  
HETATM   18  C   UNL     1      -9.725  11.914  67.794  1.00  0.00    -0.189 A  
HETATM   19  C   UNL     1      -8.564  11.858  67.024  1.00  0.00    -0.176 A  
HETATM   20  C   UNL     1      -9.125   9.613  66.350  1.00  0.00    -0.191 A  
HETATM   21  C   UNL     1     -10.275   9.664  67.136  1.00  0.00    -0.305 A  
ENDBRANCH  15  16
ENDBRANCH   8  15
ENDBRANCH   1   8
TORSDOF 5
ENDMDL
MODEL       76
REMARK 921   NORMALIZED FREE ENERGY PREDICTED BY IDOCK:   -5.06 KCAL/MOL
REMARK 922        TOTAL FREE ENERGY PREDICTED BY IDOCK:   -7.13 KCAL/MOL
REMARK 923 INTER-LIGAND FREE ENERGY PREDICTED BY IDOCK:   -6.36 KCAL/MOL
REMARK 924 INTRA-LIGAND FREE ENERGY PREDICTED BY IDOCK:   -0.76 KCAL/MOL
REMARK 927      BINDING AFFINITY PREDICTED BY RF-SCORE:    0.00 PKD
ROOT
HETATM    1  C   UNL     1     -11.207  15.108  67.485  1.00  0.00    -0.330 C  
ENDROOT
BRANCH   1   2
HETATM    2  C   UNL     1     -11.513  15.117  68.982  1.00  0.00    -0.309 A  
HETATM    3  H   UNL     1     -13.065  13.712  69.048  1.00  0.00     0.000 HD 
HETATM    4  N   UNL     1     -12.534  14.469  69.479  1.00  0.00    -0.205 NA 
HETATM    5  N   UNL     1     -10.842  15.971  69.828  1.00  0.00    -0.310 NA 
HETATM    6  C   UNL     1     -11.627  16.114  71.027  1.00  0.00    -0.393 A  
HETATM    7  C   UNL     1     -12.744  15.087  70.814  1.00  0.00    -0.381 A  
ENDBRANCH   1   2
BRANCH   1   8
HETATM    8  N   UNL     1     -10.812  13.735  67.124  1.00  0.00    -0.281 NA 
BRANCH   8   9
HETATM    9  C   UNL     1     -11.178  13.186  65.906  1.00  0.00    -0.289 A  
HETATM   10  C   UNL     1     -10.251  12.696  64.980  1.00  0.00    -0.294 A  
HETATM   11  C   UNL     1     -10.662  12.115  63.775  1.00  0.00    -0.488 A  
HETATM   12  C   UNL     1     -12.956  12.542  64.351  1.00  0.00    -0.248 A  
HETATM   13  C   UNL     1     -12.535  13.104  65.557  1.00  0.00    -0.516 A  
HETATM   14  C   UNL     1     -12.017  12.039  63.458  1.00  0.00    -0.605 A  
ENDBRANCH   8   9
BRANCH   8  15
HETATM   15  C   UNL     1      -9.604  13.166  67.782  1.00  0.00    -0.208 C  
BRANCH  15  16
HETATM   16  C   UNL     1      -9.830  11.855  68.512  1.00  0.00    -0.187 A  
HETATM   17  C   UNL     1     -10.299   9.650  70.182  1.00  0.00    -0.315 A  
HETATM   18  C   UNL     1     -11.136  11.510  68.893  1.00  0.00    -0.288 A  
HETATM   19  C   UNL     1     -11.369  10.422  69.735  1.00  0.00    -0.353 A  
HETATM   20  C   UNL     1      -9.013   9.911  69.718  1.00  0.00    -0.242 A  
HETATM   21  C   UNL     1      -8.786  10.987  68.861  1.00  0.00    -0.122 A  
ENDBRANCH  15  16
ENDBRANCH   8  15
ENDBRANCH   1   8
TORSDOF 5
ENDMDL
MODEL       77
REMARK 921   NORMALIZED FREE ENERGY PREDICTED BY IDOCK:   -5.05 KCAL/MOL
REMARK 922        TOTAL FREE ENERGY PREDICTED BY IDOCK:   -7.11 KCAL/MOL
REMARK 923 INTER-LIGAND FREE ENERGY PREDICTED BY IDOCK:   -6.49 KCAL/MOL
REMARK 924 INTRA-LIGAND FREE ENERGY PREDICTED BY IDOCK:   -0.62 KCAL/MOL
REMARK 927      BINDING AFFINITY PREDICTED BY RF-SCORE:    0.00 PKD
ROOT
HETATM    1  C   UNL     1     -11.860  11.809  67.341  1.00  0.00    -0.135 C  
ENDROOT
BRANCH   1   2
HETATM    2  C   UNL     1     -11.553  13.031  66.478  1.00  0.00    -0.356 A  
HETATM    3  H   UNL     1     -13.444  13.929  66.424  1.00  0.00     0.000 HD 
HETATM    4  N   UNL     1     -12.497  13.832  66.058  1.00  0.00    -0.459 NA 
HETATM    5  N   UNL     1     -10.295  13.215  65.948  1.00  0.00    -0.285 NA 
HETATM    6  C   UNL     1     -10.411  14.127  64.839  1.00  0.00    -0.438 A  
HETATM    7  C   UNL     1     -11.875  14.570  64.928  1.00  0.00    -0.416 A  
ENDBRANCH   1   2
BRANCH   1   8
HETATM    8  N   UNL     1     -11.183  12.002  68.636  1.00  0.00    -0.236 NA 
BRANCH   8   9
HETATM    9  C   UNL     1     -11.910  12.258  69.788  1.00  0.00    -0.318 A  
HETATM   10  C   UNL     1     -12.354  11.250  70.651  1.00  0.00    -0.477 A  
HETATM   11  C   UNL     1     -13.053  11.551  71.825  1.00  0.00    -0.503 A  
HETATM   12  C   UNL     1     -12.942  13.892  71.290  1.00  0.00    -0.414 A  
HETATM   13  C   UNL     1     -12.231  13.581  70.131  1.00  0.00    -0.400 A  
HETATM   14  C   UNL     1     -13.350  12.875  72.146  1.00  0.00    -0.615 A  
ENDBRANCH   8   9
BRANCH   8  15
HETATM   15  C   UNL     1      -9.838  11.390  68.812  1.00  0.00    -0.164 C  
BRANCH  15  16
HETATM   16  C   UNL     1      -9.597  10.131  68.000  1.00  0.00    -0.160 A  
HETATM   17  C   UNL     1      -9.337   7.989  66.207  1.00  0.00    -0.246 A  
HETATM   18  C   UNL     1      -8.611  10.148  67.001  1.00  0.00    -0.129 A  
HETATM   19  C   UNL     1      -8.491   9.090  66.100  1.00  0.00    -0.135 A  
HETATM   20  C   UNL     1     -10.239   7.907  67.263  1.00  0.00    -0.343 A  
HETATM   21  C   UNL     1     -10.345   8.957  68.174  1.00  0.00    -0.261 A  
ENDBRANCH  15  16
ENDBRANCH   8  15
ENDBRANCH   1   8
TORSDOF 5
ENDMDL
MODEL       78
REMARK 921   NORMALIZED FREE ENERGY PREDICTED BY IDOCK:   -5.04 KCAL/MOL
REMARK 922        TOTAL FREE ENERGY PREDICTED BY IDOCK:   -7.11 KCAL/MOL
REMARK 923 INTER-LIGAND FREE ENERGY PREDICTED BY IDOCK:   -6.36 KCAL/MOL
REMARK 924 INTRA-LIGAND FREE ENERGY PREDICTED BY IDOCK:   -0.75 KCAL/MOL
REMARK 927      BINDING AFFINITY PREDICTED BY RF-SCORE:    0.00 PKD
ROOT
HETATM    1  C   UNL     1     -11.480  14.463  66.726  1.00  0.00    -0.370 C  
ENDROOT
BRANCH   1   2
HETATM    2  C   UNL     1     -11.347  13.921  65.304  1.00  0.00    -0.314 A  
HETATM    3  H   UNL     1     -13.119  14.656  64.463  1.00  0.00     0.000 HD 
HETATM    4  N   UNL     1     -12.318  14.025  64.435  1.00  0.00    -0.627 NA 
HETATM    5  N   UNL     1     -10.276  13.129  64.954  1.00  0.00    -0.309 NA 
HETATM    6  C   UNL     1     -10.637  12.396  63.768  1.00  0.00    -0.452 A  
HETATM    7  C   UNL     1     -11.988  13.015  63.396  1.00  0.00    -0.520 A  
ENDBRANCH   1   2
BRANCH   1   8
HETATM    8  N   UNL     1     -10.519  15.571  66.868  1.00  0.00    -0.295 NA 
BRANCH   8   9
HETATM    9  C   UNL     1      -9.320  15.392  67.539  1.00  0.00    -0.203 A  
HETATM   10  C   UNL     1      -9.156  15.677  68.899  1.00  0.00    -0.217 A  
HETATM   11  C   UNL     1      -7.939  15.447  69.550  1.00  0.00    -0.204 A  
HETATM   12  C   UNL     1      -6.977  14.686  67.483  1.00  0.00    -0.193 A  
HETATM   13  C   UNL     1      -8.201  14.903  66.849  1.00  0.00    -0.178 A  
HETATM   14  C   UNL     1      -6.846  14.953  68.841  1.00  0.00    -0.104 A  
ENDBRANCH   8   9
BRANCH   8  15
HETATM   15  C   UNL     1     -10.567  16.663  65.856  1.00  0.00    -0.249 C  
BRANCH  15  16
HETATM   16  C   UNL     1     -10.018  17.996  66.329  1.00  0.00    -0.338 A  
HETATM   17  C   UNL     1      -8.802  20.255  67.465  1.00  0.00    -0.415 A  
HETATM   18  C   UNL     1      -8.695  18.335  66.007  1.00  0.00     0.006 A  
HETATM   19  C   UNL     1      -8.085  19.450  66.582  1.00  0.00    -0.310 A  
HETATM   20  C   UNL     1     -10.149  19.996  67.701  1.00  0.00    -0.562 A  
HETATM   21  C   UNL     1     -10.762  18.893  67.109  1.00  0.00    -0.506 A  
ENDBRANCH  15  16
ENDBRANCH   8  15
ENDBRANCH   1   8
TORSDOF 5
ENDMDL
MODEL       79
REMARK 921   NORMALIZED FREE ENERGY PREDICTED BY IDOCK:   -5.03 KCAL/MOL
REMARK 922        TOTAL FREE ENERGY PREDICTED BY IDOCK:   -7.10 KCAL/MOL
REMARK 923 INTER-LIGAND FREE ENERGY PREDICTED BY IDOCK:   -6.42 KCAL/MOL
REMARK 924 INTRA-LIGAND FREE ENERGY PREDICTED BY IDOCK:   -0.68 KCAL/MOL
REMARK 927      BINDING AFFINITY PREDICTED BY RF-SCORE:    0.00 PKD
ROOT
HETATM    1  C   UNL     1     -11.909  11.957  67.294  1.00  0.00    -0.148 C  
ENDROOT
BRANCH   1   2
HETATM    2  C   UNL     1     -11.794  12.667  65.947  1.00  0.00    -0.444 A  
HETATM    3  H   UNL     1      -9.795  12.252  65.480  1.00  0.00     0.000 HD 
HETATM    4  N   UNL     1     -10.649  12.789  65.328  1.00  0.00    -0.284 NA 
HETATM    5  N   UNL     1     -12.859  13.377  65.437  1.00  0.00    -0.628 NA 
HETATM    6  C   UNL     1     -12.347  14.298  64.456  1.00  0.00    -0.410 A  
HETATM    7  C   UNL     1     -10.874  13.888  64.354  1.00  0.00    -0.290 A  
ENDBRANCH   1   2
BRANCH   1   8
HETATM    8  N   UNL     1     -11.098  12.715  68.263  1.00  0.00    -0.244 NA 
BRANCH   8   9
HETATM    9  C   UNL     1      -9.742  12.468  68.405  1.00  0.00    -0.189 A  
HETATM   10  C   UNL     1      -8.766  13.461  68.271  1.00  0.00    -0.172 A  
HETATM   11  C   UNL     1      -7.408  13.180  68.459  1.00  0.00    -0.111 A  
HETATM   12  C   UNL     1      -7.944  10.872  68.868  1.00  0.00    -0.146 A  
HETATM   13  C   UNL     1      -9.297  11.169  68.696  1.00  0.00    -0.186 A  
HETATM   14  C   UNL     1      -6.995  11.882  68.756  1.00  0.00    -0.104 A  
ENDBRANCH   8   9
BRANCH   8  15
HETATM   15  C   UNL     1     -11.580  14.066  68.662  1.00  0.00    -0.325 C  
BRANCH  15  16
HETATM   16  C   UNL     1     -12.373  14.105  69.956  1.00  0.00    -0.403 A  
HETATM   17  C   UNL     1     -13.507  14.299  72.514  1.00  0.00    -0.613 A  
HETATM   18  C   UNL     1     -12.751  15.352  70.480  1.00  0.00    -0.455 A  
HETATM   19  C   UNL     1     -13.301  15.450  71.758  1.00  0.00    -0.567 A  
HETATM   20  C   UNL     1     -13.246  13.049  71.961  1.00  0.00    -0.543 A  
HETATM   21  C   UNL     1     -12.714  12.952  70.676  1.00  0.00    -0.157 A  
ENDBRANCH  15  16
ENDBRANCH   8  15
ENDBRANCH   1   8
TORSDOF 5
ENDMDL
MODEL       80
REMARK 921   NORMALIZED FREE ENERGY PREDICTED BY IDOCK:   -5.03 KCAL/MOL
REMARK 922        TOTAL FREE ENERGY PREDICTED BY IDOCK:   -7.09 KCAL/MOL
REMARK 923 INTER-LIGAND FREE ENERGY PREDICTED BY IDOCK:   -6.37 KCAL/MOL
REMARK 924 INTRA-LIGAND FREE ENERGY PREDICTED BY IDOCK:   -0.72 KCAL/MOL
REMARK 927      BINDING AFFINITY PREDICTED BY RF-SCORE:    0.00 PKD
ROOT
HETATM    1  C   UNL     1     -11.859  15.203  67.223  1.00  0.00    -0.056 C  
ENDROOT
BRANCH   1   2
HETATM    2  C   UNL     1     -11.748  14.658  68.645  1.00  0.00    -0.329 A  
HETATM    3  H   UNL     1     -11.998  12.612  68.275  1.00  0.00     0.000 HD 
HETATM    4  N   UNL     1     -11.982  13.402  68.920  1.00  0.00    -0.338 NA 
HETATM    5  N   UNL     1     -11.593  15.514  69.713  1.00  0.00    -0.308 NA 
HETATM    6  C   UNL     1     -11.990  14.810  70.905  1.00  0.00    -0.324 A  
HETATM    7  C   UNL     1     -12.220  13.387  70.387  1.00  0.00    -0.345 A  
ENDBRANCH   1   2
BRANCH   1   8
HETATM    8  N   UNL     1     -10.493  15.494  66.754  1.00  0.00    -0.290 NA 
BRANCH   8   9
HETATM    9  C   UNL     1      -9.944  16.759  66.897  1.00  0.00    -0.273 A  
HETATM   10  C   UNL     1      -8.570  17.008  66.825  1.00  0.00    -0.266 A  
HETATM   11  C   UNL     1      -8.057  18.305  66.937  1.00  0.00    -0.259 A  
HETATM   12  C   UNL     1     -10.283  19.156  67.257  1.00  0.00    -0.487 A  
HETATM   13  C   UNL     1     -10.783  17.860  67.126  1.00  0.00    -0.241 A  
HETATM   14  C   UNL     1      -8.915  19.383  67.155  1.00  0.00    -0.347 A  
ENDBRANCH   8   9
BRANCH   8  15
HETATM   15  C   UNL     1      -9.539  14.355  66.652  1.00  0.00    -0.281 C  
BRANCH  15  16
HETATM   16  C   UNL     1     -10.000  13.212  65.767  1.00  0.00    -0.260 A  
HETATM   17  C   UNL     1     -10.473  11.017  64.085  1.00  0.00    -0.434 A  
HETATM   18  C   UNL     1      -9.923  11.900  66.262  1.00  0.00    -0.245 A  
HETATM   19  C   UNL     1     -10.144  10.808  65.422  1.00  0.00    -0.347 A  
HETATM   20  C   UNL     1     -10.666  12.312  63.612  1.00  0.00    -0.513 A  
HETATM   21  C   UNL     1     -10.464  13.401  64.458  1.00  0.00    -0.431 A  
ENDBRANCH  15  16
ENDBRANCH   8  15
ENDBRANCH   1   8
TORSDOF 5
ENDMDL
MODEL       81
REMARK 921   NORMALIZED FREE ENERGY PREDICTED BY IDOCK:   -5.03 KCAL/MOL
REMARK 922        TOTAL FREE ENERGY PREDICTED BY IDOCK:   -7.09 KCAL/MOL
REMARK 923 INTER-LIGAND FREE ENERGY PREDICTED BY IDOCK:   -6.11 KCAL/MOL
REMARK 924 INTRA-LIGAND FREE ENERGY PREDICTED BY IDOCK:   -0.98 KCAL/MOL
REMARK 927      BINDING AFFINITY PREDICTED BY RF-SCORE:    0.00 PKD
ROOT
HETATM    1  C   UNL     1      -9.478  11.062  69.000  1.00  0.00    -0.108 C  
ENDROOT
BRANCH   1   2
HETATM    2  C   UNL     1      -9.258  10.739  67.523  1.00  0.00    -0.143 A  
HETATM    3  H   UNL     1      -8.591  12.602  66.836  1.00  0.00     0.000 HD 
HETATM    4  N   UNL     1      -8.960  11.669  66.653  1.00  0.00    -0.185 NA 
HETATM    5  N   UNL     1      -9.562   9.492  67.026  1.00  0.00    -0.157 NA 
HETATM    6  C   UNL     1      -9.717   9.610  65.599  1.00  0.00    -0.293 A  
HETATM    7  C   UNL     1      -9.283  11.056  65.338  1.00  0.00    -0.210 A  
ENDBRANCH   1   2
BRANCH   1   8
HETATM    8  N   UNL     1     -10.843  10.627  69.348  1.00  0.00    -0.230 NA 
BRANCH   8   9
HETATM    9  C   UNL     1     -11.079   9.860  70.477  1.00  0.00    -0.332 A  
HETATM   10  C   UNL     1     -12.345   9.726  71.058  1.00  0.00    -0.422 A  
HETATM   11  C   UNL     1     -12.551   8.912  72.177  1.00  0.00    -0.467 A  
HETATM   12  C   UNL     1     -10.208   8.374  72.216  1.00  0.00    -0.396 A  
HETATM   13  C   UNL     1     -10.019   9.175  71.090  1.00  0.00    -0.377 A  
HETATM   14  C   UNL     1     -11.480   8.235  72.760  1.00  0.00    -0.338 A  
ENDBRANCH   8   9
BRANCH   8  15
HETATM   15  C   UNL     1     -11.980  11.441  68.837  1.00  0.00    -0.304 C  
BRANCH  15  16
HETATM   16  C   UNL     1     -11.931  12.911  69.210  1.00  0.00    -0.313 A  
HETATM   17  C   UNL     1     -11.452  15.593  69.882  1.00  0.00    -0.344 A  
HETATM   18  C   UNL     1     -11.597  13.849  68.221  1.00  0.00    -0.372 A  
HETATM   19  C   UNL     1     -11.344  15.180  68.556  1.00  0.00    -0.321 A  
HETATM   20  C   UNL     1     -11.897  14.700  70.853  1.00  0.00    -0.372 A  
HETATM   21  C   UNL     1     -12.167  13.376  70.512  1.00  0.00    -0.425 A  
ENDBRANCH  15  16
ENDBRANCH   8  15
ENDBRANCH   1   8
TORSDOF 5
ENDMDL
MODEL       82
REMARK 921   NORMALIZED FREE ENERGY PREDICTED BY IDOCK:   -5.01 KCAL/MOL
REMARK 922        TOTAL FREE ENERGY PREDICTED BY IDOCK:   -7.07 KCAL/MOL
REMARK 923 INTER-LIGAND FREE ENERGY PREDICTED BY IDOCK:   -6.42 KCAL/MOL
REMARK 924 INTRA-LIGAND FREE ENERGY PREDICTED BY IDOCK:   -0.65 KCAL/MOL
REMARK 927      BINDING AFFINITY PREDICTED BY RF-SCORE:    0.00 PKD
ROOT
HETATM    1  C   UNL     1     -10.911  16.719  68.119  1.00  0.00    -0.353 C  
ENDROOT
BRANCH   1   2
HETATM    2  C   UNL     1     -10.386  18.015  67.506  1.00  0.00    -0.385 A  
HETATM    3  H   UNL     1      -9.943  19.093  69.246  1.00  0.00     0.000 HD 
HETATM    4  N   UNL     1     -10.108  19.061  68.240  1.00  0.00    -0.378 NA 
HETATM    5  N   UNL     1     -10.378  18.190  66.140  1.00  0.00    -0.473 NA 
HETATM    6  C   UNL     1     -10.301  19.604  65.876  1.00  0.00    -0.488 A  
HETATM    7  C   UNL     1     -10.086  20.190  67.275  1.00  0.00    -0.431 A  
ENDBRANCH   1   2
BRANCH   1   8
HETATM    8  N   UNL     1      -9.924  15.663  67.830  1.00  0.00    -0.222 NA 
BRANCH   8   9
HETATM    9  C   UNL     1      -8.571  15.874  68.044  1.00  0.00    -0.164 A  
HETATM   10  C   UNL     1      -8.009  15.991  69.319  1.00  0.00    -0.217 A  
HETATM   11  C   UNL     1      -6.631  16.167  69.495  1.00  0.00    -0.200 A  
HETATM   12  C   UNL     1      -6.328  16.172  67.110  1.00  0.00    -0.160 A  
HETATM   13  C   UNL     1      -7.701  15.979  66.948  1.00  0.00    -0.279 A  
HETATM   14  C   UNL     1      -5.788  16.259  68.388  1.00  0.00    -0.107 A  
ENDBRANCH   8   9
BRANCH   8  15
HETATM   15  C   UNL     1     -10.396  14.250  67.852  1.00  0.00    -0.233 C  
BRANCH  15  16
HETATM   16  C   UNL     1     -10.972  13.749  66.540  1.00  0.00    -0.299 A  
HETATM   17  C   UNL     1     -11.909  13.158  63.963  1.00  0.00    -0.514 A  
HETATM   18  C   UNL     1     -10.092  13.298  65.544  1.00  0.00    -0.274 A  
HETATM   19  C   UNL     1     -10.555  13.018  64.258  1.00  0.00    -0.434 A  
HETATM   20  C   UNL     1     -12.808  13.490  64.972  1.00  0.00    -0.330 A  
HETATM   21  C   UNL     1     -12.345  13.751  66.261  1.00  0.00    -0.479 A  
ENDBRANCH  15  16
ENDBRANCH   8  15
ENDBRANCH   1   8
TORSDOF 5
ENDMDL
MODEL       83
REMARK 921   NORMALIZED FREE ENERGY PREDICTED BY IDOCK:   -5.01 KCAL/MOL
REMARK 922        TOTAL FREE ENERGY PREDICTED BY IDOCK:   -7.07 KCAL/MOL
REMARK 923 INTER-LIGAND FREE ENERGY PREDICTED BY IDOCK:   -5.91 KCAL/MOL
REMARK 924 INTRA-LIGAND FREE ENERGY PREDICTED BY IDOCK:   -1.16 KCAL/MOL
REMARK 927      BINDING AFFINITY PREDICTED BY RF-SCORE:    0.00 PKD
ROOT
HETATM    1  C   UNL     1      -8.762  10.154  67.920  1.00  0.00    -0.122 C  
ENDROOT
BRANCH   1   2
HETATM    2  C   UNL     1      -9.659  11.368  67.689  1.00  0.00    -0.169 A  
HETATM    3  H   UNL     1      -8.655  12.794  68.850  1.00  0.00     0.000 HD 
HETATM    4  N   UNL     1      -9.487  12.486  68.346  1.00  0.00    -0.200 NA 
HETATM    5  N   UNL     1     -10.802  11.260  66.929  1.00  0.00    -0.270 NA 
HETATM    6  C   UNL     1     -11.664  12.363  67.266  1.00  0.00    -0.349 A  
HETATM    7  C   UNL     1     -10.777  13.206  68.188  1.00  0.00    -0.242 A  
ENDBRANCH   1   2
BRANCH   1   8
HETATM    8  N   UNL     1      -9.503   9.217  68.783  1.00  0.00    -0.146 NA 
BRANCH   8   9
HETATM    9  C   UNL     1      -9.705   7.901  68.397  1.00  0.00    -0.160 A  
HETATM   10  C   UNL     1      -9.145   6.812  69.072  1.00  0.00    -0.137 A  
HETATM   11  C   UNL     1      -9.404   5.496  68.673  1.00  0.00    -0.149 A  
HETATM   12  C   UNL     1     -10.758   6.311  66.861  1.00  0.00    -0.411 A  
HETATM   13  C   UNL     1     -10.506   7.619  67.279  1.00  0.00    -0.396 A  
HETATM   14  C   UNL     1     -10.211   5.244  67.564  1.00  0.00    -0.229 A  
ENDBRANCH   8   9
BRANCH   8  15
HETATM   15  C   UNL     1      -9.537   9.501  70.245  1.00  0.00    -0.265 C  
BRANCH  15  16
HETATM   16  C   UNL     1     -10.912   9.417  70.880  1.00  0.00    -0.391 A  
HETATM   17  C   UNL     1     -13.327   9.537  72.303  1.00  0.00    -0.526 A  
HETATM   18  C   UNL     1     -11.826  10.458  70.654  1.00  0.00    -0.445 A  
HETATM   19  C   UNL     1     -13.020  10.526  71.372  1.00  0.00    -0.542 A  
HETATM   20  C   UNL     1     -12.485   8.439  72.451  1.00  0.00    -0.390 A  
HETATM   21  C   UNL     1     -11.301   8.363  71.719  1.00  0.00    -0.366 A  
ENDBRANCH  15  16
ENDBRANCH   8  15
ENDBRANCH   1   8
TORSDOF 5
ENDMDL
MODEL       84
REMARK 921   NORMALIZED FREE ENERGY PREDICTED BY IDOCK:   -5.00 KCAL/MOL
REMARK 922        TOTAL FREE ENERGY PREDICTED BY IDOCK:   -7.05 KCAL/MOL
REMARK 923 INTER-LIGAND FREE ENERGY PREDICTED BY IDOCK:   -6.17 KCAL/MOL
REMARK 924 INTRA-LIGAND FREE ENERGY PREDICTED BY IDOCK:   -0.88 KCAL/MOL
REMARK 927      BINDING AFFINITY PREDICTED BY RF-SCORE:    0.00 PKD
ROOT
HETATM    1  C   UNL     1     -10.692  14.625  65.505  1.00  0.00    -0.349 C  
ENDROOT
BRANCH   1   2
HETATM    2  C   UNL     1     -11.259  13.656  64.470  1.00  0.00    -0.382 A  
HETATM    3  H   UNL     1     -13.302  14.079  64.651  1.00  0.00     0.000 HD 
HETATM    4  N   UNL     1     -12.546  13.473  64.332  1.00  0.00    -0.649 NA 
HETATM    5  N   UNL     1     -10.428  12.795  63.789  1.00  0.00    -0.378 NA 
HETATM    6  C   UNL     1     -11.234  11.719  63.271  1.00  0.00    -0.267 A  
HETATM    7  C   UNL     1     -12.656  12.183  63.602  1.00  0.00    -0.504 A  
ENDBRANCH   1   2
BRANCH   1   8
HETATM    8  N   UNL     1     -11.173  14.189  66.828  1.00  0.00    -0.313 NA 
BRANCH   8   9
HETATM    9  C   UNL     1     -10.775  12.976  67.367  1.00  0.00    -0.245 A  
HETATM   10  C   UNL     1     -11.677  11.999  67.800  1.00  0.00    -0.379 A  
HETATM   11  C   UNL     1     -11.236  10.770  68.303  1.00  0.00    -0.358 A  
HETATM   12  C   UNL     1      -8.955  11.471  68.012  1.00  0.00    -0.170 A  
HETATM   13  C   UNL     1      -9.408  12.686  67.495  1.00  0.00    -0.188 A  
HETATM   14  C   UNL     1      -9.872  10.505  68.412  1.00  0.00    -0.171 A  
ENDBRANCH   8   9
BRANCH   8  15
HETATM   15  C   UNL     1     -11.605  15.242  67.789  1.00  0.00    -0.265 C  
BRANCH  15  16
HETATM   16  C   UNL     1     -10.651  16.414  67.926  1.00  0.00    -0.320 A  
HETATM   17  C   UNL     1      -8.993  18.588  68.554  1.00  0.00    -0.348 A  
HETATM   18  C   UNL     1      -9.424  16.214  68.579  1.00  0.00    -0.216 A  
HETATM   19  C   UNL     1      -8.606  17.297  68.904  1.00  0.00    -0.170 A  
HETATM   20  C   UNL     1     -10.148  18.787  67.804  1.00  0.00    -0.417 A  
HETATM   21  C   UNL     1     -10.954  17.702  67.463  1.00  0.00    -0.085 A  
ENDBRANCH  15  16
ENDBRANCH   8  15
ENDBRANCH   1   8
TORSDOF 5
ENDMDL
MODEL       85
REMARK 921   NORMALIZED FREE ENERGY PREDICTED BY IDOCK:   -4.99 KCAL/MOL
REMARK 922        TOTAL FREE ENERGY PREDICTED BY IDOCK:   -7.04 KCAL/MOL
REMARK 923 INTER-LIGAND FREE ENERGY PREDICTED BY IDOCK:   -6.56 KCAL/MOL
REMARK 924 INTRA-LIGAND FREE ENERGY PREDICTED BY IDOCK:   -0.48 KCAL/MOL
REMARK 927      BINDING AFFINITY PREDICTED BY RF-SCORE:    0.00 PKD
ROOT
HETATM    1  C   UNL     1      -9.036  14.198  67.594  1.00  0.00    -0.194 C  
ENDROOT
BRANCH   1   2
HETATM    2  C   UNL     1      -9.327  12.727  67.880  1.00  0.00    -0.208 A  
HETATM    3  H   UNL     1     -11.087  12.910  69.001  1.00  0.00     0.000 HD 
HETATM    4  N   UNL     1     -10.288  12.359  68.687  1.00  0.00    -0.213 NA 
HETATM    5  N   UNL     1      -8.460  11.746  67.453  1.00  0.00    -0.151 NA 
HETATM    6  C   UNL     1      -8.707  10.565  68.239  1.00  0.00    -0.135 A  
HETATM    7  C   UNL     1      -9.950  10.956  69.043  1.00  0.00    -0.191 A  
ENDBRANCH   1   2
BRANCH   1   8
HETATM    8  N   UNL     1     -10.210  14.753  66.895  1.00  0.00    -0.255 NA 
BRANCH   8   9
HETATM    9  C   UNL     1     -10.839  14.041  65.887  1.00  0.00    -0.288 A  
HETATM   10  C   UNL     1     -10.151  13.469  64.811  1.00  0.00    -0.267 A  
HETATM   11  C   UNL     1     -10.818  12.725  63.832  1.00  0.00    -0.447 A  
HETATM   12  C   UNL     1     -12.910  13.144  64.939  1.00  0.00    -0.349 A  
HETATM   13  C   UNL     1     -12.232  13.869  65.919  1.00  0.00    -0.497 A  
HETATM   14  C   UNL     1     -12.202  12.563  63.894  1.00  0.00    -0.590 A  
ENDBRANCH   8   9
BRANCH   8  15
HETATM   15  C   UNL     1     -11.029  15.767  67.615  1.00  0.00    -0.302 C  
BRANCH  15  16
HETATM   16  C   UNL     1     -10.619  17.208  67.372  1.00  0.00    -0.297 A  
HETATM   17  C   UNL     1     -10.222  19.966  67.045  1.00  0.00    -0.588 A  
HETATM   18  C   UNL     1     -10.345  18.028  68.478  1.00  0.00    -0.359 A  
HETATM   19  C   UNL     1     -10.162  19.402  68.317  1.00  0.00    -0.535 A  
HETATM   20  C   UNL     1     -10.377  19.147  65.930  1.00  0.00    -0.463 A  
HETATM   21  C   UNL     1     -10.541  17.772  66.091  1.00  0.00    -0.235 A  
ENDBRANCH  15  16
ENDBRANCH   8  15
ENDBRANCH   1   8
TORSDOF 5
ENDMDL
MODEL       86
REMARK 921   NORMALIZED FREE ENERGY PREDICTED BY IDOCK:   -4.97 KCAL/MOL
REMARK 922        TOTAL FREE ENERGY PREDICTED BY IDOCK:   -7.01 KCAL/MOL
REMARK 923 INTER-LIGAND FREE ENERGY PREDICTED BY IDOCK:   -5.95 KCAL/MOL
REMARK 924 INTRA-LIGAND FREE ENERGY PREDICTED BY IDOCK:   -1.06 KCAL/MOL
REMARK 927      BINDING AFFINITY PREDICTED BY RF-SCORE:    0.00 PKD
ROOT
HETATM    1  C   UNL     1      -9.095  11.942  68.402  1.00  0.00    -0.167 C  
ENDROOT
BRANCH   1   2
HETATM    2  C   UNL     1      -9.244  10.598  67.693  1.00  0.00    -0.146 A  
HETATM    3  H   UNL     1      -7.376  10.468  66.754  1.00  0.00     0.000 HD 
HETATM    4  N   UNL     1      -8.344  10.160  66.852  1.00  0.00    -0.122 NA 
HETATM    5  N   UNL     1     -10.427   9.896  67.765  1.00  0.00    -0.225 NA 
HETATM    6  C   UNL     1     -10.456   8.964  66.667  1.00  0.00    -0.161 A  
HETATM    7  C   UNL     1      -9.052   9.112  66.071  1.00  0.00    -0.197 A  
ENDBRANCH   1   2
BRANCH   1   8
HETATM    8  N   UNL     1     -10.288  12.745  68.080  1.00  0.00    -0.232 NA 
BRANCH   8   9
HETATM    9  C   UNL     1     -11.155  13.164  69.077  1.00  0.00    -0.234 A  
HETATM   10  C   UNL     1     -11.716  12.293  70.017  1.00  0.00    -0.319 A  
HETATM   11  C   UNL     1     -12.558  12.760  71.033  1.00  0.00    -0.362 A  
HETATM   12  C   UNL     1     -12.356  14.995  70.171  1.00  0.00    -0.380 A  
HETATM   13  C   UNL     1     -11.504  14.520  69.174  1.00  0.00    -0.324 A  
HETATM   14  C   UNL     1     -12.881  14.114  71.110  1.00  0.00    -0.431 A  
ENDBRANCH   8   9
BRANCH   8  15
HETATM   15  C   UNL     1     -10.263  13.552  66.829  1.00  0.00    -0.264 C  
BRANCH  15  16
HETATM   16  C   UNL     1     -10.991  12.930  65.652  1.00  0.00    -0.297 A  
HETATM   17  C   UNL     1     -12.248  12.107  63.283  1.00  0.00    -0.533 A  
HETATM   18  C   UNL     1     -10.238  12.435  64.576  1.00  0.00    -0.325 A  
HETATM   19  C   UNL     1     -10.861  12.039  63.393  1.00  0.00    -0.471 A  
HETATM   20  C   UNL     1     -13.013  12.485  64.382  1.00  0.00    -0.248 A  
HETATM   21  C   UNL     1     -12.389  12.862  65.571  1.00  0.00    -0.517 A  
ENDBRANCH  15  16
ENDBRANCH   8  15
ENDBRANCH   1   8
TORSDOF 5
ENDMDL
MODEL       87
REMARK 921   NORMALIZED FREE ENERGY PREDICTED BY IDOCK:   -4.96 KCAL/MOL
REMARK 922        TOTAL FREE ENERGY PREDICTED BY IDOCK:   -7.00 KCAL/MOL
REMARK 923 INTER-LIGAND FREE ENERGY PREDICTED BY IDOCK:   -6.22 KCAL/MOL
REMARK 924 INTRA-LIGAND FREE ENERGY PREDICTED BY IDOCK:   -0.78 KCAL/MOL
REMARK 927      BINDING AFFINITY PREDICTED BY RF-SCORE:    0.00 PKD
ROOT
HETATM    1  C   UNL     1     -10.339  10.389  66.096  1.00  0.00    -0.200 C  
ENDROOT
BRANCH   1   2
HETATM    2  C   UNL     1      -9.545  10.184  64.808  1.00  0.00    -0.314 A  
HETATM    3  H   UNL     1      -7.794   9.336  65.585  1.00  0.00     0.000 HD 
HETATM    4  N   UNL     1      -8.298   9.791  64.823  1.00  0.00    -0.144 NA 
HETATM    5  N   UNL     1     -10.054  10.600  63.598  1.00  0.00    -0.304 NA 
HETATM    6  C   UNL     1      -8.955  10.727  62.675  1.00  0.00    -0.301 A  
HETATM    7  C   UNL     1      -7.782  10.155  63.478  1.00  0.00    -0.144 A  
ENDBRANCH   1   2
BRANCH   1   8
HETATM    8  N   UNL     1     -10.131  11.783  66.526  1.00  0.00    -0.200 NA 
BRANCH   8   9
HETATM    9  C   UNL     1     -10.783  12.829  65.891  1.00  0.00    -0.270 A  
HETATM   10  C   UNL     1     -12.135  12.781  65.533  1.00  0.00    -0.517 A  
HETATM   11  C   UNL     1     -12.767  13.873  64.927  1.00  0.00    -0.315 A  
HETATM   12  C   UNL     1     -10.695  15.091  64.960  1.00  0.00    -0.448 A  
HETATM   13  C   UNL     1     -10.080  14.003  65.580  1.00  0.00    -0.343 A  
HETATM   14  C   UNL     1     -12.046  15.030  64.638  1.00  0.00    -0.330 A  
ENDBRANCH   8   9
BRANCH   8  15
HETATM   15  C   UNL     1      -9.694  12.017  67.929  1.00  0.00    -0.194 C  
BRANCH  15  16
HETATM   16  C   UNL     1     -10.822  12.196  68.929  1.00  0.00    -0.241 A  
HETATM   17  C   UNL     1     -12.638  12.688  71.010  1.00  0.00    -0.354 A  
HETATM   18  C   UNL     1     -11.352  13.480  69.128  1.00  0.00    -0.333 A  
HETATM   19  C   UNL     1     -12.244  13.728  70.171  1.00  0.00    -0.425 A  
HETATM   20  C   UNL     1     -12.210  11.389  70.751  1.00  0.00    -0.475 A  
HETATM   21  C   UNL     1     -11.334  11.140  69.696  1.00  0.00    -0.366 A  
ENDBRANCH  15  16
ENDBRANCH   8  15
ENDBRANCH   1   8
TORSDOF 5
ENDMDL
MODEL       88
REMARK 921   NORMALIZED FREE ENERGY PREDICTED BY IDOCK:   -4.94 KCAL/MOL
REMARK 922        TOTAL FREE ENERGY PREDICTED BY IDOCK:   -6.98 KCAL/MOL
REMARK 923 INTER-LIGAND FREE ENERGY PREDICTED BY IDOCK:   -6.24 KCAL/MOL
REMARK 924 INTRA-LIGAND FREE ENERGY PREDICTED BY IDOCK:   -0.74 KCAL/MOL
REMARK 927      BINDING AFFINITY PREDICTED BY RF-SCORE:    0.00 PKD
ROOT
HETATM    1  C   UNL     1      -9.537  15.125  68.721  1.00  0.00    -0.219 C  
ENDROOT
BRANCH   1   2
HETATM    2  C   UNL     1      -8.136  14.529  68.602  1.00  0.00    -0.150 A  
HETATM    3  H   UNL     1      -8.618  12.544  68.139  1.00  0.00     0.000 HD 
HETATM    4  N   UNL     1      -7.945  13.245  68.450  1.00  0.00    -0.139 NA 
HETATM    5  N   UNL     1      -7.023  15.301  68.851  1.00  0.00    -0.118 NA 
HETATM    6  C   UNL     1      -5.923  14.415  69.133  1.00  0.00    -0.091 A  
HETATM    7  C   UNL     1      -6.524  13.038  68.834  1.00  0.00    -0.094 A  
ENDBRANCH   1   2
BRANCH   1   8
HETATM    8  N   UNL     1      -9.862  15.750  67.426  1.00  0.00    -0.231 NA 
BRANCH   8   9
HETATM    9  C   UNL     1     -10.044  17.120  67.322  1.00  0.00    -0.294 A  
HETATM   10  C   UNL     1     -10.297  17.767  66.108  1.00  0.00    -0.340 A  
HETATM   11  C   UNL     1     -10.513  19.148  66.050  1.00  0.00    -0.546 A  
HETATM   12  C   UNL     1     -10.172  19.302  68.424  1.00  0.00    -0.503 A  
HETATM   13  C   UNL     1      -9.976  17.921  68.473  1.00  0.00    -0.379 A  
HETATM   14  C   UNL     1     -10.448  19.919  67.210  1.00  0.00    -0.557 A  
ENDBRANCH   8   9
BRANCH   8  15
HETATM   15  C   UNL     1      -9.454  15.030  66.188  1.00  0.00    -0.313 C  
BRANCH  15  16
HETATM   16  C   UNL     1     -10.537  14.171  65.562  1.00  0.00    -0.335 A  
HETATM   17  C   UNL     1     -12.247  12.388  64.233  1.00  0.00    -0.538 A  
HETATM   18  C   UNL     1     -10.738  12.872  66.052  1.00  0.00    -0.296 A  
HETATM   19  C   UNL     1     -11.577  11.980  65.384  1.00  0.00    -0.343 A  
HETATM   20  C   UNL     1     -12.148  13.708  63.804  1.00  0.00    -0.435 A  
HETATM   21  C   UNL     1     -11.324  14.603  64.484  1.00  0.00    -0.316 A  
ENDBRANCH  15  16
ENDBRANCH   8  15
ENDBRANCH   1   8
TORSDOF 5
ENDMDL
MODEL       89
REMARK 921   NORMALIZED FREE ENERGY PREDICTED BY IDOCK:   -4.92 KCAL/MOL
REMARK 922        TOTAL FREE ENERGY PREDICTED BY IDOCK:   -6.94 KCAL/MOL
REMARK 923 INTER-LIGAND FREE ENERGY PREDICTED BY IDOCK:   -6.36 KCAL/MOL
REMARK 924 INTRA-LIGAND FREE ENERGY PREDICTED BY IDOCK:   -0.59 KCAL/MOL
REMARK 927      BINDING AFFINITY PREDICTED BY RF-SCORE:    0.00 PKD
ROOT
HETATM    1  C   UNL     1      -9.479  11.175  68.164  1.00  0.00    -0.180 C  
ENDROOT
BRANCH   1   2
HETATM    2  C   UNL     1      -8.424  12.274  68.280  1.00  0.00    -0.173 A  
HETATM    3  H   UNL     1      -9.643  13.971  68.143  1.00  0.00     0.000 HD 
HETATM    4  N   UNL     1      -8.722  13.535  68.107  1.00  0.00    -0.170 NA 
HETATM    5  N   UNL     1      -7.088  11.954  68.374  1.00  0.00    -0.080 NA 
HETATM    6  C   UNL     1      -6.327  13.116  67.995  1.00  0.00    -0.127 A  
HETATM    7  C   UNL     1      -7.412  14.188  67.847  1.00  0.00    -0.152 A  
ENDBRANCH   1   2
BRANCH   1   8
HETATM    8  N   UNL     1     -10.709  11.799  67.645  1.00  0.00    -0.206 NA 
BRANCH   8   9
HETATM    9  C   UNL     1     -10.942  11.890  66.282  1.00  0.00    -0.302 A  
HETATM   10  C   UNL     1     -10.184  11.199  65.331  1.00  0.00    -0.327 A  
HETATM   11  C   UNL     1     -10.474  11.287  63.964  1.00  0.00    -0.440 A  
HETATM   12  C   UNL     1     -12.268  12.813  64.444  1.00  0.00    -0.499 A  
HETATM   13  C   UNL     1     -11.980  12.704  65.804  1.00  0.00    -0.503 A  
HETATM   14  C   UNL     1     -11.517  12.097  63.518  1.00  0.00    -0.544 A  
ENDBRANCH   8   9
BRANCH   8  15
HETATM   15  C   UNL     1     -11.904  11.817  68.534  1.00  0.00    -0.303 C  
BRANCH  15  16
HETATM   16  C   UNL     1     -12.023  13.042  69.421  1.00  0.00    -0.338 A  
HETATM   17  C   UNL     1     -12.630  15.263  71.025  1.00  0.00    -0.469 A  
HETATM   18  C   UNL     1     -12.419  12.874  70.757  1.00  0.00    -0.370 A  
HETATM   19  C   UNL     1     -12.735  13.977  71.551  1.00  0.00    -0.443 A  
HETATM   20  C   UNL     1     -12.126  15.448  69.741  1.00  0.00    -0.373 A  
HETATM   21  C   UNL     1     -11.793  14.345  68.956  1.00  0.00    -0.358 A  
ENDBRANCH  15  16
ENDBRANCH   8  15
ENDBRANCH   1   8
TORSDOF 5
ENDMDL
MODEL       90
REMARK 921   NORMALIZED FREE ENERGY PREDICTED BY IDOCK:   -4.91 KCAL/MOL
REMARK 922        TOTAL FREE ENERGY PREDICTED BY IDOCK:   -6.93 KCAL/MOL
REMARK 923 INTER-LIGAND FREE ENERGY PREDICTED BY IDOCK:   -6.19 KCAL/MOL
REMARK 924 INTRA-LIGAND FREE ENERGY PREDICTED BY IDOCK:   -0.74 KCAL/MOL
REMARK 927      BINDING AFFINITY PREDICTED BY RF-SCORE:    0.00 PKD
ROOT
HETATM    1  C   UNL     1      -8.098  15.761  66.583  1.00  0.00    -0.247 C  
ENDROOT
BRANCH   1   2
HETATM    2  C   UNL     1      -7.691  14.984  67.833  1.00  0.00    -0.134 A  
HETATM    3  H   UNL     1      -7.525  16.556  69.207  1.00  0.00     0.000 HD 
HETATM    4  N   UNL     1      -7.338  15.590  68.936  1.00  0.00    -0.138 NA 
HETATM    5  N   UNL     1      -7.489  13.623  67.776  1.00  0.00    -0.151 NA 
HETATM    6  C   UNL     1      -6.681  13.247  68.908  1.00  0.00    -0.110 A  
HETATM    7  C   UNL     1      -6.604  14.552  69.706  1.00  0.00    -0.158 A  
ENDBRANCH   1   2
BRANCH   1   8
HETATM    8  N   UNL     1      -9.465  16.266  66.803  1.00  0.00    -0.225 NA 
BRANCH   8   9
HETATM    9  C   UNL     1      -9.695  17.605  67.074  1.00  0.00    -0.292 A  
HETATM   10  C   UNL     1     -10.176  18.506  66.117  1.00  0.00    -0.424 A  
HETATM   11  C   UNL     1     -10.432  19.844  66.439  1.00  0.00    -0.589 A  
HETATM   12  C   UNL     1      -9.676  19.447  68.686  1.00  0.00    -0.504 A  
HETATM   13  C   UNL     1      -9.441  18.111  68.358  1.00  0.00    -0.327 A  
HETATM   14  C   UNL     1     -10.179  20.317  67.726  1.00  0.00    -0.464 A  
ENDBRANCH   8   9
BRANCH   8  15
HETATM   15  C   UNL     1     -10.591  15.498  66.204  1.00  0.00    -0.315 C  
BRANCH  15  16
HETATM   16  C   UNL     1     -11.107  14.351  67.053  1.00  0.00    -0.317 A  
HETATM   17  C   UNL     1     -11.744  12.290  68.846  1.00  0.00    -0.380 A  
HETATM   18  C   UNL     1     -11.682  14.639  68.301  1.00  0.00    -0.359 A  
HETATM   19  C   UNL     1     -11.986  13.615  69.198  1.00  0.00    -0.394 A  
HETATM   20  C   UNL     1     -11.284  11.984  67.569  1.00  0.00    -0.357 A  
HETATM   21  C   UNL     1     -10.999  13.008  66.666  1.00  0.00    -0.301 A  
ENDBRANCH  15  16
ENDBRANCH   8  15
ENDBRANCH   1   8
TORSDOF 5
ENDMDL
MODEL       91
REMARK 921   NORMALIZED FREE ENERGY PREDICTED BY IDOCK:   -4.89 KCAL/MOL
REMARK 922        TOTAL FREE ENERGY PREDICTED BY IDOCK:   -6.91 KCAL/MOL
REMARK 923 INTER-LIGAND FREE ENERGY PREDICTED BY IDOCK:   -6.08 KCAL/MOL
REMARK 924 INTRA-LIGAND FREE ENERGY PREDICTED BY IDOCK:   -0.83 KCAL/MOL
REMARK 927      BINDING AFFINITY PREDICTED BY RF-SCORE:    0.00 PKD
ROOT
HETATM    1  C   UNL     1      -9.006   6.618  70.080  1.00  0.00    -0.144 C  
ENDROOT
BRANCH   1   2
HETATM    2  C   UNL     1      -9.921   6.873  68.884  1.00  0.00    -0.157 A  
HETATM    3  H   UNL     1     -11.053   5.111  68.904  1.00  0.00     0.000 HD 
HETATM    4  N   UNL     1     -10.729   5.952  68.427  1.00  0.00    -0.255 NA 
HETATM    5  N   UNL     1      -9.779   8.013  68.125  1.00  0.00    -0.156 NA 
HETATM    6  C   UNL     1     -10.401   7.775  66.848  1.00  0.00    -0.326 A  
HETATM    7  C   UNL     1     -11.067   6.411  67.054  1.00  0.00    -0.329 A  
ENDBRANCH   1   2
BRANCH   1   8
HETATM    8  N   UNL     1      -9.853   6.593  71.286  1.00  0.00    -0.177 NA 
BRANCH   8   9
HETATM    9  C   UNL     1     -10.129   5.401  71.936  1.00  0.00    -0.193 A  
HETATM   10  C   UNL     1     -10.865   5.332  73.124  1.00  0.00    -0.339 A  
HETATM   11  C   UNL     1     -11.156   4.105  73.731  1.00  0.00    -0.305 A  
HETATM   12  C   UNL     1      -9.930   2.962  72.008  1.00  0.00    -0.227 A  
HETATM   13  C   UNL     1      -9.661   4.190  71.403  1.00  0.00    -0.251 A  
HETATM   14  C   UNL     1     -10.686   2.917  73.174  1.00  0.00    -0.257 A  
ENDBRANCH   8   9
BRANCH   8  15
HETATM   15  C   UNL     1      -9.939   7.838  72.097  1.00  0.00    -0.193 C  
BRANCH  15  16
HETATM   16  C   UNL     1     -11.112   8.740  71.761  1.00  0.00    -0.417 A  
HETATM   17  C   UNL     1     -13.110  10.672  71.372  1.00  0.00    -0.499 A  
HETATM   18  C   UNL     1     -10.907   9.816  70.883  1.00  0.00    -0.399 A  
HETATM   19  C   UNL     1     -11.895  10.785  70.700  1.00  0.00    -0.460 A  
HETATM   20  C   UNL     1     -13.368   9.549  72.153  1.00  0.00    -0.545 A  
HETATM   21  C   UNL     1     -12.387   8.573  72.319  1.00  0.00    -0.450 A  
ENDBRANCH  15  16
ENDBRANCH   8  15
ENDBRANCH   1   8
TORSDOF 5
ENDMDL
MODEL       92
REMARK 921   NORMALIZED FREE ENERGY PREDICTED BY IDOCK:   -4.88 KCAL/MOL
REMARK 922        TOTAL FREE ENERGY PREDICTED BY IDOCK:   -6.90 KCAL/MOL
REMARK 923 INTER-LIGAND FREE ENERGY PREDICTED BY IDOCK:   -6.54 KCAL/MOL
REMARK 924 INTRA-LIGAND FREE ENERGY PREDICTED BY IDOCK:   -0.36 KCAL/MOL
REMARK 927      BINDING AFFINITY PREDICTED BY RF-SCORE:    0.00 PKD
ROOT
HETATM    1  C   UNL     1     -10.901   9.422  71.550  1.00  0.00    -0.328 C  
ENDROOT
BRANCH   1   2
HETATM    2  C   UNL     1     -12.140   8.554  71.759  1.00  0.00    -0.333 A  
HETATM    3  H   UNL     1     -11.695   6.962  70.472  1.00  0.00     0.000 HD 
HETATM    4  N   UNL     1     -12.364   7.489  71.034  1.00  0.00    -0.275 NA 
HETATM    5  N   UNL     1     -13.160   8.976  72.581  1.00  0.00    -0.384 NA 
HETATM    6  C   UNL     1     -14.347   8.240  72.228  1.00  0.00    -0.335 A  
HETATM    7  C   UNL     1     -13.814   7.220  71.217  1.00  0.00    -0.219 A  
ENDBRANCH   1   2
BRANCH   1   8
HETATM    8  N   UNL     1     -11.225  10.409  70.505  1.00  0.00    -0.325 NA 
BRANCH   8   9
HETATM    9  C   UNL     1     -10.561  10.402  69.288  1.00  0.00    -0.232 A  
HETATM   10  C   UNL     1     -11.195  10.672  68.071  1.00  0.00    -0.373 A  
HETATM   11  C   UNL     1     -10.481  10.693  66.867  1.00  0.00    -0.304 A  
HETATM   12  C   UNL     1      -8.470  10.116  68.049  1.00  0.00    -0.118 A  
HETATM   13  C   UNL     1      -9.188  10.115  69.245  1.00  0.00    -0.220 A  
HETATM   14  C   UNL     1      -9.116  10.412  66.855  1.00  0.00    -0.159 A  
ENDBRANCH   8   9
BRANCH   8  15
HETATM   15  C   UNL     1     -12.584  11.019  70.526  1.00  0.00    -0.304 C  
BRANCH  15  16
HETATM   16  C   UNL     1     -12.625  12.474  70.953  1.00  0.00    -0.331 A  
HETATM   17  C   UNL     1     -12.326  15.117  71.847  1.00  0.00    -0.423 A  
HETATM   18  C   UNL     1     -11.981  13.432  70.155  1.00  0.00    -0.396 A  
HETATM   19  C   UNL     1     -11.819  14.743  70.605  1.00  0.00    -0.364 A  
HETATM   20  C   UNL     1     -13.068  14.208  72.595  1.00  0.00    -0.564 A  
HETATM   21  C   UNL     1     -13.245  12.904  72.135  1.00  0.00    -0.552 A  
ENDBRANCH  15  16
ENDBRANCH   8  15
ENDBRANCH   1   8
TORSDOF 5
ENDMDL
MODEL       93
REMARK 921   NORMALIZED FREE ENERGY PREDICTED BY IDOCK:   -4.87 KCAL/MOL
REMARK 922        TOTAL FREE ENERGY PREDICTED BY IDOCK:   -6.88 KCAL/MOL
REMARK 923 INTER-LIGAND FREE ENERGY PREDICTED BY IDOCK:   -6.60 KCAL/MOL
REMARK 924 INTRA-LIGAND FREE ENERGY PREDICTED BY IDOCK:   -0.28 KCAL/MOL
REMARK 927      BINDING AFFINITY PREDICTED BY RF-SCORE:    0.00 PKD
ROOT
HETATM    1  C   UNL     1     -12.959  12.746  70.104  1.00  0.00     0.615 C  
ENDROOT
BRANCH   1   2
HETATM    2  C   UNL     1     -12.627  13.670  71.273  1.00  0.00    -0.351 A  
HETATM    3  H   UNL     1     -14.057  13.031  72.664  1.00  0.00     0.000 HD 
HETATM    4  N   UNL     1     -13.375  13.719  72.345  1.00  0.00    -0.501 NA 
HETATM    5  N   UNL     1     -11.645  14.627  71.153  1.00  0.00    -0.273 NA 
HETATM    6  C   UNL     1     -11.869  15.622  72.170  1.00  0.00    -0.474 A  
HETATM    7  C   UNL     1     -13.004  15.004  72.992  1.00  0.00    -0.488 A  
ENDBRANCH   1   2
BRANCH   1   8
HETATM    8  N   UNL     1     -11.868  11.760  69.998  1.00  0.00    -0.341 NA 
BRANCH   8   9
HETATM    9  C   UNL     1     -11.849  10.630  70.801  1.00  0.00    -0.357 A  
HETATM   10  C   UNL     1     -10.740   9.785  70.903  1.00  0.00    -0.375 A  
HETATM   11  C   UNL     1     -10.746   8.674  71.754  1.00  0.00    -0.392 A  
HETATM   12  C   UNL     1     -13.006   9.179  72.397  1.00  0.00    -0.468 A  
HETATM   13  C   UNL     1     -12.982  10.294  71.558  1.00  0.00    -0.556 A  
HETATM   14  C   UNL     1     -11.882   8.368  72.502  1.00  0.00    -0.427 A  
ENDBRANCH   8   9
BRANCH   8  15
HETATM   15  C   UNL     1     -11.129  11.680  68.708  1.00  0.00    -0.230 C  
BRANCH  15  16
HETATM   16  C   UNL     1     -11.212  12.927  67.846  1.00  0.00    -0.306 A  
HETATM   17  C   UNL     1     -11.121  15.046  66.010  1.00  0.00    -0.329 A  
HETATM   18  C   UNL     1     -11.963  12.881  66.661  1.00  0.00    -0.436 A  
HETATM   19  C   UNL     1     -11.907  13.928  65.741  1.00  0.00    -0.393 A  
HETATM   20  C   UNL     1     -10.465  15.155  67.233  1.00  0.00    -0.271 A  
HETATM   21  C   UNL     1     -10.538  14.116  68.159  1.00  0.00    -0.249 A  
ENDBRANCH  15  16
ENDBRANCH   8  15
ENDBRANCH   1   8
TORSDOF 5
ENDMDL
MODEL       94
REMARK 921   NORMALIZED FREE ENERGY PREDICTED BY IDOCK:   -4.87 KCAL/MOL
REMARK 922        TOTAL FREE ENERGY PREDICTED BY IDOCK:   -6.88 KCAL/MOL
REMARK 923 INTER-LIGAND FREE ENERGY PREDICTED BY IDOCK:   -6.00 KCAL/MOL
REMARK 924 INTRA-LIGAND FREE ENERGY PREDICTED BY IDOCK:   -0.88 KCAL/MOL
REMARK 927      BINDING AFFINITY PREDICTED BY RF-SCORE:    0.00 PKD
ROOT
HETATM    1  C   UNL     1      -9.274  13.541  68.315  1.00  0.00    -0.195 C  
ENDROOT
BRANCH   1   2
HETATM    2  C   UNL     1      -9.459  15.049  68.160  1.00  0.00    -0.196 A  
HETATM    3  H   UNL     1      -9.386  15.637  70.169  1.00  0.00     0.000 HD 
HETATM    4  N   UNL     1      -9.617  15.833  69.195  1.00  0.00    -0.237 NA 
HETATM    5  N   UNL     1      -9.667  15.604  66.918  1.00  0.00    -0.225 NA 
HETATM    6  C   UNL     1     -10.268  16.900  67.107  1.00  0.00    -0.297 A  
HETATM    7  C   UNL     1     -10.206  17.073  68.628  1.00  0.00    -0.321 A  
ENDBRANCH   1   2
BRANCH   1   8
HETATM    8  N   UNL     1     -10.288  12.883  67.473  1.00  0.00    -0.222 NA 
BRANCH   8   9
HETATM    9  C   UNL     1      -9.968  11.771  66.710  1.00  0.00    -0.201 A  
HETATM   10  C   UNL     1      -9.472  10.584  67.260  1.00  0.00    -0.179 A  
HETATM   11  C   UNL     1      -9.196   9.470  66.460  1.00  0.00    -0.201 A  
HETATM   12  C   UNL     1      -9.850  10.709  64.507  1.00  0.00    -0.388 A  
HETATM   13  C   UNL     1     -10.138  11.808  65.317  1.00  0.00    -0.300 A  
HETATM   14  C   UNL     1      -9.383   9.532  65.080  1.00  0.00    -0.316 A  
ENDBRANCH   8   9
BRANCH   8  15
HETATM   15  C   UNL     1     -11.718  13.046  67.855  1.00  0.00    -0.357 C  
BRANCH  15  16
HETATM   16  C   UNL     1     -12.043  12.672  69.290  1.00  0.00    -0.218 A  
HETATM   17  C   UNL     1     -12.996  11.879  71.806  1.00  0.00    -0.455 A  
HETATM   18  C   UNL     1     -12.104  11.314  69.637  1.00  0.00    -0.391 A  
HETATM   19  C   UNL     1     -12.591  10.918  70.883  1.00  0.00    -0.494 A  
HETATM   20  C   UNL     1     -12.830  13.231  71.518  1.00  0.00    -0.419 A  
HETATM   21  C   UNL     1     -12.325  13.624  70.280  1.00  0.00    -0.392 A  
ENDBRANCH  15  16
ENDBRANCH   8  15
ENDBRANCH   1   8
TORSDOF 5
ENDMDL
MODEL       95
REMARK 921   NORMALIZED FREE ENERGY PREDICTED BY IDOCK:   -4.86 KCAL/MOL
REMARK 922        TOTAL FREE ENERGY PREDICTED BY IDOCK:   -6.87 KCAL/MOL
REMARK 923 INTER-LIGAND FREE ENERGY PREDICTED BY IDOCK:   -5.99 KCAL/MOL
REMARK 924 INTRA-LIGAND FREE ENERGY PREDICTED BY IDOCK:   -0.88 KCAL/MOL
REMARK 927      BINDING AFFINITY PREDICTED BY RF-SCORE:    0.00 PKD
ROOT
HETATM    1  C   UNL     1     -12.248  13.615  67.301  1.00  0.00    -0.275 C  
ENDROOT
BRANCH   1   2
HETATM    2  C   UNL     1     -12.434  13.265  65.826  1.00  0.00    -0.417 A  
HETATM    3  H   UNL     1     -11.962  11.224  65.870  1.00  0.00     0.000 HD 
HETATM    4  N   UNL     1     -12.109  12.090  65.351  1.00  0.00    -0.421 NA 
HETATM    5  N   UNL     1     -12.762  14.240  64.911  1.00  0.00    -0.662 NA 
HETATM    6  C   UNL     1     -12.409  13.755  63.601  1.00  0.00    -0.198 A  
HETATM    7  C   UNL     1     -12.002  12.305  63.884  1.00  0.00    -0.491 A  
ENDBRANCH   1   2
BRANCH   1   8
HETATM    8  N   UNL     1     -10.824  13.934  67.502  1.00  0.00    -0.264 NA 
BRANCH   8   9
HETATM    9  C   UNL     1     -10.333  15.201  67.232  1.00  0.00    -0.261 A  
HETATM   10  C   UNL     1      -9.217  15.431  66.420  1.00  0.00    -0.339 A  
HETATM   11  C   UNL     1      -8.774  16.729  66.139  1.00  0.00    -0.299 A  
HETATM   12  C   UNL     1     -10.522  17.624  67.526  1.00  0.00    -0.365 A  
HETATM   13  C   UNL     1     -10.964  16.326  67.784  1.00  0.00    -0.281 A  
HETATM   14  C   UNL     1      -9.426  17.829  66.695  1.00  0.00    -0.299 A  
ENDBRANCH   8   9
BRANCH   8  15
HETATM   15  C   UNL     1     -10.063  13.114  68.485  1.00  0.00    -0.200 C  
BRANCH  15  16
HETATM   16  C   UNL     1     -10.047  11.624  68.198  1.00  0.00    -0.202 A  
HETATM   17  C   UNL     1     -10.237   8.955  67.355  1.00  0.00    -0.313 A  
HETATM   18  C   UNL     1      -9.251  11.146  67.145  1.00  0.00    -0.165 A  
HETATM   19  C   UNL     1      -9.355   9.823  66.716  1.00  0.00    -0.190 A  
HETATM   20  C   UNL     1     -10.945   9.384  68.474  1.00  0.00    -0.076 A  
HETATM   21  C   UNL     1     -10.824  10.701  68.913  1.00  0.00    -0.272 A  
ENDBRANCH  15  16
ENDBRANCH   8  15
ENDBRANCH   1   8
TORSDOF 5
ENDMDL
MODEL       96
REMARK 921   NORMALIZED FREE ENERGY PREDICTED BY IDOCK:   -4.85 KCAL/MOL
REMARK 922        TOTAL FREE ENERGY PREDICTED BY IDOCK:   -6.86 KCAL/MOL
REMARK 923 INTER-LIGAND FREE ENERGY PREDICTED BY IDOCK:   -6.32 KCAL/MOL
REMARK 924 INTRA-LIGAND FREE ENERGY PREDICTED BY IDOCK:   -0.54 KCAL/MOL
REMARK 927      BINDING AFFINITY PREDICTED BY RF-SCORE:    0.00 PKD
ROOT
HETATM    1  C   UNL     1      -9.397  14.563  68.861  1.00  0.00    -0.136 C  
ENDROOT
BRANCH   1   2
HETATM    2  C   UNL     1      -8.994  13.152  68.439  1.00  0.00    -0.128 A  
HETATM    3  H   UNL     1      -6.928  13.413  68.209  1.00  0.00     0.000 HD 
HETATM    4  N   UNL     1      -7.778  12.872  68.048  1.00  0.00    -0.129 NA 
HETATM    5  N   UNL     1      -9.947  12.173  68.266  1.00  0.00    -0.208 NA 
HETATM    6  C   UNL     1      -9.377  11.141  67.439  1.00  0.00    -0.164 A  
HETATM    7  C   UNL     1      -7.916  11.585  67.316  1.00  0.00    -0.153 A  
ENDBRANCH   1   2
BRANCH   1   8
HETATM    8  N   UNL     1     -10.870  14.624  68.846  1.00  0.00    -0.242 NA 
BRANCH   8   9
HETATM    9  C   UNL     1     -11.596  14.575  70.025  1.00  0.00    -0.284 A  
HETATM   10  C   UNL     1     -11.775  15.684  70.859  1.00  0.00    -0.423 A  
HETATM   11  C   UNL     1     -12.547  15.605  72.023  1.00  0.00    -0.503 A  
HETATM   12  C   UNL     1     -12.951  13.274  71.595  1.00  0.00    -0.441 A  
HETATM   13  C   UNL     1     -12.193  13.370  70.427  1.00  0.00    -0.415 A  
HETATM   14  C   UNL     1     -13.136  14.396  72.394  1.00  0.00    -0.500 A  
ENDBRANCH   8   9
BRANCH   8  15
HETATM   15  C   UNL     1     -11.524  15.279  67.680  1.00  0.00    -0.280 C  
BRANCH  15  16
HETATM   16  C   UNL     1     -11.557  14.444  66.413  1.00  0.00    -0.383 A  
HETATM   17  C   UNL     1     -11.562  12.592  64.306  1.00  0.00    -0.435 A  
HETATM   18  C   UNL     1     -12.694  13.665  66.146  1.00  0.00    -0.295 A  
HETATM   19  C   UNL     1     -12.692  12.734  65.108  1.00  0.00    -0.402 A  
HETATM   20  C   UNL     1     -10.473  13.439  64.486  1.00  0.00    -0.431 A  
HETATM   21  C   UNL     1     -10.484  14.383  65.513  1.00  0.00    -0.366 A  
ENDBRANCH  15  16
ENDBRANCH   8  15
ENDBRANCH   1   8
TORSDOF 5
ENDMDL
MODEL       97
REMARK 921   NORMALIZED FREE ENERGY PREDICTED BY IDOCK:   -4.84 KCAL/MOL
REMARK 922        TOTAL FREE ENERGY PREDICTED BY IDOCK:   -6.85 KCAL/MOL
REMARK 923 INTER-LIGAND FREE ENERGY PREDICTED BY IDOCK:   -6.24 KCAL/MOL
REMARK 924 INTRA-LIGAND FREE ENERGY PREDICTED BY IDOCK:   -0.61 KCAL/MOL
REMARK 927      BINDING AFFINITY PREDICTED BY RF-SCORE:    0.00 PKD
ROOT
HETATM    1  C   UNL     1      -9.022  12.296  68.093  1.00  0.00    -0.192 C  
ENDROOT
BRANCH   1   2
HETATM    2  C   UNL     1      -8.678  11.077  67.240  1.00  0.00    -0.129 A  
HETATM    3  H   UNL     1      -8.041  12.025  65.483  1.00  0.00     0.000 HD 
HETATM    4  N   UNL     1      -8.356  11.189  65.977  1.00  0.00    -0.150 NA 
HETATM    5  N   UNL     1      -8.890   9.804  67.720  1.00  0.00    -0.129 NA 
HETATM    6  C   UNL     1      -8.941   8.909  66.593  1.00  0.00    -0.136 A  
HETATM    7  C   UNL     1      -8.552   9.823  65.427  1.00  0.00    -0.149 A  
ENDBRANCH   1   2
BRANCH   1   8
HETATM    8  N   UNL     1     -10.461  12.564  67.919  1.00  0.00    -0.212 NA 
BRANCH   8   9
HETATM    9  C   UNL     1     -10.956  13.040  66.715  1.00  0.00    -0.276 A  
HETATM   10  C   UNL     1     -10.482  14.204  66.101  1.00  0.00    -0.297 A  
HETATM   11  C   UNL     1     -10.982  14.632  64.865  1.00  0.00    -0.419 A  
HETATM   12  C   UNL     1     -12.500  12.769  64.835  1.00  0.00    -0.563 A  
HETATM   13  C   UNL     1     -11.982  12.342  66.059  1.00  0.00    -0.419 A  
HETATM   14  C   UNL     1     -11.995  13.914  64.231  1.00  0.00    -0.477 A  
ENDBRANCH   8   9
BRANCH   8  15
HETATM   15  C   UNL     1     -11.413  11.825  68.793  1.00  0.00    -0.291 C  
BRANCH  15  16
HETATM   16  C   UNL     1     -12.138  12.680  69.815  1.00  0.00    -0.301 A  
HETATM   17  C   UNL     1     -13.123  14.376  71.821  1.00  0.00    -0.428 A  
HETATM   18  C   UNL     1     -12.200  14.068  69.614  1.00  0.00    -0.383 A  
HETATM   19  C   UNL     1     -12.676  14.913  70.617  1.00  0.00    -0.422 A  
HETATM   20  C   UNL     1     -13.177  12.995  71.988  1.00  0.00    -0.543 A  
HETATM   21  C   UNL     1     -12.719  12.152  70.976  1.00  0.00    -0.322 A  
ENDBRANCH  15  16
ENDBRANCH   8  15
ENDBRANCH   1   8
TORSDOF 5
ENDMDL
MODEL       98
REMARK 921   NORMALIZED FREE ENERGY PREDICTED BY IDOCK:   -4.84 KCAL/MOL
REMARK 922        TOTAL FREE ENERGY PREDICTED BY IDOCK:   -6.85 KCAL/MOL
REMARK 923 INTER-LIGAND FREE ENERGY PREDICTED BY IDOCK:   -6.16 KCAL/MOL
REMARK 924 INTRA-LIGAND FREE ENERGY PREDICTED BY IDOCK:   -0.69 KCAL/MOL
REMARK 927      BINDING AFFINITY PREDICTED BY RF-SCORE:    0.00 PKD
ROOT
HETATM    1  C   UNL     1      -9.822  12.669  68.235  1.00  0.00    -0.227 C  
ENDROOT
BRANCH   1   2
HETATM    2  C   UNL     1      -8.485  11.963  68.019  1.00  0.00    -0.162 A  
HETATM    3  H   UNL     1      -8.356  10.868  69.799  1.00  0.00     0.000 HD 
HETATM    4  N   UNL     1      -7.921  11.256  68.962  1.00  0.00    -0.105 NA 
HETATM    5  N   UNL     1      -7.736  12.214  66.891  1.00  0.00    -0.101 NA 
HETATM    6  C   UNL     1      -6.378  11.817  67.165  1.00  0.00    -0.145 A  
HETATM    7  C   UNL     1      -6.501  11.145  68.536  1.00  0.00    -0.058 A  
ENDBRANCH   1   2
BRANCH   1   8
HETATM    8  N   UNL     1     -10.853  11.887  67.529  1.00  0.00    -0.227 NA 
BRANCH   8   9
HETATM    9  C   UNL     1     -11.248  12.225  66.245  1.00  0.00    -0.323 A  
HETATM   10  C   UNL     1     -12.055  13.331  65.960  1.00  0.00    -0.491 A  
HETATM   11  C   UNL     1     -12.402  13.662  64.645  1.00  0.00    -0.413 A  
HETATM   12  C   UNL     1     -11.188  11.747  63.845  1.00  0.00    -0.493 A  
HETATM   13  C   UNL     1     -10.835  11.438  65.159  1.00  0.00    -0.302 A  
HETATM   14  C   UNL     1     -11.969  12.867  63.584  1.00  0.00    -0.613 A  
ENDBRANCH   8   9
BRANCH   8  15
HETATM   15  C   UNL     1     -11.052  10.471  67.943  1.00  0.00    -0.304 C  
BRANCH  15  16
HETATM   16  C   UNL     1     -11.465  10.280  69.391  1.00  0.00    -0.248 A  
HETATM   17  C   UNL     1     -12.421   9.610  71.942  1.00  0.00    -0.459 A  
HETATM   18  C   UNL     1     -10.859   9.257  70.138  1.00  0.00    -0.275 A  
HETATM   19  C   UNL     1     -11.343   8.914  71.400  1.00  0.00    -0.380 A  
HETATM   20  C   UNL     1     -12.954  10.701  71.263  1.00  0.00    -0.513 A  
HETATM   21  C   UNL     1     -12.456  11.055  70.009  1.00  0.00    -0.319 A  
ENDBRANCH  15  16
ENDBRANCH   8  15
ENDBRANCH   1   8
TORSDOF 5
ENDMDL
MODEL       99
REMARK 921   NORMALIZED FREE ENERGY PREDICTED BY IDOCK:   -4.84 KCAL/MOL
REMARK 922        TOTAL FREE ENERGY PREDICTED BY IDOCK:   -6.84 KCAL/MOL
REMARK 923 INTER-LIGAND FREE ENERGY PREDICTED BY IDOCK:   -5.97 KCAL/MOL
REMARK 924 INTRA-LIGAND FREE ENERGY PREDICTED BY IDOCK:   -0.87 KCAL/MOL
REMARK 927      BINDING AFFINITY PREDICTED BY RF-SCORE:    0.00 PKD
ROOT
HETATM    1  C   UNL     1     -10.874   9.662  67.013  1.00  0.00    -0.078 C  
ENDROOT
BRANCH   1   2
HETATM    2  C   UNL     1      -9.586   9.046  66.471  1.00  0.00    -0.223 A  
HETATM    3  H   UNL     1      -9.181   7.653  67.982  1.00  0.00     0.000 HD 
HETATM    4  N   UNL     1      -8.881   8.197  67.173  1.00  0.00    -0.129 NA 
HETATM    5  N   UNL     1      -9.020   9.518  65.308  1.00  0.00    -0.186 NA 
HETATM    6  C   UNL     1      -7.636   9.119  65.296  1.00  0.00    -0.098 A  
HETATM    7  C   UNL     1      -7.545   8.207  66.524  1.00  0.00    -0.092 A  
ENDBRANCH   1   2
BRANCH   1   8
HETATM    8  N   UNL     1     -10.570  11.051  67.403  1.00  0.00    -0.222 NA 
BRANCH   8   9
HETATM    9  C   UNL     1     -11.189  12.119  66.773  1.00  0.00    -0.322 A  
HETATM   10  C   UNL     1     -11.667  13.238  67.462  1.00  0.00    -0.410 A  
HETATM   11  C   UNL     1     -12.253  14.315  66.786  1.00  0.00    -0.384 A  
HETATM   12  C   UNL     1     -11.957  13.164  64.697  1.00  0.00    -0.439 A  
HETATM   13  C   UNL     1     -11.358  12.104  65.380  1.00  0.00    -0.388 A  
HETATM   14  C   UNL     1     -12.400  14.278  65.401  1.00  0.00    -0.421 A  
ENDBRANCH   8   9
BRANCH   8  15
HETATM   15  C   UNL     1     -10.059  11.286  68.781  1.00  0.00    -0.194 C  
BRANCH  15  16
HETATM   16  C   UNL     1     -10.842  10.591  69.880  1.00  0.00    -0.334 A  
HETATM   17  C   UNL     1     -12.318   9.006  71.663  1.00  0.00    -0.416 A  
HETATM   18  C   UNL     1     -10.224   9.554  70.598  1.00  0.00    -0.364 A  
HETATM   19  C   UNL     1     -10.961   8.757  71.473  1.00  0.00    -0.377 A  
HETATM   20  C   UNL     1     -12.915  10.103  71.048  1.00  0.00    -0.473 A  
HETATM   21  C   UNL     1     -12.171  10.911  70.188  1.00  0.00    -0.423 A  
ENDBRANCH  15  16
ENDBRANCH   8  15
ENDBRANCH   1   8
TORSDOF 5
ENDMDL
MODEL      100
REMARK 921   NORMALIZED FREE ENERGY PREDICTED BY IDOCK:   -4.82 KCAL/MOL
REMARK 922        TOTAL FREE ENERGY PREDICTED BY IDOCK:   -6.82 KCAL/MOL
REMARK 923 INTER-LIGAND FREE ENERGY PREDICTED BY IDOCK:   -6.20 KCAL/MOL
REMARK 924 INTRA-LIGAND FREE ENERGY PREDICTED BY IDOCK:   -0.63 KCAL/MOL
REMARK 927      BINDING AFFINITY PREDICTED BY RF-SCORE:    0.00 PKD
ROOT
HETATM    1  C   UNL     1      -9.396  11.813  68.339  1.00  0.00    -0.185 C  
ENDROOT
BRANCH   1   2
HETATM    2  C   UNL     1      -9.176  11.032  67.045  1.00  0.00    -0.153 A  
HETATM    3  H   UNL     1      -8.543  12.580  65.784  1.00  0.00     0.000 HD 
HETATM    4  N   UNL     1      -8.897  11.633  65.918  1.00  0.00    -0.119 NA 
HETATM    5  N   UNL     1      -9.460   9.686  66.983  1.00  0.00    -0.150 NA 
HETATM    6  C   UNL     1      -9.621   9.331  65.597  1.00  0.00    -0.254 A  
HETATM    7  C   UNL     1      -9.214  10.621  64.876  1.00  0.00    -0.217 A  
ENDBRANCH   1   2
BRANCH   1   8
HETATM    8  N   UNL     1     -10.820  11.682  68.697  1.00  0.00    -0.202 NA 
BRANCH   8   9
HETATM    9  C   UNL     1     -11.220  10.849  69.730  1.00  0.00    -0.281 A  
HETATM   10  C   UNL     1     -10.354   9.959  70.373  1.00  0.00    -0.322 A  
HETATM   11  C   UNL     1     -10.787   9.162  71.438  1.00  0.00    -0.419 A  
HETATM   12  C   UNL     1     -13.000  10.076  71.222  1.00  0.00    -0.495 A  
HETATM   13  C   UNL     1     -12.552  10.879  70.172  1.00  0.00    -0.304 A  
HETATM   14  C   UNL     1     -12.114   9.218  71.863  1.00  0.00    -0.440 A  
ENDBRANCH   8   9
BRANCH   8  15
HETATM   15  C   UNL     1     -11.727  12.811  68.353  1.00  0.00    -0.339 C  
BRANCH  15  16
HETATM   16  C   UNL     1     -11.731  13.205  66.887  1.00  0.00    -0.441 A  
HETATM   17  C   UNL     1     -12.031  14.174  64.272  1.00  0.00    -0.460 A  
HETATM   18  C   UNL     1     -11.203  14.452  66.520  1.00  0.00    -0.340 A  
HETATM   19  C   UNL     1     -11.364  14.941  65.224  1.00  0.00    -0.358 A  
HETATM   20  C   UNL     1     -12.456  12.887  64.591  1.00  0.00    -0.499 A  
HETATM   21  C   UNL     1     -12.276  12.393  65.882  1.00  0.00    -0.220 A  
ENDBRANCH  15  16
ENDBRANCH   8  15
ENDBRANCH   1   8
TORSDOF 5
ENDMDL
MODEL      101
REMARK 921   NORMALIZED FREE ENERGY PREDICTED BY IDOCK:   -4.78 KCAL/MOL
REMARK 922        TOTAL FREE ENERGY PREDICTED BY IDOCK:   -6.76 KCAL/MOL
REMARK 923 INTER-LIGAND FREE ENERGY PREDICTED BY IDOCK:   -5.92 KCAL/MOL
REMARK 924 INTRA-LIGAND FREE ENERGY PREDICTED BY IDOCK:   -0.84 KCAL/MOL
REMARK 927      BINDING AFFINITY PREDICTED BY RF-SCORE:    0.00 PKD
ROOT
HETATM    1  C   UNL     1     -10.751  12.265  68.866  1.00  0.00    -0.172 C  
ENDROOT
BRANCH   1   2
HETATM    2  C   UNL     1     -11.444  11.149  69.645  1.00  0.00    -0.310 A  
HETATM    3  H   UNL     1     -13.447  11.703  69.379  1.00  0.00     0.000 HD 
HETATM    4  N   UNL     1     -12.733  11.163  69.868  1.00  0.00    -0.101 NA 
HETATM    5  N   UNL     1     -10.705  10.196  70.309  1.00  0.00    -0.298 NA 
HETATM    6  C   UNL     1     -11.553   9.594  71.306  1.00  0.00    -0.393 A  
HETATM    7  C   UNL     1     -12.919  10.212  70.995  1.00  0.00    -0.385 A  
ENDBRANCH   1   2
BRANCH   1   8
HETATM    8  N   UNL     1     -11.107  12.099  67.446  1.00  0.00    -0.259 NA 
BRANCH   8   9
HETATM    9  C   UNL     1     -11.091  13.178  66.576  1.00  0.00    -0.294 A  
HETATM   10  C   UNL     1     -10.028  14.084  66.503  1.00  0.00    -0.289 A  
HETATM   11  C   UNL     1     -10.032  15.140  65.585  1.00  0.00    -0.387 A  
HETATM   12  C   UNL     1     -12.202  14.456  64.809  1.00  0.00    -0.458 A  
HETATM   13  C   UNL     1     -12.179  13.397  65.717  1.00  0.00    -0.507 A  
HETATM   14  C   UNL     1     -11.122  15.329  64.736  1.00  0.00    -0.407 A  
ENDBRANCH   8   9
BRANCH   8  15
HETATM   15  C   UNL     1     -10.938  10.747  66.844  1.00  0.00    -0.190 C  
BRANCH  15  16
HETATM   16  C   UNL     1      -9.866  10.654  65.773  1.00  0.00    -0.296 A  
HETATM   17  C   UNL     1      -7.996  10.108  63.755  1.00  0.00    -0.153 A  
HETATM   18  C   UNL     1     -10.258  10.614  64.426  1.00  0.00    -0.400 A  
HETATM   19  C   UNL     1      -9.331  10.328  63.423  1.00  0.00    -0.340 A  
HETATM   20  C   UNL     1      -7.574  10.261  65.072  1.00  0.00    -0.124 A  
HETATM   21  C   UNL     1      -8.499  10.566  66.070  1.00  0.00    -0.157 A  
ENDBRANCH  15  16
ENDBRANCH   8  15
ENDBRANCH   1   8
TORSDOF 5
ENDMDL
MODEL      102
REMARK 921   NORMALIZED FREE ENERGY PREDICTED BY IDOCK:   -4.77 KCAL/MOL
REMARK 922        TOTAL FREE ENERGY PREDICTED BY IDOCK:   -6.76 KCAL/MOL
REMARK 923 INTER-LIGAND FREE ENERGY PREDICTED BY IDOCK:   -5.90 KCAL/MOL
REMARK 924 INTRA-LIGAND FREE ENERGY PREDICTED BY IDOCK:   -0.86 KCAL/MOL
REMARK 927      BINDING AFFINITY PREDICTED BY RF-SCORE:    0.00 PKD
ROOT
HETATM    1  C   UNL     1     -10.799  16.858  67.599  1.00  0.00    -0.244 C  
ENDROOT
BRANCH   1   2
HETATM    2  C   UNL     1     -10.640  18.315  67.169  1.00  0.00    -0.367 A  
HETATM    3  H   UNL     1     -10.705  18.093  65.087  1.00  0.00     0.000 HD 
HETATM    4  N   UNL     1     -10.487  18.649  65.914  1.00  0.00    -0.587 NA 
HETATM    5  N   UNL     1     -10.453  19.305  68.107  1.00  0.00    -0.386 NA 
HETATM    6  C   UNL     1      -9.873  20.443  67.440  1.00  0.00    -0.446 A  
HETATM    7  C   UNL     1      -9.924  20.023  65.968  1.00  0.00    -0.435 A  
ENDBRANCH   1   2
BRANCH   1   8
HETATM    8  N   UNL     1      -9.760  16.078  66.904  1.00  0.00    -0.229 NA 
BRANCH   8   9
HETATM    9  C   UNL     1      -8.521  15.862  67.487  1.00  0.00    -0.165 A  
HETATM   10  C   UNL     1      -7.314  16.036  66.802  1.00  0.00    -0.186 A  
HETATM   11  C   UNL     1      -6.081  15.845  67.437  1.00  0.00    -0.149 A  
HETATM   12  C   UNL     1      -7.221  15.239  69.465  1.00  0.00    -0.205 A  
HETATM   13  C   UNL     1      -8.443  15.450  68.826  1.00  0.00    -0.188 A  
HETATM   14  C   UNL     1      -6.034  15.443  68.772  1.00  0.00    -0.095 A  
ENDBRANCH   8   9
BRANCH   8  15
HETATM   15  C   UNL     1     -10.204  15.088  65.884  1.00  0.00    -0.315 C  
BRANCH  15  16
HETATM   16  C   UNL     1     -10.532  13.711  66.429  1.00  0.00    -0.288 A  
HETATM   17  C   UNL     1     -10.966  11.284  67.768  1.00  0.00    -0.305 A  
HETATM   18  C   UNL     1     -11.570  13.585  67.366  1.00  0.00    -0.392 A  
HETATM   19  C   UNL     1     -11.777  12.382  68.043  1.00  0.00    -0.414 A  
HETATM   20  C   UNL     1     -10.011  11.362  66.758  1.00  0.00    -0.238 A  
HETATM   21  C   UNL     1      -9.819  12.559  66.070  1.00  0.00    -0.266 A  
ENDBRANCH  15  16
ENDBRANCH   8  15
ENDBRANCH   1   8
TORSDOF 5
ENDMDL
MODEL      103
REMARK 921   NORMALIZED FREE ENERGY PREDICTED BY IDOCK:   -4.77 KCAL/MOL
REMARK 922        TOTAL FREE ENERGY PREDICTED BY IDOCK:   -6.75 KCAL/MOL
REMARK 923 INTER-LIGAND FREE ENERGY PREDICTED BY IDOCK:   -5.73 KCAL/MOL
REMARK 924 INTRA-LIGAND FREE ENERGY PREDICTED BY IDOCK:   -1.02 KCAL/MOL
REMARK 927      BINDING AFFINITY PREDICTED BY RF-SCORE:    0.00 PKD
ROOT
HETATM    1  C   UNL     1     -10.113  10.096  69.585  1.00  0.00    -0.234 C  
ENDROOT
BRANCH   1   2
HETATM    2  C   UNL     1     -11.434  10.488  70.243  1.00  0.00    -0.333 A  
HETATM    3  H   UNL     1     -11.486  12.529  69.774  1.00  0.00     0.000 HD 
HETATM    4  N   UNL     1     -11.820  11.735  70.321  1.00  0.00    -0.324 NA 
HETATM    5  N   UNL     1     -12.166   9.562  70.952  1.00  0.00    -0.281 NA 
HETATM    6  C   UNL     1     -13.058  10.278  71.827  1.00  0.00    -0.465 A  
HETATM    7  C   UNL     1     -12.856  11.732  71.386  1.00  0.00    -0.335 A  
ENDBRANCH   1   2
BRANCH   1   8
HETATM    8  N   UNL     1      -9.986  10.884  68.346  1.00  0.00    -0.172 NA 
BRANCH   8   9
HETATM    9  C   UNL     1      -8.795  11.515  68.023  1.00  0.00    -0.158 A  
HETATM   10  C   UNL     1      -8.542  12.860  68.311  1.00  0.00    -0.170 A  
HETATM   11  C   UNL     1      -7.312  13.453  68.003  1.00  0.00    -0.129 A  
HETATM   12  C   UNL     1      -6.554  11.381  67.048  1.00  0.00    -0.125 A  
HETATM   13  C   UNL     1      -7.778  10.797  67.376  1.00  0.00    -0.107 A  
HETATM   14  C   UNL     1      -6.316  12.713  67.368  1.00  0.00    -0.152 A  
ENDBRANCH   8   9
BRANCH   8  15
HETATM   15  C   UNL     1     -10.898  10.551  67.217  1.00  0.00    -0.279 C  
BRANCH  15  16
HETATM   16  C   UNL     1     -11.215  11.709  66.289  1.00  0.00    -0.332 A  
HETATM   17  C   UNL     1     -12.158  13.692  64.542  1.00  0.00    -0.459 A  
HETATM   18  C   UNL     1     -12.035  12.747  66.759  1.00  0.00    -0.389 A  
HETATM   19  C   UNL     1     -12.516  13.725  65.888  1.00  0.00    -0.512 A  
HETATM   20  C   UNL     1     -11.253  12.736  64.089  1.00  0.00    -0.435 A  
HETATM   21  C   UNL     1     -10.759  11.772  64.965  1.00  0.00    -0.344 A  
ENDBRANCH  15  16
ENDBRANCH   8  15
ENDBRANCH   1   8
TORSDOF 5
ENDMDL
MODEL      104
REMARK 921   NORMALIZED FREE ENERGY PREDICTED BY IDOCK:   -4.75 KCAL/MOL
REMARK 922        TOTAL FREE ENERGY PREDICTED BY IDOCK:   -6.73 KCAL/MOL
REMARK 923 INTER-LIGAND FREE ENERGY PREDICTED BY IDOCK:   -6.22 KCAL/MOL
REMARK 924 INTRA-LIGAND FREE ENERGY PREDICTED BY IDOCK:   -0.51 KCAL/MOL
REMARK 927      BINDING AFFINITY PREDICTED BY RF-SCORE:    0.00 PKD
ROOT
HETATM    1  C   UNL     1     -10.950  14.598  65.696  1.00  0.00    -0.335 C  
ENDROOT
BRANCH   1   2
HETATM    2  C   UNL     1     -11.328  13.284  65.015  1.00  0.00    -0.305 A  
HETATM    3  H   UNL     1      -9.427  12.440  64.764  1.00  0.00     0.000 HD 
HETATM    4  N   UNL     1     -10.422  12.471  64.538  1.00  0.00    -0.322 NA 
HETATM    5  N   UNL     1     -12.641  13.009  64.704  1.00  0.00    -0.659 NA 
HETATM    6  C   UNL     1     -12.650  11.990  63.686  1.00  0.00    -0.490 A  
HETATM    7  C   UNL     1     -11.171  11.601  63.594  1.00  0.00    -0.411 A  
ENDBRANCH   1   2
BRANCH   1   8
HETATM    8  N   UNL     1     -11.069  14.391  67.150  1.00  0.00    -0.303 NA 
BRANCH   8   9
HETATM    9  C   UNL     1     -10.700  13.188  67.731  1.00  0.00    -0.240 A  
HETATM   10  C   UNL     1      -9.371  12.847  68.002  1.00  0.00    -0.213 A  
HETATM   11  C   UNL     1      -9.042  11.637  68.625  1.00  0.00    -0.103 A  
HETATM   12  C   UNL     1     -11.368  11.033  68.679  1.00  0.00    -0.346 A  
HETATM   13  C   UNL     1     -11.685  12.249  68.074  1.00  0.00    -0.417 A  
HETATM   14  C   UNL     1     -10.042  10.726  68.963  1.00  0.00    -0.225 A  
ENDBRANCH   8   9
BRANCH   8  15
HETATM   15  C   UNL     1     -11.043  15.596  68.025  1.00  0.00    -0.335 C  
BRANCH  15  16
HETATM   16  C   UNL     1     -11.618  15.390  69.414  1.00  0.00    -0.354 A  
HETATM   17  C   UNL     1     -12.748  15.394  71.982  1.00  0.00    -0.455 A  
HETATM   18  C   UNL     1     -13.011  15.442  69.584  1.00  0.00     0.341 A  
HETATM   19  C   UNL     1     -13.572  15.459  70.861  1.00  0.00    -0.373 A  
HETATM   20  C   UNL     1     -11.376  15.224  71.825  1.00  0.00    -0.445 A  
HETATM   21  C   UNL     1     -10.818  15.189  70.548  1.00  0.00    -0.230 A  
ENDBRANCH  15  16
ENDBRANCH   8  15
ENDBRANCH   1   8
TORSDOF 5
ENDMDL
MODEL      105
REMARK 921   NORMALIZED FREE ENERGY PREDICTED BY IDOCK:   -4.73 KCAL/MOL
REMARK 922        TOTAL FREE ENERGY PREDICTED BY IDOCK:   -6.70 KCAL/MOL
REMARK 923 INTER-LIGAND FREE ENERGY PREDICTED BY IDOCK:   -6.02 KCAL/MOL
REMARK 924 INTRA-LIGAND FREE ENERGY PREDICTED BY IDOCK:   -0.68 KCAL/MOL
REMARK 927      BINDING AFFINITY PREDICTED BY RF-SCORE:    0.00 PKD
ROOT
HETATM    1  C   UNL     1     -10.695   9.239  71.536  1.00  0.00    -0.355 C  
ENDROOT
BRANCH   1   2
HETATM    2  C   UNL     1     -12.040   8.580  71.836  1.00  0.00    -0.349 A  
HETATM    3  H   UNL     1     -11.770   6.739  70.875  1.00  0.00     0.000 HD 
HETATM    4  N   UNL     1     -12.380   7.436  71.302  1.00  0.00    -0.340 NA 
HETATM    5  N   UNL     1     -13.018   9.266  72.521  1.00  0.00    -0.369 NA 
HETATM    6  C   UNL     1     -14.280   8.627  72.247  1.00  0.00    -0.417 A  
HETATM    7  C   UNL     1     -13.857   7.383  71.460  1.00  0.00    -0.374 A  
ENDBRANCH   1   2
BRANCH   1   8
HETATM    8  N   UNL     1     -10.790   9.842  70.194  1.00  0.00    -0.281 NA 
BRANCH   8   9
HETATM    9  C   UNL     1     -10.048   9.343  69.135  1.00  0.00    -0.195 A  
HETATM   10  C   UNL     1      -8.695   9.642  68.942  1.00  0.00    -0.132 A  
HETATM   11  C   UNL     1      -7.971   9.087  67.881  1.00  0.00    -0.102 A  
HETATM   12  C   UNL     1      -9.949   7.951  67.124  1.00  0.00    -0.298 A  
HETATM   13  C   UNL     1     -10.657   8.496  68.196  1.00  0.00    -0.181 A  
HETATM   14  C   UNL     1      -8.598   8.241  66.968  1.00  0.00    -0.124 A  
ENDBRANCH   8   9
BRANCH   8  15
HETATM   15  C   UNL     1     -12.038  10.579  69.853  1.00  0.00    -0.245 C  
BRANCH  15  16
HETATM   16  C   UNL     1     -11.826  11.888  69.115  1.00  0.00    -0.371 A  
HETATM   17  C   UNL     1     -11.809  14.383  67.831  1.00  0.00    -0.384 A  
HETATM   18  C   UNL     1     -11.733  13.076  69.858  1.00  0.00    -0.326 A  
HETATM   19  C   UNL     1     -11.739  14.317  69.221  1.00  0.00    -0.363 A  
HETATM   20  C   UNL     1     -11.783  13.212  67.079  1.00  0.00    -0.431 A  
HETATM   21  C   UNL     1     -11.757  11.973  67.717  1.00  0.00    -0.379 A  
ENDBRANCH  15  16
ENDBRANCH   8  15
ENDBRANCH   1   8
TORSDOF 5
ENDMDL
MODEL      106
REMARK 921   NORMALIZED FREE ENERGY PREDICTED BY IDOCK:   -4.72 KCAL/MOL
REMARK 922        TOTAL FREE ENERGY PREDICTED BY IDOCK:   -6.69 KCAL/MOL
REMARK 923 INTER-LIGAND FREE ENERGY PREDICTED BY IDOCK:   -6.19 KCAL/MOL
REMARK 924 INTRA-LIGAND FREE ENERGY PREDICTED BY IDOCK:   -0.50 KCAL/MOL
REMARK 927      BINDING AFFINITY PREDICTED BY RF-SCORE:    0.00 PKD
ROOT
HETATM    1  C   UNL     1     -10.077  14.179  69.291  1.00  0.00     0.082 C  
ENDROOT
BRANCH   1   2
HETATM    2  C   UNL     1     -10.242  12.701  68.945  1.00  0.00     0.017 A  
HETATM    3  H   UNL     1     -12.208  12.388  69.598  1.00  0.00     0.000 HD 
HETATM    4  N   UNL     1     -11.301  12.024  69.308  1.00  0.00    -0.265 NA 
HETATM    5  N   UNL     1      -9.193  11.984  68.415  1.00  0.00    -0.184 NA 
HETATM    6  C   UNL     1      -9.457  10.585  68.635  1.00  0.00    -0.172 A  
HETATM    7  C   UNL     1     -10.880  10.602  69.202  1.00  0.00    -0.237 A  
ENDBRANCH   1   2
BRANCH   1   8
HETATM    8  N   UNL     1     -11.415  14.795  69.247  1.00  0.00    -0.279 NA 
BRANCH   8   9
HETATM    9  C   UNL     1     -12.103  15.088  70.414  1.00  0.00    -0.333 A  
HETATM   10  C   UNL     1     -13.385  14.602  70.688  1.00  0.00    -0.181 A  
HETATM   11  C   UNL     1     -14.031  14.889  71.896  1.00  0.00    -0.585 A  
HETATM   12  C   UNL     1     -12.150  16.217  72.586  1.00  0.00    -0.652 A  
HETATM   13  C   UNL     1     -11.509  15.909  71.386  1.00  0.00    -0.484 A  
HETATM   14  C   UNL     1     -13.414  15.700  72.847  1.00  0.00    -0.657 A  
ENDBRANCH   8   9
BRANCH   8  15
HETATM   15  C   UNL     1     -11.773  15.588  68.039  1.00  0.00    -0.186 C  
BRANCH  15  16
HETATM   16  C   UNL     1     -11.735  14.816  66.733  1.00  0.00    -0.309 A  
HETATM   17  C   UNL     1     -11.875  13.682  64.171  1.00  0.00    -0.463 A  
HETATM   18  C   UNL     1     -10.906  15.278  65.699  1.00  0.00    -0.371 A  
HETATM   19  C   UNL     1     -10.985  14.724  64.421  1.00  0.00    -0.067 A  
HETATM   20  C   UNL     1     -12.617  13.137  65.215  1.00  0.00    -0.531 A  
HETATM   21  C   UNL     1     -12.521  13.680  66.496  1.00  0.00    -0.337 A  
ENDBRANCH  15  16
ENDBRANCH   8  15
ENDBRANCH   1   8
TORSDOF 5
ENDMDL
MODEL      107
REMARK 921   NORMALIZED FREE ENERGY PREDICTED BY IDOCK:   -4.72 KCAL/MOL
REMARK 922        TOTAL FREE ENERGY PREDICTED BY IDOCK:   -6.69 KCAL/MOL
REMARK 923 INTER-LIGAND FREE ENERGY PREDICTED BY IDOCK:   -6.18 KCAL/MOL
REMARK 924 INTRA-LIGAND FREE ENERGY PREDICTED BY IDOCK:   -0.52 KCAL/MOL
REMARK 927      BINDING AFFINITY PREDICTED BY RF-SCORE:    0.00 PKD
ROOT
HETATM    1  C   UNL     1     -12.243  13.380  67.989  1.00  0.00    -0.100 C  
ENDROOT
BRANCH   1   2
HETATM    2  C   UNL     1     -11.311  14.380  67.307  1.00  0.00    -0.342 A  
HETATM    3  H   UNL     1     -11.536  16.024  68.586  1.00  0.00     0.000 HD 
HETATM    4  N   UNL     1     -11.237  15.627  67.696  1.00  0.00    -0.309 NA 
HETATM    5  N   UNL     1     -10.668  14.051  66.135  1.00  0.00    -0.287 NA 
HETATM    6  C   UNL     1     -10.270  15.276  65.490  1.00  0.00    -0.388 A  
HETATM    7  C   UNL     1     -10.617  16.332  66.544  1.00  0.00    -0.256 A  
ENDBRANCH   1   2
BRANCH   1   8
HETATM    8  N   UNL     1     -11.646  13.039  69.292  1.00  0.00    -0.296 NA 
BRANCH   8   9
HETATM    9  C   UNL     1     -12.060  13.673  70.453  1.00  0.00    -0.351 A  
HETATM   10  C   UNL     1     -11.485  14.858  70.923  1.00  0.00    -0.305 A  
HETATM   11  C   UNL     1     -11.957  15.489  72.080  1.00  0.00    -0.518 A  
HETATM   12  C   UNL     1     -13.571  13.733  72.378  1.00  0.00    -0.690 A  
HETATM   13  C   UNL     1     -13.104  13.123  71.213  1.00  0.00    -0.275 A  
HETATM   14  C   UNL     1     -13.001  14.924  72.811  1.00  0.00    -0.542 A  
ENDBRANCH   8   9
BRANCH   8  15
HETATM   15  C   UNL     1     -11.041  11.687  69.444  1.00  0.00    -0.206 C  
BRANCH  15  16
HETATM   16  C   UNL     1     -10.154  11.251  68.292  1.00  0.00    -0.198 A  
HETATM   17  C   UNL     1      -8.554  10.810  66.030  1.00  0.00    -0.181 A  
HETATM   18  C   UNL     1      -8.821  11.688  68.262  1.00  0.00    -0.167 A  
HETATM   19  C   UNL     1      -8.029  11.482  67.132  1.00  0.00    -0.160 A  
HETATM   20  C   UNL     1      -9.835  10.269  66.093  1.00  0.00    -0.284 A  
HETATM   21  C   UNL     1     -10.618  10.460  67.231  1.00  0.00    -0.322 A  
ENDBRANCH  15  16
ENDBRANCH   8  15
ENDBRANCH   1   8
TORSDOF 5
ENDMDL
MODEL      108
REMARK 921   NORMALIZED FREE ENERGY PREDICTED BY IDOCK:   -4.72 KCAL/MOL
REMARK 922        TOTAL FREE ENERGY PREDICTED BY IDOCK:   -6.69 KCAL/MOL
REMARK 923 INTER-LIGAND FREE ENERGY PREDICTED BY IDOCK:   -5.93 KCAL/MOL
REMARK 924 INTRA-LIGAND FREE ENERGY PREDICTED BY IDOCK:   -0.76 KCAL/MOL
REMARK 927      BINDING AFFINITY PREDICTED BY RF-SCORE:    0.00 PKD
ROOT
HETATM    1  C   UNL     1     -10.506   8.509  67.672  1.00  0.00    -0.241 C  
ENDROOT
BRANCH   1   2
HETATM    2  C   UNL     1      -9.159   7.809  67.842  1.00  0.00    -0.131 A  
HETATM    3  H   UNL     1      -9.578   6.603  69.503  1.00  0.00     0.000 HD 
HETATM    4  N   UNL     1      -8.908   7.040  68.870  1.00  0.00    -0.131 NA 
HETATM    5  N   UNL     1      -8.098   8.124  67.024  1.00  0.00    -0.107 NA 
HETATM    6  C   UNL     1      -6.889   7.702  67.684  1.00  0.00    -0.069 A  
HETATM    7  C   UNL     1      -7.426   6.946  68.903  1.00  0.00    -0.096 A  
ENDBRANCH   1   2
BRANCH   1   8
HETATM    8  N   UNL     1     -10.256   9.961  67.709  1.00  0.00    -0.184 NA 
BRANCH   8   9
HETATM    9  C   UNL     1     -10.615  10.773  66.645  1.00  0.00    -0.232 A  
HETATM   10  C   UNL     1     -10.160  10.566  65.339  1.00  0.00    -0.358 A  
HETATM   11  C   UNL     1     -10.576  11.385  64.284  1.00  0.00    -0.416 A  
HETATM   12  C   UNL     1     -11.882  12.696  65.817  1.00  0.00    -0.497 A  
HETATM   13  C   UNL     1     -11.474  11.862  66.858  1.00  0.00    -0.390 A  
HETATM   14  C   UNL     1     -11.437  12.455  64.522  1.00  0.00    -0.394 A  
ENDBRANCH   8   9
BRANCH   8  15
HETATM   15  C   UNL     1     -10.149  10.611  69.045  1.00  0.00    -0.213 C  
BRANCH  15  16
HETATM   16  C   UNL     1     -11.134  10.105  70.083  1.00  0.00    -0.378 A  
HETATM   17  C   UNL     1     -12.865   9.493  72.203  1.00  0.00    -0.471 A  
HETATM   18  C   UNL     1     -12.384  10.733  70.190  1.00  0.00    -0.401 A  
HETATM   19  C   UNL     1     -13.240  10.440  71.253  1.00  0.00    -0.431 A  
HETATM   20  C   UNL     1     -11.681   8.780  72.043  1.00  0.00    -0.442 A  
HETATM   21  C   UNL     1     -10.837   9.061  70.970  1.00  0.00    -0.345 A  
ENDBRANCH  15  16
ENDBRANCH   8  15
ENDBRANCH   1   8
TORSDOF 5
ENDMDL
MODEL      109
REMARK 921   NORMALIZED FREE ENERGY PREDICTED BY IDOCK:   -4.72 KCAL/MOL
REMARK 922        TOTAL FREE ENERGY PREDICTED BY IDOCK:   -6.69 KCAL/MOL
REMARK 923 INTER-LIGAND FREE ENERGY PREDICTED BY IDOCK:   -5.75 KCAL/MOL
REMARK 924 INTRA-LIGAND FREE ENERGY PREDICTED BY IDOCK:   -0.94 KCAL/MOL
REMARK 927      BINDING AFFINITY PREDICTED BY RF-SCORE:    0.00 PKD
ROOT
HETATM    1  C   UNL     1     -10.644  14.527  69.226  1.00  0.00    -0.212 C  
ENDROOT
BRANCH   1   2
HETATM    2  C   UNL     1     -10.152  15.821  68.580  1.00  0.00    -0.211 A  
HETATM    3  H   UNL     1      -8.121  15.736  69.088  1.00  0.00     0.000 HD 
HETATM    4  N   UNL     1      -8.933  16.259  68.761  1.00  0.00    -0.231 NA 
HETATM    5  N   UNL     1     -11.035  16.669  67.951  1.00  0.00    -0.318 NA 
HETATM    6  C   UNL     1     -10.420  17.969  67.872  1.00  0.00    -0.396 A  
HETATM    7  C   UNL     1      -9.002  17.695  68.382  1.00  0.00    -0.280 A  
ENDBRANCH   1   2
BRANCH   1   8
HETATM    8  N   UNL     1     -10.581  13.470  68.200  1.00  0.00    -0.238 NA 
BRANCH   8   9
HETATM    9  C   UNL     1      -9.487  12.623  68.116  1.00  0.00    -0.218 A  
HETATM   10  C   UNL     1      -8.320  12.950  67.418  1.00  0.00    -0.190 A  
HETATM   11  C   UNL     1      -7.222  12.083  67.388  1.00  0.00    -0.144 A  
HETATM   12  C   UNL     1      -8.441  10.493  68.714  1.00  0.00    -0.141 A  
HETATM   13  C   UNL     1      -9.523  11.373  68.752  1.00  0.00    -0.128 A  
HETATM   14  C   UNL     1      -7.282  10.850  68.036  1.00  0.00    -0.086 A  
ENDBRANCH   8   9
BRANCH   8  15
HETATM   15  C   UNL     1     -11.868  12.963  67.649  1.00  0.00    -0.346 C  
BRANCH  15  16
HETATM   16  C   UNL     1     -11.945  12.928  66.133  1.00  0.00    -0.491 A  
HETATM   17  C   UNL     1     -11.698  12.901  63.339  1.00  0.00    -0.526 A  
HETATM   18  C   UNL     1     -11.528  11.767  65.462  1.00  0.00    -0.241 A  
HETATM   19  C   UNL     1     -11.392  11.758  64.074  1.00  0.00    -0.461 A  
HETATM   20  C   UNL     1     -12.223  14.019  63.981  1.00  0.00    -0.395 A  
HETATM   21  C   UNL     1     -12.377  14.019  65.367  1.00  0.00    -0.495 A  
ENDBRANCH  15  16
ENDBRANCH   8  15
ENDBRANCH   1   8
TORSDOF 5
ENDMDL
MODEL      110
REMARK 921   NORMALIZED FREE ENERGY PREDICTED BY IDOCK:   -4.70 KCAL/MOL
REMARK 922        TOTAL FREE ENERGY PREDICTED BY IDOCK:   -6.67 KCAL/MOL
REMARK 923 INTER-LIGAND FREE ENERGY PREDICTED BY IDOCK:   -6.02 KCAL/MOL
REMARK 924 INTRA-LIGAND FREE ENERGY PREDICTED BY IDOCK:   -0.64 KCAL/MOL
REMARK 927      BINDING AFFINITY PREDICTED BY RF-SCORE:    0.00 PKD
ROOT
HETATM    1  C   UNL     1      -9.175   9.557  68.862  1.00  0.00    -0.145 C  
ENDROOT
BRANCH   1   2
HETATM    2  C   UNL     1      -9.521   8.602  67.722  1.00  0.00    -0.142 A  
HETATM    3  H   UNL     1     -11.256   7.719  68.495  1.00  0.00     0.000 HD 
HETATM    4  N   UNL     1     -10.484   7.724  67.828  1.00  0.00    -0.219 NA 
HETATM    5  N   UNL     1      -8.700   8.499  66.622  1.00  0.00    -0.121 NA 
HETATM    6  C   UNL     1      -8.983   7.244  65.974  1.00  0.00    -0.116 A  
HETATM    7  C   UNL     1     -10.198   6.735  66.756  1.00  0.00    -0.202 A  
ENDBRANCH   1   2
BRANCH   1   8
HETATM    8  N   UNL     1     -10.253  10.559  68.940  1.00  0.00    -0.197 NA 
BRANCH   8   9
HETATM    9  C   UNL     1     -11.204  10.505  69.947  1.00  0.00    -0.307 A  
HETATM   10  C   UNL     1     -11.436   9.361  70.717  1.00  0.00    -0.364 A  
HETATM   11  C   UNL     1     -12.380   9.358  71.751  1.00  0.00    -0.471 A  
HETATM   12  C   UNL     1     -12.942  11.639  71.245  1.00  0.00    -0.368 A  
HETATM   13  C   UNL     1     -11.986  11.636  70.228  1.00  0.00    -0.445 A  
HETATM   14  C   UNL     1     -13.137  10.498  72.015  1.00  0.00    -0.511 A  
ENDBRANCH   8   9
BRANCH   8  15
HETATM   15  C   UNL     1     -10.008  11.889  68.318  1.00  0.00    -0.202 C  
BRANCH  15  16
HETATM   16  C   UNL     1     -10.589  12.061  66.926  1.00  0.00    -0.260 A  
HETATM   17  C   UNL     1     -11.938  12.124  64.468  1.00  0.00    -0.415 A  
HETATM   18  C   UNL     1     -11.761  12.817  66.772  1.00  0.00    -0.459 A  
HETATM   19  C   UNL     1     -12.441  12.837  65.554  1.00  0.00    -0.419 A  
HETATM   20  C   UNL     1     -10.716  11.467  64.575  1.00  0.00    -0.390 A  
HETATM   21  C   UNL     1     -10.029  11.464  65.788  1.00  0.00    -0.271 A  
ENDBRANCH  15  16
ENDBRANCH   8  15
ENDBRANCH   1   8
TORSDOF 5
ENDMDL
MODEL      111
REMARK 921   NORMALIZED FREE ENERGY PREDICTED BY IDOCK:   -4.69 KCAL/MOL
REMARK 922        TOTAL FREE ENERGY PREDICTED BY IDOCK:   -6.66 KCAL/MOL
REMARK 923 INTER-LIGAND FREE ENERGY PREDICTED BY IDOCK:   -5.94 KCAL/MOL
REMARK 924 INTRA-LIGAND FREE ENERGY PREDICTED BY IDOCK:   -0.71 KCAL/MOL
REMARK 927      BINDING AFFINITY PREDICTED BY RF-SCORE:    0.00 PKD
ROOT
HETATM    1  C   UNL     1      -9.321   7.981  70.375  1.00  0.00    -0.158 C  
ENDROOT
BRANCH   1   2
HETATM    2  C   UNL     1      -8.420   7.596  71.547  1.00  0.00    -0.115 A  
HETATM    3  H   UNL     1      -7.844   5.672  70.952  1.00  0.00     0.000 HD 
HETATM    4  N   UNL     1      -7.931   6.390  71.671  1.00  0.00    -0.101 NA 
HETATM    5  N   UNL     1      -8.257   8.451  72.614  1.00  0.00    -0.303 NA 
HETATM    6  C   UNL     1      -7.782   7.676  73.732  1.00  0.00    -0.138 A  
HETATM    7  C   UNL     1      -7.530   6.304  73.100  1.00  0.00    -0.092 A  
ENDBRANCH   1   2
BRANCH   1   8
HETATM    8  N   UNL     1     -10.713   7.728  70.788  1.00  0.00    -0.223 NA 
BRANCH   8   9
HETATM    9  C   UNL     1     -11.566   8.777  71.094  1.00  0.00    -0.289 A  
HETATM   10  C   UNL     1     -12.715   8.623  71.876  1.00  0.00    -0.413 A  
HETATM   11  C   UNL     1     -13.532   9.714  72.195  1.00  0.00    -0.516 A  
HETATM   12  C   UNL     1     -12.106  11.157  70.906  1.00  0.00    -0.427 A  
HETATM   13  C   UNL     1     -11.290  10.065  70.610  1.00  0.00    -0.425 A  
HETATM   14  C   UNL     1     -13.228  10.984  71.708  1.00  0.00    -0.505 A  
ENDBRANCH   8   9
BRANCH   8  15
HETATM   15  C   UNL     1     -11.345   6.454  70.349  1.00  0.00    -0.389 C  
BRANCH  15  16
HETATM   16  C   UNL     1     -10.725   5.824  69.115  1.00  0.00    -0.370 A  
HETATM   17  C   UNL     1      -9.933   4.511  66.766  1.00  0.00    -0.240 A  
HETATM   18  C   UNL     1     -11.030   6.363  67.856  1.00  0.00    -0.416 A  
HETATM   19  C   UNL     1     -10.649   5.703  66.687  1.00  0.00    -0.361 A  
HETATM   20  C   UNL     1      -9.524   4.028  68.006  1.00  0.00    -0.220 A  
HETATM   21  C   UNL     1      -9.889   4.700  69.171  1.00  0.00    -0.242 A  
ENDBRANCH  15  16
ENDBRANCH   8  15
ENDBRANCH   1   8
TORSDOF 5
ENDMDL
MODEL      112
REMARK 921   NORMALIZED FREE ENERGY PREDICTED BY IDOCK:   -4.69 KCAL/MOL
REMARK 922        TOTAL FREE ENERGY PREDICTED BY IDOCK:   -6.66 KCAL/MOL
REMARK 923 INTER-LIGAND FREE ENERGY PREDICTED BY IDOCK:   -5.86 KCAL/MOL
REMARK 924 INTRA-LIGAND FREE ENERGY PREDICTED BY IDOCK:   -0.80 KCAL/MOL
REMARK 927      BINDING AFFINITY PREDICTED BY RF-SCORE:    0.00 PKD
ROOT
HETATM    1  C   UNL     1      -9.265  12.200  68.392  1.00  0.00    -0.154 C  
ENDROOT
BRANCH   1   2
HETATM    2  C   UNL     1      -7.808  11.752  68.305  1.00  0.00    -0.137 A  
HETATM    3  H   UNL     1      -7.484  11.164  70.289  1.00  0.00     0.000 HD 
HETATM    4  N   UNL     1      -7.125  11.421  69.369  1.00  0.00    -0.099 NA 
HETATM    5  N   UNL     1      -7.108  11.873  67.125  1.00  0.00    -0.145 NA 
HETATM    6  C   UNL     1      -5.703  11.840  67.439  1.00  0.00    -0.102 A  
HETATM    7  C   UNL     1      -5.706  11.504  68.934  1.00  0.00    -0.046 A  
ENDBRANCH   1   2
BRANCH   1   8
HETATM    8  N   UNL     1     -10.101  10.986  68.390  1.00  0.00    -0.177 NA 
BRANCH   8   9
HETATM    9  C   UNL     1     -10.809  10.606  69.519  1.00  0.00    -0.259 A  
HETATM   10  C   UNL     1     -12.048  11.156  69.864  1.00  0.00    -0.418 A  
HETATM   11  C   UNL     1     -12.751  10.720  70.993  1.00  0.00    -0.513 A  
HETATM   12  C   UNL     1     -10.966   9.195  71.513  1.00  0.00    -0.434 A  
HETATM   13  C   UNL     1     -10.283   9.626  70.375  1.00  0.00    -0.348 A  
HETATM   14  C   UNL     1     -12.208   9.738  71.821  1.00  0.00    -0.449 A  
ENDBRANCH   8   9
BRANCH   8  15
HETATM   15  C   UNL     1     -10.617  10.503  67.079  1.00  0.00    -0.253 C  
BRANCH  15  16
HETATM   16  C   UNL     1     -11.075  11.596  66.131  1.00  0.00    -0.335 A  
HETATM   17  C   UNL     1     -11.595  13.805  64.481  1.00  0.00    -0.413 A  
HETATM   18  C   UNL     1     -10.420  11.739  64.897  1.00  0.00    -0.334 A  
HETATM   19  C   UNL     1     -10.667  12.844  64.083  1.00  0.00    -0.443 A  
HETATM   20  C   UNL     1     -12.335  13.614  65.644  1.00  0.00    -0.518 A  
HETATM   21  C   UNL     1     -12.099  12.499  66.447  1.00  0.00    -0.279 A  
ENDBRANCH  15  16
ENDBRANCH   8  15
ENDBRANCH   1   8
TORSDOF 5
ENDMDL
MODEL      113
REMARK 921   NORMALIZED FREE ENERGY PREDICTED BY IDOCK:   -4.69 KCAL/MOL
REMARK 922        TOTAL FREE ENERGY PREDICTED BY IDOCK:   -6.65 KCAL/MOL
REMARK 923 INTER-LIGAND FREE ENERGY PREDICTED BY IDOCK:   -5.71 KCAL/MOL
REMARK 924 INTRA-LIGAND FREE ENERGY PREDICTED BY IDOCK:   -0.95 KCAL/MOL
REMARK 927      BINDING AFFINITY PREDICTED BY RF-SCORE:    0.00 PKD
ROOT
HETATM    1  C   UNL     1      -9.146   8.239  70.046  1.00  0.00    -0.150 C  
ENDROOT
BRANCH   1   2
HETATM    2  C   UNL     1      -8.100   7.899  71.105  1.00  0.00    -0.092 A  
HETATM    3  H   UNL     1      -7.161   6.268  70.185  1.00  0.00     0.000 HD 
HETATM    4  N   UNL     1      -7.350   6.831  71.014  1.00  0.00    -0.077 NA 
HETATM    5  N   UNL     1      -8.051   8.597  72.290  1.00  0.00    -0.353 NA 
HETATM    6  C   UNL     1      -7.338   7.793  73.249  1.00  0.00    -0.109 A  
HETATM    7  C   UNL     1      -6.837   6.625  72.394  1.00  0.00    -0.068 A  
ENDBRANCH   1   2
BRANCH   1   8
HETATM    8  N   UNL     1     -10.472   8.002  70.643  1.00  0.00    -0.207 NA 
BRANCH   8   9
HETATM    9  C   UNL     1     -11.324   9.057  70.927  1.00  0.00    -0.293 A  
HETATM   10  C   UNL     1     -12.354   8.975  71.870  1.00  0.00    -0.455 A  
HETATM   11  C   UNL     1     -13.170  10.075  72.156  1.00  0.00    -0.489 A  
HETATM   12  C   UNL     1     -11.988  11.377  70.517  1.00  0.00    -0.451 A  
HETATM   13  C   UNL     1     -11.170  10.278  70.253  1.00  0.00    -0.395 A  
HETATM   14  C   UNL     1     -12.989  11.279  71.477  1.00  0.00    -0.520 A  
ENDBRANCH   8   9
BRANCH   8  15
HETATM   15  C   UNL     1     -11.101   6.670  70.426  1.00  0.00    -0.322 C  
BRANCH  15  16
HETATM   16  C   UNL     1     -10.690   5.599  71.420  1.00  0.00    -0.310 A  
HETATM   17  C   UNL     1     -10.215   3.403  73.100  1.00  0.00    -0.231 A  
HETATM   18  C   UNL     1      -9.977   4.483  70.956  1.00  0.00    -0.257 A  
HETATM   19  C   UNL     1      -9.753   3.385  71.786  1.00  0.00    -0.236 A  
HETATM   20  C   UNL     1     -10.819   4.550  73.607  1.00  0.00    -0.371 A  
HETATM   21  C   UNL     1     -11.025   5.653  72.781  1.00  0.00    -0.320 A  
ENDBRANCH  15  16
ENDBRANCH   8  15
ENDBRANCH   1   8
TORSDOF 5
ENDMDL
MODEL      114
REMARK 921   NORMALIZED FREE ENERGY PREDICTED BY IDOCK:   -4.68 KCAL/MOL
REMARK 922        TOTAL FREE ENERGY PREDICTED BY IDOCK:   -6.64 KCAL/MOL
REMARK 923 INTER-LIGAND FREE ENERGY PREDICTED BY IDOCK:   -5.84 KCAL/MOL
REMARK 924 INTRA-LIGAND FREE ENERGY PREDICTED BY IDOCK:   -0.80 KCAL/MOL
REMARK 927      BINDING AFFINITY PREDICTED BY RF-SCORE:    0.00 PKD
ROOT
HETATM    1  C   UNL     1     -11.803  12.674  69.498  1.00  0.00    -0.312 C  
ENDROOT
BRANCH   1   2
HETATM    2  C   UNL     1     -11.246  13.486  68.331  1.00  0.00    -0.278 A  
HETATM    3  H   UNL     1      -9.217  13.529  68.850  1.00  0.00     0.000 HD 
HETATM    4  N   UNL     1     -10.001  13.886  68.304  1.00  0.00    -0.233 NA 
HETATM    5  N   UNL     1     -12.087  13.992  67.366  1.00  0.00    -0.393 NA 
HETATM    6  C   UNL     1     -11.398  15.067  66.699  1.00  0.00    -0.289 A  
HETATM    7  C   UNL     1      -9.991  14.980  67.298  1.00  0.00    -0.233 A  
ENDBRANCH   1   2
BRANCH   1   8
HETATM    8  N   UNL     1     -11.457  11.261  69.259  1.00  0.00    -0.270 NA 
BRANCH   8   9
HETATM    9  C   UNL     1     -11.568  10.320  70.269  1.00  0.00    -0.316 A  
HETATM   10  C   UNL     1     -10.471   9.626  70.791  1.00  0.00    -0.375 A  
HETATM   11  C   UNL     1     -10.620   8.709  71.838  1.00  0.00    -0.411 A  
HETATM   12  C   UNL     1     -12.991   9.103  71.846  1.00  0.00    -0.473 A  
HETATM   13  C   UNL     1     -12.828  10.028  70.814  1.00  0.00    -0.341 A  
HETATM   14  C   UNL     1     -11.882   8.445  72.366  1.00  0.00    -0.452 A  
ENDBRANCH   8   9
BRANCH   8  15
HETATM   15  C   UNL     1     -11.531  10.758  67.859  1.00  0.00    -0.227 C  
BRANCH  15  16
HETATM   16  C   UNL     1     -10.324   9.960  67.402  1.00  0.00    -0.301 A  
HETATM   17  C   UNL     1      -8.111   8.308  66.905  1.00  0.00    -0.103 A  
HETATM   18  C   UNL     1     -10.501   8.616  67.036  1.00  0.00    -0.354 A  
HETATM   19  C   UNL     1      -9.401   7.791  66.803  1.00  0.00    -0.227 A  
HETATM   20  C   UNL     1      -7.926   9.665  67.151  1.00  0.00    -0.106 A  
HETATM   21  C   UNL     1      -9.028  10.493  67.365  1.00  0.00    -0.139 A  
ENDBRANCH  15  16
ENDBRANCH   8  15
ENDBRANCH   1   8
TORSDOF 5
ENDMDL
MODEL      115
REMARK 921   NORMALIZED FREE ENERGY PREDICTED BY IDOCK:   -4.68 KCAL/MOL
REMARK 922        TOTAL FREE ENERGY PREDICTED BY IDOCK:   -6.64 KCAL/MOL
REMARK 923 INTER-LIGAND FREE ENERGY PREDICTED BY IDOCK:   -5.85 KCAL/MOL
REMARK 924 INTRA-LIGAND FREE ENERGY PREDICTED BY IDOCK:   -0.79 KCAL/MOL
REMARK 927      BINDING AFFINITY PREDICTED BY RF-SCORE:    0.00 PKD
ROOT
HETATM    1  C   UNL     1     -11.385  15.762  67.988  1.00  0.00    -0.310 C  
ENDROOT
BRANCH   1   2
HETATM    2  C   UNL     1     -11.388  14.897  66.730  1.00  0.00    -0.328 A  
HETATM    3  H   UNL     1     -10.185  16.067  65.476  1.00  0.00     0.000 HD 
HETATM    4  N   UNL     1     -10.857  15.311  65.609  1.00  0.00    -0.348 NA 
HETATM    5  N   UNL     1     -12.125  13.735  66.681  1.00  0.00    -0.428 NA 
HETATM    6  C   UNL     1     -12.329  13.399  65.295  1.00  0.00    -0.469 A  
HETATM    7  C   UNL     1     -11.456  14.430  64.573  1.00  0.00    -0.345 A  
ENDBRANCH   1   2
BRANCH   1   8
HETATM    8  N   UNL     1     -10.019  16.289  68.159  1.00  0.00    -0.235 NA 
BRANCH   8   9
HETATM    9  C   UNL     1      -9.700  17.580  67.769  1.00  0.00    -0.274 A  
HETATM   10  C   UNL     1      -8.588  17.886  66.977  1.00  0.00    -0.248 A  
HETATM   11  C   UNL     1      -8.320  19.198  66.572  1.00  0.00    -0.324 A  
HETATM   12  C   UNL     1     -10.246  19.966  67.789  1.00  0.00    -0.567 A  
HETATM   13  C   UNL     1     -10.512  18.651  68.172  1.00  0.00    -0.361 A  
HETATM   14  C   UNL     1      -9.149  20.242  66.980  1.00  0.00    -0.481 A  
ENDBRANCH   8   9
BRANCH   8  15
HETATM   15  C   UNL     1      -9.168  15.676  69.215  1.00  0.00    -0.269 C  
BRANCH  15  16
HETATM   16  C   UNL     1      -8.152  14.666  68.712  1.00  0.00    -0.152 A  
HETATM   17  C   UNL     1      -6.237  13.035  67.471  1.00  0.00    -0.143 A  
HETATM   18  C   UNL     1      -6.789  14.996  68.763  1.00  0.00    -0.105 A  
HETATM   19  C   UNL     1      -5.838  14.193  68.134  1.00  0.00    -0.129 A  
HETATM   20  C   UNL     1      -7.570  12.636  67.513  1.00  0.00    -0.160 A  
HETATM   21  C   UNL     1      -8.516  13.431  68.159  1.00  0.00    -0.172 A  
ENDBRANCH  15  16
ENDBRANCH   8  15
ENDBRANCH   1   8
TORSDOF 5
ENDMDL
MODEL      116
REMARK 921   NORMALIZED FREE ENERGY PREDICTED BY IDOCK:   -4.67 KCAL/MOL
REMARK 922        TOTAL FREE ENERGY PREDICTED BY IDOCK:   -6.63 KCAL/MOL
REMARK 923 INTER-LIGAND FREE ENERGY PREDICTED BY IDOCK:   -5.83 KCAL/MOL
REMARK 924 INTRA-LIGAND FREE ENERGY PREDICTED BY IDOCK:   -0.80 KCAL/MOL
REMARK 927      BINDING AFFINITY PREDICTED BY RF-SCORE:    0.00 PKD
ROOT
HETATM    1  C   UNL     1     -10.258  14.585  69.186  1.00  0.00    -0.164 C  
ENDROOT
BRANCH   1   2
HETATM    2  C   UNL     1      -9.798  15.937  68.647  1.00  0.00    -0.212 A  
HETATM    3  H   UNL     1      -7.726  15.631  68.608  1.00  0.00     0.000 HD 
HETATM    4  N   UNL     1      -8.531  16.256  68.581  1.00  0.00    -0.209 NA 
HETATM    5  N   UNL     1     -10.709  16.939  68.400  1.00  0.00    -0.361 NA 
HETATM    6  C   UNL     1      -9.994  18.190  68.372  1.00  0.00    -0.380 A  
HETATM    7  C   UNL     1      -8.533  17.738  68.460  1.00  0.00    -0.296 A  
ENDBRANCH   1   2
BRANCH   1   8
HETATM    8  N   UNL     1     -10.179  13.617  68.076  1.00  0.00    -0.242 NA 
BRANCH   8   9
HETATM    9  C   UNL     1     -10.775  13.885  66.854  1.00  0.00    -0.284 A  
HETATM   10  C   UNL     1     -10.059  14.315  65.733  1.00  0.00    -0.356 A  
HETATM   11  C   UNL     1     -10.693  14.539  64.505  1.00  0.00    -0.198 A  
HETATM   12  C   UNL     1     -12.807  13.962  65.491  1.00  0.00    -0.471 A  
HETATM   13  C   UNL     1     -12.162  13.725  66.705  1.00  0.00    -0.440 A  
HETATM   14  C   UNL     1     -12.070  14.364  64.383  1.00  0.00    -0.491 A  
ENDBRANCH   8   9
BRANCH   8  15
HETATM   15  C   UNL     1      -9.038  12.661  68.072  1.00  0.00    -0.207 C  
BRANCH  15  16
HETATM   16  C   UNL     1      -9.421  11.210  67.846  1.00  0.00    -0.178 A  
HETATM   17  C   UNL     1     -10.444   8.668  67.243  1.00  0.00    -0.360 A  
HETATM   18  C   UNL     1      -9.270  10.663  66.562  1.00  0.00    -0.187 A  
HETATM   19  C   UNL     1      -9.791   9.405  66.258  1.00  0.00    -0.351 A  
HETATM   20  C   UNL     1     -10.496   9.148  68.548  1.00  0.00    -0.238 A  
HETATM   21  C   UNL     1      -9.958  10.397  68.854  1.00  0.00    -0.208 A  
ENDBRANCH  15  16
ENDBRANCH   8  15
ENDBRANCH   1   8
TORSDOF 5
ENDMDL
MODEL      117
REMARK 921   NORMALIZED FREE ENERGY PREDICTED BY IDOCK:   -4.67 KCAL/MOL
REMARK 922        TOTAL FREE ENERGY PREDICTED BY IDOCK:   -6.62 KCAL/MOL
REMARK 923 INTER-LIGAND FREE ENERGY PREDICTED BY IDOCK:   -5.50 KCAL/MOL
REMARK 924 INTRA-LIGAND FREE ENERGY PREDICTED BY IDOCK:   -1.12 KCAL/MOL
REMARK 927      BINDING AFFINITY PREDICTED BY RF-SCORE:    0.00 PKD
ROOT
HETATM    1  C   UNL     1      -9.571   7.318  73.092  1.00  0.00    -0.193 C  
ENDROOT
BRANCH   1   2
HETATM    2  C   UNL     1      -9.486   5.805  73.287  1.00  0.00    -0.142 A  
HETATM    3  H   UNL     1      -7.588   5.437  72.482  1.00  0.00     0.000 HD 
HETATM    4  N   UNL     1      -8.500   5.103  72.795  1.00  0.00    -0.113 NA 
HETATM    5  N   UNL     1     -10.549   5.107  73.815  1.00  0.00    -0.262 NA 
HETATM    6  C   UNL     1     -10.394   3.722  73.449  1.00  0.00    -0.163 A  
HETATM    7  C   UNL     1      -9.009   3.706  72.795  1.00  0.00    -0.096 A  
ENDBRANCH   1   2
BRANCH   1   8
HETATM    8  N   UNL     1     -10.254   7.559  71.809  1.00  0.00    -0.187 NA 
BRANCH   8   9
HETATM    9  C   UNL     1     -11.592   7.919  71.771  1.00  0.00    -0.278 A  
HETATM   10  C   UNL     1     -12.037   9.230  71.970  1.00  0.00    -0.406 A  
HETATM   11  C   UNL     1     -13.395   9.560  71.887  1.00  0.00    -0.518 A  
HETATM   12  C   UNL     1     -13.927   7.256  71.455  1.00  0.00    -0.486 A  
HETATM   13  C   UNL     1     -12.570   6.942  71.523  1.00  0.00    -0.412 A  
HETATM   14  C   UNL     1     -14.343   8.571  71.631  1.00  0.00    -0.497 A  
ENDBRANCH   8   9
BRANCH   8  15
HETATM   15  C   UNL     1      -9.418   7.959  70.644  1.00  0.00    -0.162 C  
BRANCH  15  16
HETATM   16  C   UNL     1      -9.754   7.254  69.343  1.00  0.00    -0.161 A  
HETATM   17  C   UNL     1     -10.751   5.995  67.042  1.00  0.00    -0.412 A  
HETATM   18  C   UNL     1     -10.260   8.010  68.275  1.00  0.00    -0.243 A  
HETATM   19  C   UNL     1     -10.769   7.384  67.136  1.00  0.00    -0.400 A  
HETATM   20  C   UNL     1     -10.146   5.240  68.043  1.00  0.00    -0.208 A  
HETATM   21  C   UNL     1      -9.620   5.869  69.171  1.00  0.00    -0.166 A  
ENDBRANCH  15  16
ENDBRANCH   8  15
ENDBRANCH   1   8
TORSDOF 5
ENDMDL
MODEL      118
REMARK 921   NORMALIZED FREE ENERGY PREDICTED BY IDOCK:   -4.66 KCAL/MOL
REMARK 922        TOTAL FREE ENERGY PREDICTED BY IDOCK:   -6.62 KCAL/MOL
REMARK 923 INTER-LIGAND FREE ENERGY PREDICTED BY IDOCK:   -5.76 KCAL/MOL
REMARK 924 INTRA-LIGAND FREE ENERGY PREDICTED BY IDOCK:   -0.86 KCAL/MOL
REMARK 927      BINDING AFFINITY PREDICTED BY RF-SCORE:    0.00 PKD
ROOT
HETATM    1  C   UNL     1     -11.406  11.519  67.147  1.00  0.00    -0.284 C  
ENDROOT
BRANCH   1   2
HETATM    2  C   UNL     1     -11.681  12.288  65.857  1.00  0.00    -0.389 A  
HETATM    3  H   UNL     1     -10.090  11.608  64.676  1.00  0.00     0.000 HD 
HETATM    4  N   UNL     1     -10.840  12.275  64.855  1.00  0.00    -0.291 NA 
HETATM    5  N   UNL     1     -12.728  13.180  65.783  1.00  0.00    -0.433 NA 
HETATM    6  C   UNL     1     -12.471  14.074  64.684  1.00  0.00    -0.335 A  
HETATM    7  C   UNL     1     -11.227  13.455  64.038  1.00  0.00    -0.287 A  
ENDBRANCH   1   2
BRANCH   1   8
HETATM    8  N   UNL     1     -10.740  12.447  68.080  1.00  0.00    -0.216 NA 
BRANCH   8   9
HETATM    9  C   UNL     1     -11.457  13.094  69.073  1.00  0.00    -0.296 A  
HETATM   10  C   UNL     1     -12.003  12.430  70.177  1.00  0.00    -0.376 A  
HETATM   11  C   UNL     1     -12.689  13.125  71.180  1.00  0.00    -0.386 A  
HETATM   12  C   UNL     1     -12.359  15.181  69.980  1.00  0.00    -0.356 A  
HETATM   13  C   UNL     1     -11.662  14.480  68.995  1.00  0.00    -0.346 A  
HETATM   14  C   UNL     1     -12.870  14.504  71.081  1.00  0.00    -0.408 A  
ENDBRANCH   8   9
BRANCH   8  15
HETATM   15  C   UNL     1      -9.281  12.265  68.313  1.00  0.00    -0.189 C  
BRANCH  15  16
HETATM   16  C   UNL     1      -8.417  13.445  67.907  1.00  0.00    -0.173 A  
HETATM   17  C   UNL     1      -6.890  15.765  67.514  1.00  0.00    -0.219 A  
HETATM   18  C   UNL     1      -7.122  13.549  68.440  1.00  0.00    -0.107 A  
HETATM   19  C   UNL     1      -6.368  14.709  68.257  1.00  0.00    -0.124 A  
HETATM   20  C   UNL     1      -8.123  15.628  66.884  1.00  0.00    -0.290 A  
HETATM   21  C   UNL     1      -8.866  14.460  67.052  1.00  0.00    -0.256 A  
ENDBRANCH  15  16
ENDBRANCH   8  15
ENDBRANCH   1   8
TORSDOF 5
ENDMDL
MODEL      119
REMARK 921   NORMALIZED FREE ENERGY PREDICTED BY IDOCK:   -4.66 KCAL/MOL
REMARK 922        TOTAL FREE ENERGY PREDICTED BY IDOCK:   -6.61 KCAL/MOL
REMARK 923 INTER-LIGAND FREE ENERGY PREDICTED BY IDOCK:   -5.89 KCAL/MOL
REMARK 924 INTRA-LIGAND FREE ENERGY PREDICTED BY IDOCK:   -0.73 KCAL/MOL
REMARK 927      BINDING AFFINITY PREDICTED BY RF-SCORE:    0.00 PKD
ROOT
HETATM    1  C   UNL     1      -9.320   9.244  70.513  1.00  0.00    -0.264 C  
ENDROOT
BRANCH   1   2
HETATM    2  C   UNL     1      -8.560   8.428  71.557  1.00  0.00    -0.167 A  
HETATM    3  H   UNL     1      -7.476   7.147  70.304  1.00  0.00     0.000 HD 
HETATM    4  N   UNL     1      -7.839   7.389  71.226  1.00  0.00    -0.094 NA 
HETATM    5  N   UNL     1      -8.771   8.641  72.900  1.00  0.00    -0.381 NA 
HETATM    6  C   UNL     1      -8.324   7.469  73.609  1.00  0.00    -0.164 A  
HETATM    7  C   UNL     1      -7.668   6.642  72.499  1.00  0.00    -0.098 A  
ENDBRANCH   1   2
BRANCH   1   8
HETATM    8  N   UNL     1     -10.451   8.421  70.048  1.00  0.00    -0.219 NA 
BRANCH   8   9
HETATM    9  C   UNL     1     -11.668   8.442  70.711  1.00  0.00    -0.202 A  
HETATM   10  C   UNL     1     -12.469   7.307  70.873  1.00  0.00    -0.266 A  
HETATM   11  C   UNL     1     -13.674   7.361  71.583  1.00  0.00    -0.468 A  
HETATM   12  C   UNL     1     -13.351   9.714  71.952  1.00  0.00    -0.526 A  
HETATM   13  C   UNL     1     -12.143   9.644  71.257  1.00  0.00    -0.457 A  
HETATM   14  C   UNL     1     -14.118   8.567  72.122  1.00  0.00    -0.493 A  
ENDBRANCH   8   9
BRANCH   8  15
HETATM   15  C   UNL     1     -10.475   8.025  68.613  1.00  0.00    -0.167 C  
BRANCH  15  16
HETATM   16  C   UNL     1     -10.501   9.181  67.631  1.00  0.00    -0.323 A  
HETATM   17  C   UNL     1     -10.193  11.410  65.954  1.00  0.00    -0.292 A  
HETATM   18  C   UNL     1      -9.710   9.104  66.473  1.00  0.00    -0.306 A  
HETATM   19  C   UNL     1      -9.545  10.216  65.647  1.00  0.00    -0.302 A  
HETATM   20  C   UNL     1     -11.072  11.465  67.032  1.00  0.00    -0.364 A  
HETATM   21  C   UNL     1     -11.250  10.347  67.845  1.00  0.00    -0.332 A  
ENDBRANCH  15  16
ENDBRANCH   8  15
ENDBRANCH   1   8
TORSDOF 5
ENDMDL
MODEL      120
REMARK 921   NORMALIZED FREE ENERGY PREDICTED BY IDOCK:   -4.66 KCAL/MOL
REMARK 922        TOTAL FREE ENERGY PREDICTED BY IDOCK:   -6.61 KCAL/MOL
REMARK 923 INTER-LIGAND FREE ENERGY PREDICTED BY IDOCK:   -5.73 KCAL/MOL
REMARK 924 INTRA-LIGAND FREE ENERGY PREDICTED BY IDOCK:   -0.88 KCAL/MOL
REMARK 927      BINDING AFFINITY PREDICTED BY RF-SCORE:    0.00 PKD
ROOT
HETATM    1  C   UNL     1      -9.553  15.690  69.044  1.00  0.00    -0.243 C  
ENDROOT
BRANCH   1   2
HETATM    2  C   UNL     1      -8.222  14.980  68.810  1.00  0.00    -0.168 A  
HETATM    3  H   UNL     1      -8.900  13.212  67.915  1.00  0.00     0.000 HD 
HETATM    4  N   UNL     1      -8.166  13.746  68.380  1.00  0.00    -0.152 NA 
HETATM    5  N   UNL     1      -7.041  15.548  69.234  1.00  0.00    -0.170 NA 
HETATM    6  C   UNL     1      -6.055  14.502  69.324  1.00  0.00    -0.107 A  
HETATM    7  C   UNL     1      -6.791  13.301  68.722  1.00  0.00    -0.102 A  
ENDBRANCH   1   2
BRANCH   1   8
HETATM    8  N   UNL     1     -10.014  16.204  67.742  1.00  0.00    -0.234 NA 
BRANCH   8   9
HETATM    9  C   UNL     1     -10.769  15.412  66.891  1.00  0.00    -0.314 A  
HETATM   10  C   UNL     1     -11.626  14.405  67.345  1.00  0.00    -0.398 A  
HETATM   11  C   UNL     1     -12.401  13.651  66.455  1.00  0.00    -0.412 A  
HETATM   12  C   UNL     1     -11.444  14.851  64.606  1.00  0.00    -0.380 A  
HETATM   13  C   UNL     1     -10.689  15.608  65.503  1.00  0.00    -0.403 A  
HETATM   14  C   UNL     1     -12.309  13.873  65.082  1.00  0.00    -0.471 A  
ENDBRANCH   8   9
BRANCH   8  15
HETATM   15  C   UNL     1     -10.155  17.678  67.590  1.00  0.00    -0.339 C  
BRANCH  15  16
HETATM   16  C   UNL     1      -8.866  18.415  67.277  1.00  0.00    -0.261 A  
HETATM   17  C   UNL     1      -6.702  20.010  66.474  1.00  0.00    -0.236 A  
HETATM   18  C   UNL     1      -8.646  19.672  67.863  1.00  0.00    -0.360 A  
HETATM   19  C   UNL     1      -7.578  20.471  67.453  1.00  0.00    -0.380 A  
HETATM   20  C   UNL     1      -6.841  18.719  65.970  1.00  0.00    -0.289 A  
HETATM   21  C   UNL     1      -7.898  17.915  66.395  1.00  0.00    -0.307 A  
ENDBRANCH  15  16
ENDBRANCH   8  15
ENDBRANCH   1   8
TORSDOF 5
ENDMDL
MODEL      121
REMARK 921   NORMALIZED FREE ENERGY PREDICTED BY IDOCK:   -4.65 KCAL/MOL
REMARK 922        TOTAL FREE ENERGY PREDICTED BY IDOCK:   -6.60 KCAL/MOL
REMARK 923 INTER-LIGAND FREE ENERGY PREDICTED BY IDOCK:   -5.54 KCAL/MOL
REMARK 924 INTRA-LIGAND FREE ENERGY PREDICTED BY IDOCK:   -1.07 KCAL/MOL
REMARK 927      BINDING AFFINITY PREDICTED BY RF-SCORE:    0.00 PKD
ROOT
HETATM    1  C   UNL     1     -11.204  11.438  69.953  1.00  0.00    -0.143 C  
ENDROOT
BRANCH   1   2
HETATM    2  C   UNL     1     -12.129  12.530  70.485  1.00  0.00    -0.274 A  
HETATM    3  H   UNL     1     -11.409  14.177  69.409  1.00  0.00     0.000 HD 
HETATM    4  N   UNL     1     -11.951  13.790  70.182  1.00  0.00    -0.325 NA 
HETATM    5  N   UNL     1     -13.058  12.248  71.461  1.00  0.00    -0.341 NA 
HETATM    6  C   UNL     1     -13.431  13.488  72.090  1.00  0.00    -0.537 A  
HETATM    7  C   UNL     1     -12.720  14.528  71.218  1.00  0.00    -0.342 A  
ENDBRANCH   1   2
BRANCH   1   8
HETATM    8  N   UNL     1     -10.815  11.817  68.583  1.00  0.00    -0.210 NA 
BRANCH   8   9
HETATM    9  C   UNL     1      -9.485  12.020  68.251  1.00  0.00    -0.199 A  
HETATM   10  C   UNL     1      -8.597  10.973  67.981  1.00  0.00    -0.134 A  
HETATM   11  C   UNL     1      -7.270  11.220  67.611  1.00  0.00    -0.092 A  
HETATM   12  C   UNL     1      -7.651  13.584  67.824  1.00  0.00    -0.163 A  
HETATM   13  C   UNL     1      -8.977  13.326  68.175  1.00  0.00    -0.195 A  
HETATM   14  C   UNL     1      -6.794  12.529  67.535  1.00  0.00    -0.150 A  
ENDBRANCH   8   9
BRANCH   8  15
HETATM   15  C   UNL     1     -11.736  11.444  67.474  1.00  0.00    -0.140 C  
BRANCH  15  16
HETATM   16  C   UNL     1     -11.775  12.427  66.318  1.00  0.00    -0.457 A  
HETATM   17  C   UNL     1     -11.459  14.257  64.216  1.00  0.00    -0.257 A  
HETATM   18  C   UNL     1     -11.361  11.995  65.049  1.00  0.00    -0.365 A  
HETATM   19  C   UNL     1     -11.190  12.906  64.007  1.00  0.00    -0.458 A  
HETATM   20  C   UNL     1     -11.982  14.679  65.434  1.00  0.00    -0.275 A  
HETATM   21  C   UNL     1     -12.171  13.763  66.468  1.00  0.00    -0.475 A  
ENDBRANCH  15  16
ENDBRANCH   8  15
ENDBRANCH   1   8
TORSDOF 5
ENDMDL
MODEL      122
REMARK 921   NORMALIZED FREE ENERGY PREDICTED BY IDOCK:   -4.63 KCAL/MOL
REMARK 922        TOTAL FREE ENERGY PREDICTED BY IDOCK:   -6.57 KCAL/MOL
REMARK 923 INTER-LIGAND FREE ENERGY PREDICTED BY IDOCK:   -5.82 KCAL/MOL
REMARK 924 INTRA-LIGAND FREE ENERGY PREDICTED BY IDOCK:   -0.75 KCAL/MOL
REMARK 927      BINDING AFFINITY PREDICTED BY RF-SCORE:    0.00 PKD
ROOT
HETATM    1  C   UNL     1      -9.021  11.798  67.757  1.00  0.00    -0.173 C  
ENDROOT
BRANCH   1   2
HETATM    2  C   UNL     1      -9.350  10.930  66.544  1.00  0.00    -0.173 A  
HETATM    3  H   UNL     1      -8.963   9.030  67.337  1.00  0.00     0.000 HD 
HETATM    4  N   UNL     1      -9.117   9.643  66.537  1.00  0.00    -0.149 NA 
HETATM    5  N   UNL     1      -9.715  11.507  65.349  1.00  0.00    -0.229 NA 
HETATM    6  C   UNL     1      -9.498  10.537  64.305  1.00  0.00    -0.285 A  
HETATM    7  C   UNL     1      -9.130   9.278  65.096  1.00  0.00    -0.206 A  
ENDBRANCH   1   2
BRANCH   1   8
HETATM    8  N   UNL     1     -10.299  12.277  68.316  1.00  0.00    -0.216 NA 
BRANCH   8   9
HETATM    9  C   UNL     1     -10.576  13.632  68.399  1.00  0.00    -0.251 A  
HETATM   10  C   UNL     1     -11.314  14.198  69.445  1.00  0.00    -0.318 A  
HETATM   11  C   UNL     1     -11.541  15.577  69.514  1.00  0.00    -0.361 A  
HETATM   12  C   UNL     1     -10.342  15.877  67.452  1.00  0.00    -0.288 A  
HETATM   13  C   UNL     1     -10.107  14.503  67.403  1.00  0.00    -0.235 A  
HETATM   14  C   UNL     1     -11.056  16.420  68.515  1.00  0.00    -0.357 A  
ENDBRANCH   8   9
BRANCH   8  15
HETATM   15  C   UNL     1     -11.466  11.354  68.265  1.00  0.00    -0.299 C  
BRANCH  15  16
HETATM   16  C   UNL     1     -11.634  10.468  69.485  1.00  0.00    -0.332 A  
HETATM   17  C   UNL     1     -11.782   9.123  71.943  1.00  0.00    -0.436 A  
HETATM   18  C   UNL     1     -12.642  10.777  70.412  1.00  0.00    -0.395 A  
HETATM   19  C   UNL     1     -12.708  10.119  71.640  1.00  0.00    -0.549 A  
HETATM   20  C   UNL     1     -10.851   8.727  70.987  1.00  0.00    -0.321 A  
HETATM   21  C   UNL     1     -10.800   9.373  69.753  1.00  0.00    -0.250 A  
ENDBRANCH  15  16
ENDBRANCH   8  15
ENDBRANCH   1   8
TORSDOF 5
ENDMDL
MODEL      123
REMARK 921   NORMALIZED FREE ENERGY PREDICTED BY IDOCK:   -4.62 KCAL/MOL
REMARK 922        TOTAL FREE ENERGY PREDICTED BY IDOCK:   -6.56 KCAL/MOL
REMARK 923 INTER-LIGAND FREE ENERGY PREDICTED BY IDOCK:   -5.72 KCAL/MOL
REMARK 924 INTRA-LIGAND FREE ENERGY PREDICTED BY IDOCK:   -0.83 KCAL/MOL
REMARK 927      BINDING AFFINITY PREDICTED BY RF-SCORE:    0.00 PKD
ROOT
HETATM    1  C   UNL     1     -11.186   6.220  69.468  1.00  0.00    -0.430 C  
ENDROOT
BRANCH   1   2
HETATM    2  C   UNL     1     -10.098   6.759  68.541  1.00  0.00    -0.162 A  
HETATM    3  H   UNL     1      -9.355   4.962  67.762  1.00  0.00     0.000 HD 
HETATM    4  N   UNL     1      -9.259   5.964  67.929  1.00  0.00    -0.109 NA 
HETATM    5  N   UNL     1      -9.840   8.110  68.476  1.00  0.00    -0.173 NA 
HETATM    6  C   UNL     1      -8.517   8.282  67.932  1.00  0.00    -0.132 A  
HETATM    7  C   UNL     1      -8.136   6.853  67.532  1.00  0.00    -0.116 A  
ENDBRANCH   1   2
BRANCH   1   8
HETATM    8  N   UNL     1     -11.037   6.903  70.766  1.00  0.00    -0.261 NA 
BRANCH   8   9
HETATM    9  C   UNL     1     -12.064   7.673  71.287  1.00  0.00    -0.314 A  
HETATM   10  C   UNL     1     -11.905   9.015  71.647  1.00  0.00    -0.431 A  
HETATM   11  C   UNL     1     -12.977   9.771  72.135  1.00  0.00    -0.483 A  
HETATM   12  C   UNL     1     -14.406   7.844  71.978  1.00  0.00    -0.490 A  
HETATM   13  C   UNL     1     -13.334   7.106  71.475  1.00  0.00    -0.413 A  
HETATM   14  C   UNL     1     -14.231   9.184  72.303  1.00  0.00    -0.370 A  
ENDBRANCH   8   9
BRANCH   8  15
HETATM   15  C   UNL     1     -10.061   6.336  71.737  1.00  0.00    -0.186 C  
BRANCH  15  16
HETATM   16  C   UNL     1     -10.293   4.882  72.103  1.00  0.00    -0.263 A  
HETATM   17  C   UNL     1     -10.469   2.254  73.069  1.00  0.00    -0.243 A  
HETATM   18  C   UNL     1     -11.070   4.584  73.233  1.00  0.00    -0.389 A  
HETATM   19  C   UNL     1     -11.146   3.280  73.723  1.00  0.00    -0.288 A  
HETATM   20  C   UNL     1      -9.792   2.516  71.881  1.00  0.00    -0.228 A  
HETATM   21  C   UNL     1      -9.733   3.816  71.384  1.00  0.00    -0.242 A  
ENDBRANCH  15  16
ENDBRANCH   8  15
ENDBRANCH   1   8
TORSDOF 5
ENDMDL
MODEL      124
REMARK 921   NORMALIZED FREE ENERGY PREDICTED BY IDOCK:   -4.61 KCAL/MOL
REMARK 922        TOTAL FREE ENERGY PREDICTED BY IDOCK:   -6.55 KCAL/MOL
REMARK 923 INTER-LIGAND FREE ENERGY PREDICTED BY IDOCK:   -5.91 KCAL/MOL
REMARK 924 INTRA-LIGAND FREE ENERGY PREDICTED BY IDOCK:   -0.64 KCAL/MOL
REMARK 927      BINDING AFFINITY PREDICTED BY RF-SCORE:    0.00 PKD
ROOT
HETATM    1  C   UNL     1      -9.481   9.943  67.929  1.00  0.00    -0.133 C  
ENDROOT
BRANCH   1   2
HETATM    2  C   UNL     1     -10.259   8.635  68.060  1.00  0.00    -0.210 A  
HETATM    3  H   UNL     1     -10.568   8.597  70.132  1.00  0.00     0.000 HD 
HETATM    4  N   UNL     1     -10.556   8.126  69.227  1.00  0.00    -0.211 NA 
HETATM    5  N   UNL     1     -10.498   7.849  66.955  1.00  0.00    -0.342 NA 
HETATM    6  C   UNL     1     -10.799   6.518  67.416  1.00  0.00    -0.373 A  
HETATM    7  C   UNL     1     -10.873   6.703  68.935  1.00  0.00    -0.277 A  
ENDBRANCH   1   2
BRANCH   1   8
HETATM    8  N   UNL     1     -10.251  10.827  67.036  1.00  0.00    -0.208 NA 
BRANCH   8   9
HETATM    9  C   UNL     1      -9.942  10.921  65.688  1.00  0.00    -0.251 A  
HETATM   10  C   UNL     1      -8.813  10.323  65.120  1.00  0.00    -0.205 A  
HETATM   11  C   UNL     1      -8.555  10.409  63.746  1.00  0.00    -0.178 A  
HETATM   12  C   UNL     1     -10.529  11.751  63.461  1.00  0.00    -0.500 A  
HETATM   13  C   UNL     1     -10.785  11.643  64.829  1.00  0.00    -0.365 A  
HETATM   14  C   UNL     1      -9.414  11.126  62.915  1.00  0.00    -0.382 A  
ENDBRANCH   8   9
BRANCH   8  15
HETATM   15  C   UNL     1     -11.646  11.165  67.431  1.00  0.00    -0.071 C  
BRANCH  15  16
HETATM   16  C   UNL     1     -11.794  12.464  68.202  1.00  0.00    -0.372 A  
HETATM   17  C   UNL     1     -11.687  14.915  69.562  1.00  0.00    -0.353 A  
HETATM   18  C   UNL     1     -11.778  13.676  67.494  1.00  0.00    -0.406 A  
HETATM   19  C   UNL     1     -11.710  14.895  68.170  1.00  0.00    -0.344 A  
HETATM   20  C   UNL     1     -11.820  13.728  70.276  1.00  0.00    -0.342 A  
HETATM   21  C   UNL     1     -11.908  12.513  69.599  1.00  0.00    -0.382 A  
ENDBRANCH  15  16
ENDBRANCH   8  15
ENDBRANCH   1   8
TORSDOF 5
ENDMDL
MODEL      125
REMARK 921   NORMALIZED FREE ENERGY PREDICTED BY IDOCK:   -4.60 KCAL/MOL
REMARK 922        TOTAL FREE ENERGY PREDICTED BY IDOCK:   -6.53 KCAL/MOL
REMARK 923 INTER-LIGAND FREE ENERGY PREDICTED BY IDOCK:   -5.59 KCAL/MOL
REMARK 924 INTRA-LIGAND FREE ENERGY PREDICTED BY IDOCK:   -0.94 KCAL/MOL
REMARK 927      BINDING AFFINITY PREDICTED BY RF-SCORE:    0.00 PKD
ROOT
HETATM    1  C   UNL     1      -9.159  13.440  67.316  1.00  0.00    -0.222 C  
ENDROOT
BRANCH   1   2
HETATM    2  C   UNL     1      -9.613  14.855  66.962  1.00  0.00    -0.238 A  
HETATM    3  H   UNL     1      -8.562  15.141  65.173  1.00  0.00     0.000 HD 
HETATM    4  N   UNL     1      -9.091  15.515  65.962  1.00  0.00    -0.325 NA 
HETATM    5  N   UNL     1     -10.445  15.555  67.807  1.00  0.00    -0.267 NA 
HETATM    6  C   UNL     1     -10.321  16.954  67.490  1.00  0.00    -0.318 A  
HETATM    7  C   UNL     1      -9.442  16.933  66.235  1.00  0.00    -0.271 A  
ENDBRANCH   1   2
BRANCH   1   8
HETATM    8  N   UNL     1     -10.305  12.540  67.094  1.00  0.00    -0.220 NA 
BRANCH   8   9
HETATM    9  C   UNL     1     -10.855  12.387  65.831  1.00  0.00    -0.270 A  
HETATM   10  C   UNL     1     -10.104  12.016  64.711  1.00  0.00    -0.286 A  
HETATM   11  C   UNL     1     -10.703  11.834  63.459  1.00  0.00    -0.501 A  
HETATM   12  C   UNL     1     -12.833  12.445  64.391  1.00  0.00    -0.344 A  
HETATM   13  C   UNL     1     -12.227  12.607  65.637  1.00  0.00    -0.474 A  
HETATM   14  C   UNL     1     -12.071  12.051  63.297  1.00  0.00    -0.509 A  
ENDBRANCH   8   9
BRANCH   8  15
HETATM   15  C   UNL     1     -10.500  11.419  68.054  1.00  0.00    -0.188 C  
BRANCH  15  16
HETATM   16  C   UNL     1      -9.784  10.132  67.687  1.00  0.00    -0.187 A  
HETATM   17  C   UNL     1      -8.289   7.961  66.726  1.00  0.00    -0.120 A  
HETATM   18  C   UNL     1      -8.423  10.001  68.007  1.00  0.00    -0.117 A  
HETATM   19  C   UNL     1      -7.676   8.929  67.518  1.00  0.00    -0.100 A  
HETATM   20  C   UNL     1      -9.661   8.017  66.500  1.00  0.00    -0.297 A  
HETATM   21  C   UNL     1     -10.410   9.078  67.006  1.00  0.00    -0.339 A  
ENDBRANCH  15  16
ENDBRANCH   8  15
ENDBRANCH   1   8
TORSDOF 5
ENDMDL
MODEL      126
REMARK 921   NORMALIZED FREE ENERGY PREDICTED BY IDOCK:   -4.59 KCAL/MOL
REMARK 922        TOTAL FREE ENERGY PREDICTED BY IDOCK:   -6.52 KCAL/MOL
REMARK 923 INTER-LIGAND FREE ENERGY PREDICTED BY IDOCK:   -5.80 KCAL/MOL
REMARK 924 INTRA-LIGAND FREE ENERGY PREDICTED BY IDOCK:   -0.71 KCAL/MOL
REMARK 927      BINDING AFFINITY PREDICTED BY RF-SCORE:    0.00 PKD
ROOT
HETATM    1  C   UNL     1     -12.101  14.172  66.892  1.00  0.00    -0.432 C  
ENDROOT
BRANCH   1   2
HETATM    2  C   UNL     1     -12.133  14.582  68.362  1.00  0.00    -0.214 A  
HETATM    3  H   UNL     1     -11.825  16.646  68.175  1.00  0.00     0.000 HD 
HETATM    4  N   UNL     1     -11.842  15.798  68.743  1.00  0.00    -0.374 NA 
HETATM    5  N   UNL     1     -12.274  13.634  69.351  1.00  0.00    -0.302 NA 
HETATM    6  C   UNL     1     -11.802  14.208  70.585  1.00  0.00    -0.263 A  
HETATM    7  C   UNL     1     -11.543  15.666  70.193  1.00  0.00    -0.354 A  
ENDBRANCH   1   2
BRANCH   1   8
HETATM    8  N   UNL     1     -10.761  13.624  66.615  1.00  0.00    -0.279 NA 
BRANCH   8   9
HETATM    9  C   UNL     1     -10.550  12.256  66.552  1.00  0.00    -0.234 A  
HETATM   10  C   UNL     1     -10.936  11.376  67.569  1.00  0.00    -0.312 A  
HETATM   11  C   UNL     1     -10.740   9.995  67.451  1.00  0.00    -0.336 A  
HETATM   12  C   UNL     1      -9.705  10.325  65.307  1.00  0.00    -0.354 A  
HETATM   13  C   UNL     1      -9.922  11.698  65.428  1.00  0.00    -0.287 A  
HETATM   14  C   UNL     1     -10.121   9.468  66.319  1.00  0.00    -0.327 A  
ENDBRANCH   8   9
BRANCH   8  15
HETATM   15  C   UNL     1      -9.799  14.487  65.876  1.00  0.00    -0.321 C  
BRANCH  15  16
HETATM   16  C   UNL     1      -8.974  15.416  66.747  1.00  0.00    -0.288 A  
HETATM   17  C   UNL     1      -7.746  17.118  68.609  1.00  0.00    -0.260 A  
HETATM   18  C   UNL     1      -8.358  14.896  67.897  1.00  0.00    -0.149 A  
HETATM   19  C   UNL     1      -7.761  15.743  68.830  1.00  0.00    -0.186 A  
HETATM   20  C   UNL     1      -8.248  17.635  67.419  1.00  0.00    -0.221 A  
HETATM   21  C   UNL     1      -8.828  16.784  66.478  1.00  0.00    -0.311 A  
ENDBRANCH  15  16
ENDBRANCH   8  15
ENDBRANCH   1   8
TORSDOF 5
ENDMDL
MODEL      127
REMARK 921   NORMALIZED FREE ENERGY PREDICTED BY IDOCK:   -4.58 KCAL/MOL
REMARK 922        TOTAL FREE ENERGY PREDICTED BY IDOCK:   -6.51 KCAL/MOL
REMARK 923 INTER-LIGAND FREE ENERGY PREDICTED BY IDOCK:   -5.51 KCAL/MOL
REMARK 924 INTRA-LIGAND FREE ENERGY PREDICTED BY IDOCK:   -1.00 KCAL/MOL
REMARK 927      BINDING AFFINITY PREDICTED BY RF-SCORE:    0.00 PKD
ROOT
HETATM    1  C   UNL     1     -11.287   6.226  69.580  1.00  0.00    -0.422 C  
ENDROOT
BRANCH   1   2
HETATM    2  C   UNL     1     -10.399   6.814  68.486  1.00  0.00    -0.190 A  
HETATM    3  H   UNL     1      -8.532   6.704  69.429  1.00  0.00     0.000 HD 
HETATM    4  N   UNL     1      -9.133   7.070  68.691  1.00  0.00    -0.133 NA 
HETATM    5  N   UNL     1     -10.948   7.279  67.312  1.00  0.00    -0.271 NA 
HETATM    6  C   UNL     1     -10.000   8.177  66.705  1.00  0.00    -0.269 A  
HETATM    7  C   UNL     1      -8.770   8.016  67.604  1.00  0.00    -0.126 A  
ENDBRANCH   1   2
BRANCH   1   8
HETATM    8  N   UNL     1     -11.007   6.969  70.822  1.00  0.00    -0.246 NA 
BRANCH   8   9
HETATM    9  C   UNL     1     -11.677   8.147  71.113  1.00  0.00    -0.283 A  
HETATM   10  C   UNL     1     -11.207   9.408  70.729  1.00  0.00    -0.367 A  
HETATM   11  C   UNL     1     -11.931  10.572  71.009  1.00  0.00    -0.466 A  
HETATM   12  C   UNL     1     -13.608   9.260  72.125  1.00  0.00    -0.536 A  
HETATM   13  C   UNL     1     -12.885   8.105  71.825  1.00  0.00    -0.355 A  
HETATM   14  C   UNL     1     -13.134  10.500  71.710  1.00  0.00    -0.570 A  
ENDBRANCH   8   9
BRANCH   8  15
HETATM   15  C   UNL     1     -10.456   6.206  71.976  1.00  0.00    -0.211 C  
BRANCH  15  16
HETATM   16  C   UNL     1      -9.183   6.779  72.571  1.00  0.00    -0.146 A  
HETATM   17  C   UNL     1      -6.802   7.500  73.867  1.00  0.00    -0.096 A  
HETATM   18  C   UNL     1      -7.947   6.286  72.125  1.00  0.00    -0.108 A  
HETATM   19  C   UNL     1      -6.764   6.632  72.778  1.00  0.00    -0.067 A  
HETATM   20  C   UNL     1      -8.006   8.087  74.245  1.00  0.00    -0.297 A  
HETATM   21  C   UNL     1      -9.184   7.754  73.578  1.00  0.00    -0.350 A  
ENDBRANCH  15  16
ENDBRANCH   8  15
ENDBRANCH   1   8
TORSDOF 5
ENDMDL
MODEL      128
REMARK 921   NORMALIZED FREE ENERGY PREDICTED BY IDOCK:   -4.56 KCAL/MOL
REMARK 922        TOTAL FREE ENERGY PREDICTED BY IDOCK:   -6.48 KCAL/MOL
REMARK 923 INTER-LIGAND FREE ENERGY PREDICTED BY IDOCK:   -5.57 KCAL/MOL
REMARK 924 INTRA-LIGAND FREE ENERGY PREDICTED BY IDOCK:   -0.91 KCAL/MOL
REMARK 927      BINDING AFFINITY PREDICTED BY RF-SCORE:    0.00 PKD
ROOT
HETATM    1  C   UNL     1      -9.604   7.125  71.286  1.00  0.00    -0.163 C  
ENDROOT
BRANCH   1   2
HETATM    2  C   UNL     1      -9.498   6.065  72.381  1.00  0.00    -0.145 A  
HETATM    3  H   UNL     1      -8.163   4.731  71.473  1.00  0.00     0.000 HD 
HETATM    4  N   UNL     1      -8.856   4.942  72.191  1.00  0.00    -0.127 NA 
HETATM    5  N   UNL     1     -10.245   6.172  73.533  1.00  0.00    -0.208 NA 
HETATM    6  C   UNL     1     -10.318   4.865  74.135  1.00  0.00    -0.264 A  
HETATM    7  C   UNL     1      -9.365   4.045  73.261  1.00  0.00    -0.111 A  
ENDBRANCH   1   2
BRANCH   1   8
HETATM    8  N   UNL     1     -11.026   7.230  70.911  1.00  0.00    -0.248 NA 
BRANCH   8   9
HETATM    9  C   UNL     1     -11.744   8.389  71.161  1.00  0.00    -0.280 A  
HETATM   10  C   UNL     1     -12.946   8.402  71.878  1.00  0.00    -0.381 A  
HETATM   11  C   UNL     1     -13.623   9.598  72.143  1.00  0.00    -0.471 A  
HETATM   12  C   UNL     1     -11.944  10.817  70.929  1.00  0.00    -0.438 A  
HETATM   13  C   UNL     1     -11.269   9.621  70.686  1.00  0.00    -0.385 A  
HETATM   14  C   UNL     1     -13.123  10.809  71.666  1.00  0.00    -0.551 A  
ENDBRANCH   8   9
BRANCH   8  15
HETATM   15  C   UNL     1     -11.517   6.360  69.807  1.00  0.00    -0.399 C  
BRANCH  15  16
HETATM   16  C   UNL     1     -10.681   6.402  68.541  1.00  0.00    -0.347 A  
HETATM   17  C   UNL     1      -8.830   6.527  66.437  1.00  0.00    -0.149 A  
HETATM   18  C   UNL     1      -9.887   5.290  68.218  1.00  0.00    -0.206 A  
HETATM   19  C   UNL     1      -8.956   5.357  67.181  1.00  0.00    -0.112 A  
HETATM   20  C   UNL     1      -9.692   7.594  66.670  1.00  0.00    -0.283 A  
HETATM   21  C   UNL     1     -10.635   7.518  67.694  1.00  0.00    -0.303 A  
ENDBRANCH  15  16
ENDBRANCH   8  15
ENDBRANCH   1   8
TORSDOF 5
ENDMDL
MODEL      129
REMARK 921   NORMALIZED FREE ENERGY PREDICTED BY IDOCK:   -4.54 KCAL/MOL
REMARK 922        TOTAL FREE ENERGY PREDICTED BY IDOCK:   -6.46 KCAL/MOL
REMARK 923 INTER-LIGAND FREE ENERGY PREDICTED BY IDOCK:   -5.82 KCAL/MOL
REMARK 924 INTRA-LIGAND FREE ENERGY PREDICTED BY IDOCK:   -0.63 KCAL/MOL
REMARK 927      BINDING AFFINITY PREDICTED BY RF-SCORE:    0.00 PKD
ROOT
HETATM    1  C   UNL     1     -11.636  15.568  66.456  1.00  0.00     0.182 C  
ENDROOT
BRANCH   1   2
HETATM    2  C   UNL     1     -11.441  14.357  67.366  1.00  0.00    -0.358 A  
HETATM    3  H   UNL     1     -11.008  12.888  65.937  1.00  0.00     0.000 HD 
HETATM    4  N   UNL     1     -11.280  13.152  66.884  1.00  0.00    -0.287 NA 
HETATM    5  N   UNL     1     -11.627  14.467  68.726  1.00  0.00    -0.296 NA 
HETATM    6  C   UNL     1     -11.849  13.144  69.250  1.00  0.00    -0.323 A  
HETATM    7  C   UNL     1     -11.585  12.256  68.030  1.00  0.00    -0.349 A  
ENDBRANCH   1   2
BRANCH   1   8
HETATM    8  N   UNL     1     -10.353  16.291  66.401  1.00  0.00    -0.306 NA 
BRANCH   8   9
HETATM    9  C   UNL     1     -10.227  17.558  66.947  1.00  0.00    -0.329 A  
HETATM   10  C   UNL     1     -10.255  17.803  68.324  1.00  0.00    -0.382 A  
HETATM   11  C   UNL     1     -10.086  19.094  68.838  1.00  0.00    -0.422 A  
HETATM   12  C   UNL     1      -9.910  19.961  66.604  1.00  0.00    -0.555 A  
HETATM   13  C   UNL     1     -10.062  18.668  66.103  1.00  0.00    -0.399 A  
HETATM   14  C   UNL     1      -9.915  20.177  67.977  1.00  0.00    -0.519 A  
ENDBRANCH   8   9
BRANCH   8  15
HETATM   15  C   UNL     1      -9.108  15.484  66.281  1.00  0.00    -0.334 C  
BRANCH  15  16
HETATM   16  C   UNL     1      -8.008  15.855  67.259  1.00  0.00    -0.212 A  
HETATM   17  C   UNL     1      -6.238  16.781  69.228  1.00  0.00    -0.201 A  
HETATM   18  C   UNL     1      -8.079  15.366  68.572  1.00  0.00    -0.142 A  
HETATM   19  C   UNL     1      -7.208  15.837  69.555  1.00  0.00    -0.186 A  
HETATM   20  C   UNL     1      -6.083  17.186  67.905  1.00  0.00    -0.145 A  
HETATM   21  C   UNL     1      -6.942  16.699  66.921  1.00  0.00    -0.262 A  
ENDBRANCH  15  16
ENDBRANCH   8  15
ENDBRANCH   1   8
TORSDOF 5
ENDMDL
MODEL      130
REMARK 921   NORMALIZED FREE ENERGY PREDICTED BY IDOCK:   -4.53 KCAL/MOL
REMARK 922        TOTAL FREE ENERGY PREDICTED BY IDOCK:   -6.44 KCAL/MOL
REMARK 923 INTER-LIGAND FREE ENERGY PREDICTED BY IDOCK:   -5.66 KCAL/MOL
REMARK 924 INTRA-LIGAND FREE ENERGY PREDICTED BY IDOCK:   -0.79 KCAL/MOL
REMARK 927      BINDING AFFINITY PREDICTED BY RF-SCORE:    0.00 PKD
ROOT
HETATM    1  C   UNL     1      -9.241  10.310  69.218  1.00  0.00    -0.202 C  
ENDROOT
BRANCH   1   2
HETATM    2  C   UNL     1      -9.762   9.711  70.522  1.00  0.00    -0.217 A  
HETATM    3  H   UNL     1      -8.048   8.697  71.172  1.00  0.00     0.000 HD 
HETATM    4  N   UNL     1      -9.054   8.863  71.221  1.00  0.00    -0.239 NA 
HETATM    5  N   UNL     1     -11.074   9.890  70.900  1.00  0.00    -0.340 NA 
HETATM    6  C   UNL     1     -11.402   8.867  71.859  1.00  0.00    -0.376 A  
HETATM    7  C   UNL     1     -10.047   8.197  72.104  1.00  0.00    -0.253 A  
ENDBRANCH   1   2
BRANCH   1   8
HETATM    8  N   UNL     1     -10.368  11.003  68.569  1.00  0.00    -0.182 NA 
BRANCH   8   9
HETATM    9  C   UNL     1     -10.457  12.386  68.583  1.00  0.00    -0.204 A  
HETATM   10  C   UNL     1      -9.402  13.223  68.202  1.00  0.00    -0.220 A  
HETATM   11  C   UNL     1      -9.543  14.615  68.194  1.00  0.00    -0.213 A  
HETATM   12  C   UNL     1     -11.794  14.392  69.007  1.00  0.00    -0.358 A  
HETATM   13  C   UNL     1     -11.647  13.005  68.994  1.00  0.00    -0.367 A  
HETATM   14  C   UNL     1     -10.741  15.203  68.599  1.00  0.00    -0.239 A  
ENDBRANCH   8   9
BRANCH   8  15
HETATM   15  C   UNL     1     -11.074  10.296  67.465  1.00  0.00    -0.232 C  
BRANCH  15  16
HETATM   16  C   UNL     1     -10.732  10.787  66.071  1.00  0.00    -0.168 A  
HETATM   17  C   UNL     1     -10.412  11.489  63.373  1.00  0.00    -0.466 A  
HETATM   18  C   UNL     1     -11.532  11.783  65.490  1.00  0.00    -0.241 A  
HETATM   19  C   UNL     1     -11.383  12.123  64.145  1.00  0.00    -0.449 A  
HETATM   20  C   UNL     1      -9.536  10.585  63.966  1.00  0.00    -0.337 A  
HETATM   21  C   UNL     1      -9.674  10.261  65.315  1.00  0.00    -0.354 A  
ENDBRANCH  15  16
ENDBRANCH   8  15
ENDBRANCH   1   8
TORSDOF 5
ENDMDL
MODEL      131
REMARK 921   NORMALIZED FREE ENERGY PREDICTED BY IDOCK:   -4.51 KCAL/MOL
REMARK 922        TOTAL FREE ENERGY PREDICTED BY IDOCK:   -6.42 KCAL/MOL
REMARK 923 INTER-LIGAND FREE ENERGY PREDICTED BY IDOCK:   -6.02 KCAL/MOL
REMARK 924 INTRA-LIGAND FREE ENERGY PREDICTED BY IDOCK:   -0.40 KCAL/MOL
REMARK 927      BINDING AFFINITY PREDICTED BY RF-SCORE:    0.00 PKD
ROOT
HETATM    1  C   UNL     1     -11.344  10.735  68.181  1.00  0.00    -0.308 C  
ENDROOT
BRANCH   1   2
HETATM    2  C   UNL     1      -9.994  10.738  68.896  1.00  0.00    -0.202 A  
HETATM    3  H   UNL     1      -9.247  12.590  68.266  1.00  0.00     0.000 HD 
HETATM    4  N   UNL     1      -9.102  11.669  68.680  1.00  0.00    -0.145 NA 
HETATM    5  N   UNL     1      -9.595   9.650  69.641  1.00  0.00    -0.195 NA 
HETATM    6  C   UNL     1      -8.163   9.715  69.785  1.00  0.00    -0.161 A  
HETATM    7  C   UNL     1      -7.831  11.080  69.174  1.00  0.00    -0.091 A  
ENDBRANCH   1   2
BRANCH   1   8
HETATM    8  N   UNL     1     -11.330  11.844  67.210  1.00  0.00    -0.315 NA 
BRANCH   8   9
HETATM    9  C   UNL     1     -10.894  11.646  65.910  1.00  0.00    -0.287 A  
HETATM   10  C   UNL     1      -9.962  10.665  65.558  1.00  0.00    -0.333 A  
HETATM   11  C   UNL     1      -9.575  10.471  64.227  1.00  0.00    -0.364 A  
HETATM   12  C   UNL     1     -11.003  12.281  63.548  1.00  0.00    -0.521 A  
HETATM   13  C   UNL     1     -11.394  12.454  64.876  1.00  0.00    -0.361 A  
HETATM   14  C   UNL     1     -10.094  11.282  63.219  1.00  0.00    -0.428 A  
ENDBRANCH   8   9
BRANCH   8  15
HETATM   15  C   UNL     1     -12.269  12.977  67.440  1.00  0.00    -0.097 C  
BRANCH  15  16
HETATM   16  C   UNL     1     -11.804  13.994  68.466  1.00  0.00    -0.399 A  
HETATM   17  C   UNL     1     -11.324  15.970  70.399  1.00  0.00    -0.405 A  
HETATM   18  C   UNL     1     -12.044  13.740  69.826  1.00  0.00    -0.400 A  
HETATM   19  C   UNL     1     -11.819  14.727  70.785  1.00  0.00    -0.370 A  
HETATM   20  C   UNL     1     -10.972  16.194  69.071  1.00  0.00    -0.312 A  
HETATM   21  C   UNL     1     -11.180  15.199  68.117  1.00  0.00    -0.326 A  
ENDBRANCH  15  16
ENDBRANCH   8  15
ENDBRANCH   1   8
TORSDOF 5
ENDMDL
MODEL      132
REMARK 921   NORMALIZED FREE ENERGY PREDICTED BY IDOCK:   -4.50 KCAL/MOL
REMARK 922        TOTAL FREE ENERGY PREDICTED BY IDOCK:   -6.41 KCAL/MOL
REMARK 923 INTER-LIGAND FREE ENERGY PREDICTED BY IDOCK:   -5.64 KCAL/MOL
REMARK 924 INTRA-LIGAND FREE ENERGY PREDICTED BY IDOCK:   -0.77 KCAL/MOL
REMARK 927      BINDING AFFINITY PREDICTED BY RF-SCORE:    0.00 PKD
ROOT
HETATM    1  C   UNL     1     -11.636  10.777  68.641  1.00  0.00    -0.272 C  
ENDROOT
BRANCH   1   2
HETATM    2  C   UNL     1     -12.046  10.986  70.097  1.00  0.00    -0.356 A  
HETATM    3  H   UNL     1     -12.232   8.993  70.717  1.00  0.00     0.000 HD 
HETATM    4  N   UNL     1     -12.410   9.988  70.859  1.00  0.00    -0.325 NA 
HETATM    5  N   UNL     1     -12.237  12.255  70.595  1.00  0.00    -0.357 NA 
HETATM    6  C   UNL     1     -13.050  12.148  71.780  1.00  0.00    -0.352 A  
HETATM    7  C   UNL     1     -13.141  10.632  71.981  1.00  0.00    -0.396 A  
ENDBRANCH   1   2
BRANCH   1   8
HETATM    8  N   UNL     1     -10.207  11.121  68.531  1.00  0.00    -0.191 NA 
BRANCH   8   9
HETATM    9  C   UNL     1      -9.232  10.138  68.588  1.00  0.00    -0.157 A  
HETATM   10  C   UNL     1      -8.530   9.825  69.757  1.00  0.00    -0.206 A  
HETATM   11  C   UNL     1      -7.578   8.800  69.783  1.00  0.00    -0.072 A  
HETATM   12  C   UNL     1      -7.952   8.393  67.444  1.00  0.00    -0.106 A  
HETATM   13  C   UNL     1      -8.912   9.406  67.434  1.00  0.00    -0.134 A  
HETATM   14  C   UNL     1      -7.286   8.082  68.624  1.00  0.00    -0.089 A  
ENDBRANCH   8   9
BRANCH   8  15
HETATM   15  C   UNL     1      -9.851  12.381  67.823  1.00  0.00    -0.203 C  
BRANCH  15  16
HETATM   16  C   UNL     1     -10.628  12.638  66.544  1.00  0.00    -0.272 A  
HETATM   17  C   UNL     1     -12.362  12.930  64.358  1.00  0.00    -0.468 A  
HETATM   18  C   UNL     1     -11.616  13.635  66.542  1.00  0.00    -0.392 A  
HETATM   19  C   UNL     1     -12.488  13.771  65.461  1.00  0.00    -0.548 A  
HETATM   20  C   UNL     1     -11.314  12.016  64.299  1.00  0.00    -0.433 A  
HETATM   21  C   UNL     1     -10.432  11.895  65.372  1.00  0.00    -0.312 A  
ENDBRANCH  15  16
ENDBRANCH   8  15
ENDBRANCH   1   8
TORSDOF 5
ENDMDL
MODEL      133
REMARK 921   NORMALIZED FREE ENERGY PREDICTED BY IDOCK:   -4.48 KCAL/MOL
REMARK 922        TOTAL FREE ENERGY PREDICTED BY IDOCK:   -6.38 KCAL/MOL
REMARK 923 INTER-LIGAND FREE ENERGY PREDICTED BY IDOCK:   -5.47 KCAL/MOL
REMARK 924 INTRA-LIGAND FREE ENERGY PREDICTED BY IDOCK:   -0.92 KCAL/MOL
REMARK 927      BINDING AFFINITY PREDICTED BY RF-SCORE:    0.00 PKD
ROOT
HETATM    1  C   UNL     1      -8.812  10.268  69.268  1.00  0.00    -0.177 C  
ENDROOT
BRANCH   1   2
HETATM    2  C   UNL     1      -8.052   9.263  70.131  1.00  0.00    -0.145 A  
HETATM    3  H   UNL     1      -7.117  10.568  71.477  1.00  0.00     0.000 HD 
HETATM    4  N   UNL     1      -7.199   9.648  71.044  1.00  0.00    -0.331 NA 
HETATM    5  N   UNL     1      -8.092   7.918  69.840  1.00  0.00    -0.116 NA 
HETATM    6  C   UNL     1      -6.959   7.294  70.474  1.00  0.00    -0.057 A  
HETATM    7  C   UNL     1      -6.376   8.439  71.308  1.00  0.00    -0.042 A  
ENDBRANCH   1   2
BRANCH   1   8
HETATM    8  N   UNL     1     -10.170   9.732  69.060  1.00  0.00    -0.193 NA 
BRANCH   8   9
HETATM    9  C   UNL     1     -11.149   9.876  70.030  1.00  0.00    -0.285 A  
HETATM   10  C   UNL     1     -11.771  11.096  70.313  1.00  0.00    -0.431 A  
HETATM   11  C   UNL     1     -12.782  11.193  71.275  1.00  0.00    -0.531 A  
HETATM   12  C   UNL     1     -12.550   8.850  71.755  1.00  0.00    -0.420 A  
HETATM   13  C   UNL     1     -11.555   8.762  70.781  1.00  0.00    -0.288 A  
HETATM   14  C   UNL     1     -13.173  10.068  72.000  1.00  0.00    -0.545 A  
ENDBRANCH   8   9
BRANCH   8  15
HETATM   15  C   UNL     1     -10.635   9.552  67.657  1.00  0.00    -0.269 C  
BRANCH  15  16
HETATM   16  C   UNL     1     -10.202   8.253  67.001  1.00  0.00    -0.380 A  
HETATM   17  C   UNL     1      -9.270   5.750  66.143  1.00  0.00    -0.169 A  
HETATM   18  C   UNL     1     -10.942   7.088  67.256  1.00  0.00    -0.372 A  
HETATM   19  C   UNL     1     -10.471   5.841  66.842  1.00  0.00    -0.348 A  
HETATM   20  C   UNL     1      -8.587   6.909  65.783  1.00  0.00    -0.139 A  
HETATM   21  C   UNL     1      -9.069   8.155  66.181  1.00  0.00    -0.232 A  
ENDBRANCH  15  16
ENDBRANCH   8  15
ENDBRANCH   1   8
TORSDOF 5
ENDMDL
MODEL      134
REMARK 921   NORMALIZED FREE ENERGY PREDICTED BY IDOCK:   -4.48 KCAL/MOL
REMARK 922        TOTAL FREE ENERGY PREDICTED BY IDOCK:   -6.38 KCAL/MOL
REMARK 923 INTER-LIGAND FREE ENERGY PREDICTED BY IDOCK:   -5.37 KCAL/MOL
REMARK 924 INTRA-LIGAND FREE ENERGY PREDICTED BY IDOCK:   -1.01 KCAL/MOL
REMARK 927      BINDING AFFINITY PREDICTED BY RF-SCORE:    0.00 PKD
ROOT
HETATM    1  C   UNL     1      -8.556   8.788  69.805  1.00  0.00    -0.131 C  
ENDROOT
BRANCH   1   2
HETATM    2  C   UNL     1      -8.969   9.957  68.913  1.00  0.00    -0.153 A  
HETATM    3  H   UNL     1     -10.584  10.708  70.015  1.00  0.00     0.000 HD 
HETATM    4  N   UNL     1     -10.052  10.651  69.147  1.00  0.00    -0.215 NA 
HETATM    5  N   UNL     1      -8.323  10.190  67.720  1.00  0.00    -0.114 NA 
HETATM    6  C   UNL     1      -9.186  11.000  66.900  1.00  0.00    -0.155 A  
HETATM    7  C   UNL     1     -10.330  11.341  67.860  1.00  0.00    -0.182 A  
ENDBRANCH   1   2
BRANCH   1   8
HETATM    8  N   UNL     1      -9.711   7.878  69.903  1.00  0.00    -0.175 NA 
BRANCH   8   9
HETATM    9  C   UNL     1      -9.949   6.922  68.929  1.00  0.00    -0.157 A  
HETATM   10  C   UNL     1     -10.780   7.145  67.826  1.00  0.00    -0.282 A  
HETATM   11  C   UNL     1     -10.965   6.166  66.843  1.00  0.00    -0.384 A  
HETATM   12  C   UNL     1      -9.531   4.671  68.062  1.00  0.00    -0.191 A  
HETATM   13  C   UNL     1      -9.341   5.661  69.027  1.00  0.00    -0.150 A  
HETATM   14  C   UNL     1     -10.342   4.925  66.962  1.00  0.00    -0.209 A  
ENDBRANCH   8   9
BRANCH   8  15
HETATM   15  C   UNL     1     -10.269   7.612  71.257  1.00  0.00    -0.187 C  
BRANCH  15  16
HETATM   16  C   UNL     1     -11.738   7.956  71.423  1.00  0.00    -0.311 A  
HETATM   17  C   UNL     1     -14.391   8.551  72.112  1.00  0.00    -0.529 A  
HETATM   18  C   UNL     1     -12.084   9.227  71.908  1.00  0.00    -0.440 A  
HETATM   19  C   UNL     1     -13.401   9.518  72.265  1.00  0.00    -0.526 A  
HETATM   20  C   UNL     1     -14.082   7.329  71.523  1.00  0.00    -0.515 A  
HETATM   21  C   UNL     1     -12.769   7.046  71.149  1.00  0.00    -0.361 A  
ENDBRANCH  15  16
ENDBRANCH   8  15
ENDBRANCH   1   8
TORSDOF 5
ENDMDL
MODEL      135
REMARK 921   NORMALIZED FREE ENERGY PREDICTED BY IDOCK:   -4.44 KCAL/MOL
REMARK 922        TOTAL FREE ENERGY PREDICTED BY IDOCK:   -6.33 KCAL/MOL
REMARK 923 INTER-LIGAND FREE ENERGY PREDICTED BY IDOCK:   -5.75 KCAL/MOL
REMARK 924 INTRA-LIGAND FREE ENERGY PREDICTED BY IDOCK:   -0.58 KCAL/MOL
REMARK 927      BINDING AFFINITY PREDICTED BY RF-SCORE:    0.00 PKD
ROOT
HETATM    1  C   UNL     1      -9.136  11.842  68.087  1.00  0.00    -0.190 C  
ENDROOT
BRANCH   1   2
HETATM    2  C   UNL     1     -10.128  12.962  67.780  1.00  0.00    -0.229 A  
HETATM    3  H   UNL     1     -10.569  12.523  65.780  1.00  0.00     0.000 HD 
HETATM    4  N   UNL     1     -10.579  13.168  66.570  1.00  0.00    -0.282 NA 
HETATM    5  N   UNL     1     -10.424  13.915  68.729  1.00  0.00    -0.237 NA 
HETATM    6  C   UNL     1     -10.972  15.061  68.049  1.00  0.00    -0.284 A  
HETATM    7  C   UNL     1     -11.109  14.556  66.609  1.00  0.00    -0.333 A  
ENDBRANCH   1   2
BRANCH   1   8
HETATM    8  N   UNL     1      -9.908  10.594  68.225  1.00  0.00    -0.158 NA 
BRANCH   8   9
HETATM    9  C   UNL     1     -10.690  10.361  69.345  1.00  0.00    -0.244 A  
HETATM   10  C   UNL     1     -11.998  10.838  69.476  1.00  0.00    -0.364 A  
HETATM   11  C   UNL     1     -12.770  10.548  70.607  1.00  0.00    -0.441 A  
HETATM   12  C   UNL     1     -10.925   9.332  71.554  1.00  0.00    -0.446 A  
HETATM   13  C   UNL     1     -10.172   9.613  70.413  1.00  0.00    -0.348 A  
HETATM   14  C   UNL     1     -12.232   9.796  71.650  1.00  0.00    -0.488 A  
ENDBRANCH   8   9
BRANCH   8  15
HETATM   15  C   UNL     1     -10.287   9.874  66.978  1.00  0.00    -0.239 C  
BRANCH  15  16
HETATM   16  C   UNL     1      -9.934   8.398  66.960  1.00  0.00    -0.323 A  
HETATM   17  C   UNL     1      -9.311   5.695  66.538  1.00  0.00    -0.159 A  
HETATM   18  C   UNL     1      -8.649   8.015  66.544  1.00  0.00    -0.148 A  
HETATM   19  C   UNL     1      -8.343   6.673  66.320  1.00  0.00    -0.125 A  
HETATM   20  C   UNL     1     -10.550   6.051  67.062  1.00  0.00    -0.385 A  
HETATM   21  C   UNL     1     -10.847   7.392  67.303  1.00  0.00    -0.326 A  
ENDBRANCH  15  16
ENDBRANCH   8  15
ENDBRANCH   1   8
TORSDOF 5
ENDMDL
MODEL      136
REMARK 921   NORMALIZED FREE ENERGY PREDICTED BY IDOCK:   -4.42 KCAL/MOL
REMARK 922        TOTAL FREE ENERGY PREDICTED BY IDOCK:   -6.30 KCAL/MOL
REMARK 923 INTER-LIGAND FREE ENERGY PREDICTED BY IDOCK:   -6.13 KCAL/MOL
REMARK 924 INTRA-LIGAND FREE ENERGY PREDICTED BY IDOCK:   -0.17 KCAL/MOL
REMARK 927      BINDING AFFINITY PREDICTED BY RF-SCORE:    0.00 PKD
ROOT
HETATM    1  C   UNL     1     -10.869  14.963  65.175  1.00  0.00    -0.414 C  
ENDROOT
BRANCH   1   2
HETATM    2  C   UNL     1     -11.383  13.594  64.737  1.00  0.00    -0.354 A  
HETATM    3  H   UNL     1      -9.574  12.661  64.243  1.00  0.00     0.000 HD 
HETATM    4  N   UNL     1     -10.592  12.700  64.202  1.00  0.00    -0.382 NA 
HETATM    5  N   UNL     1     -12.735  13.331  64.707  1.00  0.00    -0.689 NA 
HETATM    6  C   UNL     1     -12.946  12.202  63.837  1.00  0.00    -0.205 A  
HETATM    7  C   UNL     1     -11.515  11.754  63.522  1.00  0.00    -0.394 A  
ENDBRANCH   1   2
BRANCH   1   8
HETATM    8  N   UNL     1     -10.875  14.986  66.649  1.00  0.00    -0.314 NA 
BRANCH   8   9
HETATM    9  C   UNL     1     -10.696  13.822  67.380  1.00  0.00    -0.275 A  
HETATM   10  C   UNL     1      -9.462  13.174  67.493  1.00  0.00    -0.212 A  
HETATM   11  C   UNL     1      -9.314  12.020  68.272  1.00  0.00    -0.197 A  
HETATM   12  C   UNL     1     -11.654  12.086  68.814  1.00  0.00    -0.366 A  
HETATM   13  C   UNL     1     -11.786  13.245  68.049  1.00  0.00    -0.392 A  
HETATM   14  C   UNL     1     -10.412  11.473  68.933  1.00  0.00    -0.212 A  
ENDBRANCH   8   9
BRANCH   8  15
HETATM   15  C   UNL     1     -10.518  16.265  67.323  1.00  0.00    -0.300 C  
BRANCH  15  16
HETATM   16  C   UNL     1      -9.031  16.564  67.381  1.00  0.00    -0.207 A  
HETATM   17  C   UNL     1      -6.384  17.444  67.675  1.00  0.00    -0.164 A  
HETATM   18  C   UNL     1      -8.361  16.421  68.606  1.00  0.00    -0.221 A  
HETATM   19  C   UNL     1      -7.049  16.872  68.757  1.00  0.00    -0.216 A  
HETATM   20  C   UNL     1      -6.997  17.484  66.426  1.00  0.00    -0.315 A  
HETATM   21  C   UNL     1      -8.301  17.015  66.273  1.00  0.00    -0.308 A  
ENDBRANCH  15  16
ENDBRANCH   8  15
ENDBRANCH   1   8
TORSDOF 5
ENDMDL
MODEL      137
REMARK 921   NORMALIZED FREE ENERGY PREDICTED BY IDOCK:   -4.42 KCAL/MOL
REMARK 922        TOTAL FREE ENERGY PREDICTED BY IDOCK:   -6.30 KCAL/MOL
REMARK 923 INTER-LIGAND FREE ENERGY PREDICTED BY IDOCK:   -5.40 KCAL/MOL
REMARK 924 INTRA-LIGAND FREE ENERGY PREDICTED BY IDOCK:   -0.90 KCAL/MOL
REMARK 927      BINDING AFFINITY PREDICTED BY RF-SCORE:    0.00 PKD
ROOT
HETATM    1  C   UNL     1     -10.246   9.181  66.589  1.00  0.00    -0.258 C  
ENDROOT
BRANCH   1   2
HETATM    2  C   UNL     1     -10.561   9.926  67.884  1.00  0.00    -0.254 A  
HETATM    3  H   UNL     1      -9.052   9.165  69.122  1.00  0.00     0.000 HD 
HETATM    4  N   UNL     1      -9.938   9.656  69.002  1.00  0.00    -0.177 NA 
HETATM    5  N   UNL     1     -11.649  10.766  67.962  1.00  0.00    -0.509 NA 
HETATM    6  C   UNL     1     -11.976  10.939  69.354  1.00  0.00    -0.322 A  
HETATM    7  C   UNL     1     -10.816  10.227  70.057  1.00  0.00    -0.307 A  
ENDBRANCH   1   2
BRANCH   1   8
HETATM    8  N   UNL     1      -9.447  10.086  65.743  1.00  0.00    -0.196 NA 
BRANCH   8   9
HETATM    9  C   UNL     1      -8.064  10.100  65.823  1.00  0.00    -0.142 A  
HETATM   10  C   UNL     1      -7.353  11.027  66.593  1.00  0.00    -0.143 A  
HETATM   11  C   UNL     1      -5.957  10.985  66.679  1.00  0.00    -0.114 A  
HETATM   12  C   UNL     1      -5.921   9.112  65.174  1.00  0.00    -0.059 A  
HETATM   13  C   UNL     1      -7.314   9.152  65.110  1.00  0.00    -0.096 A  
HETATM   14  C   UNL     1      -5.238  10.027  65.966  1.00  0.00    -0.044 A  
ENDBRANCH   8   9
BRANCH   8  15
HETATM   15  C   UNL     1     -10.051  10.550  64.463  1.00  0.00    -0.332 C  
BRANCH  15  16
HETATM   16  C   UNL     1     -10.716  11.913  64.527  1.00  0.00    -0.361 A  
HETATM   17  C   UNL     1     -11.798  14.490  64.288  1.00  0.00    -0.368 A  
HETATM   18  C   UNL     1     -11.876  12.135  63.769  1.00  0.00    -0.592 A  
HETATM   19  C   UNL     1     -12.406  13.419  63.638  1.00  0.00    -0.422 A  
HETATM   20  C   UNL     1     -10.718  14.264  65.136  1.00  0.00    -0.407 A  
HETATM   21  C   UNL     1     -10.202  12.977  65.281  1.00  0.00    -0.294 A  
ENDBRANCH  15  16
ENDBRANCH   8  15
ENDBRANCH   1   8
TORSDOF 5
ENDMDL
MODEL      138
REMARK 921   NORMALIZED FREE ENERGY PREDICTED BY IDOCK:   -4.40 KCAL/MOL
REMARK 922        TOTAL FREE ENERGY PREDICTED BY IDOCK:   -6.28 KCAL/MOL
REMARK 923 INTER-LIGAND FREE ENERGY PREDICTED BY IDOCK:   -5.89 KCAL/MOL
REMARK 924 INTRA-LIGAND FREE ENERGY PREDICTED BY IDOCK:   -0.39 KCAL/MOL
REMARK 927      BINDING AFFINITY PREDICTED BY RF-SCORE:    0.00 PKD
ROOT
HETATM    1  C   UNL     1     -12.023  10.971  67.967  1.00  0.00     0.087 C  
ENDROOT
BRANCH   1   2
HETATM    2  C   UNL     1     -10.741  10.251  67.556  1.00  0.00    -0.294 A  
HETATM    3  H   UNL     1      -9.686  11.841  66.692  1.00  0.00     0.000 HD 
HETATM    4  N   UNL     1      -9.820  10.841  66.839  1.00  0.00    -0.182 NA 
HETATM    5  N   UNL     1     -10.604   8.896  67.758  1.00  0.00    -0.231 NA 
HETATM    6  C   UNL     1      -9.564   8.421  66.881  1.00  0.00    -0.202 A  
HETATM    7  C   UNL     1      -9.013   9.721  66.288  1.00  0.00    -0.153 A  
ENDBRANCH   1   2
BRANCH   1   8
HETATM    8  N   UNL     1     -11.639  12.087  68.850  1.00  0.00    -0.295 NA 
BRANCH   8   9
HETATM    9  C   UNL     1     -11.337  13.336  68.330  1.00  0.00    -0.291 A  
HETATM   10  C   UNL     1     -11.740  13.750  67.056  1.00  0.00    -0.420 A  
HETATM   11  C   UNL     1     -11.448  15.033  66.581  1.00  0.00    -0.251 A  
HETATM   12  C   UNL     1     -10.282  15.524  68.625  1.00  0.00    -0.216 A  
HETATM   13  C   UNL     1     -10.594  14.248  69.095  1.00  0.00    -0.201 A  
HETATM   14  C   UNL     1     -10.716  15.923  67.366  1.00  0.00    -0.313 A  
ENDBRANCH   8   9
BRANCH   8  15
HETATM   15  C   UNL     1     -12.103  12.042  70.264  1.00  0.00    -0.312 C  
BRANCH  15  16
HETATM   16  C   UNL     1     -12.063  10.668  70.907  1.00  0.00    -0.489 A  
HETATM   17  C   UNL     1     -12.034   8.315  72.435  1.00  0.00    -0.447 A  
HETATM   18  C   UNL     1     -13.259  10.112  71.390  1.00  0.00    -0.474 A  
HETATM   19  C   UNL     1     -13.243   8.950  72.162  1.00  0.00    -0.478 A  
HETATM   20  C   UNL     1     -10.857   8.790  71.864  1.00  0.00    -0.431 A  
HETATM   21  C   UNL     1     -10.877   9.940  71.077  1.00  0.00    -0.300 A  
ENDBRANCH  15  16
ENDBRANCH   8  15
ENDBRANCH   1   8
TORSDOF 5
ENDMDL
MODEL      139
REMARK 921   NORMALIZED FREE ENERGY PREDICTED BY IDOCK:   -4.40 KCAL/MOL
REMARK 922        TOTAL FREE ENERGY PREDICTED BY IDOCK:   -6.28 KCAL/MOL
REMARK 923 INTER-LIGAND FREE ENERGY PREDICTED BY IDOCK:   -5.47 KCAL/MOL
REMARK 924 INTRA-LIGAND FREE ENERGY PREDICTED BY IDOCK:   -0.80 KCAL/MOL
REMARK 927      BINDING AFFINITY PREDICTED BY RF-SCORE:    0.00 PKD
ROOT
HETATM    1  C   UNL     1     -11.014   9.718  67.550  1.00  0.00    -0.138 C  
ENDROOT
BRANCH   1   2
HETATM    2  C   UNL     1     -10.086   9.350  66.393  1.00  0.00    -0.262 A  
HETATM    3  H   UNL     1      -9.111   7.690  67.218  1.00  0.00     0.000 HD 
HETATM    4  N   UNL     1      -9.169   8.426  66.515  1.00  0.00    -0.176 NA 
HETATM    5  N   UNL     1     -10.054  10.117  65.251  1.00  0.00    -0.314 NA 
HETATM    6  C   UNL     1      -8.813   9.847  64.572  1.00  0.00    -0.209 A  
HETATM    7  C   UNL     1      -8.230   8.693  65.394  1.00  0.00    -0.136 A  
ENDBRANCH   1   2
BRANCH   1   8
HETATM    8  N   UNL     1     -10.226  10.507  68.513  1.00  0.00    -0.166 NA 
BRANCH   8   9
HETATM    9  C   UNL     1     -10.372  11.883  68.594  1.00  0.00    -0.203 A  
HETATM   10  C   UNL     1     -11.518  12.501  69.105  1.00  0.00    -0.361 A  
HETATM   11  C   UNL     1     -11.612  13.894  69.205  1.00  0.00    -0.358 A  
HETATM   12  C   UNL     1      -9.426  14.111  68.229  1.00  0.00    -0.211 A  
HETATM   13  C   UNL     1      -9.337  12.721  68.150  1.00  0.00    -0.214 A  
HETATM   14  C   UNL     1     -10.565  14.702  68.764  1.00  0.00    -0.248 A  
ENDBRANCH   8   9
BRANCH   8  15
HETATM   15  C   UNL     1      -9.721   9.812  69.729  1.00  0.00    -0.229 C  
BRANCH  15  16
HETATM   16  C   UNL     1     -10.754   8.978  70.464  1.00  0.00    -0.285 A  
HETATM   17  C   UNL     1     -12.845   7.407  71.479  1.00  0.00    -0.416 A  
HETATM   18  C   UNL     1     -10.768   7.589  70.265  1.00  0.00    -0.247 A  
HETATM   19  C   UNL     1     -11.815   6.809  70.756  1.00  0.00    -0.446 A  
HETATM   20  C   UNL     1     -12.782   8.764  71.783  1.00  0.00    -0.408 A  
HETATM   21  C   UNL     1     -11.724   9.538  71.307  1.00  0.00    -0.444 A  
ENDBRANCH  15  16
ENDBRANCH   8  15
ENDBRANCH   1   8
TORSDOF 5
ENDMDL
MODEL      140
REMARK 921   NORMALIZED FREE ENERGY PREDICTED BY IDOCK:   -4.37 KCAL/MOL
REMARK 922        TOTAL FREE ENERGY PREDICTED BY IDOCK:   -6.24 KCAL/MOL
REMARK 923 INTER-LIGAND FREE ENERGY PREDICTED BY IDOCK:   -5.41 KCAL/MOL
REMARK 924 INTRA-LIGAND FREE ENERGY PREDICTED BY IDOCK:   -0.83 KCAL/MOL
REMARK 927      BINDING AFFINITY PREDICTED BY RF-SCORE:    0.00 PKD
ROOT
HETATM    1  C   UNL     1      -9.303  10.904  68.951  1.00  0.00    -0.160 C  
ENDROOT
BRANCH   1   2
HETATM    2  C   UNL     1      -8.593   9.829  68.130  1.00  0.00    -0.118 A  
HETATM    3  H   UNL     1      -8.190  10.910  66.381  1.00  0.00     0.000 HD 
HETATM    4  N   UNL     1      -8.270  10.023  66.877  1.00  0.00    -0.120 NA 
HETATM    5  N   UNL     1      -8.451   8.552  68.622  1.00  0.00    -0.130 NA 
HETATM    6  C   UNL     1      -8.202   7.673  67.508  1.00  0.00    -0.121 A  
HETATM    7  C   UNL     1      -8.047   8.654  66.342  1.00  0.00    -0.100 A  
ENDBRANCH   1   2
BRANCH   1   8
HETATM    8  N   UNL     1     -10.751  10.648  68.855  1.00  0.00    -0.203 NA 
BRANCH   8   9
HETATM    9  C   UNL     1     -11.481  10.261  69.967  1.00  0.00    -0.296 A  
HETATM   10  C   UNL     1     -11.408   8.978  70.520  1.00  0.00    -0.282 A  
HETATM   11  C   UNL     1     -12.133   8.636  71.667  1.00  0.00    -0.385 A  
HETATM   12  C   UNL     1     -13.084  10.843  71.723  1.00  0.00    -0.564 A  
HETATM   13  C   UNL     1     -12.343  11.177  70.589  1.00  0.00    -0.482 A  
HETATM   14  C   UNL     1     -12.975   9.569  72.270  1.00  0.00    -0.466 A  
ENDBRANCH   8   9
BRANCH   8  15
HETATM   15  C   UNL     1     -11.501  11.322  67.759  1.00  0.00    -0.275 C  
BRANCH  15  16
HETATM   16  C   UNL     1     -11.076  12.751  67.478  1.00  0.00    -0.300 A  
HETATM   17  C   UNL     1      -9.927  15.272  67.033  1.00  0.00    -0.235 A  
HETATM   18  C   UNL     1     -10.423  13.037  66.269  1.00  0.00    -0.285 A  
HETATM   19  C   UNL     1      -9.839  14.286  66.053  1.00  0.00    -0.336 A  
HETATM   20  C   UNL     1     -10.672  15.039  68.185  1.00  0.00    -0.256 A  
HETATM   21  C   UNL     1     -11.272  13.798  68.391  1.00  0.00    -0.300 A  
ENDBRANCH  15  16
ENDBRANCH   8  15
ENDBRANCH   1   8
TORSDOF 5
ENDMDL
MODEL      141
REMARK 921   NORMALIZED FREE ENERGY PREDICTED BY IDOCK:   -4.36 KCAL/MOL
REMARK 922        TOTAL FREE ENERGY PREDICTED BY IDOCK:   -6.23 KCAL/MOL
REMARK 923 INTER-LIGAND FREE ENERGY PREDICTED BY IDOCK:   -5.67 KCAL/MOL
REMARK 924 INTRA-LIGAND FREE ENERGY PREDICTED BY IDOCK:   -0.56 KCAL/MOL
REMARK 927      BINDING AFFINITY PREDICTED BY RF-SCORE:    0.00 PKD
ROOT
HETATM    1  C   UNL     1     -11.259   6.562  69.355  1.00  0.00    -0.356 C  
ENDROOT
BRANCH   1   2
HETATM    2  C   UNL     1      -9.933   6.333  68.632  1.00  0.00    -0.145 A  
HETATM    3  H   UNL     1      -8.872   5.312  70.122  1.00  0.00     0.000 HD 
HETATM    4  N   UNL     1      -8.892   5.833  69.245  1.00  0.00    -0.116 NA 
HETATM    5  N   UNL     1      -9.733   6.832  67.364  1.00  0.00    -0.129 NA 
HETATM    6  C   UNL     1      -8.313   6.894  67.133  1.00  0.00    -0.121 A  
HETATM    7  C   UNL     1      -7.745   6.197  68.373  1.00  0.00    -0.103 A  
ENDBRANCH   1   2
BRANCH   1   8
HETATM    8  N   UNL     1     -11.006   7.519  70.447  1.00  0.00    -0.249 NA 
BRANCH   8   9
HETATM    9  C   UNL     1     -10.681   7.078  71.720  1.00  0.00    -0.216 A  
HETATM   10  C   UNL     1     -11.287   5.971  72.323  1.00  0.00    -0.353 A  
HETATM   11  C   UNL     1     -10.904   5.533  73.596  1.00  0.00    -0.294 A  
HETATM   12  C   UNL     1      -9.322   7.337  73.740  1.00  0.00    -0.296 A  
HETATM   13  C   UNL     1      -9.700   7.754  72.463  1.00  0.00    -0.262 A  
HETATM   14  C   UNL     1      -9.921   6.219  74.308  1.00  0.00    -0.324 A  
ENDBRANCH   8   9
BRANCH   8  15
HETATM   15  C   UNL     1     -10.558   8.890  70.076  1.00  0.00    -0.220 C  
BRANCH  15  16
HETATM   16  C   UNL     1     -11.509  10.003  70.477  1.00  0.00    -0.407 A  
HETATM   17  C   UNL     1     -12.961  12.214  71.411  1.00  0.00    -0.357 A  
HETATM   18  C   UNL     1     -11.379  11.258  69.861  1.00  0.00    -0.329 A  
HETATM   19  C   UNL     1     -12.090  12.361  70.334  1.00  0.00    -0.381 A  
HETATM   20  C   UNL     1     -13.186  10.953  71.955  1.00  0.00    -0.508 A  
HETATM   21  C   UNL     1     -12.489   9.848  71.467  1.00  0.00    -0.506 A  
ENDBRANCH  15  16
ENDBRANCH   8  15
ENDBRANCH   1   8
TORSDOF 5
ENDMDL
MODEL      142
REMARK 921   NORMALIZED FREE ENERGY PREDICTED BY IDOCK:   -4.34 KCAL/MOL
REMARK 922        TOTAL FREE ENERGY PREDICTED BY IDOCK:   -6.20 KCAL/MOL
REMARK 923 INTER-LIGAND FREE ENERGY PREDICTED BY IDOCK:   -5.15 KCAL/MOL
REMARK 924 INTRA-LIGAND FREE ENERGY PREDICTED BY IDOCK:   -1.06 KCAL/MOL
REMARK 927      BINDING AFFINITY PREDICTED BY RF-SCORE:    0.00 PKD
ROOT
HETATM    1  C   UNL     1     -10.480  10.725  67.903  1.00  0.00    -0.199 C  
ENDROOT
BRANCH   1   2
HETATM    2  C   UNL     1      -9.028  10.284  68.074  1.00  0.00    -0.132 A  
HETATM    3  H   UNL     1      -8.603   9.653  66.122  1.00  0.00     0.000 HD 
HETATM    4  N   UNL     1      -8.376   9.678  67.117  1.00  0.00    -0.120 NA 
HETATM    5  N   UNL     1      -8.423  10.333  69.310  1.00  0.00    -0.158 NA 
HETATM    6  C   UNL     1      -7.286   9.449  69.280  1.00  0.00    -0.066 A  
HETATM    7  C   UNL     1      -7.229   9.033  67.807  1.00  0.00    -0.083 A  
ENDBRANCH   1   2
BRANCH   1   8
HETATM    8  N   UNL     1     -10.466  12.071  67.304  1.00  0.00    -0.215 NA 
BRANCH   8   9
HETATM    9  C   UNL     1     -10.958  12.287  66.026  1.00  0.00    -0.292 A  
HETATM   10  C   UNL     1     -10.278  11.894  64.869  1.00  0.00    -0.310 A  
HETATM   11  C   UNL     1     -10.825  12.096  63.597  1.00  0.00    -0.523 A  
HETATM   12  C   UNL     1     -12.743  13.151  64.591  1.00  0.00    -0.326 A  
HETATM   13  C   UNL     1     -12.194  12.929  65.855  1.00  0.00    -0.469 A  
HETATM   14  C   UNL     1     -12.060  12.728  63.457  1.00  0.00    -0.642 A  
ENDBRANCH   8   9
BRANCH   8  15
HETATM   15  C   UNL     1     -10.454  13.240  68.226  1.00  0.00    -0.250 C  
BRANCH  15  16
HETATM   16  C   UNL     1      -9.451  14.322  67.874  1.00  0.00    -0.212 A  
HETATM   17  C   UNL     1      -7.663  16.226  66.851  1.00  0.00    -0.278 A  
HETATM   18  C   UNL     1      -9.921  15.531  67.337  1.00  0.00    -0.234 A  
HETATM   19  C   UNL     1      -9.033  16.472  66.815  1.00  0.00    -0.261 A  
HETATM   20  C   UNL     1      -7.178  15.086  67.486  1.00  0.00    -0.228 A  
HETATM   21  C   UNL     1      -8.067  14.157  68.024  1.00  0.00    -0.149 A  
ENDBRANCH  15  16
ENDBRANCH   8  15
ENDBRANCH   1   8
TORSDOF 5
ENDMDL
MODEL      143
REMARK 921   NORMALIZED FREE ENERGY PREDICTED BY IDOCK:   -4.34 KCAL/MOL
REMARK 922        TOTAL FREE ENERGY PREDICTED BY IDOCK:   -6.20 KCAL/MOL
REMARK 923 INTER-LIGAND FREE ENERGY PREDICTED BY IDOCK:   -5.32 KCAL/MOL
REMARK 924 INTRA-LIGAND FREE ENERGY PREDICTED BY IDOCK:   -0.88 KCAL/MOL
REMARK 927      BINDING AFFINITY PREDICTED BY RF-SCORE:    0.00 PKD
ROOT
HETATM    1  C   UNL     1     -11.577  13.758  67.846  1.00  0.00    -0.341 C  
ENDROOT
BRANCH   1   2
HETATM    2  C   UNL     1     -10.143  14.275  67.750  1.00  0.00    -0.231 A  
HETATM    3  H   UNL     1      -9.586  14.194  69.768  1.00  0.00     0.000 HD 
HETATM    4  N   UNL     1      -9.430  14.527  68.816  1.00  0.00    -0.203 NA 
HETATM    5  N   UNL     1      -9.626  14.683  66.541  1.00  0.00    -0.275 NA 
HETATM    6  C   UNL     1      -8.496  15.536  66.808  1.00  0.00    -0.279 A  
HETATM    7  C   UNL     1      -8.338  15.409  68.326  1.00  0.00    -0.150 A  
ENDBRANCH   1   2
BRANCH   1   8
HETATM    8  N   UNL     1     -11.517  12.285  67.814  1.00  0.00    -0.307 NA 
BRANCH   8   9
HETATM    9  C   UNL     1     -11.618  11.544  68.981  1.00  0.00    -0.318 A  
HETATM   10  C   UNL     1     -10.984  10.310  69.158  1.00  0.00    -0.280 A  
HETATM   11  C   UNL     1     -11.080   9.608  70.365  1.00  0.00    -0.346 A  
HETATM   12  C   UNL     1     -12.503  11.330  71.253  1.00  0.00    -0.441 A  
HETATM   13  C   UNL     1     -12.386  12.028  70.051  1.00  0.00    -0.179 A  
HETATM   14  C   UNL     1     -11.842  10.117  71.415  1.00  0.00    -0.414 A  
ENDBRANCH   8   9
BRANCH   8  15
HETATM   15  C   UNL     1     -11.904  11.604  66.548  1.00  0.00     0.217 C  
BRANCH  15  16
HETATM   16  C   UNL     1     -10.759  11.344  65.587  1.00  0.00    -0.301 A  
HETATM   17  C   UNL     1      -8.892  10.629  63.619  1.00  0.00    -0.183 A  
HETATM   18  C   UNL     1     -10.798  11.935  64.314  1.00  0.00    -0.396 A  
HETATM   19  C   UNL     1      -9.878  11.569  63.331  1.00  0.00    -0.422 A  
HETATM   20  C   UNL     1      -8.771  10.124  64.910  1.00  0.00    -0.198 A  
HETATM   21  C   UNL     1      -9.679  10.506  65.897  1.00  0.00    -0.270 A  
ENDBRANCH  15  16
ENDBRANCH   8  15
ENDBRANCH   1   8
TORSDOF 5
ENDMDL
MODEL      144
REMARK 921   NORMALIZED FREE ENERGY PREDICTED BY IDOCK:   -4.33 KCAL/MOL
REMARK 922        TOTAL FREE ENERGY PREDICTED BY IDOCK:   -6.19 KCAL/MOL
REMARK 923 INTER-LIGAND FREE ENERGY PREDICTED BY IDOCK:   -5.37 KCAL/MOL
REMARK 924 INTRA-LIGAND FREE ENERGY PREDICTED BY IDOCK:   -0.82 KCAL/MOL
REMARK 927      BINDING AFFINITY PREDICTED BY RF-SCORE:    0.00 PKD
ROOT
HETATM    1  C   UNL     1      -9.843  11.523  68.939  1.00  0.00    -0.075 C  
ENDROOT
BRANCH   1   2
HETATM    2  C   UNL     1     -10.944  10.767  69.679  1.00  0.00    -0.264 A  
HETATM    3  H   UNL     1     -12.208  12.359  70.184  1.00  0.00     0.000 HD 
HETATM    4  N   UNL     1     -11.906  11.392  70.306  1.00  0.00    -0.346 NA 
HETATM    5  N   UNL     1     -10.848   9.408  69.879  1.00  0.00    -0.231 NA 
HETATM    6  C   UNL     1     -11.723   9.057  70.967  1.00  0.00    -0.296 A  
HETATM    7  C   UNL     1     -12.460  10.374  71.236  1.00  0.00    -0.415 A  
ENDBRANCH   1   2
BRANCH   1   8
HETATM    8  N   UNL     1     -10.022  11.263  67.499  1.00  0.00    -0.180 NA 
BRANCH   8   9
HETATM    9  C   UNL     1      -9.112  10.488  66.797  1.00  0.00    -0.151 A  
HETATM   10  C   UNL     1      -7.741  10.761  66.763  1.00  0.00    -0.136 A  
HETATM   11  C   UNL     1      -6.849   9.932  66.073  1.00  0.00    -0.099 A  
HETATM   12  C   UNL     1      -8.682   8.545  65.372  1.00  0.00    -0.194 A  
HETATM   13  C   UNL     1      -9.560   9.369  66.077  1.00  0.00    -0.328 A  
HETATM   14  C   UNL     1      -7.320   8.822  65.374  1.00  0.00    -0.085 A  
ENDBRANCH   8   9
BRANCH   8  15
HETATM   15  C   UNL     1     -11.402  11.347  66.946  1.00  0.00    -0.210 C  
BRANCH  15  16
HETATM   16  C   UNL     1     -11.655  12.535  66.036  1.00  0.00    -0.456 A  
HETATM   17  C   UNL     1     -11.792  14.629  64.174  1.00  0.00    -0.263 A  
HETATM   18  C   UNL     1     -12.100  12.301  64.726  1.00  0.00    -0.436 A  
HETATM   19  C   UNL     1     -12.155  13.339  63.796  1.00  0.00    -0.546 A  
HETATM   20  C   UNL     1     -11.461  14.896  65.500  1.00  0.00    -0.307 A  
HETATM   21  C   UNL     1     -11.426  13.860  66.432  1.00  0.00    -0.354 A  
ENDBRANCH  15  16
ENDBRANCH   8  15
ENDBRANCH   1   8
TORSDOF 5
ENDMDL
MODEL      145
REMARK 921   NORMALIZED FREE ENERGY PREDICTED BY IDOCK:   -4.33 KCAL/MOL
REMARK 922        TOTAL FREE ENERGY PREDICTED BY IDOCK:   -6.18 KCAL/MOL
REMARK 923 INTER-LIGAND FREE ENERGY PREDICTED BY IDOCK:   -6.18 KCAL/MOL
REMARK 924 INTRA-LIGAND FREE ENERGY PREDICTED BY IDOCK:   -0.00 KCAL/MOL
REMARK 927      BINDING AFFINITY PREDICTED BY RF-SCORE:    0.00 PKD
ROOT
HETATM    1  C   UNL     1     -11.912  15.437  68.339  1.00  0.00    -0.132 C  
ENDROOT
BRANCH   1   2
HETATM    2  C   UNL     1     -11.920  15.607  69.856  1.00  0.00    -0.360 A  
HETATM    3  H   UNL     1      -9.892  15.286  70.272  1.00  0.00     0.000 HD 
HETATM    4  N   UNL     1     -10.862  15.356  70.582  1.00  0.00    -0.316 NA 
HETATM    5  N   UNL     1     -13.099  15.839  70.529  1.00  0.00    -0.380 NA 
HETATM    6  C   UNL     1     -12.897  15.487  71.910  1.00  0.00    -0.427 A  
HETATM    7  C   UNL     1     -11.394  15.194  71.960  1.00  0.00    -0.271 A  
ENDBRANCH   1   2
BRANCH   1   8
HETATM    8  N   UNL     1     -10.631  15.969  67.841  1.00  0.00    -0.292 NA 
BRANCH   8   9
HETATM    9  C   UNL     1     -10.435  17.333  67.695  1.00  0.00    -0.363 A  
HETATM   10  C   UNL     1      -9.858  18.132  68.688  1.00  0.00    -0.389 A  
HETATM   11  C   UNL     1      -9.642  19.500  68.488  1.00  0.00    -0.476 A  
HETATM   12  C   UNL     1     -10.631  19.337  66.303  1.00  0.00    -0.545 A  
HETATM   13  C   UNL     1     -10.825  17.971  66.507  1.00  0.00     0.014 A  
HETATM   14  C   UNL     1     -10.031  20.106  67.294  1.00  0.00    -0.583 A  
ENDBRANCH   8   9
BRANCH   8  15
HETATM   15  C   UNL     1      -9.414  15.131  68.027  1.00  0.00    -0.199 C  
BRANCH  15  16
HETATM   16  C   UNL     1      -9.421  13.817  67.269  1.00  0.00    -0.236 A  
HETATM   17  C   UNL     1      -9.805  11.353  65.984  1.00  0.00    -0.256 A  
HETATM   18  C   UNL     1     -10.104  13.746  66.044  1.00  0.00    -0.320 A  
HETATM   19  C   UNL     1     -10.307  12.519  65.412  1.00  0.00    -0.305 A  
HETATM   20  C   UNL     1      -9.027  11.424  67.135  1.00  0.00    -0.162 A  
HETATM   21  C   UNL     1      -8.808  12.654  67.755  1.00  0.00    -0.179 A  
ENDBRANCH  15  16
ENDBRANCH   8  15
ENDBRANCH   1   8
TORSDOF 5
ENDMDL
MODEL      146
REMARK 921   NORMALIZED FREE ENERGY PREDICTED BY IDOCK:   -4.32 KCAL/MOL
REMARK 922        TOTAL FREE ENERGY PREDICTED BY IDOCK:   -6.18 KCAL/MOL
REMARK 923 INTER-LIGAND FREE ENERGY PREDICTED BY IDOCK:   -5.63 KCAL/MOL
REMARK 924 INTRA-LIGAND FREE ENERGY PREDICTED BY IDOCK:   -0.55 KCAL/MOL
REMARK 927      BINDING AFFINITY PREDICTED BY RF-SCORE:    0.00 PKD
ROOT
HETATM    1  C   UNL     1     -11.629  11.554  67.379  1.00  0.00    -0.228 C  
ENDROOT
BRANCH   1   2
HETATM    2  C   UNL     1     -10.741  12.778  67.166  1.00  0.00    -0.245 A  
HETATM    3  H   UNL     1     -12.024  13.967  66.014  1.00  0.00     0.000 HD 
HETATM    4  N   UNL     1     -11.091  13.751  66.366  1.00  0.00    -0.305 NA 
HETATM    5  N   UNL     1      -9.454  12.802  67.655  1.00  0.00    -0.184 NA 
HETATM    6  C   UNL     1      -8.724  13.809  66.928  1.00  0.00    -0.154 A  
HETATM    7  C   UNL     1      -9.821  14.470  66.088  1.00  0.00    -0.318 A  
ENDBRANCH   1   2
BRANCH   1   8
HETATM    8  N   UNL     1     -11.360  11.044  68.736  1.00  0.00    -0.258 NA 
BRANCH   8   9
HETATM    9  C   UNL     1     -12.028  11.560  69.835  1.00  0.00    -0.351 A  
HETATM   10  C   UNL     1     -12.781  10.770  70.711  1.00  0.00    -0.451 A  
HETATM   11  C   UNL     1     -13.410  11.322  71.832  1.00  0.00    -0.413 A  
HETATM   12  C   UNL     1     -12.600  13.499  71.214  1.00  0.00    -0.427 A  
HETATM   13  C   UNL     1     -11.963  12.935  70.109  1.00  0.00    -0.373 A  
HETATM   14  C   UNL     1     -13.322  12.691  72.085  1.00  0.00    -0.570 A  
ENDBRANCH   8   9
BRANCH   8  15
HETATM   15  C   UNL     1     -10.825   9.660  68.862  1.00  0.00    -0.174 C  
BRANCH  15  16
HETATM   16  C   UNL     1      -9.622   9.521  69.776  1.00  0.00    -0.235 A  
HETATM   17  C   UNL     1      -7.292   8.965  71.237  1.00  0.00    -0.115 A  
HETATM   18  C   UNL     1      -8.366   9.942  69.310  1.00  0.00    -0.151 A  
HETATM   19  C   UNL     1      -7.206   9.653  70.029  1.00  0.00    -0.119 A  
HETATM   20  C   UNL     1      -8.539   8.646  71.766  1.00  0.00    -0.240 A  
HETATM   21  C   UNL     1      -9.699   8.953  71.055  1.00  0.00    -0.320 A  
ENDBRANCH  15  16
ENDBRANCH   8  15
ENDBRANCH   1   8
TORSDOF 5
ENDMDL
MODEL      147
REMARK 921   NORMALIZED FREE ENERGY PREDICTED BY IDOCK:   -4.31 KCAL/MOL
REMARK 922        TOTAL FREE ENERGY PREDICTED BY IDOCK:   -6.16 KCAL/MOL
REMARK 923 INTER-LIGAND FREE ENERGY PREDICTED BY IDOCK:   -5.54 KCAL/MOL
REMARK 924 INTRA-LIGAND FREE ENERGY PREDICTED BY IDOCK:   -0.62 KCAL/MOL
REMARK 927      BINDING AFFINITY PREDICTED BY RF-SCORE:    0.00 PKD
ROOT
HETATM    1  C   UNL     1      -8.577  11.654  68.316  1.00  0.00    -0.162 C  
ENDROOT
BRANCH   1   2
HETATM    2  C   UNL     1      -8.733  10.332  67.567  1.00  0.00    -0.125 A  
HETATM    3  H   UNL     1      -8.883  11.039  65.601  1.00  0.00     0.000 HD 
HETATM    4  N   UNL     1      -9.001  10.294  66.288  1.00  0.00    -0.150 NA 
HETATM    5  N   UNL     1      -8.796   9.141  68.255  1.00  0.00    -0.129 NA 
HETATM    6  C   UNL     1      -9.405   8.163  67.391  1.00  0.00    -0.141 A  
HETATM    7  C   UNL     1      -9.515   8.918  66.062  1.00  0.00    -0.252 A  
ENDBRANCH   1   2
BRANCH   1   8
HETATM    8  N   UNL     1      -9.849  12.387  68.187  1.00  0.00    -0.209 NA 
BRANCH   8   9
HETATM    9  C   UNL     1      -9.896  13.629  67.575  1.00  0.00    -0.227 A  
HETATM   10  C   UNL     1     -10.019  14.828  68.286  1.00  0.00    -0.222 A  
HETATM   11  C   UNL     1     -10.024  16.066  67.633  1.00  0.00    -0.239 A  
HETATM   12  C   UNL     1      -9.840  14.948  65.513  1.00  0.00    -0.348 A  
HETATM   13  C   UNL     1      -9.818  13.721  66.176  1.00  0.00    -0.310 A  
HETATM   14  C   UNL     1      -9.937  16.127  66.243  1.00  0.00    -0.336 A  
ENDBRANCH   8   9
BRANCH   8  15
HETATM   15  C   UNL     1     -11.109  11.594  68.196  1.00  0.00    -0.242 C  
BRANCH  15  16
HETATM   16  C   UNL     1     -11.695  11.341  69.573  1.00  0.00    -0.415 A  
HETATM   17  C   UNL     1     -13.088  10.727  71.929  1.00  0.00    -0.557 A  
HETATM   18  C   UNL     1     -11.731  10.026  70.061  1.00  0.00    -0.242 A  
HETATM   19  C   UNL     1     -12.436   9.717  71.225  1.00  0.00    -0.461 A  
HETATM   20  C   UNL     1     -12.962  12.051  71.520  1.00  0.00    -0.407 A  
HETATM   21  C   UNL     1     -12.241  12.359  70.368  1.00  0.00    -0.370 A  
ENDBRANCH  15  16
ENDBRANCH   8  15
ENDBRANCH   1   8
TORSDOF 5
ENDMDL
MODEL      148
REMARK 921   NORMALIZED FREE ENERGY PREDICTED BY IDOCK:   -4.30 KCAL/MOL
REMARK 922        TOTAL FREE ENERGY PREDICTED BY IDOCK:   -6.15 KCAL/MOL
REMARK 923 INTER-LIGAND FREE ENERGY PREDICTED BY IDOCK:   -5.41 KCAL/MOL
REMARK 924 INTRA-LIGAND FREE ENERGY PREDICTED BY IDOCK:   -0.74 KCAL/MOL
REMARK 927      BINDING AFFINITY PREDICTED BY RF-SCORE:    0.00 PKD
ROOT
HETATM    1  C   UNL     1     -11.494  15.374  68.781  1.00  0.00    -0.341 C  
ENDROOT
BRANCH   1   2
HETATM    2  C   UNL     1     -11.598  14.198  67.813  1.00  0.00    -0.347 A  
HETATM    3  H   UNL     1     -11.157  12.613  69.110  1.00  0.00     0.000 HD 
HETATM    4  N   UNL     1     -11.261  12.984  68.165  1.00  0.00    -0.256 NA 
HETATM    5  N   UNL     1     -11.859  14.411  66.478  1.00  0.00    -0.396 NA 
HETATM    6  C   UNL     1     -11.436  13.241  65.752  1.00  0.00    -0.323 A  
HETATM    7  C   UNL     1     -11.066  12.270  66.877  1.00  0.00    -0.290 A  
ENDBRANCH   1   2
BRANCH   1   8
HETATM    8  N   UNL     1     -10.163  15.980  68.598  1.00  0.00    -0.223 NA 
BRANCH   8   9
HETATM    9  C   UNL     1     -10.028  17.266  68.101  1.00  0.00    -0.303 A  
HETATM   10  C   UNL     1     -10.018  17.559  66.733  1.00  0.00    -0.313 A  
HETATM   11  C   UNL     1      -9.918  18.876  66.270  1.00  0.00    -0.429 A  
HETATM   12  C   UNL     1      -9.776  19.662  68.538  1.00  0.00    -0.493 A  
HETATM   13  C   UNL     1      -9.894  18.346  68.987  1.00  0.00    -0.288 A  
HETATM   14  C   UNL     1      -9.795  19.931  67.174  1.00  0.00    -0.539 A  
ENDBRANCH   8   9
BRANCH   8  15
HETATM   15  C   UNL     1      -9.046  15.463  69.436  1.00  0.00    -0.258 C  
BRANCH  15  16
HETATM   16  C   UNL     1      -7.662  15.908  69.001  1.00  0.00    -0.209 A  
HETATM   17  C   UNL     1      -5.278  17.053  68.064  1.00  0.00    -0.122 A  
HETATM   18  C   UNL     1      -7.013  16.914  69.735  1.00  0.00     0.231 A  
HETATM   19  C   UNL     1      -5.836  17.493  69.262  1.00  0.00    -0.215 A  
HETATM   20  C   UNL     1      -5.847  15.977  67.388  1.00  0.00    -0.140 A  
HETATM   21  C   UNL     1      -7.013  15.386  67.873  1.00  0.00    -0.161 A  
ENDBRANCH  15  16
ENDBRANCH   8  15
ENDBRANCH   1   8
TORSDOF 5
ENDMDL
MODEL      149
REMARK 921   NORMALIZED FREE ENERGY PREDICTED BY IDOCK:   -4.30 KCAL/MOL
REMARK 922        TOTAL FREE ENERGY PREDICTED BY IDOCK:   -6.14 KCAL/MOL
REMARK 923 INTER-LIGAND FREE ENERGY PREDICTED BY IDOCK:   -4.93 KCAL/MOL
REMARK 924 INTRA-LIGAND FREE ENERGY PREDICTED BY IDOCK:   -1.22 KCAL/MOL
REMARK 927      BINDING AFFINITY PREDICTED BY RF-SCORE:    0.00 PKD
ROOT
HETATM    1  C   UNL     1     -11.305  10.792  68.186  1.00  0.00    -0.308 C  
ENDROOT
BRANCH   1   2
HETATM    2  C   UNL     1     -10.777   9.371  68.368  1.00  0.00    -0.168 A  
HETATM    3  H   UNL     1     -10.515   9.340  70.447  1.00  0.00     0.000 HD 
HETATM    4  N   UNL     1     -10.338   8.943  69.524  1.00  0.00    -0.208 NA 
HETATM    5  N   UNL     1     -10.559   8.559  67.278  1.00  0.00    -0.288 NA 
HETATM    6  C   UNL     1      -9.648   7.517  67.676  1.00  0.00    -0.143 A  
HETATM    7  C   UNL     1      -9.522   7.748  69.185  1.00  0.00    -0.151 A  
ENDBRANCH   1   2
BRANCH   1   8
HETATM    8  N   UNL     1     -10.451  11.455  67.184  1.00  0.00    -0.215 NA 
BRANCH   8   9
HETATM    9  C   UNL     1     -10.974  11.884  65.974  1.00  0.00    -0.309 A  
HETATM   10  C   UNL     1     -10.583  11.352  64.741  1.00  0.00    -0.377 A  
HETATM   11  C   UNL     1     -11.162  11.785  63.543  1.00  0.00    -0.494 A  
HETATM   12  C   UNL     1     -12.517  13.350  64.765  1.00  0.00    -0.416 A  
HETATM   13  C   UNL     1     -11.945  12.898  65.955  1.00  0.00    -0.504 A  
HETATM   14  C   UNL     1     -12.130  12.788  63.554  1.00  0.00    -0.642 A  
ENDBRANCH   8   9
BRANCH   8  15
HETATM   15  C   UNL     1      -9.224  12.145  67.668  1.00  0.00    -0.181 C  
BRANCH  15  16
HETATM   16  C   UNL     1      -8.019  11.244  67.864  1.00  0.00    -0.118 A  
HETATM   17  C   UNL     1      -6.042   9.280  68.194  1.00  0.00    -0.053 A  
HETATM   18  C   UNL     1      -7.506  10.551  66.756  1.00  0.00    -0.115 A  
HETATM   19  C   UNL     1      -6.533   9.564  66.921  1.00  0.00    -0.067 A  
HETATM   20  C   UNL     1      -6.457  10.041  69.283  1.00  0.00    -0.049 A  
HETATM   21  C   UNL     1      -7.415  11.039  69.113  1.00  0.00    -0.121 A  
ENDBRANCH  15  16
ENDBRANCH   8  15
ENDBRANCH   1   8
TORSDOF 5
ENDMDL
MODEL      150
REMARK 921   NORMALIZED FREE ENERGY PREDICTED BY IDOCK:   -4.25 KCAL/MOL
REMARK 922        TOTAL FREE ENERGY PREDICTED BY IDOCK:   -6.08 KCAL/MOL
REMARK 923 INTER-LIGAND FREE ENERGY PREDICTED BY IDOCK:   -5.38 KCAL/MOL
REMARK 924 INTRA-LIGAND FREE ENERGY PREDICTED BY IDOCK:   -0.71 KCAL/MOL
REMARK 927      BINDING AFFINITY PREDICTED BY RF-SCORE:    0.00 PKD
ROOT
HETATM    1  C   UNL     1      -9.172  10.689  68.809  1.00  0.00    -0.180 C  
ENDROOT
BRANCH   1   2
HETATM    2  C   UNL     1      -9.532   9.921  70.079  1.00  0.00    -0.202 A  
HETATM    3  H   UNL     1      -7.726   8.919  70.428  1.00  0.00     0.000 HD 
HETATM    4  N   UNL     1      -8.725   9.032  70.598  1.00  0.00    -0.193 NA 
HETATM    5  N   UNL     1     -10.802   9.995  70.606  1.00  0.00    -0.315 NA 
HETATM    6  C   UNL     1     -10.992   8.855  71.465  1.00  0.00    -0.328 A  
HETATM    7  C   UNL     1      -9.597   8.224  71.491  1.00  0.00    -0.188 A  
ENDBRANCH   1   2
BRANCH   1   8
HETATM    8  N   UNL     1     -10.004  10.151  67.718  1.00  0.00    -0.162 NA 
BRANCH   8   9
HETATM    9  C   UNL     1      -9.840   8.849  67.272  1.00  0.00    -0.199 A  
HETATM   10  C   UNL     1      -8.653   8.381  66.700  1.00  0.00    -0.127 A  
HETATM   11  C   UNL     1      -8.513   7.048  66.297  1.00  0.00    -0.134 A  
HETATM   12  C   UNL     1     -10.777   6.607  66.975  1.00  0.00    -0.437 A  
HETATM   13  C   UNL     1     -10.898   7.934  67.389  1.00  0.00    -0.172 A  
HETATM   14  C   UNL     1      -9.578   6.159  66.432  1.00  0.00    -0.162 A  
ENDBRANCH   8   9
BRANCH   8  15
HETATM   15  C   UNL     1     -11.336  10.777  67.490  1.00  0.00    -0.205 C  
BRANCH  15  16
HETATM   16  C   UNL     1     -11.353  11.880  66.448  1.00  0.00    -0.400 A  
HETATM   17  C   UNL     1     -11.011  13.976  64.614  1.00  0.00    -0.401 A  
HETATM   18  C   UNL     1     -10.714  11.659  65.218  1.00  0.00    -0.346 A  
HETATM   19  C   UNL     1     -10.531  12.704  64.312  1.00  0.00    -0.417 A  
HETATM   20  C   UNL     1     -11.749  14.181  65.777  1.00  0.00    -0.360 A  
HETATM   21  C   UNL     1     -11.947  13.130  66.671  1.00  0.00    -0.451 A  
ENDBRANCH  15  16
ENDBRANCH   8  15
ENDBRANCH   1   8
TORSDOF 5
ENDMDL
MODEL      151
REMARK 921   NORMALIZED FREE ENERGY PREDICTED BY IDOCK:   -4.23 KCAL/MOL
REMARK 922        TOTAL FREE ENERGY PREDICTED BY IDOCK:   -6.05 KCAL/MOL
REMARK 923 INTER-LIGAND FREE ENERGY PREDICTED BY IDOCK:   -5.60 KCAL/MOL
REMARK 924 INTRA-LIGAND FREE ENERGY PREDICTED BY IDOCK:   -0.45 KCAL/MOL
REMARK 927      BINDING AFFINITY PREDICTED BY RF-SCORE:    0.00 PKD
ROOT
HETATM    1  C   UNL     1     -11.196  10.803  67.503  1.00  0.00    -0.274 C  
ENDROOT
BRANCH   1   2
HETATM    2  C   UNL     1     -10.317  11.974  67.069  1.00  0.00    -0.211 A  
HETATM    3  H   UNL     1      -8.498  11.413  67.943  1.00  0.00     0.000 HD 
HETATM    4  N   UNL     1      -9.096  12.119  67.512  1.00  0.00    -0.174 NA 
HETATM    5  N   UNL     1     -10.851  13.023  66.353  1.00  0.00    -0.276 NA 
HETATM    6  C   UNL     1      -9.969  14.152  66.498  1.00  0.00    -0.283 A  
HETATM    7  C   UNL     1      -8.776  13.545  67.243  1.00  0.00    -0.225 A  
ENDBRANCH   1   2
BRANCH   1   8
HETATM    8  N   UNL     1     -10.922  10.551  68.929  1.00  0.00    -0.230 NA 
BRANCH   8   9
HETATM    9  C   UNL     1     -11.708  11.123  69.917  1.00  0.00    -0.355 A  
HETATM   10  C   UNL     1     -12.425  10.371  70.853  1.00  0.00    -0.478 A  
HETATM   11  C   UNL     1     -13.178  10.986  71.860  1.00  0.00    -0.503 A  
HETATM   12  C   UNL     1     -12.568  13.145  70.996  1.00  0.00    -0.397 A  
HETATM   13  C   UNL     1     -11.807  12.520  70.007  1.00  0.00    -0.363 A  
HETATM   14  C   UNL     1     -13.252  12.376  71.931  1.00  0.00    -0.486 A  
ENDBRANCH   8   9
BRANCH   8  15
HETATM   15  C   UNL     1     -10.202   9.297  69.284  1.00  0.00    -0.206 C  
BRANCH  15  16
HETATM   16  C   UNL     1      -9.901   8.379  68.114  1.00  0.00    -0.196 A  
HETATM   17  C   UNL     1      -9.275   6.407  66.219  1.00  0.00    -0.162 A  
HETATM   18  C   UNL     1     -10.839   7.394  67.769  1.00  0.00    -0.186 A  
HETATM   19  C   UNL     1     -10.524   6.405  66.838  1.00  0.00    -0.340 A  
HETATM   20  C   UNL     1      -8.381   7.445  66.466  1.00  0.00    -0.124 A  
HETATM   21  C   UNL     1      -8.707   8.443  67.382  1.00  0.00    -0.136 A  
ENDBRANCH  15  16
ENDBRANCH   8  15
ENDBRANCH   1   8
TORSDOF 5
ENDMDL
MODEL      152
REMARK 921   NORMALIZED FREE ENERGY PREDICTED BY IDOCK:   -4.22 KCAL/MOL
REMARK 922        TOTAL FREE ENERGY PREDICTED BY IDOCK:   -6.05 KCAL/MOL
REMARK 923 INTER-LIGAND FREE ENERGY PREDICTED BY IDOCK:   -5.16 KCAL/MOL
REMARK 924 INTRA-LIGAND FREE ENERGY PREDICTED BY IDOCK:   -0.89 KCAL/MOL
REMARK 927      BINDING AFFINITY PREDICTED BY RF-SCORE:    0.00 PKD
ROOT
HETATM    1  C   UNL     1     -10.775   7.298  67.199  1.00  0.00    -0.343 C  
ENDROOT
BRANCH   1   2
HETATM    2  C   UNL     1      -9.743   6.336  66.614  1.00  0.00    -0.155 A  
HETATM    3  H   UNL     1      -8.136   7.649  66.328  1.00  0.00     0.000 HD 
HETATM    4  N   UNL     1      -8.597   6.757  66.146  1.00  0.00    -0.138 NA 
HETATM    5  N   UNL     1     -10.068   5.019  66.377  1.00  0.00    -0.223 NA 
HETATM    6  C   UNL     1      -9.126   4.495  65.423  1.00  0.00    -0.146 A  
HETATM    7  C   UNL     1      -8.119   5.642  65.289  1.00  0.00    -0.125 A  
ENDBRANCH   1   2
BRANCH   1   8
HETATM    8  N   UNL     1     -10.072   8.170  68.156  1.00  0.00    -0.191 NA 
BRANCH   8   9
HETATM    9  C   UNL     1     -10.051   9.545  67.983  1.00  0.00    -0.188 A  
HETATM   10  C   UNL     1     -11.161  10.278  67.551  1.00  0.00    -0.302 A  
HETATM   11  C   UNL     1     -11.111  11.671  67.425  1.00  0.00    -0.337 A  
HETATM   12  C   UNL     1      -8.806  11.649  68.108  1.00  0.00    -0.164 A  
HETATM   13  C   UNL     1      -8.873  10.263  68.246  1.00  0.00    -0.126 A  
HETATM   14  C   UNL     1      -9.930  12.359  67.702  1.00  0.00    -0.200 A  
ENDBRANCH   8   9
BRANCH   8  15
HETATM   15  C   UNL     1      -9.882   7.664  69.543  1.00  0.00    -0.178 C  
BRANCH  15  16
HETATM   16  C   UNL     1     -11.045   7.922  70.483  1.00  0.00    -0.260 A  
HETATM   17  C   UNL     1     -13.416   8.411  71.900  1.00  0.00    -0.385 A  
HETATM   18  C   UNL     1     -11.961   6.887  70.726  1.00  0.00    -0.424 A  
HETATM   19  C   UNL     1     -13.147   7.133  71.417  1.00  0.00    -0.408 A  
HETATM   20  C   UNL     1     -12.463   9.417  71.768  1.00  0.00    -0.471 A  
HETATM   21  C   UNL     1     -11.270   9.164  71.093  1.00  0.00    -0.395 A  
ENDBRANCH  15  16
ENDBRANCH   8  15
ENDBRANCH   1   8
TORSDOF 5
ENDMDL
MODEL      153
REMARK 921   NORMALIZED FREE ENERGY PREDICTED BY IDOCK:   -4.22 KCAL/MOL
REMARK 922        TOTAL FREE ENERGY PREDICTED BY IDOCK:   -6.05 KCAL/MOL
REMARK 923 INTER-LIGAND FREE ENERGY PREDICTED BY IDOCK:   -5.31 KCAL/MOL
REMARK 924 INTRA-LIGAND FREE ENERGY PREDICTED BY IDOCK:   -0.74 KCAL/MOL
REMARK 927      BINDING AFFINITY PREDICTED BY RF-SCORE:    0.00 PKD
ROOT
HETATM    1  C   UNL     1     -11.079  10.074  71.115  1.00  0.00    -0.200 C  
ENDROOT
BRANCH   1   2
HETATM    2  C   UNL     1     -11.738   8.705  70.959  1.00  0.00    -0.278 A  
HETATM    3  H   UNL     1     -13.635   9.118  71.746  1.00  0.00     0.000 HD 
HETATM    4  N   UNL     1     -12.920   8.450  71.455  1.00  0.00    -0.319 NA 
HETATM    5  N   UNL     1     -11.023   7.637  70.464  1.00  0.00    -0.246 NA 
HETATM    6  C   UNL     1     -11.699   6.430  70.865  1.00  0.00    -0.303 A  
HETATM    7  C   UNL     1     -12.986   6.966  71.499  1.00  0.00    -0.306 A  
ENDBRANCH   1   2
BRANCH   1   8
HETATM    8  N   UNL     1     -10.826  10.599  69.761  1.00  0.00    -0.269 NA 
BRANCH   8   9
HETATM    9  C   UNL     1      -9.722  10.187  69.032  1.00  0.00    -0.206 A  
HETATM   10  C   UNL     1      -9.789   9.825  67.683  1.00  0.00    -0.202 A  
HETATM   11  C   UNL     1      -8.644   9.450  66.971  1.00  0.00    -0.131 A  
HETATM   12  C   UNL     1      -7.318   9.730  68.956  1.00  0.00    -0.078 A  
HETATM   13  C   UNL     1      -8.464  10.120  69.651  1.00  0.00    -0.172 A  
HETATM   14  C   UNL     1      -7.405   9.400  67.608  1.00  0.00    -0.084 A  
ENDBRANCH   8   9
BRANCH   8  15
HETATM   15  C   UNL     1     -11.992  11.106  68.986  1.00  0.00    -0.320 C  
BRANCH  15  16
HETATM   16  C   UNL     1     -11.997  12.605  68.746  1.00  0.00    -0.279 A  
HETATM   17  C   UNL     1     -11.627  15.335  68.219  1.00  0.00    -0.357 A  
HETATM   18  C   UNL     1     -11.941  13.078  67.426  1.00  0.00    -0.372 A  
HETATM   19  C   UNL     1     -11.742  14.434  67.163  1.00  0.00    -0.424 A  
HETATM   20  C   UNL     1     -11.798  14.896  69.528  1.00  0.00    -0.360 A  
HETATM   21  C   UNL     1     -12.015  13.543  69.788  1.00  0.00    -0.405 A  
ENDBRANCH  15  16
ENDBRANCH   8  15
ENDBRANCH   1   8
TORSDOF 5
ENDMDL
MODEL      154
REMARK 921   NORMALIZED FREE ENERGY PREDICTED BY IDOCK:   -4.22 KCAL/MOL
REMARK 922        TOTAL FREE ENERGY PREDICTED BY IDOCK:   -6.05 KCAL/MOL
REMARK 923 INTER-LIGAND FREE ENERGY PREDICTED BY IDOCK:   -5.14 KCAL/MOL
REMARK 924 INTRA-LIGAND FREE ENERGY PREDICTED BY IDOCK:   -0.90 KCAL/MOL
REMARK 927      BINDING AFFINITY PREDICTED BY RF-SCORE:    0.00 PKD
ROOT
HETATM    1  C   UNL     1     -11.283  10.883  67.103  1.00  0.00    -0.184 C  
ENDROOT
BRANCH   1   2
HETATM    2  C   UNL     1     -11.258  11.734  65.836  1.00  0.00    -0.290 A  
HETATM    3  H   UNL     1     -13.138  12.649  65.971  1.00  0.00     0.000 HD 
HETATM    4  N   UNL     1     -12.312  12.394  65.430  1.00  0.00    -0.614 NA 
HETATM    5  N   UNL     1     -10.187  11.675  64.973  1.00  0.00    -0.263 NA 
HETATM    6  C   UNL     1     -10.622  12.172  63.693  1.00  0.00    -0.461 A  
HETATM    7  C   UNL     1     -12.032  12.686  64.000  1.00  0.00    -0.451 A  
ENDBRANCH   1   2
BRANCH   1   8
HETATM    8  N   UNL     1     -10.501  11.596  68.129  1.00  0.00    -0.188 NA 
BRANCH   8   9
HETATM    9  C   UNL     1     -11.040  12.675  68.812  1.00  0.00    -0.263 A  
HETATM   10  C   UNL     1     -12.036  12.543  69.785  1.00  0.00    -0.359 A  
HETATM   11  C   UNL     1     -12.528  13.653  70.480  1.00  0.00    -0.394 A  
HETATM   12  C   UNL     1     -11.080  15.090  69.209  1.00  0.00    -0.280 A  
HETATM   13  C   UNL     1     -10.584  13.973  68.535  1.00  0.00    -0.260 A  
HETATM   14  C   UNL     1     -12.051  14.931  70.191  1.00  0.00    -0.379 A  
ENDBRANCH   8   9
BRANCH   8  15
HETATM   15  C   UNL     1      -9.405  10.851  68.807  1.00  0.00    -0.185 C  
BRANCH  15  16
HETATM   16  C   UNL     1      -8.080  10.850  68.067  1.00  0.00    -0.119 A  
HETATM   17  C   UNL     1      -5.464  10.824  67.053  1.00  0.00    -0.048 A  
HETATM   18  C   UNL     1      -7.363   9.647  67.966  1.00  0.00    -0.082 A  
HETATM   19  C   UNL     1      -6.057   9.636  67.475  1.00  0.00    -0.052 A  
HETATM   20  C   UNL     1      -6.205  12.002  67.039  1.00  0.00    -0.130 A  
HETATM   21  C   UNL     1      -7.516  12.007  67.512  1.00  0.00    -0.140 A  
ENDBRANCH  15  16
ENDBRANCH   8  15
ENDBRANCH   1   8
TORSDOF 5
ENDMDL
MODEL      155
REMARK 921   NORMALIZED FREE ENERGY PREDICTED BY IDOCK:   -4.21 KCAL/MOL
REMARK 922        TOTAL FREE ENERGY PREDICTED BY IDOCK:   -6.03 KCAL/MOL
REMARK 923 INTER-LIGAND FREE ENERGY PREDICTED BY IDOCK:   -5.68 KCAL/MOL
REMARK 924 INTRA-LIGAND FREE ENERGY PREDICTED BY IDOCK:   -0.35 KCAL/MOL
REMARK 927      BINDING AFFINITY PREDICTED BY RF-SCORE:    0.00 PKD
ROOT
HETATM    1  C   UNL     1     -11.146   9.857  71.313  1.00  0.00    -0.232 C  
ENDROOT
BRANCH   1   2
HETATM    2  C   UNL     1     -12.454   9.069  71.361  1.00  0.00    -0.317 A  
HETATM    3  H   UNL     1     -13.707  10.489  72.256  1.00  0.00     0.000 HD 
HETATM    4  N   UNL     1     -13.511   9.527  71.980  1.00  0.00    -0.429 NA 
HETATM    5  N   UNL     1     -12.500   7.764  70.925  1.00  0.00    -0.135 NA 
HETATM    6  C   UNL     1     -13.662   7.144  71.509  1.00  0.00    -0.309 A  
HETATM    7  C   UNL     1     -14.361   8.326  72.188  1.00  0.00    -0.404 A  
ENDBRANCH   1   2
BRANCH   1   8
HETATM    8  N   UNL     1     -10.689   9.869  69.912  1.00  0.00    -0.259 NA 
BRANCH   8   9
HETATM    9  C   UNL     1     -11.079  10.878  69.045  1.00  0.00    -0.246 A  
HETATM   10  C   UNL     1     -11.417  12.165  69.473  1.00  0.00    -0.334 A  
HETATM   11  C   UNL     1     -11.769  13.168  68.563  1.00  0.00    -0.387 A  
HETATM   12  C   UNL     1     -11.512  11.611  66.750  1.00  0.00    -0.299 A  
HETATM   13  C   UNL     1     -11.146  10.624  67.666  1.00  0.00    -0.385 A  
HETATM   14  C   UNL     1     -11.819  12.890  67.197  1.00  0.00    -0.424 A  
ENDBRANCH   8   9
BRANCH   8  15
HETATM   15  C   UNL     1      -9.420   9.160  69.592  1.00  0.00    -0.172 C  
BRANCH  15  16
HETATM   16  C   UNL     1      -9.592   7.834  68.873  1.00  0.00    -0.154 A  
HETATM   17  C   UNL     1     -10.294   5.458  67.559  1.00  0.00    -0.246 A  
HETATM   18  C   UNL     1      -9.932   7.842  67.511  1.00  0.00    -0.250 A  
HETATM   19  C   UNL     1     -10.295   6.663  66.861  1.00  0.00    -0.324 A  
HETATM   20  C   UNL     1      -9.847   5.419  68.876  1.00  0.00    -0.226 A  
HETATM   21  C   UNL     1      -9.466   6.596  69.518  1.00  0.00    -0.148 A  
ENDBRANCH  15  16
ENDBRANCH   8  15
ENDBRANCH   1   8
TORSDOF 5
ENDMDL
MODEL      156
REMARK 921   NORMALIZED FREE ENERGY PREDICTED BY IDOCK:   -4.20 KCAL/MOL
REMARK 922        TOTAL FREE ENERGY PREDICTED BY IDOCK:   -6.02 KCAL/MOL
REMARK 923 INTER-LIGAND FREE ENERGY PREDICTED BY IDOCK:   -5.49 KCAL/MOL
REMARK 924 INTRA-LIGAND FREE ENERGY PREDICTED BY IDOCK:   -0.53 KCAL/MOL
REMARK 927      BINDING AFFINITY PREDICTED BY RF-SCORE:    0.00 PKD
ROOT
HETATM    1  C   UNL     1     -12.150  13.000  68.759  1.00  0.00    -0.162 C  
ENDROOT
BRANCH   1   2
HETATM    2  C   UNL     1     -11.949  14.091  69.808  1.00  0.00    -0.334 A  
HETATM    3  H   UNL     1     -13.583  13.703  71.060  1.00  0.00     0.000 HD 
HETATM    4  N   UNL     1     -12.837  14.320  70.741  1.00  0.00    -0.346 NA 
HETATM    5  N   UNL     1     -10.923  15.001  69.685  1.00  0.00    -0.269 NA 
HETATM    6  C   UNL     1     -11.248  16.147  70.494  1.00  0.00    -0.363 A  
HETATM    7  C   UNL     1     -12.510  15.686  71.229  1.00  0.00    -0.444 A  
ENDBRANCH   1   2
BRANCH   1   8
HETATM    8  N   UNL     1     -11.065  12.017  68.933  1.00  0.00    -0.235 NA 
BRANCH   8   9
HETATM    9  C   UNL     1     -11.161  11.011  69.882  1.00  0.00    -0.252 A  
HETATM   10  C   UNL     1     -10.123  10.113  70.150  1.00  0.00    -0.197 A  
HETATM   11  C   UNL     1     -10.245   9.134  71.143  1.00  0.00    -0.384 A  
HETATM   12  C   UNL     1     -12.483   9.880  71.604  1.00  0.00    -0.507 A  
HETATM   13  C   UNL     1     -12.343  10.863  70.624  1.00  0.00    -0.470 A  
HETATM   14  C   UNL     1     -11.428   9.015  71.871  1.00  0.00    -0.440 A  
ENDBRANCH   8   9
BRANCH   8  15
HETATM   15  C   UNL     1     -10.169  11.762  67.772  1.00  0.00    -0.191 C  
BRANCH  15  16
HETATM   16  C   UNL     1      -8.810  12.434  67.853  1.00  0.00    -0.180 A  
HETATM   17  C   UNL     1      -6.296  13.655  67.614  1.00  0.00    -0.149 A  
HETATM   18  C   UNL     1      -8.702  13.786  67.493  1.00  0.00    -0.194 A  
HETATM   19  C   UNL     1      -7.451  14.390  67.360  1.00  0.00    -0.183 A  
HETATM   20  C   UNL     1      -6.394  12.349  68.085  1.00  0.00    -0.065 A  
HETATM   21  C   UNL     1      -7.646  11.754  68.236  1.00  0.00    -0.122 A  
ENDBRANCH  15  16
ENDBRANCH   8  15
ENDBRANCH   1   8
TORSDOF 5
ENDMDL
MODEL      157
REMARK 921   NORMALIZED FREE ENERGY PREDICTED BY IDOCK:   -4.19 KCAL/MOL
REMARK 922        TOTAL FREE ENERGY PREDICTED BY IDOCK:   -6.01 KCAL/MOL
REMARK 923 INTER-LIGAND FREE ENERGY PREDICTED BY IDOCK:   -5.23 KCAL/MOL
REMARK 924 INTRA-LIGAND FREE ENERGY PREDICTED BY IDOCK:   -0.78 KCAL/MOL
REMARK 927      BINDING AFFINITY PREDICTED BY RF-SCORE:    0.00 PKD
ROOT
HETATM    1  C   UNL     1      -9.032  10.381  68.922  1.00  0.00    -0.169 C  
ENDROOT
BRANCH   1   2
HETATM    2  C   UNL     1      -8.165   9.528  67.998  1.00  0.00    -0.114 A  
HETATM    3  H   UNL     1      -8.554  10.463  66.164  1.00  0.00     0.000 HD 
HETATM    4  N   UNL     1      -8.201   9.669  66.698  1.00  0.00    -0.119 NA 
HETATM    5  N   UNL     1      -7.467   8.449  68.491  1.00  0.00    -0.093 NA 
HETATM    6  C   UNL     1      -7.151   7.583  67.384  1.00  0.00    -0.085 A  
HETATM    7  C   UNL     1      -7.609   8.409  66.177  1.00  0.00    -0.089 A  
ENDBRANCH   1   2
BRANCH   1   8
HETATM    8  N   UNL     1     -10.395   9.821  68.889  1.00  0.00    -0.201 NA 
BRANCH   8   9
HETATM    9  C   UNL     1     -10.814   8.912  69.848  1.00  0.00    -0.211 A  
HETATM   10  C   UNL     1     -10.899   7.536  69.611  1.00  0.00    -0.210 A  
HETATM   11  C   UNL     1     -11.291   6.646  70.617  1.00  0.00    -0.401 A  
HETATM   12  C   UNL     1     -11.587   8.488  72.132  1.00  0.00    -0.447 A  
HETATM   13  C   UNL     1     -11.177   9.365  71.126  1.00  0.00    -0.427 A  
HETATM   14  C   UNL     1     -11.638   7.122  71.880  1.00  0.00    -0.314 A  
ENDBRANCH   8   9
BRANCH   8  15
HETATM   15  C   UNL     1     -11.453  10.615  68.207  1.00  0.00    -0.245 C  
BRANCH  15  16
HETATM   16  C   UNL     1     -11.432  12.102  68.509  1.00  0.00    -0.349 A  
HETATM   17  C   UNL     1     -11.782  14.832  69.050  1.00  0.00    -0.343 A  
HETATM   18  C   UNL     1     -11.796  12.537  69.793  1.00  0.00    -0.380 A  
HETATM   19  C   UNL     1     -11.984  13.893  70.058  1.00  0.00    -0.404 A  
HETATM   20  C   UNL     1     -11.307  14.424  67.807  1.00  0.00    -0.331 A  
HETATM   21  C   UNL     1     -11.101  13.069  67.549  1.00  0.00    -0.297 A  
ENDBRANCH  15  16
ENDBRANCH   8  15
ENDBRANCH   1   8
TORSDOF 5
ENDMDL
MODEL      158
REMARK 921   NORMALIZED FREE ENERGY PREDICTED BY IDOCK:   -4.18 KCAL/MOL
REMARK 922        TOTAL FREE ENERGY PREDICTED BY IDOCK:   -5.99 KCAL/MOL
REMARK 923 INTER-LIGAND FREE ENERGY PREDICTED BY IDOCK:   -5.34 KCAL/MOL
REMARK 924 INTRA-LIGAND FREE ENERGY PREDICTED BY IDOCK:   -0.65 KCAL/MOL
REMARK 927      BINDING AFFINITY PREDICTED BY RF-SCORE:    0.00 PKD
ROOT
HETATM    1  C   UNL     1      -9.767  10.324  69.008  1.00  0.00    -0.205 C  
ENDROOT
BRANCH   1   2
HETATM    2  C   UNL     1     -11.006  10.164  69.886  1.00  0.00    -0.293 A  
HETATM    3  H   UNL     1     -12.108  11.838  69.276  1.00  0.00     0.000 HD 
HETATM    4  N   UNL     1     -11.934  11.084  69.940  1.00  0.00    -0.321 NA 
HETATM    5  N   UNL     1     -11.088   9.138  70.801  1.00  0.00    -0.257 NA 
HETATM    6  C   UNL     1     -12.084   9.495  71.778  1.00  0.00    -0.384 A  
HETATM    7  C   UNL     1     -12.678  10.779  71.190  1.00  0.00    -0.431 A  
ENDBRANCH   1   2
BRANCH   1   8
HETATM    8  N   UNL     1     -10.035   9.630  67.736  1.00  0.00    -0.162 NA 
BRANCH   8   9
HETATM    9  C   UNL     1      -9.887   8.257  67.630  1.00  0.00    -0.169 A  
HETATM   10  C   UNL     1      -8.685   7.594  67.897  1.00  0.00    -0.124 A  
HETATM   11  C   UNL     1      -8.586   6.200  67.815  1.00  0.00    -0.114 A  
HETATM   12  C   UNL     1     -10.889   6.078  67.135  1.00  0.00    -0.414 A  
HETATM   13  C   UNL     1     -10.979   7.467  67.237  1.00  0.00    -0.234 A  
HETATM   14  C   UNL     1      -9.690   5.440  67.431  1.00  0.00    -0.153 A  
ENDBRANCH   8   9
BRANCH   8  15
HETATM   15  C   UNL     1     -10.964  10.284  66.774  1.00  0.00    -0.012 C  
BRANCH  15  16
HETATM   16  C   UNL     1     -10.340  10.674  65.446  1.00  0.00    -0.303 A  
HETATM   17  C   UNL     1      -9.539  11.331  62.839  1.00  0.00    -0.377 A  
HETATM   18  C   UNL     1     -10.649  11.928  64.897  1.00  0.00    -0.333 A  
HETATM   19  C   UNL     1     -10.263  12.250  63.595  1.00  0.00    -0.430 A  
HETATM   20  C   UNL     1      -9.127  10.132  63.413  1.00  0.00    -0.301 A  
HETATM   21  C   UNL     1      -9.496   9.821  64.721  1.00  0.00    -0.318 A  
ENDBRANCH  15  16
ENDBRANCH   8  15
ENDBRANCH   1   8
TORSDOF 5
ENDMDL
MODEL      159
REMARK 921   NORMALIZED FREE ENERGY PREDICTED BY IDOCK:   -4.17 KCAL/MOL
REMARK 922        TOTAL FREE ENERGY PREDICTED BY IDOCK:   -5.98 KCAL/MOL
REMARK 923 INTER-LIGAND FREE ENERGY PREDICTED BY IDOCK:   -5.38 KCAL/MOL
REMARK 924 INTRA-LIGAND FREE ENERGY PREDICTED BY IDOCK:   -0.61 KCAL/MOL
REMARK 927      BINDING AFFINITY PREDICTED BY RF-SCORE:    0.00 PKD
ROOT
HETATM    1  C   UNL     1      -9.645  15.571  68.958  1.00  0.00    -0.238 C  
ENDROOT
BRANCH   1   2
HETATM    2  C   UNL     1      -9.469  17.009  68.476  1.00  0.00    -0.269 A  
HETATM    3  H   UNL     1      -7.384  17.183  68.592  1.00  0.00     0.000 HD 
HETATM    4  N   UNL     1      -8.307  17.609  68.513  1.00  0.00    -0.289 NA 
HETATM    5  N   UNL     1     -10.565  17.786  68.174  1.00  0.00    -0.371 NA 
HETATM    6  C   UNL     1     -10.155  19.166  68.220  1.00  0.00    -0.416 A  
HETATM    7  C   UNL     1      -8.639  19.055  68.414  1.00  0.00    -0.348 A  
ENDBRANCH   1   2
BRANCH   1   8
HETATM    8  N   UNL     1      -9.471  14.690  67.789  1.00  0.00    -0.202 NA 
BRANCH   8   9
HETATM    9  C   UNL     1     -10.441  14.617  66.801  1.00  0.00    -0.277 A  
HETATM   10  C   UNL     1     -11.596  13.839  66.921  1.00  0.00    -0.394 A  
HETATM   11  C   UNL     1     -12.571  13.821  65.917  1.00  0.00    -0.494 A  
HETATM   12  C   UNL     1     -11.238  15.325  64.598  1.00  0.00    -0.366 A  
HETATM   13  C   UNL     1     -10.282  15.348  65.614  1.00  0.00    -0.403 A  
HETATM   14  C   UNL     1     -12.392  14.564  64.751  1.00  0.00    -0.403 A  
ENDBRANCH   8   9
BRANCH   8  15
HETATM   15  C   UNL     1      -8.081  14.329  67.395  1.00  0.00    -0.196 C  
BRANCH  15  16
HETATM   16  C   UNL     1      -7.648  12.929  67.789  1.00  0.00    -0.141 A  
HETATM   17  C   UNL     1      -7.208  10.299  68.659  1.00  0.00    -0.081 A  
HETATM   18  C   UNL     1      -8.127  11.839  67.045  1.00  0.00    -0.169 A  
HETATM   19  C   UNL     1      -7.921  10.531  67.485  1.00  0.00    -0.107 A  
HETATM   20  C   UNL     1      -6.629  11.364  69.342  1.00  0.00    -0.119 A  
HETATM   21  C   UNL     1      -6.819  12.669  68.889  1.00  0.00    -0.097 A  
ENDBRANCH  15  16
ENDBRANCH   8  15
ENDBRANCH   1   8
TORSDOF 5
ENDMDL
MODEL      160
REMARK 921   NORMALIZED FREE ENERGY PREDICTED BY IDOCK:   -4.15 KCAL/MOL
REMARK 922        TOTAL FREE ENERGY PREDICTED BY IDOCK:   -5.95 KCAL/MOL
REMARK 923 INTER-LIGAND FREE ENERGY PREDICTED BY IDOCK:   -5.20 KCAL/MOL
REMARK 924 INTRA-LIGAND FREE ENERGY PREDICTED BY IDOCK:   -0.75 KCAL/MOL
REMARK 927      BINDING AFFINITY PREDICTED BY RF-SCORE:    0.00 PKD
ROOT
HETATM    1  C   UNL     1     -10.475   9.987  66.673  1.00  0.00    -0.174 C  
ENDROOT
BRANCH   1   2
HETATM    2  C   UNL     1     -10.938  11.255  65.959  1.00  0.00    -0.174 A  
HETATM    3  H   UNL     1      -9.490  11.376  64.449  1.00  0.00     0.000 HD 
HETATM    4  N   UNL     1     -10.232  11.803  65.004  1.00  0.00    -0.262 NA 
HETATM    5  N   UNL     1     -12.012  11.974  66.433  1.00  0.00    -0.593 NA 
HETATM    6  C   UNL     1     -11.926  13.307  65.894  1.00  0.00    -0.419 A  
HETATM    7  C   UNL     1     -10.756  13.191  64.911  1.00  0.00    -0.346 A  
ENDBRANCH   1   2
BRANCH   1   8
HETATM    8  N   UNL     1      -9.405  10.373  67.609  1.00  0.00    -0.148 NA 
BRANCH   8   9
HETATM    9  C   UNL     1      -8.075  10.351  67.219  1.00  0.00    -0.114 A  
HETATM   10  C   UNL     1      -7.251  11.480  67.248  1.00  0.00    -0.132 A  
HETATM   11  C   UNL     1      -5.902  11.409  66.881  1.00  0.00    -0.121 A  
HETATM   12  C   UNL     1      -6.162   9.072  66.384  1.00  0.00    -0.064 A  
HETATM   13  C   UNL     1      -7.501   9.152  66.768  1.00  0.00    -0.087 A  
HETATM   14  C   UNL     1      -5.356  10.202  66.446  1.00  0.00    -0.046 A  
ENDBRANCH   8   9
BRANCH   8  15
HETATM   15  C   UNL     1      -9.761  11.287  68.729  1.00  0.00    -0.174 C  
BRANCH  15  16
HETATM   16  C   UNL     1     -10.678  10.686  69.778  1.00  0.00    -0.283 A  
HETATM   17  C   UNL     1     -12.418   9.276  71.468  1.00  0.00    -0.435 A  
HETATM   18  C   UNL     1     -10.216   9.599  70.537  1.00  0.00    -0.351 A  
HETATM   19  C   UNL     1     -11.084   8.888  71.366  1.00  0.00    -0.376 A  
HETATM   20  C   UNL     1     -12.859  10.422  70.812  1.00  0.00    -0.450 A  
HETATM   21  C   UNL     1     -11.985  11.141  69.999  1.00  0.00    -0.447 A  
ENDBRANCH  15  16
ENDBRANCH   8  15
ENDBRANCH   1   8
TORSDOF 5
ENDMDL
MODEL      161
REMARK 921   NORMALIZED FREE ENERGY PREDICTED BY IDOCK:   -4.15 KCAL/MOL
REMARK 922        TOTAL FREE ENERGY PREDICTED BY IDOCK:   -5.95 KCAL/MOL
REMARK 923 INTER-LIGAND FREE ENERGY PREDICTED BY IDOCK:   -4.98 KCAL/MOL
REMARK 924 INTRA-LIGAND FREE ENERGY PREDICTED BY IDOCK:   -0.96 KCAL/MOL
REMARK 927      BINDING AFFINITY PREDICTED BY RF-SCORE:    0.00 PKD
ROOT
HETATM    1  C   UNL     1      -9.770  13.386  68.897  1.00  0.00     0.129 C  
ENDROOT
BRANCH   1   2
HETATM    2  C   UNL     1      -9.845  14.457  67.811  1.00  0.00    -0.221 A  
HETATM    3  H   UNL     1     -11.499  15.551  68.486  1.00  0.00     0.000 HD 
HETATM    4  N   UNL     1     -10.838  15.305  67.748  1.00  0.00    -0.287 NA 
HETATM    5  N   UNL     1      -8.974  14.434  66.745  1.00  0.00    -0.248 NA 
HETATM    6  C   UNL     1      -9.552  15.218  65.684  1.00  0.00    -0.278 A  
HETATM    7  C   UNL     1     -10.783  15.831  66.359  1.00  0.00    -0.277 A  
ENDBRANCH   1   2
BRANCH   1   8
HETATM    8  N   UNL     1      -9.959  12.079  68.243  1.00  0.00    -0.200 NA 
BRANCH   8   9
HETATM    9  C   UNL     1      -9.216  10.975  68.629  1.00  0.00    -0.185 A  
HETATM   10  C   UNL     1      -7.825  10.905  68.496  1.00  0.00    -0.126 A  
HETATM   11  C   UNL     1      -7.106   9.787  68.933  1.00  0.00    -0.067 A  
HETATM   12  C   UNL     1      -9.157   8.732  69.608  1.00  0.00    -0.149 A  
HETATM   13  C   UNL     1      -9.862   9.859  69.184  1.00  0.00    -0.204 A  
HETATM   14  C   UNL     1      -7.773   8.696  69.489  1.00  0.00    -0.090 A  
ENDBRANCH   8   9
BRANCH   8  15
HETATM   15  C   UNL     1     -11.273  11.812  67.597  1.00  0.00    -0.281 C  
BRANCH  15  16
HETATM   16  C   UNL     1     -11.283  11.949  66.085  1.00  0.00    -0.387 A  
HETATM   17  C   UNL     1     -11.586  11.936  63.296  1.00  0.00    -0.380 A  
HETATM   18  C   UNL     1     -12.339  12.645  65.476  1.00  0.00    -0.455 A  
HETATM   19  C   UNL     1     -12.498  12.626  64.090  1.00  0.00    -0.488 A  
HETATM   20  C   UNL     1     -10.470  11.342  63.879  1.00  0.00    -0.452 A  
HETATM   21  C   UNL     1     -10.302  11.378  65.262  1.00  0.00    -0.336 A  
ENDBRANCH  15  16
ENDBRANCH   8  15
ENDBRANCH   1   8
TORSDOF 5
ENDMDL
MODEL      162
REMARK 921   NORMALIZED FREE ENERGY PREDICTED BY IDOCK:   -4.14 KCAL/MOL
REMARK 922        TOTAL FREE ENERGY PREDICTED BY IDOCK:   -5.94 KCAL/MOL
REMARK 923 INTER-LIGAND FREE ENERGY PREDICTED BY IDOCK:   -5.07 KCAL/MOL
REMARK 924 INTRA-LIGAND FREE ENERGY PREDICTED BY IDOCK:   -0.87 KCAL/MOL
REMARK 927      BINDING AFFINITY PREDICTED BY RF-SCORE:    0.00 PKD
ROOT
HETATM    1  C   UNL     1      -9.447  10.634  68.680  1.00  0.00    -0.176 C  
ENDROOT
BRANCH   1   2
HETATM    2  C   UNL     1     -10.159  11.645  67.784  1.00  0.00    -0.187 A  
HETATM    3  H   UNL     1     -10.582  13.144  69.186  1.00  0.00     0.000 HD 
HETATM    4  N   UNL     1     -10.735  12.712  68.274  1.00  0.00    -0.223 NA 
HETATM    5  N   UNL     1     -10.390  11.364  66.456  1.00  0.00    -0.228 NA 
HETATM    6  C   UNL     1     -11.451  12.225  65.999  1.00  0.00    -0.381 A  
HETATM    7  C   UNL     1     -11.664  13.152  67.200  1.00  0.00    -0.377 A  
ENDBRANCH   1   2
BRANCH   1   8
HETATM    8  N   UNL     1     -10.333   9.464  68.816  1.00  0.00    -0.204 NA 
BRANCH   8   9
HETATM    9  C   UNL     1      -9.957   8.225  68.321  1.00  0.00    -0.191 A  
HETATM   10  C   UNL     1     -10.851   7.351  67.693  1.00  0.00    -0.220 A  
HETATM   11  C   UNL     1     -10.425   6.124  67.173  1.00  0.00    -0.327 A  
HETATM   12  C   UNL     1      -8.192   6.573  67.941  1.00  0.00    -0.116 A  
HETATM   13  C   UNL     1      -8.625   7.801  68.441  1.00  0.00    -0.128 A  
HETATM   14  C   UNL     1      -9.093   5.731  67.298  1.00  0.00    -0.110 A  
ENDBRANCH   8   9
BRANCH   8  15
HETATM   15  C   UNL     1     -11.324   9.472  69.926  1.00  0.00    -0.126 C  
BRANCH  15  16
HETATM   16  C   UNL     1     -11.051   8.472  71.034  1.00  0.00    -0.306 A  
HETATM   17  C   UNL     1     -10.888   6.738  73.234  1.00  0.00    -0.302 A  
HETATM   18  C   UNL     1     -11.778   7.271  71.056  1.00  0.00    -0.340 A  
HETATM   19  C   UNL     1     -11.708   6.415  72.155  1.00  0.00    -0.366 A  
HETATM   20  C   UNL     1     -10.074   7.865  73.174  1.00  0.00    -0.362 A  
HETATM   21  C   UNL     1     -10.131   8.709  72.065  1.00  0.00    -0.401 A  
ENDBRANCH  15  16
ENDBRANCH   8  15
ENDBRANCH   1   8
TORSDOF 5
ENDMDL
MODEL      163
REMARK 921   NORMALIZED FREE ENERGY PREDICTED BY IDOCK:   -4.13 KCAL/MOL
REMARK 922        TOTAL FREE ENERGY PREDICTED BY IDOCK:   -5.92 KCAL/MOL
REMARK 923 INTER-LIGAND FREE ENERGY PREDICTED BY IDOCK:   -5.94 KCAL/MOL
REMARK 924 INTRA-LIGAND FREE ENERGY PREDICTED BY IDOCK:    0.02 KCAL/MOL
REMARK 927      BINDING AFFINITY PREDICTED BY RF-SCORE:    0.00 PKD
ROOT
HETATM    1  C   UNL     1     -11.813  15.327  67.506  1.00  0.00    -0.025 C  
ENDROOT
BRANCH   1   2
HETATM    2  C   UNL     1     -11.783  14.462  66.247  1.00  0.00    -0.385 A  
HETATM    3  H   UNL     1     -10.423  15.552  65.085  1.00  0.00     0.000 HD 
HETATM    4  N   UNL     1     -11.150  14.841  65.168  1.00  0.00    -0.362 NA 
HETATM    5  N   UNL     1     -12.588  13.350  66.142  1.00  0.00    -0.333 NA 
HETATM    6  C   UNL     1     -12.716  13.027  64.745  1.00  0.00    -0.342 A  
HETATM    7  C   UNL     1     -11.730  13.999  64.089  1.00  0.00    -0.315 A  
ENDBRANCH   1   2
BRANCH   1   8
HETATM    8  N   UNL     1     -10.416  15.590  67.894  1.00  0.00    -0.260 NA 
BRANCH   8   9
HETATM    9  C   UNL     1      -9.916  16.882  67.921  1.00  0.00    -0.274 A  
HETATM   10  C   UNL     1      -8.708  17.221  68.540  1.00  0.00    -0.273 A  
HETATM   11  C   UNL     1      -8.218  18.531  68.513  1.00  0.00    -0.360 A  
HETATM   12  C   UNL     1     -10.163  19.234  67.288  1.00  0.00    -0.512 A  
HETATM   13  C   UNL     1     -10.634  17.920  67.307  1.00  0.00    -0.341 A  
HETATM   14  C   UNL     1      -8.947  19.542  67.888  1.00  0.00    -0.378 A  
ENDBRANCH   8   9
BRANCH   8  15
HETATM   15  C   UNL     1      -9.738  14.588  68.763  1.00  0.00    -0.210 C  
BRANCH  15  16
HETATM   16  C   UNL     1     -10.329  13.191  68.709  1.00  0.00    -0.146 A  
HETATM   17  C   UNL     1     -11.261  10.557  68.962  1.00  0.00    -0.316 A  
HETATM   18  C   UNL     1     -11.455  12.902  69.496  1.00  0.00    -0.292 A  
HETATM   19  C   UNL     1     -11.910  11.591  69.633  1.00  0.00    -0.421 A  
HETATM   20  C   UNL     1     -10.217  10.846  68.087  1.00  0.00    -0.197 A  
HETATM   21  C   UNL     1      -9.777  12.160  67.936  1.00  0.00    -0.200 A  
ENDBRANCH  15  16
ENDBRANCH   8  15
ENDBRANCH   1   8
TORSDOF 5
ENDMDL
MODEL      164
REMARK 921   NORMALIZED FREE ENERGY PREDICTED BY IDOCK:   -4.12 KCAL/MOL
REMARK 922        TOTAL FREE ENERGY PREDICTED BY IDOCK:   -5.92 KCAL/MOL
REMARK 923 INTER-LIGAND FREE ENERGY PREDICTED BY IDOCK:   -5.05 KCAL/MOL
REMARK 924 INTRA-LIGAND FREE ENERGY PREDICTED BY IDOCK:   -0.87 KCAL/MOL
REMARK 927      BINDING AFFINITY PREDICTED BY RF-SCORE:    0.00 PKD
ROOT
HETATM    1  C   UNL     1     -11.033   8.573  69.664  1.00  0.00    -0.086 C  
ENDROOT
BRANCH   1   2
HETATM    2  C   UNL     1     -10.753   7.715  70.895  1.00  0.00    -0.235 A  
HETATM    3  H   UNL     1     -11.836   5.992  70.397  1.00  0.00     0.000 HD 
HETATM    4  N   UNL     1     -11.354   6.569  71.086  1.00  0.00    -0.299 NA 
HETATM    5  N   UNL     1     -10.008   8.212  71.941  1.00  0.00    -0.194 NA 
HETATM    6  C   UNL     1     -10.300   7.421  73.108  1.00  0.00    -0.334 A  
HETATM    7  C   UNL     1     -11.174   6.299  72.537  1.00  0.00    -0.279 A  
ENDBRANCH   1   2
BRANCH   1   8
HETATM    8  N   UNL     1      -9.889   8.418  68.748  1.00  0.00    -0.169 NA 
BRANCH   8   9
HETATM    9  C   UNL     1      -9.724   7.261  68.004  1.00  0.00    -0.141 A  
HETATM   10  C   UNL     1      -8.479   6.663  67.786  1.00  0.00    -0.122 A  
HETATM   11  C   UNL     1      -8.358   5.473  67.060  1.00  0.00    -0.107 A  
HETATM   12  C   UNL     1     -10.733   5.458  66.689  1.00  0.00    -0.309 A  
HETATM   13  C   UNL     1     -10.843   6.636  67.429  1.00  0.00    -0.434 A  
HETATM   14  C   UNL     1      -9.487   4.869  66.508  1.00  0.00    -0.153 A  
ENDBRANCH   8   9
BRANCH   8  15
HETATM   15  C   UNL     1      -9.257   9.656  68.214  1.00  0.00    -0.129 C  
BRANCH  15  16
HETATM   16  C   UNL     1      -9.950  10.258  67.005  1.00  0.00    -0.249 A  
HETATM   17  C   UNL     1     -10.903  11.578  64.721  1.00  0.00    -0.360 A  
HETATM   18  C   UNL     1      -9.546   9.853  65.723  1.00  0.00    -0.312 A  
HETATM   19  C   UNL     1     -10.008  10.518  64.588  1.00  0.00    -0.415 A  
HETATM   20  C   UNL     1     -11.401  11.912  65.977  1.00  0.00    -0.375 A  
HETATM   21  C   UNL     1     -10.952  11.233  67.108  1.00  0.00    -0.348 A  
ENDBRANCH  15  16
ENDBRANCH   8  15
ENDBRANCH   1   8
TORSDOF 5
ENDMDL
MODEL      165
REMARK 921   NORMALIZED FREE ENERGY PREDICTED BY IDOCK:   -4.12 KCAL/MOL
REMARK 922        TOTAL FREE ENERGY PREDICTED BY IDOCK:   -5.91 KCAL/MOL
REMARK 923 INTER-LIGAND FREE ENERGY PREDICTED BY IDOCK:   -5.13 KCAL/MOL
REMARK 924 INTRA-LIGAND FREE ENERGY PREDICTED BY IDOCK:   -0.79 KCAL/MOL
REMARK 927      BINDING AFFINITY PREDICTED BY RF-SCORE:    0.00 PKD
ROOT
HETATM    1  C   UNL     1      -8.942  12.131  68.283  1.00  0.00    -0.186 C  
ENDROOT
BRANCH   1   2
HETATM    2  C   UNL     1      -9.821  10.892  68.125  1.00  0.00    -0.175 A  
HETATM    3  H   UNL     1     -11.071  11.113  69.791  1.00  0.00     0.000 HD 
HETATM    4  N   UNL     1     -10.683  10.539  69.042  1.00  0.00    -0.209 NA 
HETATM    5  N   UNL     1      -9.591   9.996  67.105  1.00  0.00    -0.161 NA 
HETATM    6  C   UNL     1     -10.210   8.746  67.466  1.00  0.00    -0.246 A  
HETATM    7  C   UNL     1     -10.970   9.111  68.745  1.00  0.00     0.030 A  
ENDBRANCH   1   2
BRANCH   1   8
HETATM    8  N   UNL     1      -9.599  13.233  67.557  1.00  0.00    -0.212 NA 
BRANCH   8   9
HETATM    9  C   UNL     1     -10.068  14.349  68.231  1.00  0.00    -0.239 A  
HETATM   10  C   UNL     1      -9.435  15.595  68.179  1.00  0.00    -0.195 A  
HETATM   11  C   UNL     1      -9.960  16.709  68.843  1.00  0.00    -0.271 A  
HETATM   12  C   UNL     1     -11.755  15.354  69.693  1.00  0.00    -0.355 A  
HETATM   13  C   UNL     1     -11.231  14.255  69.012  1.00  0.00    -0.294 A  
HETATM   14  C   UNL     1     -11.122  16.589  69.604  1.00  0.00    -0.235 A  
ENDBRANCH   8   9
BRANCH   8  15
HETATM   15  C   UNL     1      -9.268  13.407  66.116  1.00  0.00     0.029 C  
BRANCH  15  16
HETATM   16  C   UNL     1     -10.374  13.014  65.154  1.00  0.00    -0.321 A  
HETATM   17  C   UNL     1     -12.472  11.977  63.607  1.00  0.00    -0.637 A  
HETATM   18  C   UNL     1     -11.709  13.176  65.557  1.00  0.00    -0.393 A  
HETATM   19  C   UNL     1     -12.752  12.648  64.795  1.00  0.00    -0.460 A  
HETATM   20  C   UNL     1     -11.163  11.913  63.139  1.00  0.00    -0.248 A  
HETATM   21  C   UNL     1     -10.124  12.458  63.892  1.00  0.00    -0.349 A  
ENDBRANCH  15  16
ENDBRANCH   8  15
ENDBRANCH   1   8
TORSDOF 5
ENDMDL
MODEL      166
REMARK 921   NORMALIZED FREE ENERGY PREDICTED BY IDOCK:   -4.11 KCAL/MOL
REMARK 922        TOTAL FREE ENERGY PREDICTED BY IDOCK:   -5.90 KCAL/MOL
REMARK 923 INTER-LIGAND FREE ENERGY PREDICTED BY IDOCK:   -5.19 KCAL/MOL
REMARK 924 INTRA-LIGAND FREE ENERGY PREDICTED BY IDOCK:   -0.71 KCAL/MOL
REMARK 927      BINDING AFFINITY PREDICTED BY RF-SCORE:    0.00 PKD
ROOT
HETATM    1  C   UNL     1     -10.723   7.708  66.993  1.00  0.00    -0.270 C  
ENDROOT
BRANCH   1   2
HETATM    2  C   UNL     1      -9.517   8.507  66.502  1.00  0.00    -0.218 A  
HETATM    3  H   UNL     1      -8.030   7.036  66.616  1.00  0.00     0.000 HD 
HETATM    4  N   UNL     1      -8.306   8.015  66.535  1.00  0.00    -0.117 NA 
HETATM    5  N   UNL     1      -9.640   9.844  66.197  1.00  0.00    -0.201 NA 
HETATM    6  C   UNL     1      -8.325  10.430  66.235  1.00  0.00    -0.146 A  
HETATM    7  C   UNL     1      -7.424   9.206  66.428  1.00  0.00    -0.092 A  
ENDBRANCH   1   2
BRANCH   1   8
HETATM    8  N   UNL     1     -10.440   7.288  68.377  1.00  0.00    -0.199 NA 
BRANCH   8   9
HETATM    9  C   UNL     1     -10.110   5.974  68.669  1.00  0.00    -0.168 A  
HETATM   10  C   UNL     1      -9.810   5.025  67.685  1.00  0.00    -0.202 A  
HETATM   11  C   UNL     1      -9.445   3.717  68.022  1.00  0.00    -0.218 A  
HETATM   12  C   UNL     1      -9.722   4.239  70.352  1.00  0.00    -0.280 A  
HETATM   13  C   UNL     1     -10.068   5.546  70.005  1.00  0.00    -0.311 A  
HETATM   14  C   UNL     1      -9.402   3.321  69.358  1.00  0.00    -0.232 A  
ENDBRANCH   8   9
BRANCH   8  15
HETATM   15  C   UNL     1      -9.970   8.327  69.334  1.00  0.00    -0.188 C  
BRANCH  15  16
HETATM   16  C   UNL     1     -11.074   9.108  70.022  1.00  0.00    -0.208 A  
HETATM   17  C   UNL     1     -12.828  10.735  71.488  1.00  0.00    -0.567 A  
HETATM   18  C   UNL     1     -11.284  10.447  69.656  1.00  0.00    -0.333 A  
HETATM   19  C   UNL     1     -12.145  11.260  70.394  1.00  0.00    -0.474 A  
HETATM   20  C   UNL     1     -12.718   9.380  71.789  1.00  0.00    -0.476 A  
HETATM   21  C   UNL     1     -11.872   8.565  71.039  1.00  0.00    -0.290 A  
ENDBRANCH  15  16
ENDBRANCH   8  15
ENDBRANCH   1   8
TORSDOF 5
ENDMDL
MODEL      167
REMARK 921   NORMALIZED FREE ENERGY PREDICTED BY IDOCK:   -4.11 KCAL/MOL
REMARK 922        TOTAL FREE ENERGY PREDICTED BY IDOCK:   -5.90 KCAL/MOL
REMARK 923 INTER-LIGAND FREE ENERGY PREDICTED BY IDOCK:   -5.14 KCAL/MOL
REMARK 924 INTRA-LIGAND FREE ENERGY PREDICTED BY IDOCK:   -0.76 KCAL/MOL
REMARK 927      BINDING AFFINITY PREDICTED BY RF-SCORE:    0.00 PKD
ROOT
HETATM    1  C   UNL     1     -11.516  11.519  67.012  1.00  0.00    -0.214 C  
ENDROOT
BRANCH   1   2
HETATM    2  C   UNL     1     -11.639  11.717  65.503  1.00  0.00    -0.126 A  
HETATM    3  H   UNL     1      -9.922  10.706  64.857  1.00  0.00     0.000 HD 
HETATM    4  N   UNL     1     -10.687  11.357  64.681  1.00  0.00    -0.318 NA 
HETATM    5  N   UNL     1     -12.670  12.464  64.976  1.00  0.00    -0.640 NA 
HETATM    6  C   UNL     1     -12.286  12.876  63.651  1.00  0.00    -0.499 A  
HETATM    7  C   UNL     1     -10.976  12.112  63.434  1.00  0.00    -0.412 A  
ENDBRANCH   1   2
BRANCH   1   8
HETATM    8  N   UNL     1     -10.468  12.436  67.493  1.00  0.00    -0.213 NA 
BRANCH   8   9
HETATM    9  C   UNL     1     -10.753  13.766  67.761  1.00  0.00    -0.246 A  
HETATM   10  C   UNL     1     -11.669  14.168  68.738  1.00  0.00    -0.380 A  
HETATM   11  C   UNL     1     -11.902  15.522  69.005  1.00  0.00    -0.373 A  
HETATM   12  C   UNL     1     -10.344  16.130  67.279  1.00  0.00    -0.287 A  
HETATM   13  C   UNL     1     -10.107  14.777  67.034  1.00  0.00    -0.245 A  
HETATM   14  C   UNL     1     -11.240  16.507  68.273  1.00  0.00    -0.265 A  
ENDBRANCH   8   9
BRANCH   8  15
HETATM   15  C   UNL     1      -9.301  11.843  68.203  1.00  0.00    -0.191 C  
BRANCH  15  16
HETATM   16  C   UNL     1      -8.675  10.644  67.514  1.00  0.00    -0.125 A  
HETATM   17  C   UNL     1      -7.753   8.514  65.938  1.00  0.00    -0.097 A  
HETATM   18  C   UNL     1      -7.751  10.865  66.481  1.00  0.00    -0.149 A  
HETATM   19  C   UNL     1      -7.303   9.808  65.687  1.00  0.00    -0.106 A  
HETATM   20  C   UNL     1      -8.577   8.266  67.032  1.00  0.00    -0.124 A  
HETATM   21  C   UNL     1      -9.008   9.321  67.835  1.00  0.00    -0.130 A  
ENDBRANCH  15  16
ENDBRANCH   8  15
ENDBRANCH   1   8
TORSDOF 5
ENDMDL
MODEL      168
REMARK 921   NORMALIZED FREE ENERGY PREDICTED BY IDOCK:   -4.10 KCAL/MOL
REMARK 922        TOTAL FREE ENERGY PREDICTED BY IDOCK:   -5.89 KCAL/MOL
REMARK 923 INTER-LIGAND FREE ENERGY PREDICTED BY IDOCK:   -5.33 KCAL/MOL
REMARK 924 INTRA-LIGAND FREE ENERGY PREDICTED BY IDOCK:   -0.56 KCAL/MOL
REMARK 927      BINDING AFFINITY PREDICTED BY RF-SCORE:    0.00 PKD
ROOT
HETATM    1  C   UNL     1      -8.084  11.138  67.649  1.00  0.00    -0.117 C  
ENDROOT
BRANCH   1   2
HETATM    2  C   UNL     1      -8.059   9.952  66.687  1.00  0.00    -0.117 A  
HETATM    3  H   UNL     1      -6.157   9.180  67.106  1.00  0.00     0.000 HD 
HETATM    4  N   UNL     1      -6.979   9.238  66.504  1.00  0.00    -0.080 NA 
HETATM    5  N   UNL     1      -9.114   9.719  65.834  1.00  0.00    -0.157 NA 
HETATM    6  C   UNL     1      -8.640   8.883  64.762  1.00  0.00    -0.158 A  
HETATM    7  C   UNL     1      -7.221   8.529  65.221  1.00  0.00    -0.083 A  
ENDBRANCH   1   2
BRANCH   1   8
HETATM    8  N   UNL     1      -9.434  11.726  67.588  1.00  0.00    -0.176 NA 
BRANCH   8   9
HETATM    9  C   UNL     1     -10.374  11.453  68.570  1.00  0.00    -0.205 A  
HETATM   10  C   UNL     1     -10.657  10.159  69.018  1.00  0.00    -0.245 A  
HETATM   11  C   UNL     1     -11.586   9.928  70.039  1.00  0.00    -0.235 A  
HETATM   12  C   UNL     1     -12.031  12.287  70.167  1.00  0.00    -0.377 A  
HETATM   13  C   UNL     1     -11.090  12.506  69.161  1.00  0.00    -0.254 A  
HETATM   14  C   UNL     1     -12.277  10.993  70.614  1.00  0.00    -0.481 A  
ENDBRANCH   8   9
BRANCH   8  15
HETATM   15  C   UNL     1      -9.604  12.996  66.830  1.00  0.00    -0.248 C  
BRANCH  15  16
HETATM   16  C   UNL     1     -10.536  12.908  65.636  1.00  0.00    -0.295 A  
HETATM   17  C   UNL     1     -12.337  12.381  63.550  1.00  0.00    -0.648 A  
HETATM   18  C   UNL     1     -11.922  12.963  65.854  1.00  0.00    -0.504 A  
HETATM   19  C   UNL     1     -12.818  12.688  64.821  1.00  0.00    -0.349 A  
HETATM   20  C   UNL     1     -10.971  12.438  63.293  1.00  0.00    -0.325 A  
HETATM   21  C   UNL     1     -10.078  12.733  64.322  1.00  0.00    -0.277 A  
ENDBRANCH  15  16
ENDBRANCH   8  15
ENDBRANCH   1   8
TORSDOF 5
ENDMDL
MODEL      169
REMARK 921   NORMALIZED FREE ENERGY PREDICTED BY IDOCK:   -4.09 KCAL/MOL
REMARK 922        TOTAL FREE ENERGY PREDICTED BY IDOCK:   -5.87 KCAL/MOL
REMARK 923 INTER-LIGAND FREE ENERGY PREDICTED BY IDOCK:   -5.18 KCAL/MOL
REMARK 924 INTRA-LIGAND FREE ENERGY PREDICTED BY IDOCK:   -0.69 KCAL/MOL
REMARK 927      BINDING AFFINITY PREDICTED BY RF-SCORE:    0.00 PKD
ROOT
HETATM    1  C   UNL     1     -10.910   9.349  68.004  1.00  0.00    -0.139 C  
ENDROOT
BRANCH   1   2
HETATM    2  C   UNL     1      -9.595   8.828  67.429  1.00  0.00    -0.161 A  
HETATM    3  H   UNL     1     -10.264   8.103  65.581  1.00  0.00     0.000 HD 
HETATM    4  N   UNL     1      -9.554   8.149  66.312  1.00  0.00    -0.207 NA 
HETATM    5  N   UNL     1      -8.436   8.884  68.169  1.00  0.00    -0.129 NA 
HETATM    6  C   UNL     1      -7.509   7.933  67.613  1.00  0.00    -0.097 A  
HETATM    7  C   UNL     1      -8.237   7.461  66.351  1.00  0.00    -0.122 A  
ENDBRANCH   1   2
BRANCH   1   8
HETATM    8  N   UNL     1     -10.630  10.650  68.639  1.00  0.00    -0.190 NA 
BRANCH   8   9
HETATM    9  C   UNL     1     -10.463  11.794  67.875  1.00  0.00    -0.196 A  
HETATM   10  C   UNL     1      -9.330  12.609  67.957  1.00  0.00    -0.209 A  
HETATM   11  C   UNL     1      -9.182  13.736  67.141  1.00  0.00    -0.245 A  
HETATM   12  C   UNL     1     -11.334  13.309  66.161  1.00  0.00    -0.335 A  
HETATM   13  C   UNL     1     -11.463  12.178  66.967  1.00  0.00    -0.415 A  
HETATM   14  C   UNL     1     -10.187  14.089  66.242  1.00  0.00    -0.300 A  
ENDBRANCH   8   9
BRANCH   8  15
HETATM   15  C   UNL     1     -11.068  10.841  70.049  1.00  0.00    -0.255 C  
BRANCH  15  16
HETATM   16  C   UNL     1     -10.983   9.600  70.918  1.00  0.00    -0.412 A  
HETATM   17  C   UNL     1     -10.961   7.532  72.814  1.00  0.00    -0.410 A  
HETATM   18  C   UNL     1     -12.169   8.936  71.268  1.00  0.00    -0.351 A  
HETATM   19  C   UNL     1     -12.161   7.917  72.221  1.00  0.00    -0.333 A  
HETATM   20  C   UNL     1      -9.764   8.101  72.391  1.00  0.00    -0.338 A  
HETATM   21  C   UNL     1      -9.772   9.106  71.424  1.00  0.00    -0.338 A  
ENDBRANCH  15  16
ENDBRANCH   8  15
ENDBRANCH   1   8
TORSDOF 5
ENDMDL
MODEL      170
REMARK 921   NORMALIZED FREE ENERGY PREDICTED BY IDOCK:   -4.08 KCAL/MOL
REMARK 922        TOTAL FREE ENERGY PREDICTED BY IDOCK:   -5.87 KCAL/MOL
REMARK 923 INTER-LIGAND FREE ENERGY PREDICTED BY IDOCK:   -5.57 KCAL/MOL
REMARK 924 INTRA-LIGAND FREE ENERGY PREDICTED BY IDOCK:   -0.30 KCAL/MOL
REMARK 927      BINDING AFFINITY PREDICTED BY RF-SCORE:    0.00 PKD
ROOT
HETATM    1  C   UNL     1      -8.800  10.541  69.044  1.00  0.00    -0.169 C  
ENDROOT
BRANCH   1   2
HETATM    2  C   UNL     1      -9.057  11.662  68.039  1.00  0.00    -0.177 A  
HETATM    3  H   UNL     1      -9.638  10.536  66.371  1.00  0.00     0.000 HD 
HETATM    4  N   UNL     1      -9.319  11.413  66.783  1.00  0.00    -0.177 NA 
HETATM    5  N   UNL     1      -8.824  12.975  68.381  1.00  0.00    -0.162 NA 
HETATM    6  C   UNL     1      -8.684  13.731  67.163  1.00  0.00    -0.221 A  
HETATM    7  C   UNL     1      -9.047  12.700  66.090  1.00  0.00     0.028 A  
ENDBRANCH   1   2
BRANCH   1   8
HETATM    8  N   UNL     1     -10.074   9.826  69.242  1.00  0.00    -0.186 NA 
BRANCH   8   9
HETATM    9  C   UNL     1     -10.208   8.874  70.240  1.00  0.00    -0.201 A  
HETATM   10  C   UNL     1      -9.696   9.043  71.530  1.00  0.00    -0.365 A  
HETATM   11  C   UNL     1      -9.886   8.074  72.522  1.00  0.00    -0.330 A  
HETATM   12  C   UNL     1     -11.065   6.693  70.948  1.00  0.00    -0.335 A  
HETATM   13  C   UNL     1     -10.885   7.673  69.972  1.00  0.00    -0.250 A  
HETATM   14  C   UNL     1     -10.570   6.894  72.231  1.00  0.00    -0.244 A  
ENDBRANCH   8   9
BRANCH   8  15
HETATM   15  C   UNL     1     -11.321  10.491  68.775  1.00  0.00    -0.249 C  
BRANCH  15  16
HETATM   16  C   UNL     1     -12.115  11.195  69.861  1.00  0.00    -0.418 A  
HETATM   17  C   UNL     1     -13.237  12.555  72.043  1.00  0.00    -0.524 A  
HETATM   18  C   UNL     1     -12.064  12.596  69.935  1.00  0.00    -0.322 A  
HETATM   19  C   UNL     1     -12.609  13.272  71.027  1.00  0.00    -0.408 A  
HETATM   20  C   UNL     1     -13.397  11.178  71.923  1.00  0.00    -0.409 A  
HETATM   21  C   UNL     1     -12.868  10.507  70.821  1.00  0.00    -0.454 A  
ENDBRANCH  15  16
ENDBRANCH   8  15
ENDBRANCH   1   8
TORSDOF 5
ENDMDL
MODEL      171
REMARK 921   NORMALIZED FREE ENERGY PREDICTED BY IDOCK:   -4.03 KCAL/MOL
REMARK 922        TOTAL FREE ENERGY PREDICTED BY IDOCK:   -5.80 KCAL/MOL
REMARK 923 INTER-LIGAND FREE ENERGY PREDICTED BY IDOCK:   -4.92 KCAL/MOL
REMARK 924 INTRA-LIGAND FREE ENERGY PREDICTED BY IDOCK:   -0.88 KCAL/MOL
REMARK 927      BINDING AFFINITY PREDICTED BY RF-SCORE:    0.00 PKD
ROOT
HETATM    1  C   UNL     1      -7.748  11.983  67.017  1.00  0.00    -0.129 C  
ENDROOT
BRANCH   1   2
HETATM    2  C   UNL     1      -7.372  13.243  67.793  1.00  0.00    -0.147 A  
HETATM    3  H   UNL     1      -8.029  12.706  69.708  1.00  0.00     0.000 HD 
HETATM    4  N   UNL     1      -7.727  13.415  69.039  1.00  0.00     0.062 NA 
HETATM    5  N   UNL     1      -6.820  14.326  67.145  1.00  0.00    -0.081 NA 
HETATM    6  C   UNL     1      -7.012  15.485  67.978  1.00  0.00    -0.132 A  
HETATM    7  C   UNL     1      -7.588  14.878  69.261  1.00  0.00    -0.170 A  
ENDBRANCH   1   2
BRANCH   1   8
HETATM    8  N   UNL     1      -9.186  11.744  67.234  1.00  0.00    -0.169 NA 
BRANCH   8   9
HETATM    9  C   UNL     1     -10.138  12.597  66.700  1.00  0.00    -0.241 A  
HETATM   10  C   UNL     1     -10.294  12.805  65.326  1.00  0.00    -0.313 A  
HETATM   11  C   UNL     1     -11.293  13.646  64.824  1.00  0.00    -0.365 A  
HETATM   12  C   UNL     1     -11.991  14.155  67.067  1.00  0.00    -0.471 A  
HETATM   13  C   UNL     1     -11.002  13.300  67.555  1.00  0.00    -0.281 A  
HETATM   14  C   UNL     1     -12.143  14.325  65.696  1.00  0.00    -0.399 A  
ENDBRANCH   8   9
BRANCH   8  15
HETATM   15  C   UNL     1      -9.620  10.349  67.523  1.00  0.00    -0.156 C  
BRANCH  15  16
HETATM   16  C   UNL     1      -9.992  10.082  68.970  1.00  0.00    -0.203 A  
HETATM   17  C   UNL     1     -10.684   9.212  71.546  1.00  0.00    -0.437 A  
HETATM   18  C   UNL     1      -9.020   9.548  69.831  1.00  0.00    -0.231 A  
HETATM   19  C   UNL     1      -9.367   9.102  71.107  1.00  0.00    -0.313 A  
HETATM   20  C   UNL     1     -11.631   9.846  70.747  1.00  0.00    -0.430 A  
HETATM   21  C   UNL     1     -11.278  10.309  69.481  1.00  0.00    -0.314 A  
ENDBRANCH  15  16
ENDBRANCH   8  15
ENDBRANCH   1   8
TORSDOF 5
ENDMDL
MODEL      172
REMARK 921   NORMALIZED FREE ENERGY PREDICTED BY IDOCK:   -4.00 KCAL/MOL
REMARK 922        TOTAL FREE ENERGY PREDICTED BY IDOCK:   -5.75 KCAL/MOL
REMARK 923 INTER-LIGAND FREE ENERGY PREDICTED BY IDOCK:   -5.05 KCAL/MOL
REMARK 924 INTRA-LIGAND FREE ENERGY PREDICTED BY IDOCK:   -0.71 KCAL/MOL
REMARK 927      BINDING AFFINITY PREDICTED BY RF-SCORE:    0.00 PKD
ROOT
HETATM    1  C   UNL     1     -12.003  11.180  68.340  1.00  0.00    -0.141 C  
ENDROOT
BRANCH   1   2
HETATM    2  C   UNL     1     -11.745  12.640  68.707  1.00  0.00    -0.323 A  
HETATM    3  H   UNL     1     -10.529  13.213  67.101  1.00  0.00     0.000 HD 
HETATM    4  N   UNL     1     -10.900  13.379  68.037  1.00  0.00    -0.241 NA 
HETATM    5  N   UNL     1     -12.245  13.167  69.877  1.00  0.00    -0.266 NA 
HETATM    6  C   UNL     1     -11.482  14.347  70.192  1.00  0.00    -0.220 A  
HETATM    7  C   UNL     1     -10.602  14.514  68.949  1.00  0.00    -0.249 A  
ENDBRANCH   1   2
BRANCH   1   8
HETATM    8  N   UNL     1     -10.732  10.452  68.509  1.00  0.00    -0.206 NA 
BRANCH   8   9
HETATM    9  C   UNL     1      -9.827  10.349  67.465  1.00  0.00    -0.172 A  
HETATM   10  C   UNL     1     -10.160   9.818  66.215  1.00  0.00    -0.313 A  
HETATM   11  C   UNL     1      -9.227   9.766  65.173  1.00  0.00    -0.297 A  
HETATM   12  C   UNL     1      -7.563  10.729  66.615  1.00  0.00    -0.134 A  
HETATM   13  C   UNL     1      -8.506  10.791  67.641  1.00  0.00    -0.119 A  
HETATM   14  C   UNL     1      -7.924  10.220  65.373  1.00  0.00    -0.148 A  
ENDBRANCH   8   9
BRANCH   8  15
HETATM   15  C   UNL     1     -10.186  10.323  69.888  1.00  0.00    -0.202 C  
BRANCH  15  16
HETATM   16  C   UNL     1     -10.620   9.074  70.633  1.00  0.00    -0.290 A  
HETATM   17  C   UNL     1     -11.782   6.845  71.879  1.00  0.00    -0.334 A  
HETATM   18  C   UNL     1     -10.919   7.917  69.897  1.00  0.00    -0.179 A  
HETATM   19  C   UNL     1     -11.510   6.814  70.513  1.00  0.00    -0.413 A  
HETATM   20  C   UNL     1     -11.383   7.940  72.641  1.00  0.00    -0.468 A  
HETATM   21  C   UNL     1     -10.775   9.034  72.026  1.00  0.00    -0.333 A  
ENDBRANCH  15  16
ENDBRANCH   8  15
ENDBRANCH   1   8
TORSDOF 5
ENDMDL
MODEL      173
REMARK 921   NORMALIZED FREE ENERGY PREDICTED BY IDOCK:   -3.92 KCAL/MOL
REMARK 922        TOTAL FREE ENERGY PREDICTED BY IDOCK:   -5.66 KCAL/MOL
REMARK 923 INTER-LIGAND FREE ENERGY PREDICTED BY IDOCK:   -4.84 KCAL/MOL
REMARK 924 INTRA-LIGAND FREE ENERGY PREDICTED BY IDOCK:   -0.82 KCAL/MOL
REMARK 927      BINDING AFFINITY PREDICTED BY RF-SCORE:    0.00 PKD
ROOT
HETATM    1  C   UNL     1      -9.158   8.264  68.778  1.00  0.00    -0.144 C  
ENDROOT
BRANCH   1   2
HETATM    2  C   UNL     1      -9.814   8.083  70.146  1.00  0.00    -0.184 A  
HETATM    3  H   UNL     1      -9.560   6.020  70.405  1.00  0.00     0.000 HD 
HETATM    4  N   UNL     1     -10.010   6.898  70.663  1.00  0.00    -0.187 NA 
HETATM    5  N   UNL     1     -10.399   9.151  70.788  1.00  0.00    -0.236 NA 
HETATM    6  C   UNL     1     -11.318   8.628  71.767  1.00  0.00    -0.323 A  
HETATM    7  C   UNL     1     -11.038   7.123  71.712  1.00  0.00    -0.236 A  
ENDBRANCH   1   2
BRANCH   1   8
HETATM    8  N   UNL     1     -10.239   8.404  67.786  1.00  0.00    -0.211 NA 
BRANCH   8   9
HETATM    9  C   UNL     1     -10.394   9.575  67.061  1.00  0.00    -0.250 A  
HETATM   10  C   UNL     1      -9.838   9.767  65.792  1.00  0.00    -0.360 A  
HETATM   11  C   UNL     1     -10.048  10.950  65.075  1.00  0.00    -0.362 A  
HETATM   12  C   UNL     1     -11.340  11.827  66.903  1.00  0.00    -0.386 A  
HETATM   13  C   UNL     1     -11.138  10.636  67.601  1.00  0.00    -0.385 A  
HETATM   14  C   UNL     1     -10.799  11.984  65.632  1.00  0.00    -0.325 A  
ENDBRANCH   8   9
BRANCH   8  15
HETATM   15  C   UNL     1     -10.785   7.159  67.177  1.00  0.00    -0.352 C  
BRANCH  15  16
HETATM   16  C   UNL     1      -9.757   6.076  66.908  1.00  0.00    -0.173 A  
HETATM   17  C   UNL     1      -8.051   4.009  66.077  1.00  0.00    -0.101 A  
HETATM   18  C   UNL     1      -8.760   6.312  65.949  1.00  0.00    -0.154 A  
HETATM   19  C   UNL     1      -7.921   5.281  65.525  1.00  0.00    -0.107 A  
HETATM   20  C   UNL     1      -8.956   3.792  67.112  1.00  0.00    -0.159 A  
HETATM   21  C   UNL     1      -9.780   4.828  67.548  1.00  0.00    -0.209 A  
ENDBRANCH  15  16
ENDBRANCH   8  15
ENDBRANCH   1   8
TORSDOF 5
ENDMDL
MODEL      174
REMARK 921   NORMALIZED FREE ENERGY PREDICTED BY IDOCK:   -3.91 KCAL/MOL
REMARK 922        TOTAL FREE ENERGY PREDICTED BY IDOCK:   -5.65 KCAL/MOL
REMARK 923 INTER-LIGAND FREE ENERGY PREDICTED BY IDOCK:   -5.08 KCAL/MOL
REMARK 924 INTRA-LIGAND FREE ENERGY PREDICTED BY IDOCK:   -0.57 KCAL/MOL
REMARK 927      BINDING AFFINITY PREDICTED BY RF-SCORE:    0.00 PKD
ROOT
HETATM    1  C   UNL     1     -10.502   5.754  71.616  1.00  0.00    -0.231 C  
ENDROOT
BRANCH   1   2
HETATM    2  C   UNL     1     -10.393   4.417  72.346  1.00  0.00    -0.173 A  
HETATM    3  H   UNL     1      -9.048   3.420  71.088  1.00  0.00     0.000 HD 
HETATM    4  N   UNL     1      -9.744   3.405  71.834  1.00  0.00    -0.157 NA 
HETATM    5  N   UNL     1     -11.144   4.173  73.474  1.00  0.00    -0.266 NA 
HETATM    6  C   UNL     1     -11.212   2.746  73.659  1.00  0.00    -0.212 A  
HETATM    7  C   UNL     1     -10.251   2.227  72.585  1.00  0.00    -0.154 A  
ENDBRANCH   1   2
BRANCH   1   8
HETATM    8  N   UNL     1     -10.189   6.815  72.590  1.00  0.00    -0.181 NA 
BRANCH   8   9
HETATM    9  C   UNL     1      -8.880   7.204  72.823  1.00  0.00    -0.122 A  
HETATM   10  C   UNL     1      -7.838   6.959  71.922  1.00  0.00    -0.095 A  
HETATM   11  C   UNL     1      -6.535   7.401  72.176  1.00  0.00    -0.050 A  
HETATM   12  C   UNL     1      -7.254   8.308  74.283  1.00  0.00    -0.227 A  
HETATM   13  C   UNL     1      -8.553   7.877  74.010  1.00  0.00    -0.322 A  
HETATM   14  C   UNL     1      -6.241   8.075  73.360  1.00  0.00    -0.085 A  
ENDBRANCH   8   9
BRANCH   8  15
HETATM   15  C   UNL     1     -11.251   7.816  72.888  1.00  0.00    -0.376 C  
BRANCH  15  16
HETATM   16  C   UNL     1     -11.407   8.912  71.850  1.00  0.00    -0.446 A  
HETATM   17  C   UNL     1     -11.893  10.674  69.722  1.00  0.00    -0.377 A  
HETATM   18  C   UNL     1     -12.657   9.535  71.707  1.00  0.00    -0.490 A  
HETATM   19  C   UNL     1     -12.903  10.400  70.641  1.00  0.00    -0.393 A  
HETATM   20  C   UNL     1     -10.617  10.155  69.919  1.00  0.00    -0.331 A  
HETATM   21  C   UNL     1     -10.367   9.306  70.997  1.00  0.00    -0.388 A  
ENDBRANCH  15  16
ENDBRANCH   8  15
ENDBRANCH   1   8
TORSDOF 5
ENDMDL
MODEL      175
REMARK 921   NORMALIZED FREE ENERGY PREDICTED BY IDOCK:   -3.89 KCAL/MOL
REMARK 922        TOTAL FREE ENERGY PREDICTED BY IDOCK:   -5.62 KCAL/MOL
REMARK 923 INTER-LIGAND FREE ENERGY PREDICTED BY IDOCK:   -5.07 KCAL/MOL
REMARK 924 INTRA-LIGAND FREE ENERGY PREDICTED BY IDOCK:   -0.55 KCAL/MOL
REMARK 927      BINDING AFFINITY PREDICTED BY RF-SCORE:    0.00 PKD
ROOT
HETATM    1  C   UNL     1     -10.907   9.611  67.429  1.00  0.00    -0.172 C  
ENDROOT
BRANCH   1   2
HETATM    2  C   UNL     1      -9.948   8.499  67.011  1.00  0.00    -0.250 A  
HETATM    3  H   UNL     1      -8.584   9.600  65.864  1.00  0.00     0.000 HD 
HETATM    4  N   UNL     1      -8.986   8.707  66.150  1.00  0.00    -0.168 NA 
HETATM    5  N   UNL     1     -10.189   7.193  67.376  1.00  0.00    -0.201 NA 
HETATM    6  C   UNL     1      -9.444   6.340  66.486  1.00  0.00    -0.152 A  
HETATM    7  C   UNL     1      -8.611   7.346  65.685  1.00  0.00    -0.112 A  
ENDBRANCH   1   2
BRANCH   1   8
HETATM    8  N   UNL     1     -10.188  10.479  68.379  1.00  0.00    -0.165 NA 
BRANCH   8   9
HETATM    9  C   UNL     1      -9.560   9.948  69.494  1.00  0.00    -0.225 A  
HETATM   10  C   UNL     1     -10.258   9.417  70.584  1.00  0.00    -0.353 A  
HETATM   11  C   UNL     1      -9.587   8.855  71.675  1.00  0.00    -0.363 A  
HETATM   12  C   UNL     1      -7.478   9.386  70.652  1.00  0.00    -0.150 A  
HETATM   13  C   UNL     1      -8.158   9.928  69.561  1.00  0.00    -0.155 A  
HETATM   14  C   UNL     1      -8.193   8.840  71.712  1.00  0.00    -0.144 A  
ENDBRANCH   8   9
BRANCH   8  15
HETATM   15  C   UNL     1      -9.673  11.781  67.873  1.00  0.00    -0.185 C  
BRANCH  15  16
HETATM   16  C   UNL     1     -10.493  12.405  66.760  1.00  0.00    -0.242 A  
HETATM   17  C   UNL     1     -11.751  13.850  64.710  1.00  0.00    -0.399 A  
HETATM   18  C   UNL     1      -9.986  12.381  65.451  1.00  0.00    -0.253 A  
HETATM   19  C   UNL     1     -10.603  13.111  64.434  1.00  0.00    -0.441 A  
HETATM   20  C   UNL     1     -12.329  13.788  65.974  1.00  0.00    -0.499 A  
HETATM   21  C   UNL     1     -11.722  13.042  66.984  1.00  0.00    -0.441 A  
ENDBRANCH  15  16
ENDBRANCH   8  15
ENDBRANCH   1   8
TORSDOF 5
ENDMDL
MODEL      176
REMARK 921   NORMALIZED FREE ENERGY PREDICTED BY IDOCK:   -3.88 KCAL/MOL
REMARK 922        TOTAL FREE ENERGY PREDICTED BY IDOCK:   -5.60 KCAL/MOL
REMARK 923 INTER-LIGAND FREE ENERGY PREDICTED BY IDOCK:   -4.94 KCAL/MOL
REMARK 924 INTRA-LIGAND FREE ENERGY PREDICTED BY IDOCK:   -0.66 KCAL/MOL
REMARK 927      BINDING AFFINITY PREDICTED BY RF-SCORE:    0.00 PKD
ROOT
HETATM    1  C   UNL     1      -9.250   7.550  71.230  1.00  0.00    -0.149 C  
ENDROOT
BRANCH   1   2
HETATM    2  C   UNL     1      -9.239   6.126  71.783  1.00  0.00    -0.144 A  
HETATM    3  H   UNL     1     -11.007   6.154  72.906  1.00  0.00     0.000 HD 
HETATM    4  N   UNL     1     -10.111   5.727  72.672  1.00  0.00    -0.177 NA 
HETATM    5  N   UNL     1      -8.189   5.278  71.512  1.00  0.00    -0.115 NA 
HETATM    6  C   UNL     1      -8.197   4.233  72.503  1.00  0.00    -0.100 A  
HETATM    7  C   UNL     1      -9.499   4.508  73.262  1.00  0.00    -0.119 A  
ENDBRANCH   1   2
BRANCH   1   8
HETATM    8  N   UNL     1     -10.558   7.763  70.584  1.00  0.00    -0.218 NA 
BRANCH   8   9
HETATM    9  C   UNL     1     -11.356   8.841  70.931  1.00  0.00    -0.275 A  
HETATM   10  C   UNL     1     -11.116  10.144  70.483  1.00  0.00    -0.400 A  
HETATM   11  C   UNL     1     -11.968  11.201  70.824  1.00  0.00    -0.415 A  
HETATM   12  C   UNL     1     -13.311   9.695  72.131  1.00  0.00    -0.545 A  
HETATM   13  C   UNL     1     -12.465   8.647  71.769  1.00  0.00    -0.397 A  
HETATM   14  C   UNL     1     -13.068  10.977  71.652  1.00  0.00    -0.543 A  
ENDBRANCH   8   9
BRANCH   8  15
HETATM   15  C   UNL     1     -10.762   7.183  69.228  1.00  0.00    -0.215 C  
BRANCH  15  16
HETATM   16  C   UNL     1     -10.057   7.920  68.105  1.00  0.00    -0.228 A  
HETATM   17  C   UNL     1      -8.612   9.518  66.307  1.00  0.00    -0.141 A  
HETATM   18  C   UNL     1      -8.673   7.750  67.948  1.00  0.00    -0.124 A  
HETATM   19  C   UNL     1      -7.952   8.554  67.065  1.00  0.00    -0.100 A  
HETATM   20  C   UNL     1      -9.999   9.616  66.367  1.00  0.00    -0.323 A  
HETATM   21  C   UNL     1     -10.720   8.799  67.236  1.00  0.00    -0.217 A  
ENDBRANCH  15  16
ENDBRANCH   8  15
ENDBRANCH   1   8
TORSDOF 5
ENDMDL
MODEL      177
REMARK 921   NORMALIZED FREE ENERGY PREDICTED BY IDOCK:   -3.86 KCAL/MOL
REMARK 922        TOTAL FREE ENERGY PREDICTED BY IDOCK:   -5.59 KCAL/MOL
REMARK 923 INTER-LIGAND FREE ENERGY PREDICTED BY IDOCK:   -5.02 KCAL/MOL
REMARK 924 INTRA-LIGAND FREE ENERGY PREDICTED BY IDOCK:   -0.57 KCAL/MOL
REMARK 927      BINDING AFFINITY PREDICTED BY RF-SCORE:    0.00 PKD
ROOT
HETATM    1  C   UNL     1      -8.418   7.420  68.043  1.00  0.00    -0.123 C  
ENDROOT
BRANCH   1   2
HETATM    2  C   UNL     1      -8.595   6.084  67.325  1.00  0.00    -0.106 A  
HETATM    3  H   UNL     1      -8.432   6.712  65.333  1.00  0.00     0.000 HD 
HETATM    4  N   UNL     1      -8.701   6.011  66.024  1.00  0.00    -0.149 NA 
HETATM    5  N   UNL     1      -8.850   4.934  68.039  1.00  0.00    -0.103 NA 
HETATM    6  C   UNL     1      -9.430   3.973  67.136  1.00  0.00    -0.196 A  
HETATM    7  C   UNL     1      -9.303   4.674  65.780  1.00  0.00    -0.158 A  
ENDBRANCH   1   2
BRANCH   1   8
HETATM    8  N   UNL     1      -9.740   8.070  68.099  1.00  0.00    -0.156 NA 
BRANCH   8   9
HETATM    9  C   UNL     1     -10.036   9.153  67.288  1.00  0.00    -0.233 A  
HETATM   10  C   UNL     1      -9.576   9.271  65.973  1.00  0.00    -0.338 A  
HETATM   11  C   UNL     1      -9.928  10.364  65.172  1.00  0.00    -0.390 A  
HETATM   12  C   UNL     1     -11.177  11.300  67.001  1.00  0.00    -0.324 A  
HETATM   13  C   UNL     1     -10.833  10.197  67.783  1.00  0.00    -0.346 A  
HETATM   14  C   UNL     1     -10.729  11.383  65.687  1.00  0.00    -0.301 A  
ENDBRANCH   8   9
BRANCH   8  15
HETATM   15  C   UNL     1     -10.890   7.257  68.582  1.00  0.00    -0.071 C  
BRANCH  15  16
HETATM   16  C   UNL     1     -11.033   7.183  70.091  1.00  0.00    -0.293 A  
HETATM   17  C   UNL     1     -10.947   7.222  72.895  1.00  0.00    -0.381 A  
HETATM   18  C   UNL     1     -11.328   8.357  70.801  1.00  0.00    -0.290 A  
HETATM   19  C   UNL     1     -11.272   8.381  72.194  1.00  0.00    -0.431 A  
HETATM   20  C   UNL     1     -10.767   6.024  72.209  1.00  0.00    -0.272 A  
HETATM   21  C   UNL     1     -10.843   5.999  70.817  1.00  0.00    -0.358 A  
ENDBRANCH  15  16
ENDBRANCH   8  15
ENDBRANCH   1   8
TORSDOF 5
ENDMDL
MODEL      178
REMARK 921   NORMALIZED FREE ENERGY PREDICTED BY IDOCK:   -3.85 KCAL/MOL
REMARK 922        TOTAL FREE ENERGY PREDICTED BY IDOCK:   -5.56 KCAL/MOL
REMARK 923 INTER-LIGAND FREE ENERGY PREDICTED BY IDOCK:   -4.91 KCAL/MOL
REMARK 924 INTRA-LIGAND FREE ENERGY PREDICTED BY IDOCK:   -0.65 KCAL/MOL
REMARK 927      BINDING AFFINITY PREDICTED BY RF-SCORE:    0.00 PKD
ROOT
HETATM    1  C   UNL     1     -10.025   5.801  69.782  1.00  0.00    -0.190 C  
ENDROOT
BRANCH   1   2
HETATM    2  C   UNL     1      -9.506   4.391  70.053  1.00  0.00    -0.181 A  
HETATM    3  H   UNL     1      -8.284   4.120  68.373  1.00  0.00     0.000 HD 
HETATM    4  N   UNL     1      -8.792   3.740  69.172  1.00  0.00    -0.091 NA 
HETATM    5  N   UNL     1      -9.940   3.684  71.151  1.00  0.00    -0.125 NA 
HETATM    6  C   UNL     1      -9.687   2.287  70.907  1.00  0.00    -0.060 A  
HETATM    7  C   UNL     1      -8.889   2.320  69.599  1.00  0.00    -0.082 A  
ENDBRANCH   1   2
BRANCH   1   8
HETATM    8  N   UNL     1     -10.627   6.298  71.033  1.00  0.00    -0.228 NA 
BRANCH   8   9
HETATM    9  C   UNL     1      -9.833   6.675  72.104  1.00  0.00    -0.156 A  
HETATM   10  C   UNL     1      -8.596   7.309  71.952  1.00  0.00    -0.123 A  
HETATM   11  C   UNL     1      -7.841   7.709  73.060  1.00  0.00    -0.138 A  
HETATM   12  C   UNL     1      -9.513   6.800  74.528  1.00  0.00    -0.258 A  
HETATM   13  C   UNL     1     -10.265   6.421  73.415  1.00  0.00    -0.248 A  
HETATM   14  C   UNL     1      -8.298   7.453  74.352  1.00  0.00    -0.244 A  
ENDBRANCH   8   9
BRANCH   8  15
HETATM   15  C   UNL     1     -11.984   6.905  70.954  1.00  0.00    -0.381 C  
BRANCH  15  16
HETATM   16  C   UNL     1     -12.009   8.422  70.997  1.00  0.00    -0.255 A  
HETATM   17  C   UNL     1     -12.402  11.198  70.900  1.00  0.00    -0.500 A  
HETATM   18  C   UNL     1     -12.849   9.059  71.923  1.00  0.00    -0.451 A  
HETATM   19  C   UNL     1     -13.057  10.438  71.866  1.00  0.00    -0.563 A  
HETATM   20  C   UNL     1     -11.477  10.596  70.052  1.00  0.00    -0.404 A  
HETATM   21  C   UNL     1     -11.257   9.221  70.124  1.00  0.00    -0.237 A  
ENDBRANCH  15  16
ENDBRANCH   8  15
ENDBRANCH   1   8
TORSDOF 5
ENDMDL
MODEL      179
REMARK 921   NORMALIZED FREE ENERGY PREDICTED BY IDOCK:   -3.84 KCAL/MOL
REMARK 922        TOTAL FREE ENERGY PREDICTED BY IDOCK:   -5.55 KCAL/MOL
REMARK 923 INTER-LIGAND FREE ENERGY PREDICTED BY IDOCK:   -4.58 KCAL/MOL
REMARK 924 INTRA-LIGAND FREE ENERGY PREDICTED BY IDOCK:   -0.98 KCAL/MOL
REMARK 927      BINDING AFFINITY PREDICTED BY RF-SCORE:    0.00 PKD
ROOT
HETATM    1  C   UNL     1      -8.688   8.417  68.885  1.00  0.00    -0.136 C  
ENDROOT
BRANCH   1   2
HETATM    2  C   UNL     1      -7.645   8.242  69.988  1.00  0.00    -0.072 A  
HETATM    3  H   UNL     1      -7.085   6.252  69.652  1.00  0.00     0.000 HD 
HETATM    4  N   UNL     1      -7.109   7.079  70.249  1.00  0.00    -0.065 NA 
HETATM    5  N   UNL     1      -7.384   9.264  70.873  1.00  0.00    -0.188 NA 
HETATM    6  C   UNL     1      -6.759   8.692  72.037  1.00  0.00    -0.070 A  
HETATM    7  C   UNL     1      -6.541   7.236  71.614  1.00  0.00    -0.047 A  
ENDBRANCH   1   2
BRANCH   1   8
HETATM    8  N   UNL     1      -9.968   8.744  69.538  1.00  0.00    -0.190 NA 
BRANCH   8   9
HETATM    9  C   UNL     1     -10.537  10.000  69.401  1.00  0.00    -0.233 A  
HETATM   10  C   UNL     1     -10.046  10.969  68.519  1.00  0.00    -0.198 A  
HETATM   11  C   UNL     1     -10.671  12.213  68.382  1.00  0.00    -0.252 A  
HETATM   12  C   UNL     1     -12.280  11.590  70.056  1.00  0.00    -0.354 A  
HETATM   13  C   UNL     1     -11.658  10.346  70.171  1.00  0.00    -0.392 A  
HETATM   14  C   UNL     1     -11.789  12.526  69.153  1.00  0.00    -0.348 A  
ENDBRANCH   8   9
BRANCH   8  15
HETATM   15  C   UNL     1     -10.892   7.619  69.853  1.00  0.00    -0.235 C  
BRANCH  15  16
HETATM   16  C   UNL     1     -10.714   7.013  71.233  1.00  0.00    -0.243 A  
HETATM   17  C   UNL     1     -10.769   5.821  73.772  1.00  0.00    -0.247 A  
HETATM   18  C   UNL     1     -10.747   5.616  71.368  1.00  0.00    -0.310 A  
HETATM   19  C   UNL     1     -10.789   5.024  72.630  1.00  0.00    -0.286 A  
HETATM   20  C   UNL     1     -10.617   7.199  73.653  1.00  0.00    -0.375 A  
HETATM   21  C   UNL     1     -10.556   7.788  72.391  1.00  0.00    -0.336 A  
ENDBRANCH  15  16
ENDBRANCH   8  15
ENDBRANCH   1   8
TORSDOF 5
ENDMDL
MODEL      180
REMARK 921   NORMALIZED FREE ENERGY PREDICTED BY IDOCK:   -3.83 KCAL/MOL
REMARK 922        TOTAL FREE ENERGY PREDICTED BY IDOCK:   -5.53 KCAL/MOL
REMARK 923 INTER-LIGAND FREE ENERGY PREDICTED BY IDOCK:   -4.85 KCAL/MOL
REMARK 924 INTRA-LIGAND FREE ENERGY PREDICTED BY IDOCK:   -0.68 KCAL/MOL
REMARK 927      BINDING AFFINITY PREDICTED BY RF-SCORE:    0.00 PKD
ROOT
HETATM    1  C   UNL     1     -10.654   9.117  67.613  1.00  0.00    -0.242 C  
ENDROOT
BRANCH   1   2
HETATM    2  C   UNL     1     -11.015  10.515  67.116  1.00  0.00    -0.228 A  
HETATM    3  H   UNL     1      -9.800  10.624  65.412  1.00  0.00     0.000 HD 
HETATM    4  N   UNL     1     -10.379  11.077  66.121  1.00  0.00    -0.246 NA 
HETATM    5  N   UNL     1     -11.886  11.308  67.828  1.00  0.00    -0.638 NA 
HETATM    6  C   UNL     1     -11.674  12.674  67.422  1.00  0.00    -0.369 A  
HETATM    7  C   UNL     1     -10.691  12.523  66.257  1.00  0.00    -0.260 A  
ENDBRANCH   1   2
BRANCH   1   8
HETATM    8  N   UNL     1      -9.754   9.277  68.768  1.00  0.00    -0.154 NA 
BRANCH   8   9
HETATM    9  C   UNL     1      -8.410   9.567  68.589  1.00  0.00    -0.117 A  
HETATM   10  C   UNL     1      -7.585   8.853  67.714  1.00  0.00    -0.093 A  
HETATM   11  C   UNL     1      -6.242   9.200  67.533  1.00  0.00    -0.058 A  
HETATM   12  C   UNL     1      -6.480  10.965  69.147  1.00  0.00    -0.063 A  
HETATM   13  C   UNL     1      -7.823  10.620  69.307  1.00  0.00    -0.140 A  
HETATM   14  C   UNL     1      -5.686  10.257  68.252  1.00  0.00    -0.041 A  
ENDBRANCH   8   9
BRANCH   8  15
HETATM   15  C   UNL     1     -10.360   9.677  70.068  1.00  0.00    -0.257 C  
BRANCH  15  16
HETATM   16  C   UNL     1     -10.395   8.584  71.120  1.00  0.00    -0.273 A  
HETATM   17  C   UNL     1     -10.774   6.746  73.206  1.00  0.00    -0.330 A  
HETATM   18  C   UNL     1     -11.375   7.583  71.024  1.00  0.00    -0.292 A  
HETATM   19  C   UNL     1     -11.574   6.678  72.067  1.00  0.00    -0.341 A  
HETATM   20  C   UNL     1      -9.724   7.657  73.263  1.00  0.00    -0.346 A  
HETATM   21  C   UNL     1      -9.515   8.548  72.211  1.00  0.00    -0.365 A  
ENDBRANCH  15  16
ENDBRANCH   8  15
ENDBRANCH   1   8
TORSDOF 5
ENDMDL
MODEL      181
REMARK 921   NORMALIZED FREE ENERGY PREDICTED BY IDOCK:   -3.82 KCAL/MOL
REMARK 922        TOTAL FREE ENERGY PREDICTED BY IDOCK:   -5.53 KCAL/MOL
REMARK 923 INTER-LIGAND FREE ENERGY PREDICTED BY IDOCK:   -4.92 KCAL/MOL
REMARK 924 INTRA-LIGAND FREE ENERGY PREDICTED BY IDOCK:   -0.60 KCAL/MOL
REMARK 927      BINDING AFFINITY PREDICTED BY RF-SCORE:    0.00 PKD
ROOT
HETATM    1  C   UNL     1      -9.191  14.525  67.702  1.00  0.00    -0.195 C  
ENDROOT
BRANCH   1   2
HETATM    2  C   UNL     1     -10.161  14.476  68.881  1.00  0.00    -0.224 A  
HETATM    3  H   UNL     1     -11.178  12.697  68.448  1.00  0.00     0.000 HD 
HETATM    4  N   UNL     1     -11.110  13.580  68.955  1.00  0.00    -0.260 NA 
HETATM    5  N   UNL     1     -10.192  15.498  69.804  1.00  0.00    -0.285 NA 
HETATM    6  C   UNL     1     -11.460  15.439  70.485  1.00  0.00    -0.327 A  
HETATM    7  C   UNL     1     -12.065  14.139  69.947  1.00  0.00    -0.347 A  
ENDBRANCH   1   2
BRANCH   1   8
HETATM    8  N   UNL     1      -9.499  13.376  66.831  1.00  0.00    -0.246 NA 
BRANCH   8   9
HETATM    9  C   UNL     1     -10.442  13.481  65.821  1.00  0.00    -0.291 A  
HETATM   10  C   UNL     1     -10.975  12.372  65.155  1.00  0.00    -0.339 A  
HETATM   11  C   UNL     1     -11.955  12.517  64.166  1.00  0.00    -0.508 A  
HETATM   12  C   UNL     1     -11.867  14.904  64.430  1.00  0.00    -0.372 A  
HETATM   13  C   UNL     1     -10.904  14.747  65.426  1.00  0.00    -0.372 A  
HETATM   14  C   UNL     1     -12.401  13.786  63.800  1.00  0.00    -0.313 A  
ENDBRANCH   8   9
BRANCH   8  15
HETATM   15  C   UNL     1      -8.450  12.333  66.665  1.00  0.00    -0.056 C  
BRANCH  15  16
HETATM   16  C   UNL     1      -8.038  11.632  67.946  1.00  0.00    -0.138 A  
HETATM   17  C   UNL     1      -7.064  10.100  70.086  1.00  0.00    -0.162 A  
HETATM   18  C   UNL     1      -6.740  11.836  68.442  1.00  0.00    -0.065 A  
HETATM   19  C   UNL     1      -6.251  11.065  69.496  1.00  0.00    -0.085 A  
HETATM   20  C   UNL     1      -8.390   9.969  69.682  1.00  0.00    -0.188 A  
HETATM   21  C   UNL     1      -8.883  10.755  68.641  1.00  0.00    -0.152 A  
ENDBRANCH  15  16
ENDBRANCH   8  15
ENDBRANCH   1   8
TORSDOF 5
ENDMDL
MODEL      182
REMARK 921   NORMALIZED FREE ENERGY PREDICTED BY IDOCK:   -3.80 KCAL/MOL
REMARK 922        TOTAL FREE ENERGY PREDICTED BY IDOCK:   -5.50 KCAL/MOL
REMARK 923 INTER-LIGAND FREE ENERGY PREDICTED BY IDOCK:   -5.33 KCAL/MOL
REMARK 924 INTRA-LIGAND FREE ENERGY PREDICTED BY IDOCK:   -0.17 KCAL/MOL
REMARK 927      BINDING AFFINITY PREDICTED BY RF-SCORE:    0.00 PKD
ROOT
HETATM    1  C   UNL     1     -11.818  14.433  66.747  1.00  0.00    -0.410 C  
ENDROOT
BRANCH   1   2
HETATM    2  C   UNL     1     -11.393  14.897  68.139  1.00  0.00    -0.312 A  
HETATM    3  H   UNL     1     -12.764  16.451  68.443  1.00  0.00     0.000 HD 
HETATM    4  N   UNL     1     -11.902  15.967  68.692  1.00  0.00    -0.338 NA 
HETATM    5  N   UNL     1     -10.317  14.317  68.771  1.00  0.00    -0.241 NA 
HETATM    6  C   UNL     1      -9.862  15.225  69.792  1.00  0.00    -0.176 A  
HETATM    7  C   UNL     1     -10.937  16.316  69.767  1.00  0.00    -0.354 A  
ENDBRANCH   1   2
BRANCH   1   8
HETATM    8  N   UNL     1     -10.749  14.819  65.808  1.00  0.00    -0.310 NA 
BRANCH   8   9
HETATM    9  C   UNL     1     -10.050  16.004  65.974  1.00  0.00    -0.341 A  
HETATM   10  C   UNL     1      -8.684  16.048  66.274  1.00  0.00    -0.372 A  
HETATM   11  C   UNL     1      -8.004  17.265  66.397  1.00  0.00    -0.338 A  
HETATM   12  C   UNL     1     -10.052  18.451  65.977  1.00  0.00    -0.293 A  
HETATM   13  C   UNL     1     -10.716  17.232  65.840  1.00  0.00    -0.126 A  
HETATM   14  C   UNL     1      -8.689  18.471  66.250  1.00  0.00    -0.219 A  
ENDBRANCH   8   9
BRANCH   8  15
HETATM   15  C   UNL     1     -10.064  13.733  65.055  1.00  0.00    -0.283 C  
BRANCH  15  16
HETATM   16  C   UNL     1      -9.774  12.480  65.862  1.00  0.00    -0.226 A  
HETATM   17  C   UNL     1      -9.525  10.285  67.591  1.00  0.00    -0.169 A  
HETATM   18  C   UNL     1     -10.676  11.407  65.792  1.00  0.00    -0.309 A  
HETATM   19  C   UNL     1     -10.561  10.322  66.661  1.00  0.00    -0.232 A  
HETATM   20  C   UNL     1      -8.557  11.285  67.591  1.00  0.00    -0.124 A  
HETATM   21  C   UNL     1      -8.663  12.359  66.708  1.00  0.00    -0.160 A  
ENDBRANCH  15  16
ENDBRANCH   8  15
ENDBRANCH   1   8
TORSDOF 5
ENDMDL
MODEL      183
REMARK 921   NORMALIZED FREE ENERGY PREDICTED BY IDOCK:   -3.78 KCAL/MOL
REMARK 922        TOTAL FREE ENERGY PREDICTED BY IDOCK:   -5.48 KCAL/MOL
REMARK 923 INTER-LIGAND FREE ENERGY PREDICTED BY IDOCK:   -4.69 KCAL/MOL
REMARK 924 INTRA-LIGAND FREE ENERGY PREDICTED BY IDOCK:   -0.79 KCAL/MOL
REMARK 927      BINDING AFFINITY PREDICTED BY RF-SCORE:    0.00 PKD
ROOT
HETATM    1  C   UNL     1      -8.627  17.225  68.118  1.00  0.00    -0.242 C  
ENDROOT
BRANCH   1   2
HETATM    2  C   UNL     1      -9.664  18.092  67.407  1.00  0.00    -0.296 A  
HETATM    3  H   UNL     1      -9.223  17.631  65.411  1.00  0.00     0.000 HD 
HETATM    4  N   UNL     1      -9.671  18.229  66.106  1.00  0.00    -0.507 NA 
HETATM    5  N   UNL     1     -10.500  18.916  68.127  1.00  0.00    -0.357 NA 
HETATM    6  C   UNL     1     -11.005  19.924  67.232  1.00  0.00    -0.127 A  
HETATM    7  C   UNL     1     -10.482  19.452  65.872  1.00  0.00    -0.472 A  
ENDBRANCH   1   2
BRANCH   1   8
HETATM    8  N   UNL     1      -7.299  17.637  67.630  1.00  0.00    -0.191 NA 
BRANCH   8   9
HETATM    9  C   UNL     1      -6.676  18.769  68.130  1.00  0.00    -0.224 A  
HETATM   10  C   UNL     1      -5.952  19.659  67.330  1.00  0.00    -0.191 A  
HETATM   11  C   UNL     1      -5.370  20.813  67.866  1.00  0.00    -0.278 A  
HETATM   12  C   UNL     1      -6.168  20.201  70.049  1.00  0.00    -0.384 A  
HETATM   13  C   UNL     1      -6.759  19.063  69.500  1.00  0.00    -0.247 A  
HETATM   14  C   UNL     1      -5.475  21.085  69.230  1.00  0.00    -0.374 A  
ENDBRANCH   8   9
BRANCH   8  15
HETATM   15  C   UNL     1      -6.417  16.585  67.051  1.00  0.00    -0.186 C  
BRANCH  15  16
HETATM   16  C   UNL     1      -5.964  15.520  68.032  1.00  0.00    -0.151 A  
HETATM   17  C   UNL     1      -5.505  13.497  69.920  1.00  0.00    -0.100 A  
HETATM   18  C   UNL     1      -6.138  14.169  67.691  1.00  0.00    -0.075 A  
HETATM   19  C   UNL     1      -5.924  13.164  68.634  1.00  0.00    -0.075 A  
HETATM   20  C   UNL     1      -5.216  14.822  70.234  1.00  0.00    -0.110 A  
HETATM   21  C   UNL     1      -5.412  15.823  69.284  1.00  0.00    -0.107 A  
ENDBRANCH  15  16
ENDBRANCH   8  15
ENDBRANCH   1   8
TORSDOF 5
ENDMDL
MODEL      184
REMARK 921   NORMALIZED FREE ENERGY PREDICTED BY IDOCK:   -3.74 KCAL/MOL
REMARK 922        TOTAL FREE ENERGY PREDICTED BY IDOCK:   -5.43 KCAL/MOL
REMARK 923 INTER-LIGAND FREE ENERGY PREDICTED BY IDOCK:   -5.08 KCAL/MOL
REMARK 924 INTRA-LIGAND FREE ENERGY PREDICTED BY IDOCK:   -0.35 KCAL/MOL
REMARK 927      BINDING AFFINITY PREDICTED BY RF-SCORE:    0.00 PKD
ROOT
HETATM    1  C   UNL     1     -10.227  10.514  65.597  1.00  0.00    -0.246 C  
ENDROOT
BRANCH   1   2
HETATM    2  C   UNL     1      -8.713  10.324  65.675  1.00  0.00    -0.162 A  
HETATM    3  H   UNL     1      -8.518   8.503  64.657  1.00  0.00     0.000 HD 
HETATM    4  N   UNL     1      -8.137   9.221  65.275  1.00  0.00    -0.116 NA 
HETATM    5  N   UNL     1      -7.928  11.229  66.354  1.00  0.00    -0.154 NA 
HETATM    6  C   UNL     1      -6.681  10.582  66.671  1.00  0.00    -0.099 A  
HETATM    7  C   UNL     1      -6.800   9.250  65.923  1.00  0.00    -0.088 A  
ENDBRANCH   1   2
BRANCH   1   8
HETATM    8  N   UNL     1     -10.726  10.649  66.977  1.00  0.00    -0.266 NA 
BRANCH   8   9
HETATM    9  C   UNL     1     -10.439   9.689  67.935  1.00  0.00    -0.246 A  
HETATM   10  C   UNL     1     -10.572   8.316  67.704  1.00  0.00    -0.264 A  
HETATM   11  C   UNL     1     -10.236   7.376  68.685  1.00  0.00    -0.203 A  
HETATM   12  C   UNL     1      -9.672   9.157  70.198  1.00  0.00    -0.234 A  
HETATM   13  C   UNL     1      -9.993  10.084  69.206  1.00  0.00    -0.226 A  
HETATM   14  C   UNL     1      -9.787   7.797  69.936  1.00  0.00    -0.177 A  
ENDBRANCH   8   9
BRANCH   8  15
HETATM   15  C   UNL     1     -11.036  12.019  67.470  1.00  0.00    -0.275 C  
BRANCH  15  16
HETATM   16  C   UNL     1     -11.134  13.080  66.390  1.00  0.00    -0.313 A  
HETATM   17  C   UNL     1     -11.380  15.294  64.684  1.00  0.00    -0.364 A  
HETATM   18  C   UNL     1     -10.072  13.985  66.232  1.00  0.00    -0.307 A  
HETATM   19  C   UNL     1     -10.199  15.094  65.395  1.00  0.00    -0.402 A  
HETATM   20  C   UNL     1     -12.394  14.343  64.742  1.00  0.00    -0.427 A  
HETATM   21  C   UNL     1     -12.257  13.225  65.564  1.00  0.00    -0.506 A  
ENDBRANCH  15  16
ENDBRANCH   8  15
ENDBRANCH   1   8
TORSDOF 5
ENDMDL
MODEL      185
REMARK 921   NORMALIZED FREE ENERGY PREDICTED BY IDOCK:   -3.72 KCAL/MOL
REMARK 922        TOTAL FREE ENERGY PREDICTED BY IDOCK:   -5.40 KCAL/MOL
REMARK 923 INTER-LIGAND FREE ENERGY PREDICTED BY IDOCK:   -4.29 KCAL/MOL
REMARK 924 INTRA-LIGAND FREE ENERGY PREDICTED BY IDOCK:   -1.11 KCAL/MOL
REMARK 927      BINDING AFFINITY PREDICTED BY RF-SCORE:    0.00 PKD
ROOT
HETATM    1  C   UNL     1      -7.802  11.056  68.054  1.00  0.00    -0.112 C  
ENDROOT
BRANCH   1   2
HETATM    2  C   UNL     1      -8.752   9.982  68.581  1.00  0.00    -0.127 A  
HETATM    3  H   UNL     1      -8.064   8.322  67.504  1.00  0.00     0.000 HD 
HETATM    4  N   UNL     1      -8.778   8.778  68.073  1.00  0.00    -0.140 NA 
HETATM    5  N   UNL     1      -9.749  10.306  69.473  1.00  0.00    -0.228 NA 
HETATM    6  C   UNL     1     -10.743   9.265  69.423  1.00  0.00    -0.208 A  
HETATM    7  C   UNL     1     -10.085   8.223  68.513  1.00  0.00    -0.197 A  
ENDBRANCH   1   2
BRANCH   1   8
HETATM    8  N   UNL     1      -8.625  12.087  67.396  1.00  0.00    -0.163 NA 
BRANCH   8   9
HETATM    9  C   UNL     1      -8.554  13.414  67.792  1.00  0.00    -0.194 A  
HETATM   10  C   UNL     1      -7.624  14.318  67.270  1.00  0.00    -0.118 A  
HETATM   11  C   UNL     1      -7.609  15.660  67.668  1.00  0.00    -0.179 A  
HETATM   12  C   UNL     1      -9.429  15.231  69.179  1.00  0.00    -0.236 A  
HETATM   13  C   UNL     1      -9.445  13.900  68.761  1.00  0.00    -0.045 A  
HETATM   14  C   UNL     1      -8.512  16.118  68.626  1.00  0.00    -0.216 A  
ENDBRANCH   8   9
BRANCH   8  15
HETATM   15  C   UNL     1      -9.080  11.825  66.003  1.00  0.00    -0.155 C  
BRANCH  15  16
HETATM   16  C   UNL     1     -10.313  12.601  65.577  1.00  0.00    -0.305 A  
HETATM   17  C   UNL     1     -12.440  14.334  64.991  1.00  0.00    -0.409 A  
HETATM   18  C   UNL     1     -10.183  13.585  64.584  1.00  0.00    -0.341 A  
HETATM   19  C   UNL     1     -11.235  14.456  64.302  1.00  0.00    -0.111 A  
HETATM   20  C   UNL     1     -12.620  13.290  65.893  1.00  0.00    -0.349 A  
HETATM   21  C   UNL     1     -11.574  12.408  66.159  1.00  0.00    -0.452 A  
ENDBRANCH  15  16
ENDBRANCH   8  15
ENDBRANCH   1   8
TORSDOF 5
ENDMDL
MODEL      186
REMARK 921   NORMALIZED FREE ENERGY PREDICTED BY IDOCK:   -3.56 KCAL/MOL
REMARK 922        TOTAL FREE ENERGY PREDICTED BY IDOCK:   -5.19 KCAL/MOL
REMARK 923 INTER-LIGAND FREE ENERGY PREDICTED BY IDOCK:   -4.58 KCAL/MOL
REMARK 924 INTRA-LIGAND FREE ENERGY PREDICTED BY IDOCK:   -0.62 KCAL/MOL
REMARK 927      BINDING AFFINITY PREDICTED BY RF-SCORE:    0.00 PKD
ROOT
HETATM    1  C   UNL     1      -7.536  18.093  68.539  1.00  0.00    -0.289 C  
ENDROOT
BRANCH   1   2
HETATM    2  C   UNL     1      -8.947  18.659  68.393  1.00  0.00    -0.328 A  
HETATM    3  H   UNL     1      -9.853  17.112  67.309  1.00  0.00     0.000 HD 
HETATM    4  N   UNL     1      -9.849  18.074  67.648  1.00  0.00    -0.294 NA 
HETATM    5  N   UNL     1      -9.254  19.909  68.880  1.00  0.00    -0.147 NA 
HETATM    6  C   UNL     1     -10.444  20.366  68.210  1.00  0.00    -0.016 A  
HETATM    7  C   UNL     1     -10.866  19.131  67.408  1.00  0.00    -0.435 A  
ENDBRANCH   1   2
BRANCH   1   8
HETATM    8  N   UNL     1      -7.031  17.812  67.183  1.00  0.00    -0.168 NA 
BRANCH   8   9
HETATM    9  C   UNL     1      -6.480  18.819  66.406  1.00  0.00    -0.196 A  
HETATM   10  C   UNL     1      -6.298  20.127  66.867  1.00  0.00    -0.221 A  
HETATM   11  C   UNL     1      -5.703  21.107  66.064  1.00  0.00    -0.293 A  
HETATM   12  C   UNL     1      -5.498  19.515  64.275  1.00  0.00    -0.269 A  
HETATM   13  C   UNL     1      -6.076  18.542  65.090  1.00  0.00    -0.260 A  
HETATM   14  C   UNL     1      -5.303  20.802  64.764  1.00  0.00    -0.231 A  
ENDBRANCH   8   9
BRANCH   8  15
HETATM   15  C   UNL     1      -6.607  16.418  66.877  1.00  0.00    -0.135 C  
BRANCH  15  16
HETATM   16  C   UNL     1      -7.699  15.374  67.012  1.00  0.00    -0.220 A  
HETATM   17  C   UNL     1      -9.935  13.728  67.417  1.00  0.00    -0.237 A  
HETATM   18  C   UNL     1      -8.794  15.423  66.134  1.00  0.00    -0.222 A  
HETATM   19  C   UNL     1      -9.912  14.615  66.344  1.00  0.00    -0.296 A  
HETATM   20  C   UNL     1      -8.810  13.586  68.224  1.00  0.00    -0.179 A  
HETATM   21  C   UNL     1      -7.686  14.381  68.001  1.00  0.00    -0.140 A  
ENDBRANCH  15  16
ENDBRANCH   8  15
ENDBRANCH   1   8
TORSDOF 5
ENDMDL
MODEL      187
REMARK 921   NORMALIZED FREE ENERGY PREDICTED BY IDOCK:   -3.51 KCAL/MOL
REMARK 922        TOTAL FREE ENERGY PREDICTED BY IDOCK:   -5.13 KCAL/MOL
REMARK 923 INTER-LIGAND FREE ENERGY PREDICTED BY IDOCK:   -4.42 KCAL/MOL
REMARK 924 INTRA-LIGAND FREE ENERGY PREDICTED BY IDOCK:   -0.71 KCAL/MOL
REMARK 927      BINDING AFFINITY PREDICTED BY RF-SCORE:    0.00 PKD
ROOT
HETATM    1  C   UNL     1      -8.286  10.333  68.214  1.00  0.00    -0.116 C  
ENDROOT
BRANCH   1   2
HETATM    2  C   UNL     1      -9.032   9.101  68.721  1.00  0.00    -0.136 A  
HETATM    3  H   UNL     1      -8.315   7.660  67.381  1.00  0.00     0.000 HD 
HETATM    4  N   UNL     1      -8.993   7.961  68.081  1.00  0.00    -0.132 NA 
HETATM    5  N   UNL     1      -9.932   9.205  69.758  1.00  0.00    -0.184 NA 
HETATM    6  C   UNL     1     -10.802   8.059  69.705  1.00  0.00    -0.194 A  
HETATM    7  C   UNL     1     -10.160   7.206  68.607  1.00  0.00    -0.173 A  
ENDBRANCH   1   2
BRANCH   1   8
HETATM    8  N   UNL     1      -8.851  10.680  66.897  1.00  0.00    -0.137 NA 
BRANCH   8   9
HETATM    9  C   UNL     1      -8.193  10.334  65.727  1.00  0.00    -0.147 A  
HETATM   10  C   UNL     1      -6.810  10.458  65.563  1.00  0.00    -0.125 A  
HETATM   11  C   UNL     1      -6.178  10.062  64.379  1.00  0.00    -0.131 A  
HETATM   12  C   UNL     1      -8.307   9.450  63.447  1.00  0.00    -0.188 A  
HETATM   13  C   UNL     1      -8.924   9.832  64.639  1.00  0.00    -0.270 A  
HETATM   14  C   UNL     1      -6.928   9.558  63.317  1.00  0.00    -0.104 A  
ENDBRANCH   8   9
BRANCH   8  15
HETATM   15  C   UNL     1     -10.323  10.882  66.807  1.00  0.00    -0.241 C  
BRANCH  15  16
HETATM   16  C   UNL     1     -10.751  12.249  66.304  1.00  0.00    -0.293 A  
HETATM   17  C   UNL     1     -11.624  14.856  65.749  1.00  0.00    -0.234 A  
HETATM   18  C   UNL     1      -9.916  13.351  66.548  1.00  0.00    -0.286 A  
HETATM   19  C   UNL     1     -10.355  14.649  66.285  1.00  0.00    -0.301 A  
HETATM   20  C   UNL     1     -12.414  13.767  65.394  1.00  0.00    -0.532 A  
HETATM   21  C   UNL     1     -11.965  12.470  65.639  1.00  0.00    -0.492 A  
ENDBRANCH  15  16
ENDBRANCH   8  15
ENDBRANCH   1   8
TORSDOF 5
ENDMDL
MODEL      188
REMARK 921   NORMALIZED FREE ENERGY PREDICTED BY IDOCK:   -3.50 KCAL/MOL
REMARK 922        TOTAL FREE ENERGY PREDICTED BY IDOCK:   -5.11 KCAL/MOL
REMARK 923 INTER-LIGAND FREE ENERGY PREDICTED BY IDOCK:   -4.36 KCAL/MOL
REMARK 924 INTRA-LIGAND FREE ENERGY PREDICTED BY IDOCK:   -0.75 KCAL/MOL
REMARK 927      BINDING AFFINITY PREDICTED BY RF-SCORE:    0.00 PKD
ROOT
HETATM    1  C   UNL     1      -9.843  12.772  68.021  1.00  0.00    -0.226 C  
ENDROOT
BRANCH   1   2
HETATM    2  C   UNL     1      -9.619  11.771  66.890  1.00  0.00    -0.193 A  
HETATM    3  H   UNL     1     -11.185  12.308  65.607  1.00  0.00     0.000 HD 
HETATM    4  N   UNL     1     -10.467  11.646  65.904  1.00  0.00    -0.247 NA 
HETATM    5  N   UNL     1      -8.619  10.828  66.979  1.00  0.00    -0.129 NA 
HETATM    6  C   UNL     1      -8.931   9.765  66.059  1.00  0.00    -0.155 A  
HETATM    7  C   UNL     1     -10.148  10.320  65.312  1.00  0.00    -0.289 A  
ENDBRANCH   1   2
BRANCH   1   8
HETATM    8  N   UNL     1      -9.046  13.973  67.711  1.00  0.00    -0.184 NA 
BRANCH   8   9
HETATM    9  C   UNL     1      -7.775  14.139  68.237  1.00  0.00    -0.139 A  
HETATM   10  C   UNL     1      -7.527  14.808  69.439  1.00  0.00    -0.147 A  
HETATM   11  C   UNL     1      -6.231  14.922  69.956  1.00  0.00    -0.156 A  
HETATM   12  C   UNL     1      -5.366  13.743  68.049  1.00  0.00    -0.109 A  
HETATM   13  C   UNL     1      -6.664  13.621  67.552  1.00  0.00    -0.139 A  
HETATM   14  C   UNL     1      -5.147  14.391  69.259  1.00  0.00    -0.079 A  
ENDBRANCH   8   9
BRANCH   8  15
HETATM   15  C   UNL     1      -9.352  14.700  66.448  1.00  0.00    -0.284 C  
BRANCH  15  16
HETATM   16  C   UNL     1      -9.362  16.213  66.567  1.00  0.00    -0.296 A  
HETATM   17  C   UNL     1      -9.129  18.960  67.083  1.00  0.00    -0.305 A  
HETATM   18  C   UNL     1      -8.245  16.934  66.118  1.00  0.00    -0.295 A  
HETATM   19  C   UNL     1      -8.122  18.297  66.387  1.00  0.00    -0.285 A  
HETATM   20  C   UNL     1     -10.294  18.283  67.430  1.00  0.00    -0.409 A  
HETATM   21  C   UNL     1     -10.423  16.925  67.144  1.00  0.00    -0.296 A  
ENDBRANCH  15  16
ENDBRANCH   8  15
ENDBRANCH   1   8
TORSDOF 5
ENDMDL
MODEL      189
REMARK 921   NORMALIZED FREE ENERGY PREDICTED BY IDOCK:   -3.48 KCAL/MOL
REMARK 922        TOTAL FREE ENERGY PREDICTED BY IDOCK:   -5.09 KCAL/MOL
REMARK 923 INTER-LIGAND FREE ENERGY PREDICTED BY IDOCK:   -4.67 KCAL/MOL
REMARK 924 INTRA-LIGAND FREE ENERGY PREDICTED BY IDOCK:   -0.43 KCAL/MOL
REMARK 927      BINDING AFFINITY PREDICTED BY RF-SCORE:    0.00 PKD
ROOT
HETATM    1  C   UNL     1      -9.066   8.364  68.968  1.00  0.00    -0.147 C  
ENDROOT
BRANCH   1   2
HETATM    2  C   UNL     1      -9.397   7.763  70.332  1.00  0.00    -0.160 A  
HETATM    3  H   UNL     1     -11.123   6.679  69.847  1.00  0.00     0.000 HD 
HETATM    4  N   UNL     1     -10.505   7.100  70.541  1.00  0.00    -0.210 NA 
HETATM    5  N   UNL     1      -8.635   8.071  71.437  1.00  0.00    -0.124 NA 
HETATM    6  C   UNL     1      -9.418   7.779  72.610  1.00  0.00    -0.193 A  
HETATM    7  C   UNL     1     -10.657   7.098  72.019  1.00  0.00    -0.210 A  
ENDBRANCH   1   2
BRANCH   1   8
HETATM    8  N   UNL     1     -10.340   8.741  68.331  1.00  0.00    -0.207 NA 
BRANCH   8   9
HETATM    9  C   UNL     1     -10.849  10.023  68.460  1.00  0.00    -0.231 A  
HETATM   10  C   UNL     1     -11.416  10.504  69.645  1.00  0.00    -0.349 A  
HETATM   11  C   UNL     1     -11.885  11.819  69.748  1.00  0.00    -0.420 A  
HETATM   12  C   UNL     1     -11.288  12.211  67.453  1.00  0.00    -0.393 A  
HETATM   13  C   UNL     1     -10.808  10.904  67.368  1.00  0.00    -0.333 A  
HETATM   14  C   UNL     1     -11.823  12.674  68.649  1.00  0.00    -0.342 A  
ENDBRANCH   8   9
BRANCH   8  15
HETATM   15  C   UNL     1     -10.774   7.962  67.138  1.00  0.00    -0.236 C  
BRANCH  15  16
HETATM   16  C   UNL     1      -9.967   6.706  66.866  1.00  0.00    -0.238 A  
HETATM   17  C   UNL     1      -8.367   4.405  66.739  1.00  0.00    -0.105 A  
HETATM   18  C   UNL     1     -10.432   5.481  67.370  1.00  0.00    -0.284 A  
HETATM   19  C   UNL     1      -9.631   4.340  67.320  1.00  0.00    -0.224 A  
HETATM   20  C   UNL     1      -7.943   5.584  66.131  1.00  0.00    -0.105 A  
HETATM   21  C   UNL     1      -8.753   6.718  66.165  1.00  0.00    -0.156 A  
ENDBRANCH  15  16
ENDBRANCH   8  15
ENDBRANCH   1   8
TORSDOF 5
ENDMDL
MODEL      190
REMARK 921   NORMALIZED FREE ENERGY PREDICTED BY IDOCK:   -3.48 KCAL/MOL
REMARK 922        TOTAL FREE ENERGY PREDICTED BY IDOCK:   -5.08 KCAL/MOL
REMARK 923 INTER-LIGAND FREE ENERGY PREDICTED BY IDOCK:   -4.12 KCAL/MOL
REMARK 924 INTRA-LIGAND FREE ENERGY PREDICTED BY IDOCK:   -0.96 KCAL/MOL
REMARK 927      BINDING AFFINITY PREDICTED BY RF-SCORE:    0.00 PKD
ROOT
HETATM    1  C   UNL     1      -8.084   8.457  68.089  1.00  0.00    -0.120 C  
ENDROOT
BRANCH   1   2
HETATM    2  C   UNL     1      -8.317   9.692  67.221  1.00  0.00    -0.114 A  
HETATM    3  H   UNL     1      -8.221  11.191  68.681  1.00  0.00     0.000 HD 
HETATM    4  N   UNL     1      -8.477  10.880  67.744  1.00  0.00    -0.122 NA 
HETATM    5  N   UNL     1      -8.566   9.563  65.873  1.00  0.00    -0.128 NA 
HETATM    6  C   UNL     1      -9.201  10.775  65.423  1.00  0.00    -0.205 A  
HETATM    7  C   UNL     1      -9.115  11.673  66.661  1.00  0.00    -0.194 A  
ENDBRANCH   1   2
BRANCH   1   8
HETATM    8  N   UNL     1      -9.251   7.573  67.921  1.00  0.00    -0.136 NA 
BRANCH   8   9
HETATM    9  C   UNL     1      -9.093   6.202  67.792  1.00  0.00    -0.117 A  
HETATM   10  C   UNL     1      -8.120   5.476  68.488  1.00  0.00    -0.099 A  
HETATM   11  C   UNL     1      -8.017   4.087  68.360  1.00  0.00    -0.072 A  
HETATM   12  C   UNL     1      -9.829   4.098  66.781  1.00  0.00    -0.203 A  
HETATM   13  C   UNL     1      -9.934   5.481  66.930  1.00  0.00    -0.204 A  
HETATM   14  C   UNL     1      -8.871   3.395  67.503  1.00  0.00    -0.152 A  
ENDBRANCH   8   9
BRANCH   8  15
HETATM   15  C   UNL     1     -10.563   8.053  68.435  1.00  0.00    -0.102 C  
BRANCH  15  16
HETATM   16  C   UNL     1     -10.773   7.866  69.926  1.00  0.00    -0.244 A  
HETATM   17  C   UNL     1     -11.536   7.600  72.613  1.00  0.00    -0.403 A  
HETATM   18  C   UNL     1     -11.406   6.698  70.379  1.00  0.00    -0.421 A  
HETATM   19  C   UNL     1     -11.798   6.571  71.712  1.00  0.00    -0.384 A  
HETATM   20  C   UNL     1     -10.805   8.712  72.203  1.00  0.00    -0.424 A  
HETATM   21  C   UNL     1     -10.397   8.827  70.875  1.00  0.00    -0.281 A  
ENDBRANCH  15  16
ENDBRANCH   8  15
ENDBRANCH   1   8
TORSDOF 5
ENDMDL
MODEL      191
REMARK 921   NORMALIZED FREE ENERGY PREDICTED BY IDOCK:   -3.44 KCAL/MOL
REMARK 922        TOTAL FREE ENERGY PREDICTED BY IDOCK:   -5.04 KCAL/MOL
REMARK 923 INTER-LIGAND FREE ENERGY PREDICTED BY IDOCK:   -4.31 KCAL/MOL
REMARK 924 INTRA-LIGAND FREE ENERGY PREDICTED BY IDOCK:   -0.73 KCAL/MOL
REMARK 927      BINDING AFFINITY PREDICTED BY RF-SCORE:    0.00 PKD
ROOT
HETATM    1  C   UNL     1      -8.565   8.821  68.557  1.00  0.00    -0.134 C  
ENDROOT
BRANCH   1   2
HETATM    2  C   UNL     1      -7.234   9.134  69.236  1.00  0.00    -0.065 A  
HETATM    3  H   UNL     1      -7.058   7.464  70.488  1.00  0.00     0.000 HD 
HETATM    4  N   UNL     1      -6.779   8.409  70.224  1.00  0.00    -0.036 NA 
HETATM    5  N   UNL     1      -6.568  10.308  68.963  1.00  0.00    -0.052 NA 
HETATM    6  C   UNL     1      -5.650  10.558  70.045  1.00  0.00    -0.053 A  
HETATM    7  C   UNL     1      -5.761   9.275  70.875  1.00  0.00    -0.051 A  
ENDBRANCH   1   2
BRANCH   1   8
HETATM    8  N   UNL     1      -9.476   9.947  68.830  1.00  0.00    -0.152 NA 
BRANCH   8   9
HETATM    9  C   UNL     1     -10.065  10.653  67.793  1.00  0.00    -0.174 A  
HETATM   10  C   UNL     1      -9.855  10.347  66.444  1.00  0.00    -0.266 A  
HETATM   11  C   UNL     1     -10.499  11.061  65.426  1.00  0.00    -0.306 A  
HETATM   12  C   UNL     1     -11.551  12.460  67.073  1.00  0.00    -0.434 A  
HETATM   13  C   UNL     1     -10.918  11.731  68.080  1.00  0.00    -0.274 A  
HETATM   14  C   UNL     1     -11.348  12.121  65.740  1.00  0.00    -0.402 A  
ENDBRANCH   8   9
BRANCH   8  15
HETATM   15  C   UNL     1     -10.179   9.966  70.142  1.00  0.00    -0.273 C  
BRANCH  15  16
HETATM   16  C   UNL     1     -10.555   8.600  70.686  1.00  0.00    -0.249 A  
HETATM   17  C   UNL     1     -10.879   5.974  71.618  1.00  0.00    -0.314 A  
HETATM   18  C   UNL     1     -10.095   8.230  71.959  1.00  0.00    -0.331 A  
HETATM   19  C   UNL     1     -10.243   6.921  72.417  1.00  0.00    -0.208 A  
HETATM   20  C   UNL     1     -11.442   6.357  70.404  1.00  0.00    -0.458 A  
HETATM   21  C   UNL     1     -11.310   7.671  69.957  1.00  0.00    -0.081 A  
ENDBRANCH  15  16
ENDBRANCH   8  15
ENDBRANCH   1   8
TORSDOF 5
ENDMDL
MODEL      192
REMARK 921   NORMALIZED FREE ENERGY PREDICTED BY IDOCK:   -3.42 KCAL/MOL
REMARK 922        TOTAL FREE ENERGY PREDICTED BY IDOCK:   -5.01 KCAL/MOL
REMARK 923 INTER-LIGAND FREE ENERGY PREDICTED BY IDOCK:   -4.22 KCAL/MOL
REMARK 924 INTRA-LIGAND FREE ENERGY PREDICTED BY IDOCK:   -0.80 KCAL/MOL
REMARK 927      BINDING AFFINITY PREDICTED BY RF-SCORE:    0.00 PKD
ROOT
HETATM    1  C   UNL     1      -7.289   9.544  67.754  1.00  0.00    -0.083 C  
ENDROOT
BRANCH   1   2
HETATM    2  C   UNL     1      -7.430   9.105  66.298  1.00  0.00    -0.092 A  
HETATM    3  H   UNL     1      -7.689  10.968  65.375  1.00  0.00     0.000 HD 
HETATM    4  N   UNL     1      -7.751   9.950  65.353  1.00  0.00    -0.124 NA 
HETATM    5  N   UNL     1      -7.421   7.769  65.966  1.00  0.00    -0.077 NA 
HETATM    6  C   UNL     1      -8.032   7.631  64.669  1.00  0.00    -0.136 A  
HETATM    7  C   UNL     1      -8.224   9.089  64.238  1.00  0.00    -0.164 A  
ENDBRANCH   1   2
BRANCH   1   8
HETATM    8  N   UNL     1      -8.646   9.621  68.325  1.00  0.00    -0.119 NA 
BRANCH   8   9
HETATM    9  C   UNL     1      -9.489  10.677  68.017  1.00  0.00    -0.158 A  
HETATM   10  C   UNL     1     -10.726  10.507  67.386  1.00  0.00    -0.334 A  
HETATM   11  C   UNL     1     -11.567  11.595  67.125  1.00  0.00    -0.291 A  
HETATM   12  C   UNL     1      -9.933  13.084  68.070  1.00  0.00    -0.233 A  
HETATM   13  C   UNL     1      -9.111  11.989  68.340  1.00  0.00    -0.158 A  
HETATM   14  C   UNL     1     -11.169  12.888  67.466  1.00  0.00    -0.329 A  
ENDBRANCH   8   9
BRANCH   8  15
HETATM   15  C   UNL     1      -9.290   8.349  68.753  1.00  0.00    -0.143 C  
BRANCH  15  16
HETATM   16  C   UNL     1      -9.835   8.354  70.170  1.00  0.00    -0.183 A  
HETATM   17  C   UNL     1     -10.678   8.009  72.823  1.00  0.00    -0.431 A  
HETATM   18  C   UNL     1      -8.944   8.552  71.236  1.00  0.00    -0.244 A  
HETATM   19  C   UNL     1      -9.359   8.367  72.555  1.00  0.00    -0.346 A  
HETATM   20  C   UNL     1     -11.599   7.924  71.783  1.00  0.00    -0.321 A  
HETATM   21  C   UNL     1     -11.186   8.129  70.467  1.00  0.00    -0.249 A  
ENDBRANCH  15  16
ENDBRANCH   8  15
ENDBRANCH   1   8
TORSDOF 5
ENDMDL
MODEL      193
REMARK 921   NORMALIZED FREE ENERGY PREDICTED BY IDOCK:   -3.33 KCAL/MOL
REMARK 922        TOTAL FREE ENERGY PREDICTED BY IDOCK:   -4.90 KCAL/MOL
REMARK 923 INTER-LIGAND FREE ENERGY PREDICTED BY IDOCK:   -4.17 KCAL/MOL
REMARK 924 INTRA-LIGAND FREE ENERGY PREDICTED BY IDOCK:   -0.73 KCAL/MOL
REMARK 927      BINDING AFFINITY PREDICTED BY RF-SCORE:    0.00 PKD
ROOT
HETATM    1  C   UNL     1      -7.684   8.890  68.482  1.00  0.00    -0.098 C  
ENDROOT
BRANCH   1   2
HETATM    2  C   UNL     1      -8.528  10.062  67.987  1.00  0.00    -0.117 A  
HETATM    3  H   UNL     1      -8.965   9.407  66.046  1.00  0.00     0.000 HD 
HETATM    4  N   UNL     1      -8.920  10.151  66.743  1.00  0.00    -0.132 NA 
HETATM    5  N   UNL     1      -8.735  11.163  68.788  1.00  0.00    -0.154 NA 
HETATM    6  C   UNL     1      -9.126  12.260  67.940  1.00  0.00    -0.190 A  
HETATM    7  C   UNL     1      -9.284  11.582  66.575  1.00  0.00    -0.194 A  
ENDBRANCH   1   2
BRANCH   1   8
HETATM    8  N   UNL     1      -8.582   7.975  69.208  1.00  0.00    -0.136 NA 
BRANCH   8   9
HETATM    9  C   UNL     1      -8.300   7.583  70.507  1.00  0.00    -0.131 A  
HETATM   10  C   UNL     1      -8.075   8.490  71.547  1.00  0.00    -0.191 A  
HETATM   11  C   UNL     1      -7.830   8.055  72.855  1.00  0.00    -0.190 A  
HETATM   12  C   UNL     1      -7.971   5.771  72.120  1.00  0.00    -0.107 A  
HETATM   13  C   UNL     1      -8.231   6.217  70.824  1.00  0.00    -0.125 A  
HETATM   14  C   UNL     1      -7.776   6.692  73.143  1.00  0.00    -0.095 A  
ENDBRANCH   8   9
BRANCH   8  15
HETATM   15  C   UNL     1     -10.009   7.925  68.785  1.00  0.00    -0.187 C  
BRANCH  15  16
HETATM   16  C   UNL     1     -11.015   8.112  69.906  1.00  0.00    -0.168 A  
HETATM   17  C   UNL     1     -12.565   8.535  72.205  1.00  0.00    -0.438 A  
HETATM   18  C   UNL     1     -11.301   9.413  70.347  1.00  0.00    -0.295 A  
HETATM   19  C   UNL     1     -12.060   9.624  71.499  1.00  0.00    -0.482 A  
HETATM   20  C   UNL     1     -12.387   7.246  71.713  1.00  0.00    -0.375 A  
HETATM   21  C   UNL     1     -11.645   7.038  70.552  1.00  0.00    -0.364 A  
ENDBRANCH  15  16
ENDBRANCH   8  15
ENDBRANCH   1   8
TORSDOF 5
ENDMDL
MODEL      194
REMARK 921   NORMALIZED FREE ENERGY PREDICTED BY IDOCK:   -3.27 KCAL/MOL
REMARK 922        TOTAL FREE ENERGY PREDICTED BY IDOCK:   -4.82 KCAL/MOL
REMARK 923 INTER-LIGAND FREE ENERGY PREDICTED BY IDOCK:   -4.07 KCAL/MOL
REMARK 924 INTRA-LIGAND FREE ENERGY PREDICTED BY IDOCK:   -0.75 KCAL/MOL
REMARK 927      BINDING AFFINITY PREDICTED BY RF-SCORE:    0.00 PKD
ROOT
HETATM    1  C   UNL     1      -7.408   6.913  69.179  1.00  0.00    -0.093 C  
ENDROOT
BRANCH   1   2
HETATM    2  C   UNL     1      -7.290   5.520  68.564  1.00  0.00    -0.076 A  
HETATM    3  H   UNL     1      -7.156   4.360  70.304  1.00  0.00     0.000 HD 
HETATM    4  N   UNL     1      -7.043   4.464  69.295  1.00  0.00    -0.050 NA 
HETATM    5  N   UNL     1      -7.240   5.359  67.198  1.00  0.00    -0.074 NA 
HETATM    6  C   UNL     1      -6.664   4.068  66.924  1.00  0.00    -0.047 A  
HETATM    7  C   UNL     1      -6.560   3.450  68.322  1.00  0.00    -0.037 A  
ENDBRANCH   1   2
BRANCH   1   8
HETATM    8  N   UNL     1      -8.694   7.482  68.737  1.00  0.00    -0.129 NA 
BRANCH   8   9
HETATM    9  C   UNL     1      -8.759   8.330  67.642  1.00  0.00    -0.133 A  
HETATM   10  C   UNL     1      -9.939   8.567  66.929  1.00  0.00    -0.335 A  
HETATM   11  C   UNL     1      -9.972   9.460  65.852  1.00  0.00    -0.327 A  
HETATM   12  C   UNL     1      -7.620   9.875  66.124  1.00  0.00    -0.104 A  
HETATM   13  C   UNL     1      -7.603   8.995  67.207  1.00  0.00    -0.088 A  
HETATM   14  C   UNL     1      -8.810  10.115  65.446  1.00  0.00    -0.196 A  
ENDBRANCH   8   9
BRANCH   8  15
HETATM   15  C   UNL     1      -9.937   6.739  69.086  1.00  0.00    -0.159 C  
BRANCH  15  16
HETATM   16  C   UNL     1     -10.732   7.329  70.237  1.00  0.00    -0.252 A  
HETATM   17  C   UNL     1     -12.447   8.553  72.089  1.00  0.00    -0.437 A  
HETATM   18  C   UNL     1     -11.939   6.717  70.609  1.00  0.00    -0.404 A  
HETATM   19  C   UNL     1     -12.798   7.332  71.519  1.00  0.00    -0.430 A  
HETATM   20  C   UNL     1     -11.201   9.112  71.818  1.00  0.00    -0.451 A  
HETATM   21  C   UNL     1     -10.335   8.486  70.923  1.00  0.00    -0.245 A  
ENDBRANCH  15  16
ENDBRANCH   8  15
ENDBRANCH   1   8
TORSDOF 5
ENDMDL
MODEL      195
REMARK 921   NORMALIZED FREE ENERGY PREDICTED BY IDOCK:   -3.24 KCAL/MOL
REMARK 922        TOTAL FREE ENERGY PREDICTED BY IDOCK:   -4.78 KCAL/MOL
REMARK 923 INTER-LIGAND FREE ENERGY PREDICTED BY IDOCK:   -4.09 KCAL/MOL
REMARK 924 INTRA-LIGAND FREE ENERGY PREDICTED BY IDOCK:   -0.70 KCAL/MOL
REMARK 927      BINDING AFFINITY PREDICTED BY RF-SCORE:    0.00 PKD
ROOT
HETATM    1  C   UNL     1      -8.889   8.357  68.849  1.00  0.00    -0.143 C  
ENDROOT
BRANCH   1   2
HETATM    2  C   UNL     1      -9.158   7.215  69.827  1.00  0.00    -0.141 A  
HETATM    3  H   UNL     1     -10.666   6.192  68.794  1.00  0.00     0.000 HD 
HETATM    4  N   UNL     1     -10.146   6.378  69.652  1.00  0.00    -0.170 NA 
HETATM    5  N   UNL     1      -8.490   7.153  71.030  1.00  0.00    -0.128 NA 
HETATM    6  C   UNL     1      -9.249   6.306  71.914  1.00  0.00    -0.146 A  
HETATM    7  C   UNL     1     -10.340   5.757  70.989  1.00  0.00    -0.230 A  
ENDBRANCH   1   2
BRANCH   1   8
HETATM    8  N   UNL     1     -10.195   8.838  68.363  1.00  0.00    -0.192 NA 
BRANCH   8   9
HETATM    9  C   UNL     1     -10.774   9.980  68.891  1.00  0.00    -0.219 A  
HETATM   10  C   UNL     1     -11.477   9.992  70.100  1.00  0.00    -0.344 A  
HETATM   11  C   UNL     1     -12.016  11.174  70.620  1.00  0.00    -0.459 A  
HETATM   12  C   UNL     1     -11.215  12.381  68.701  1.00  0.00    -0.314 A  
HETATM   13  C   UNL     1     -10.667  11.199  68.202  1.00  0.00    -0.244 A  
HETATM   14  C   UNL     1     -11.886  12.372  69.918  1.00  0.00    -0.376 A  
ENDBRANCH   8   9
BRANCH   8  15
HETATM   15  C   UNL     1     -10.607   8.450  66.985  1.00  0.00    -0.246 C  
BRANCH  15  16
HETATM   16  C   UNL     1      -9.475   8.381  65.976  1.00  0.00    -0.224 A  
HETATM   17  C   UNL     1      -7.157   8.157  64.413  1.00  0.00    -0.078 A  
HETATM   18  C   UNL     1      -8.994   7.122  65.586  1.00  0.00     0.019 A  
HETATM   19  C   UNL     1      -7.833   7.009  64.820  1.00  0.00    -0.126 A  
HETATM   20  C   UNL     1      -7.689   9.412  64.694  1.00  0.00    -0.117 A  
HETATM   21  C   UNL     1      -8.860   9.522  65.442  1.00  0.00    -0.213 A  
ENDBRANCH  15  16
ENDBRANCH   8  15
ENDBRANCH   1   8
TORSDOF 5
ENDMDL
MODEL      196
REMARK 921   NORMALIZED FREE ENERGY PREDICTED BY IDOCK:   -3.00 KCAL/MOL
REMARK 922        TOTAL FREE ENERGY PREDICTED BY IDOCK:   -4.47 KCAL/MOL
REMARK 923 INTER-LIGAND FREE ENERGY PREDICTED BY IDOCK:   -4.27 KCAL/MOL
REMARK 924 INTRA-LIGAND FREE ENERGY PREDICTED BY IDOCK:   -0.20 KCAL/MOL
REMARK 927      BINDING AFFINITY PREDICTED BY RF-SCORE:    0.00 PKD
ROOT
HETATM    1  C   UNL     1      -7.747   7.292  68.008  1.00  0.00    -0.117 C  
ENDROOT
BRANCH   1   2
HETATM    2  C   UNL     1      -7.539   8.262  69.169  1.00  0.00    -0.088 A  
HETATM    3  H   UNL     1      -8.056  10.066  68.237  1.00  0.00     0.000 HD 
HETATM    4  N   UNL     1      -7.617   9.557  69.005  1.00  0.00    -0.073 NA 
HETATM    5  N   UNL     1      -7.066   7.812  70.381  1.00  0.00    -0.050 NA 
HETATM    6  C   UNL     1      -6.528   8.942  71.093  1.00  0.00    -0.066 A  
HETATM    7  C   UNL     1      -6.923  10.118  70.194  1.00  0.00    -0.155 A  
ENDBRANCH   1   2
BRANCH   1   8
HETATM    8  N   UNL     1      -9.160   6.873  68.030  1.00  0.00    -0.121 NA 
BRANCH   8   9
HETATM    9  C   UNL     1      -9.804   6.606  69.227  1.00  0.00    -0.149 A  
HETATM   10  C   UNL     1     -10.844   7.397  69.728  1.00  0.00    -0.246 A  
HETATM   11  C   UNL     1     -11.496   7.072  70.923  1.00  0.00    -0.349 A  
HETATM   12  C   UNL     1     -10.049   5.173  71.196  1.00  0.00    -0.291 A  
HETATM   13  C   UNL     1      -9.418   5.496  69.995  1.00  0.00    -0.205 A  
HETATM   14  C   UNL     1     -11.097   5.959  71.661  1.00  0.00    -0.319 A  
ENDBRANCH   8   9
BRANCH   8  15
HETATM   15  C   UNL     1     -10.017   7.268  66.878  1.00  0.00    -0.232 C  
BRANCH  15  16
HETATM   16  C   UNL     1      -9.908   8.726  66.471  1.00  0.00    -0.349 A  
HETATM   17  C   UNL     1     -10.083  11.391  65.611  1.00  0.00    -0.293 A  
HETATM   18  C   UNL     1     -10.519   9.700  67.276  1.00  0.00    -0.323 A  
HETATM   19  C   UNL     1     -10.619  11.022  66.843  1.00  0.00    -0.307 A  
HETATM   20  C   UNL     1      -9.373  10.461  64.857  1.00  0.00    -0.294 A  
HETATM   21  C   UNL     1      -9.258   9.144  65.302  1.00  0.00    -0.243 A  
ENDBRANCH  15  16
ENDBRANCH   8  15
ENDBRANCH   1   8
TORSDOF 5
ENDMDL
MODEL      197
REMARK 921   NORMALIZED FREE ENERGY PREDICTED BY IDOCK:   -2.74 KCAL/MOL
REMARK 922        TOTAL FREE ENERGY PREDICTED BY IDOCK:   -4.14 KCAL/MOL
REMARK 923 INTER-LIGAND FREE ENERGY PREDICTED BY IDOCK:   -3.24 KCAL/MOL
REMARK 924 INTRA-LIGAND FREE ENERGY PREDICTED BY IDOCK:   -0.90 KCAL/MOL
REMARK 927      BINDING AFFINITY PREDICTED BY RF-SCORE:    0.00 PKD
ROOT
HETATM    1  C   UNL     1      -7.921  10.177  69.569  1.00  0.00    -0.165 C  
ENDROOT
BRANCH   1   2
HETATM    2  C   UNL     1      -8.410  10.440  68.146  1.00  0.00    -0.117 A  
HETATM    3  H   UNL     1      -6.617  10.194  67.090  1.00  0.00     0.000 HD 
HETATM    4  N   UNL     1      -7.580  10.527  67.139  1.00  0.00    -0.095 NA 
HETATM    5  N   UNL     1      -9.720  10.792  67.910  1.00  0.00    -0.164 NA 
HETATM    6  C   UNL     1      -9.781  11.425  66.618  1.00  0.00    -0.200 A  
HETATM    7  C   UNL     1      -8.361  11.222  66.082  1.00  0.00    -0.111 A  
ENDBRANCH   1   2
BRANCH   1   8
HETATM    8  N   UNL     1      -8.481   8.882  69.996  1.00  0.00    -0.129 NA 
BRANCH   8   9
HETATM    9  C   UNL     1      -8.084   7.701  69.391  1.00  0.00    -0.127 A  
HETATM   10  C   UNL     1      -6.814   7.141  69.569  1.00  0.00    -0.050 A  
HETATM   11  C   UNL     1      -6.463   5.925  68.971  1.00  0.00    -0.049 A  
HETATM   12  C   UNL     1      -8.631   5.807  67.940  1.00  0.00    -0.101 A  
HETATM   13  C   UNL     1      -8.976   7.011  68.556  1.00  0.00    -0.122 A  
HETATM   14  C   UNL     1      -7.372   5.257  68.152  1.00  0.00    -0.072 A  
ENDBRANCH   8   9
BRANCH   8  15
HETATM   15  C   UNL     1      -9.014   8.782  71.383  1.00  0.00    -0.238 C  
BRANCH  15  16
HETATM   16  C   UNL     1     -10.377   8.125  71.498  1.00  0.00    -0.265 A  
HETATM   17  C   UNL     1     -12.973   7.178  71.985  1.00  0.00    -0.187 A  
HETATM   18  C   UNL     1     -11.492   8.782  70.956  1.00  0.00    -0.337 A  
HETATM   19  C   UNL     1     -12.784   8.320  71.210  1.00  0.00    -0.209 A  
HETATM   20  C   UNL     1     -11.872   6.452  72.429  1.00  0.00    -0.255 A  
HETATM   21  C   UNL     1     -10.581   6.905  72.158  1.00  0.00    -0.241 A  
ENDBRANCH  15  16
ENDBRANCH   8  15
ENDBRANCH   1   8
TORSDOF 5
ENDMDL
MODEL      198
REMARK 921   NORMALIZED FREE ENERGY PREDICTED BY IDOCK:   -2.57 KCAL/MOL
REMARK 922        TOTAL FREE ENERGY PREDICTED BY IDOCK:   -3.92 KCAL/MOL
REMARK 923 INTER-LIGAND FREE ENERGY PREDICTED BY IDOCK:   -3.07 KCAL/MOL
REMARK 924 INTRA-LIGAND FREE ENERGY PREDICTED BY IDOCK:   -0.85 KCAL/MOL
REMARK 927      BINDING AFFINITY PREDICTED BY RF-SCORE:    0.00 PKD
ROOT
HETATM    1  C   UNL     1      -8.000   9.488  70.454  1.00  0.00    -0.178 C  
ENDROOT
BRANCH   1   2
HETATM    2  C   UNL     1      -7.586   9.550  68.985  1.00  0.00    -0.075 A  
HETATM    3  H   UNL     1      -5.501   9.551  69.191  1.00  0.00     0.000 HD 
HETATM    4  N   UNL     1      -6.338   9.708  68.629  1.00  0.00    -0.047 NA 
HETATM    5  N   UNL     1      -8.536   9.642  67.993  1.00  0.00    -0.118 NA 
HETATM    6  C   UNL     1      -7.892  10.153  66.810  1.00  0.00    -0.108 A  
HETATM    7  C   UNL     1      -6.416  10.168  67.218  1.00  0.00    -0.068 A  
ENDBRANCH   1   2
BRANCH   1   8
HETATM    8  N   UNL     1      -8.345   8.088  70.757  1.00  0.00    -0.112 NA 
BRANCH   8   9
HETATM    9  C   UNL     1      -9.667   7.689  70.874  1.00  0.00    -0.172 A  
HETATM   10  C   UNL     1     -10.263   6.759  70.016  1.00  0.00    -0.211 A  
HETATM   11  C   UNL     1     -11.591   6.353  70.190  1.00  0.00    -0.449 A  
HETATM   12  C   UNL     1     -11.799   7.842  72.066  1.00  0.00    -0.351 A  
HETATM   13  C   UNL     1     -10.469   8.226  71.893  1.00  0.00    -0.342 A  
HETATM   14  C   UNL     1     -12.363   6.897  71.216  1.00  0.00    -0.422 A  
ENDBRANCH   8   9
BRANCH   8  15
HETATM   15  C   UNL     1      -7.355   7.037  70.391  1.00  0.00    -0.083 C  
BRANCH  15  16
HETATM   16  C   UNL     1      -7.092   6.003  71.470  1.00  0.00    -0.078 A  
HETATM   17  C   UNL     1      -6.237   4.091  73.336  1.00  0.00    -0.030 A  
HETATM   18  C   UNL     1      -6.387   6.390  72.620  1.00  0.00    -0.058 A  
HETATM   19  C   UNL     1      -5.948   5.438  73.541  1.00  0.00    -0.043 A  
HETATM   20  C   UNL     1      -7.035   3.707  72.263  1.00  0.00    -0.045 A  
HETATM   21  C   UNL     1      -7.488   4.663  71.354  1.00  0.00    -0.076 A  
ENDBRANCH  15  16
ENDBRANCH   8  15
ENDBRANCH   1   8
TORSDOF 5
ENDMDL
