MODEL        1
REMARK 921   NORMALIZED FREE ENERGY PREDICTED BY IDOCK:   -5.67 KCAL/MOL
REMARK 922        TOTAL FREE ENERGY PREDICTED BY IDOCK:   -6.26 KCAL/MOL
REMARK 923 INTER-LIGAND FREE ENERGY PREDICTED BY IDOCK:   -6.00 KCAL/MOL
REMARK 924 INTRA-LIGAND FREE ENERGY PREDICTED BY IDOCK:   -0.26 KCAL/MOL
REMARK 927      BINDING AFFINITY PREDICTED BY RF-SCORE:    0.00 PKD
ROOT
HETATM    1  C   UNL     1     -11.844  12.272  69.625  1.00  0.00    -0.324 C  
HETATM    2  N   UNL     1     -12.148  13.459  68.818  1.00  0.00    -0.310 NA 
HETATM    3  N   UNL     1     -11.867  14.721  69.397  1.00  0.00    -0.309 N  
HETATM    4  C   UNL     1     -11.585  12.377  66.589  1.00  0.00    -0.447 C  
HETATM    5  C   UNL     1     -11.465  15.607  68.393  1.00  0.00    -0.369 C  
HETATM    6  O   UNL     1     -11.251  16.808  68.432  1.00  0.00    -0.332 OA 
HETATM    7  C   UNL     1     -11.721  13.560  67.488  1.00  0.00    -0.367 C  
HETATM    8  C   UNL     1     -11.367  14.810  67.152  1.00  0.00    -0.363 C  
ENDROOT
BRANCH   3   9
HETATM    9  C   UNL     1     -12.328  15.119  70.665  1.00  0.00    -0.368 A  
HETATM   10  C   UNL     1     -14.100  15.499  72.278  1.00  0.00    -0.637 A  
HETATM   11  C   UNL     1     -13.159  15.847  73.241  1.00  0.00    -0.694 A  
HETATM   12  C   UNL     1     -13.688  15.115  70.996  1.00  0.00    -0.450 A  
HETATM   13  C   UNL     1     -11.802  15.838  72.923  1.00  0.00    -0.568 A  
HETATM   14  C   UNL     1     -11.392  15.501  71.633  1.00  0.00    -0.462 A  
ENDBRANCH   3   9
TORSDOF 1
ENDMDL
MODEL        2
REMARK 921   NORMALIZED FREE ENERGY PREDICTED BY IDOCK:   -5.42 KCAL/MOL
REMARK 922        TOTAL FREE ENERGY PREDICTED BY IDOCK:   -6.00 KCAL/MOL
REMARK 923 INTER-LIGAND FREE ENERGY PREDICTED BY IDOCK:   -5.71 KCAL/MOL
REMARK 924 INTRA-LIGAND FREE ENERGY PREDICTED BY IDOCK:   -0.30 KCAL/MOL
REMARK 927      BINDING AFFINITY PREDICTED BY RF-SCORE:    0.00 PKD
ROOT
HETATM    1  C   UNL     1      -9.692  14.609  67.888  1.00  0.00    -0.216 C  
HETATM    2  N   UNL     1     -10.794  15.079  67.041  1.00  0.00    -0.306 NA 
HETATM    3  N   UNL     1     -10.526  16.178  66.187  1.00  0.00    -0.325 N  
HETATM    4  C   UNL     1     -11.814  12.780  66.687  1.00  0.00    -0.462 C  
HETATM    5  C   UNL     1     -11.259  16.030  65.006  1.00  0.00    -0.261 C  
HETATM    6  O   UNL     1     -11.418  16.795  64.069  1.00  0.00    -1.198 OA 
HETATM    7  C   UNL     1     -11.545  14.186  66.266  1.00  0.00    -0.370 C  
HETATM    8  C   UNL     1     -11.909  14.705  65.084  1.00  0.00    -0.351 C  
ENDROOT
BRANCH   3   9
HETATM    9  C   UNL     1      -9.975  17.394  66.630  1.00  0.00    -0.308 A  
HETATM   10  C   UNL     1      -8.154  18.989  66.787  1.00  0.00    -0.279 A  
HETATM   11  C   UNL     1      -8.977  19.873  67.477  1.00  0.00    -0.422 A  
HETATM   12  C   UNL     1      -8.654  17.758  66.345  1.00  0.00    -0.260 A  
HETATM   13  C   UNL     1     -10.298  19.522  67.751  1.00  0.00    -0.575 A  
HETATM   14  C   UNL     1     -10.785  18.278  67.352  1.00  0.00    -0.377 A  
ENDBRANCH   3   9
TORSDOF 1
ENDMDL
MODEL        3
REMARK 921   NORMALIZED FREE ENERGY PREDICTED BY IDOCK:   -5.34 KCAL/MOL
REMARK 922        TOTAL FREE ENERGY PREDICTED BY IDOCK:   -5.92 KCAL/MOL
REMARK 923 INTER-LIGAND FREE ENERGY PREDICTED BY IDOCK:   -5.61 KCAL/MOL
REMARK 924 INTRA-LIGAND FREE ENERGY PREDICTED BY IDOCK:   -0.31 KCAL/MOL
REMARK 927      BINDING AFFINITY PREDICTED BY RF-SCORE:    0.00 PKD
ROOT
HETATM    1  C   UNL     1     -10.242  14.222  68.151  1.00  0.00    -0.231 C  
HETATM    2  N   UNL     1      -9.865  15.151  67.080  1.00  0.00    -0.228 NA 
HETATM    3  N   UNL     1     -10.716  15.208  65.948  1.00  0.00    -0.321 N  
HETATM    4  C   UNL     1      -8.872  16.904  68.628  1.00  0.00    -0.262 C  
HETATM    5  C   UNL     1     -10.733  16.515  65.453  1.00  0.00    -0.259 C  
HETATM    6  O   UNL     1     -11.227  16.972  64.435  1.00  0.00    -1.167 OA 
HETATM    7  C   UNL     1      -9.534  16.484  67.359  1.00  0.00    -0.228 C  
HETATM    8  C   UNL     1      -9.956  17.331  66.409  1.00  0.00    -0.319 C  
ENDROOT
BRANCH   3   9
HETATM    9  C   UNL     1     -11.112  14.077  65.211  1.00  0.00    -0.325 A  
HETATM   10  C   UNL     1     -12.783  12.488  64.459  1.00  0.00    -0.440 A  
HETATM   11  C   UNL     1     -11.837  11.865  63.650  1.00  0.00    -0.573 A  
HETATM   12  C   UNL     1     -12.428  13.605  65.225  1.00  0.00    -0.517 A  
HETATM   13  C   UNL     1     -10.528  12.340  63.620  1.00  0.00    -0.483 A  
HETATM   14  C   UNL     1     -10.162  13.423  64.418  1.00  0.00    -0.262 A  
ENDBRANCH   3   9
TORSDOF 1
ENDMDL
MODEL        4
REMARK 921   NORMALIZED FREE ENERGY PREDICTED BY IDOCK:   -5.34 KCAL/MOL
REMARK 922        TOTAL FREE ENERGY PREDICTED BY IDOCK:   -5.91 KCAL/MOL
REMARK 923 INTER-LIGAND FREE ENERGY PREDICTED BY IDOCK:   -5.61 KCAL/MOL
REMARK 924 INTRA-LIGAND FREE ENERGY PREDICTED BY IDOCK:   -0.30 KCAL/MOL
REMARK 927      BINDING AFFINITY PREDICTED BY RF-SCORE:    0.00 PKD
ROOT
HETATM    1  C   UNL     1     -10.471  14.360  68.055  1.00  0.00    -0.237 C  
HETATM    2  N   UNL     1     -10.074  15.284  66.986  1.00  0.00    -0.245 NA 
HETATM    3  N   UNL     1     -10.842  15.262  65.797  1.00  0.00    -0.346 N  
HETATM    4  C   UNL     1      -9.299  17.130  68.550  1.00  0.00    -0.274 C  
HETATM    5  C   UNL     1     -10.900  16.553  65.264  1.00  0.00    -0.221 C  
HETATM    6  O   UNL     1     -11.346  16.954  64.201  1.00  0.00    -1.208 OA 
HETATM    7  C   UNL     1      -9.842  16.640  67.250  1.00  0.00    -0.255 C  
HETATM    8  C   UNL     1     -10.243  17.438  66.248  1.00  0.00    -0.344 C  
ENDROOT
BRANCH   3   9
HETATM    9  C   UNL     1     -11.117  14.091  65.066  1.00  0.00    -0.363 A  
HETATM   10  C   UNL     1     -10.424  12.167  63.763  1.00  0.00    -0.470 A  
HETATM   11  C   UNL     1     -11.742  11.725  63.699  1.00  0.00    -0.517 A  
HETATM   12  C   UNL     1     -10.106  13.337  64.462  1.00  0.00    -0.241 A  
HETATM   13  C   UNL     1     -12.752  12.464  64.312  1.00  0.00    -0.437 A  
HETATM   14  C   UNL     1     -12.444  13.654  64.968  1.00  0.00    -0.454 A  
ENDBRANCH   3   9
TORSDOF 1
ENDMDL
MODEL        5
REMARK 921   NORMALIZED FREE ENERGY PREDICTED BY IDOCK:   -5.33 KCAL/MOL
REMARK 922        TOTAL FREE ENERGY PREDICTED BY IDOCK:   -5.91 KCAL/MOL
REMARK 923 INTER-LIGAND FREE ENERGY PREDICTED BY IDOCK:   -5.62 KCAL/MOL
REMARK 924 INTRA-LIGAND FREE ENERGY PREDICTED BY IDOCK:   -0.29 KCAL/MOL
REMARK 927      BINDING AFFINITY PREDICTED BY RF-SCORE:    0.00 PKD
ROOT
HETATM    1  C   UNL     1      -9.422  14.867  67.918  1.00  0.00    -0.200 C  
HETATM    2  N   UNL     1     -10.566  15.240  67.078  1.00  0.00    -0.300 NA 
HETATM    3  N   UNL     1     -10.399  16.357  66.223  1.00  0.00    -0.323 N  
HETATM    4  C   UNL     1     -11.387  12.861  66.731  1.00  0.00    -0.367 C  
HETATM    5  C   UNL     1     -11.124  16.146  65.046  1.00  0.00    -0.294 C  
HETATM    6  O   UNL     1     -11.354  16.895  64.110  1.00  0.00    -1.208 OA 
HETATM    7  C   UNL     1     -11.243  14.285  66.308  1.00  0.00    -0.337 C  
HETATM    8  C   UNL     1     -11.657  14.771  65.129  1.00  0.00    -0.358 C  
ENDROOT
BRANCH   3   9
HETATM    9  C   UNL     1      -9.951  17.617  66.662  1.00  0.00    -0.328 A  
HETATM   10  C   UNL     1     -10.233  19.672  67.917  1.00  0.00    -0.574 A  
HETATM   11  C   UNL     1      -8.951  20.076  67.559  1.00  0.00    -0.437 A  
HETATM   12  C   UNL     1     -10.729  18.436  67.487  1.00  0.00    -0.399 A  
HETATM   13  C   UNL     1      -8.166  19.258  66.750  1.00  0.00    -0.301 A  
HETATM   14  C   UNL     1      -8.674  18.047  66.282  1.00  0.00    -0.194 A  
ENDBRANCH   3   9
TORSDOF 1
ENDMDL
MODEL        6
REMARK 921   NORMALIZED FREE ENERGY PREDICTED BY IDOCK:   -5.27 KCAL/MOL
REMARK 922        TOTAL FREE ENERGY PREDICTED BY IDOCK:   -5.84 KCAL/MOL
REMARK 923 INTER-LIGAND FREE ENERGY PREDICTED BY IDOCK:   -5.54 KCAL/MOL
REMARK 924 INTRA-LIGAND FREE ENERGY PREDICTED BY IDOCK:   -0.30 KCAL/MOL
REMARK 927      BINDING AFFINITY PREDICTED BY RF-SCORE:    0.00 PKD
ROOT
HETATM    1  C   UNL     1     -10.681  16.829  69.129  1.00  0.00    -0.329 C  
HETATM    2  N   UNL     1     -10.182  17.171  67.792  1.00  0.00    -0.310 NA 
HETATM    3  N   UNL     1     -10.682  16.415  66.705  1.00  0.00    -0.233 N  
HETATM    4  C   UNL     1      -9.963  19.660  68.256  1.00  0.00    -0.543 C  
HETATM    5  C   UNL     1     -10.778  17.238  65.579  1.00  0.00    -0.100 C  
HETATM    6  O   UNL     1     -11.039  16.968  64.418  1.00  0.00    -1.144 OA 
HETATM    7  C   UNL     1     -10.167  18.498  67.342  1.00  0.00    -0.373 C  
HETATM    8  C   UNL     1     -10.444  18.603  66.034  1.00  0.00    -0.456 C  
ENDROOT
BRANCH   3   9
HETATM    9  C   UNL     1     -10.665  15.008  66.658  1.00  0.00    -0.312 A  
HETATM   10  C   UNL     1      -9.501  12.881  66.624  1.00  0.00    -0.255 A  
HETATM   11  C   UNL     1     -10.717  12.206  66.648  1.00  0.00    -0.281 A  
HETATM   12  C   UNL     1      -9.470  14.280  66.649  1.00  0.00    -0.302 A  
HETATM   13  C   UNL     1     -11.910  12.926  66.672  1.00  0.00    -0.461 A  
HETATM   14  C   UNL     1     -11.883  14.319  66.650  1.00  0.00    -0.442 A  
ENDBRANCH   3   9
TORSDOF 1
ENDMDL
MODEL        7
REMARK 921   NORMALIZED FREE ENERGY PREDICTED BY IDOCK:   -5.25 KCAL/MOL
REMARK 922        TOTAL FREE ENERGY PREDICTED BY IDOCK:   -5.82 KCAL/MOL
REMARK 923 INTER-LIGAND FREE ENERGY PREDICTED BY IDOCK:   -5.53 KCAL/MOL
REMARK 924 INTRA-LIGAND FREE ENERGY PREDICTED BY IDOCK:   -0.30 KCAL/MOL
REMARK 927      BINDING AFFINITY PREDICTED BY RF-SCORE:    0.00 PKD
ROOT
HETATM    1  C   UNL     1     -10.530  15.407  67.041  1.00  0.00    -0.295 C  
HETATM    2  N   UNL     1     -11.541  14.528  67.639  1.00  0.00    -0.362 NA 
HETATM    3  N   UNL     1     -11.479  13.154  67.304  1.00  0.00    -0.313 N  
HETATM    4  C   UNL     1     -11.689  15.802  69.833  1.00  0.00    -0.365 C  
HETATM    5  C   UNL     1     -11.887  12.394  68.404  1.00  0.00    -0.309 C  
HETATM    6  O   UNL     1     -12.099  11.197  68.507  1.00  0.00    -0.586 OA 
HETATM    7  C   UNL     1     -11.806  14.560  69.015  1.00  0.00    -0.318 C  
HETATM    8  C   UNL     1     -12.084  13.347  69.516  1.00  0.00    -0.334 C  
ENDROOT
BRANCH   3   9
HETATM    9  C   UNL     1     -11.438  12.674  65.982  1.00  0.00    -0.368 A  
HETATM   10  C   UNL     1     -12.392  12.414  63.767  1.00  0.00    -0.625 A  
HETATM   11  C   UNL     1     -11.243  11.755  63.340  1.00  0.00    -0.440 A  
HETATM   12  C   UNL     1     -12.485  12.891  65.080  1.00  0.00    -0.553 A  
HETATM   13  C   UNL     1     -10.190  11.549  64.230  1.00  0.00    -0.361 A  
HETATM   14  C   UNL     1     -10.300  11.983  65.551  1.00  0.00    -0.298 A  
ENDBRANCH   3   9
TORSDOF 1
ENDMDL
MODEL        8
REMARK 921   NORMALIZED FREE ENERGY PREDICTED BY IDOCK:   -5.15 KCAL/MOL
REMARK 922        TOTAL FREE ENERGY PREDICTED BY IDOCK:   -5.71 KCAL/MOL
REMARK 923 INTER-LIGAND FREE ENERGY PREDICTED BY IDOCK:   -5.57 KCAL/MOL
REMARK 924 INTRA-LIGAND FREE ENERGY PREDICTED BY IDOCK:   -0.15 KCAL/MOL
REMARK 927      BINDING AFFINITY PREDICTED BY RF-SCORE:    0.00 PKD
ROOT
HETATM    1  C   UNL     1      -9.083  11.463  65.928  1.00  0.00    -0.198 C  
HETATM    2  N   UNL     1     -10.464  11.450  65.432  1.00  0.00    -0.272 NA 
HETATM    3  N   UNL     1     -11.362  12.385  66.003  1.00  0.00    -0.335 N  
HETATM    4  C   UNL     1      -9.849  10.826  63.047  1.00  0.00    -0.344 C  
HETATM    5  C   UNL     1     -12.275  12.797  65.028  1.00  0.00    -0.473 C  
HETATM    6  O   UNL     1     -13.278  13.488  65.121  1.00  0.00    -0.720 OA 
HETATM    7  C   UNL     1     -10.741  11.464  64.059  1.00  0.00    -0.387 C  
HETATM    8  C   UNL     1     -11.833  12.184  63.759  1.00  0.00    -0.592 C  
ENDROOT
BRANCH   3   9
HETATM    9  C   UNL     1     -11.564  12.529  67.388  1.00  0.00    -0.370 A  
HETATM   10  C   UNL     1     -11.831  13.880  69.385  1.00  0.00    -0.384 A  
HETATM   11  C   UNL     1     -12.052  12.733  70.141  1.00  0.00    -0.370 A  
HETATM   12  C   UNL     1     -11.606  13.783  68.006  1.00  0.00    -0.368 A  
HETATM   13  C   UNL     1     -12.026  11.482  69.528  1.00  0.00    -0.402 A  
HETATM   14  C   UNL     1     -11.756  11.380  68.164  1.00  0.00    -0.355 A  
ENDBRANCH   3   9
TORSDOF 1
ENDMDL
MODEL        9
REMARK 921   NORMALIZED FREE ENERGY PREDICTED BY IDOCK:   -5.14 KCAL/MOL
REMARK 922        TOTAL FREE ENERGY PREDICTED BY IDOCK:   -5.70 KCAL/MOL
REMARK 923 INTER-LIGAND FREE ENERGY PREDICTED BY IDOCK:   -5.49 KCAL/MOL
REMARK 924 INTRA-LIGAND FREE ENERGY PREDICTED BY IDOCK:   -0.21 KCAL/MOL
REMARK 927      BINDING AFFINITY PREDICTED BY RF-SCORE:    0.00 PKD
ROOT
HETATM    1  C   UNL     1     -12.022  13.993  68.229  1.00  0.00    -0.349 C  
HETATM    2  N   UNL     1     -11.627  12.966  69.201  1.00  0.00    -0.304 NA 
HETATM    3  N   UNL     1     -12.406  12.862  70.379  1.00  0.00    -0.299 N  
HETATM    4  C   UNL     1     -10.827  11.295  67.462  1.00  0.00    -0.292 C  
HETATM    5  C   UNL     1     -12.460  11.522  70.776  1.00  0.00    -0.349 C  
HETATM    6  O   UNL     1     -12.912  11.011  71.788  1.00  0.00    -0.455 OA 
HETATM    7  C   UNL     1     -11.384  11.646  68.801  1.00  0.00    -0.264 C  
HETATM    8  C   UNL     1     -11.789  10.747  69.711  1.00  0.00    -0.409 C  
ENDROOT
BRANCH   3   9
HETATM    9  C   UNL     1     -12.695  13.950  71.223  1.00  0.00    -0.367 A  
HETATM   10  C   UNL     1     -14.236  15.319  72.501  1.00  0.00    -0.477 A  
HETATM   11  C   UNL     1     -13.175  16.087  72.973  1.00  0.00    -0.590 A  
HETATM   12  C   UNL     1     -13.998  14.239  71.643  1.00  0.00    -0.472 A  
HETATM   13  C   UNL     1     -11.874  15.794  72.571  1.00  0.00    -0.605 A  
HETATM   14  C   UNL     1     -11.639  14.748  71.680  1.00  0.00    -0.260 A  
ENDBRANCH   3   9
TORSDOF 1
ENDMDL
MODEL       10
REMARK 921   NORMALIZED FREE ENERGY PREDICTED BY IDOCK:   -5.13 KCAL/MOL
REMARK 922        TOTAL FREE ENERGY PREDICTED BY IDOCK:   -5.69 KCAL/MOL
REMARK 923 INTER-LIGAND FREE ENERGY PREDICTED BY IDOCK:   -5.52 KCAL/MOL
REMARK 924 INTRA-LIGAND FREE ENERGY PREDICTED BY IDOCK:   -0.17 KCAL/MOL
REMARK 927      BINDING AFFINITY PREDICTED BY RF-SCORE:    0.00 PKD
ROOT
HETATM    1  C   UNL     1     -10.981  10.282  67.462  1.00  0.00    -0.280 C  
HETATM    2  N   UNL     1     -11.798  11.348  68.054  1.00  0.00    -0.622 NA 
HETATM    3  N   UNL     1     -11.698  11.534  69.454  1.00  0.00    -0.315 N  
HETATM    4  C   UNL     1     -11.638  12.904  66.052  1.00  0.00    -0.424 C  
HETATM    5  C   UNL     1     -11.842  12.894  69.747  1.00  0.00    -0.310 C  
HETATM    6  O   UNL     1     -11.943  13.469  70.819  1.00  0.00    -0.305 OA 
HETATM    7  C   UNL     1     -11.811  12.639  67.510  1.00  0.00    -0.334 C  
HETATM    8  C   UNL     1     -11.902  13.594  68.447  1.00  0.00    -0.407 C  
ENDROOT
BRANCH   3   9
HETATM    9  C   UNL     1     -11.863  10.500  70.394  1.00  0.00    -0.340 A  
HETATM   10  C   UNL     1     -10.990   8.752  71.831  1.00  0.00    -0.435 A  
HETATM   11  C   UNL     1     -12.267   8.511  72.327  1.00  0.00    -0.454 A  
HETATM   12  C   UNL     1     -10.781   9.758  70.880  1.00  0.00    -0.375 A  
HETATM   13  C   UNL     1     -13.347   9.258  71.858  1.00  0.00    -0.498 A  
HETATM   14  C   UNL     1     -13.148  10.228  70.877  1.00  0.00    -0.423 A  
ENDBRANCH   3   9
TORSDOF 1
ENDMDL
MODEL       11
REMARK 921   NORMALIZED FREE ENERGY PREDICTED BY IDOCK:   -5.11 KCAL/MOL
REMARK 922        TOTAL FREE ENERGY PREDICTED BY IDOCK:   -5.67 KCAL/MOL
REMARK 923 INTER-LIGAND FREE ENERGY PREDICTED BY IDOCK:   -5.53 KCAL/MOL
REMARK 924 INTRA-LIGAND FREE ENERGY PREDICTED BY IDOCK:   -0.15 KCAL/MOL
REMARK 927      BINDING AFFINITY PREDICTED BY RF-SCORE:    0.00 PKD
ROOT
HETATM    1  C   UNL     1      -9.194  11.696  66.161  1.00  0.00    -0.219 C  
HETATM    2  N   UNL     1     -10.575  11.685  65.664  1.00  0.00    -0.267 NA 
HETATM    3  N   UNL     1     -11.436  12.707  66.132  1.00  0.00    -0.343 N  
HETATM    4  C   UNL     1      -9.985  10.796  63.358  1.00  0.00    -0.385 C  
HETATM    5  C   UNL     1     -12.333  13.052  65.117  1.00  0.00    -0.484 C  
HETATM    6  O   UNL     1     -13.308  13.787  65.135  1.00  0.00    -0.688 OA 
HETATM    7  C   UNL     1     -10.851  11.569  64.295  1.00  0.00    -0.359 C  
HETATM    8  C   UNL     1     -11.914  12.295  63.919  1.00  0.00    -0.582 C  
ENDROOT
BRANCH   3   9
HETATM    9  C   UNL     1     -11.631  13.000  67.495  1.00  0.00    -0.356 A  
HETATM   10  C   UNL     1     -12.020  12.334  69.795  1.00  0.00    -0.365 A  
HETATM   11  C   UNL     1     -11.929  13.662  70.202  1.00  0.00    -0.407 A  
HETATM   12  C   UNL     1     -11.852  11.998  68.446  1.00  0.00    -0.360 A  
HETATM   13  C   UNL     1     -11.694  14.662  69.262  1.00  0.00    -0.348 A  
HETATM   14  C   UNL     1     -11.573  14.335  67.912  1.00  0.00    -0.367 A  
ENDBRANCH   3   9
TORSDOF 1
ENDMDL
MODEL       12
REMARK 921   NORMALIZED FREE ENERGY PREDICTED BY IDOCK:   -5.03 KCAL/MOL
REMARK 922        TOTAL FREE ENERGY PREDICTED BY IDOCK:   -5.59 KCAL/MOL
REMARK 923 INTER-LIGAND FREE ENERGY PREDICTED BY IDOCK:   -5.30 KCAL/MOL
REMARK 924 INTRA-LIGAND FREE ENERGY PREDICTED BY IDOCK:   -0.29 KCAL/MOL
REMARK 927      BINDING AFFINITY PREDICTED BY RF-SCORE:    0.00 PKD
ROOT
HETATM    1  C   UNL     1      -9.629  14.208  66.909  1.00  0.00    -0.270 C  
HETATM    2  N   UNL     1     -10.367  13.921  65.674  1.00  0.00    -0.313 NA 
HETATM    3  N   UNL     1     -11.186  12.766  65.667  1.00  0.00    -0.292 N  
HETATM    4  C   UNL     1     -10.748  16.356  65.059  1.00  0.00    -0.279 C  
HETATM    5  C   UNL     1     -12.313  13.007  64.876  1.00  0.00    -0.459 C  
HETATM    6  O   UNL     1     -13.199  12.255  64.504  1.00  0.00    -0.799 OA 
HETATM    7  C   UNL     1     -11.122  14.912  65.034  1.00  0.00    -0.414 C  
HETATM    8  C   UNL     1     -12.247  14.431  64.485  1.00  0.00    -0.483 C  
ENDROOT
BRANCH   3   9
HETATM    9  C   UNL     1     -10.731  11.483  66.026  1.00  0.00    -0.281 A  
HETATM   10  C   UNL     1     -10.617   9.599  67.549  1.00  0.00    -0.339 A  
HETATM   11  C   UNL     1      -9.850   8.891  66.628  1.00  0.00    -0.332 A  
HETATM   12  C   UNL     1     -11.076  10.886  67.243  1.00  0.00    -0.350 A  
HETATM   13  C   UNL     1      -9.517   9.475  65.408  1.00  0.00    -0.336 A  
HETATM   14  C   UNL     1      -9.933  10.774  65.120  1.00  0.00    -0.351 A  
ENDBRANCH   3   9
TORSDOF 1
ENDMDL
MODEL       13
REMARK 921   NORMALIZED FREE ENERGY PREDICTED BY IDOCK:   -5.02 KCAL/MOL
REMARK 922        TOTAL FREE ENERGY PREDICTED BY IDOCK:   -5.58 KCAL/MOL
REMARK 923 INTER-LIGAND FREE ENERGY PREDICTED BY IDOCK:   -5.43 KCAL/MOL
REMARK 924 INTRA-LIGAND FREE ENERGY PREDICTED BY IDOCK:   -0.15 KCAL/MOL
REMARK 927      BINDING AFFINITY PREDICTED BY RF-SCORE:    0.00 PKD
ROOT
HETATM    1  C   UNL     1     -13.311  13.050  72.090  1.00  0.00    -0.524 C  
HETATM    2  N   UNL     1     -12.334  12.865  71.011  1.00  0.00    -0.312 NA 
HETATM    3  N   UNL     1     -12.367  11.630  70.317  1.00  0.00    -0.285 N  
HETATM    4  C   UNL     1     -12.330  15.298  70.279  1.00  0.00    -0.407 C  
HETATM    5  C   UNL     1     -12.023  11.846  68.979  1.00  0.00    -0.262 C  
HETATM    6  O   UNL     1     -11.811  11.053  68.076  1.00  0.00    -0.593 OA 
HETATM    7  C   UNL     1     -12.155  13.839  70.020  1.00  0.00    -0.349 C  
HETATM    8  C   UNL     1     -11.902  13.309  68.814  1.00  0.00    -0.371 C  
ENDROOT
BRANCH   3   9
HETATM    9  C   UNL     1     -12.322  10.376  70.953  1.00  0.00    -0.381 A  
HETATM   10  C   UNL     1     -13.392   8.440  71.949  1.00  0.00    -0.380 A  
HETATM   11  C   UNL     1     -12.150   7.843  72.141  1.00  0.00    -0.371 A  
HETATM   12  C   UNL     1     -13.483   9.696  71.338  1.00  0.00    -0.403 A  
HETATM   13  C   UNL     1     -10.991   8.508  71.746  1.00  0.00    -0.376 A  
HETATM   14  C   UNL     1     -11.076   9.779  71.180  1.00  0.00    -0.414 A  
ENDBRANCH   3   9
TORSDOF 1
ENDMDL
MODEL       14
REMARK 921   NORMALIZED FREE ENERGY PREDICTED BY IDOCK:   -5.01 KCAL/MOL
REMARK 922        TOTAL FREE ENERGY PREDICTED BY IDOCK:   -5.57 KCAL/MOL
REMARK 923 INTER-LIGAND FREE ENERGY PREDICTED BY IDOCK:   -5.43 KCAL/MOL
REMARK 924 INTRA-LIGAND FREE ENERGY PREDICTED BY IDOCK:   -0.14 KCAL/MOL
REMARK 927      BINDING AFFINITY PREDICTED BY RF-SCORE:    0.00 PKD
ROOT
HETATM    1  C   UNL     1     -13.292  13.123  72.129  1.00  0.00    -0.524 C  
HETATM    2  N   UNL     1     -12.317  12.957  71.045  1.00  0.00    -0.312 NA 
HETATM    3  N   UNL     1     -12.360  11.741  70.321  1.00  0.00    -0.273 N  
HETATM    4  C   UNL     1     -12.295  15.408  70.375  1.00  0.00    -0.443 C  
HETATM    5  C   UNL     1     -12.016  11.988  68.988  1.00  0.00    -0.264 C  
HETATM    6  O   UNL     1     -11.811  11.217  68.065  1.00  0.00    -0.582 OA 
HETATM    7  C   UNL     1     -12.132  13.955  70.079  1.00  0.00    -0.345 C  
HETATM    8  C   UNL     1     -11.884  13.454  68.859  1.00  0.00    -0.373 C  
ENDROOT
BRANCH   3   9
HETATM    9  C   UNL     1     -12.325  10.471  70.925  1.00  0.00    -0.390 A  
HETATM   10  C   UNL     1     -11.133   8.568  71.843  1.00  0.00    -0.395 A  
HETATM   11  C   UNL     1     -12.340   7.977  72.205  1.00  0.00    -0.358 A  
HETATM   12  C   UNL     1     -11.121   9.823  71.222  1.00  0.00    -0.375 A  
HETATM   13  C   UNL     1     -13.542   8.625  71.925  1.00  0.00    -0.446 A  
HETATM   14  C   UNL     1     -13.534   9.852  71.265  1.00  0.00    -0.353 A  
ENDBRANCH   3   9
TORSDOF 1
ENDMDL
MODEL       15
REMARK 921   NORMALIZED FREE ENERGY PREDICTED BY IDOCK:   -4.96 KCAL/MOL
REMARK 922        TOTAL FREE ENERGY PREDICTED BY IDOCK:   -5.51 KCAL/MOL
REMARK 923 INTER-LIGAND FREE ENERGY PREDICTED BY IDOCK:   -5.23 KCAL/MOL
REMARK 924 INTRA-LIGAND FREE ENERGY PREDICTED BY IDOCK:   -0.28 KCAL/MOL
REMARK 927      BINDING AFFINITY PREDICTED BY RF-SCORE:    0.00 PKD
ROOT
HETATM    1  C   UNL     1     -10.840  15.699  65.288  1.00  0.00    -0.406 C  
HETATM    2  N   UNL     1     -10.770  15.205  66.668  1.00  0.00    -0.306 NA 
HETATM    3  N   UNL     1     -10.949  16.157  67.702  1.00  0.00    -0.305 N  
HETATM    4  C   UNL     1     -11.801  12.940  66.159  1.00  0.00    -0.487 C  
HETATM    5  C   UNL     1     -11.602  15.548  68.777  1.00  0.00    -0.378 C  
HETATM    6  O   UNL     1     -11.838  15.963  69.901  1.00  0.00    -0.336 OA 
HETATM    7  C   UNL     1     -11.498  14.079  67.073  1.00  0.00    -0.351 C  
HETATM    8  C   UNL     1     -11.959  14.187  68.328  1.00  0.00    -0.367 C  
ENDROOT
BRANCH   3   9
HETATM    9  C   UNL     1     -10.218  17.356  67.795  1.00  0.00    -0.345 A  
HETATM   10  C   UNL     1     -10.019  19.765  67.592  1.00  0.00    -0.535 A  
HETATM   11  C   UNL     1      -8.720  19.707  68.088  1.00  0.00    -0.359 A  
HETATM   12  C   UNL     1     -10.777  18.595  67.463  1.00  0.00    -0.447 A  
HETATM   13  C   UNL     1      -8.163  18.478  68.434  1.00  0.00    -0.351 A  
HETATM   14  C   UNL     1      -8.900  17.306  68.263  1.00  0.00    -0.258 A  
ENDBRANCH   3   9
TORSDOF 1
ENDMDL
MODEL       16
REMARK 921   NORMALIZED FREE ENERGY PREDICTED BY IDOCK:   -4.94 KCAL/MOL
REMARK 922        TOTAL FREE ENERGY PREDICTED BY IDOCK:   -5.49 KCAL/MOL
REMARK 923 INTER-LIGAND FREE ENERGY PREDICTED BY IDOCK:   -5.19 KCAL/MOL
REMARK 924 INTRA-LIGAND FREE ENERGY PREDICTED BY IDOCK:   -0.30 KCAL/MOL
REMARK 927      BINDING AFFINITY PREDICTED BY RF-SCORE:    0.00 PKD
ROOT
HETATM    1  C   UNL     1      -9.381  16.262  65.971  1.00  0.00    -0.326 C  
HETATM    2  N   UNL     1     -10.623  15.973  66.696  1.00  0.00    -0.316 NA 
HETATM    3  N   UNL     1     -11.010  14.614  66.794  1.00  0.00    -0.316 N  
HETATM    4  C   UNL     1     -10.352  17.854  68.382  1.00  0.00    -0.380 C  
HETATM    5  C   UNL     1     -11.644  14.404  68.022  1.00  0.00    -0.327 C  
HETATM    6  O   UNL     1     -12.233  13.427  68.455  1.00  0.00    -0.295 OA 
HETATM    7  C   UNL     1     -10.865  16.517  67.964  1.00  0.00    -0.337 C  
HETATM    8  C   UNL     1     -11.522  15.671  68.773  1.00  0.00    -0.382 C  
ENDROOT
BRANCH   3   9
HETATM    9  C   UNL     1     -11.125  13.753  65.687  1.00  0.00    -0.295 A  
HETATM   10  C   UNL     1     -12.158  13.074  63.600  1.00  0.00    -0.604 A  
HETATM   11  C   UNL     1     -11.235  12.041  63.470  1.00  0.00    -0.526 A  
HETATM   12  C   UNL     1     -12.094  13.943  64.696  1.00  0.00    -0.458 A  
HETATM   13  C   UNL     1     -10.257  11.857  64.445  1.00  0.00    -0.333 A  
HETATM   14  C   UNL     1     -10.220  12.692  65.561  1.00  0.00    -0.298 A  
ENDBRANCH   3   9
TORSDOF 1
ENDMDL
MODEL       17
REMARK 921   NORMALIZED FREE ENERGY PREDICTED BY IDOCK:   -4.84 KCAL/MOL
REMARK 922        TOTAL FREE ENERGY PREDICTED BY IDOCK:   -5.38 KCAL/MOL
REMARK 923 INTER-LIGAND FREE ENERGY PREDICTED BY IDOCK:   -5.10 KCAL/MOL
REMARK 924 INTRA-LIGAND FREE ENERGY PREDICTED BY IDOCK:   -0.28 KCAL/MOL
REMARK 927      BINDING AFFINITY PREDICTED BY RF-SCORE:    0.00 PKD
ROOT
HETATM    1  C   UNL     1      -9.181  12.451  66.253  1.00  0.00    -0.150 C  
HETATM    2  N   UNL     1     -10.527  12.558  65.678  1.00  0.00    -0.267 NA 
HETATM    3  N   UNL     1     -11.103  13.851  65.626  1.00  0.00    -0.295 N  
HETATM    4  C   UNL     1     -10.201  10.703  63.973  1.00  0.00    -0.334 C  
HETATM    5  C   UNL     1     -11.897  13.953  64.480  1.00  0.00    -0.426 C  
HETATM    6  O   UNL     1     -12.660  14.835  64.118  1.00  0.00    -0.784 OA 
HETATM    7  C   UNL     1     -10.839  11.966  64.448  1.00  0.00    -0.332 C  
HETATM    8  C   UNL     1     -11.693  12.702  63.721  1.00  0.00    -0.566 C  
ENDROOT
BRANCH   3   9
HETATM    9  C   UNL     1     -11.205  14.707  66.738  1.00  0.00    -0.344 A  
HETATM   10  C   UNL     1     -11.946  15.211  68.992  1.00  0.00    -0.295 A  
HETATM   11  C   UNL     1     -11.291  16.437  68.942  1.00  0.00    -0.272 A  
HETATM   12  C   UNL     1     -11.889  14.335  67.901  1.00  0.00    -0.393 A  
HETATM   13  C   UNL     1     -10.595  16.806  67.793  1.00  0.00    -0.341 A  
HETATM   14  C   UNL     1     -10.575  15.956  66.688  1.00  0.00    -0.305 A  
ENDBRANCH   3   9
TORSDOF 1
ENDMDL
MODEL       18
REMARK 921   NORMALIZED FREE ENERGY PREDICTED BY IDOCK:   -4.76 KCAL/MOL
REMARK 922        TOTAL FREE ENERGY PREDICTED BY IDOCK:   -5.30 KCAL/MOL
REMARK 923 INTER-LIGAND FREE ENERGY PREDICTED BY IDOCK:   -5.02 KCAL/MOL
REMARK 924 INTRA-LIGAND FREE ENERGY PREDICTED BY IDOCK:   -0.28 KCAL/MOL
REMARK 927      BINDING AFFINITY PREDICTED BY RF-SCORE:    0.00 PKD
ROOT
HETATM    1  C   UNL     1      -7.294  16.882  66.353  1.00  0.00    -0.267 C  
HETATM    2  N   UNL     1      -8.290  17.900  66.002  1.00  0.00    -0.523 NA 
HETATM    3  N   UNL     1      -9.578  17.766  66.576  1.00  0.00    -0.300 N  
HETATM    4  C   UNL     1      -6.624  19.811  65.837  1.00  0.00    -0.257 C  
HETATM    5  C   UNL     1     -10.109  19.037  66.815  1.00  0.00    -0.379 C  
HETATM    6  O   UNL     1     -11.223  19.377  67.178  1.00  0.00    -0.351 OA 
HETATM    7  C   UNL     1      -7.991  19.266  66.084  1.00  0.00    -0.294 C  
HETATM    8  C   UNL     1      -9.036  20.001  66.492  1.00  0.00    -0.452 C  
ENDROOT
BRANCH   3   9
HETATM    9  C   UNL     1     -10.345  16.588  66.507  1.00  0.00    -0.305 A  
HETATM   10  C   UNL     1     -11.584  14.775  67.538  1.00  0.00    -0.379 A  
HETATM   11  C   UNL     1     -11.937  14.292  66.282  1.00  0.00    -0.428 A  
HETATM   12  C   UNL     1     -10.805  15.933  67.655  1.00  0.00    -0.312 A  
HETATM   13  C   UNL     1     -11.495  14.949  65.136  1.00  0.00    -0.357 A  
HETATM   14  C   UNL     1     -10.681  16.075  65.249  1.00  0.00    -0.417 A  
ENDBRANCH   3   9
TORSDOF 1
ENDMDL
MODEL       19
REMARK 921   NORMALIZED FREE ENERGY PREDICTED BY IDOCK:   -4.72 KCAL/MOL
REMARK 922        TOTAL FREE ENERGY PREDICTED BY IDOCK:   -5.26 KCAL/MOL
REMARK 923 INTER-LIGAND FREE ENERGY PREDICTED BY IDOCK:   -4.97 KCAL/MOL
REMARK 924 INTRA-LIGAND FREE ENERGY PREDICTED BY IDOCK:   -0.29 KCAL/MOL
REMARK 927      BINDING AFFINITY PREDICTED BY RF-SCORE:    0.00 PKD
ROOT
HETATM    1  C   UNL     1     -11.948  15.648  70.231  1.00  0.00    -0.374 C  
HETATM    2  N   UNL     1     -12.419  14.285  69.957  1.00  0.00    -0.336 NA 
HETATM    3  N   UNL     1     -11.658  13.513  69.045  1.00  0.00    -0.288 N  
HETATM    4  C   UNL     1     -13.317  13.872  72.297  1.00  0.00    -0.599 C  
HETATM    5  C   UNL     1     -11.697  12.171  69.436  1.00  0.00    -0.329 C  
HETATM    6  O   UNL     1     -11.288  11.168  68.875  1.00  0.00    -0.227 OA 
HETATM    7  C   UNL     1     -12.747  13.408  70.998  1.00  0.00    -0.307 C  
HETATM    8  C   UNL     1     -12.411  12.137  70.730  1.00  0.00    -0.362 C  
ENDROOT
BRANCH   3   9
HETATM    9  C   UNL     1     -11.302  13.952  67.756  1.00  0.00    -0.308 A  
HETATM   10  C   UNL     1      -9.684  14.753  66.137  1.00  0.00    -0.338 A  
HETATM   11  C   UNL     1     -10.658  14.734  65.143  1.00  0.00    -0.439 A  
HETATM   12  C   UNL     1      -9.998  14.344  67.439  1.00  0.00    -0.242 A  
HETATM   13  C   UNL     1     -11.956  14.329  65.450  1.00  0.00    -0.383 A  
HETATM   14  C   UNL     1     -12.281  13.966  66.756  1.00  0.00    -0.438 A  
ENDBRANCH   3   9
TORSDOF 1
ENDMDL
MODEL       20
REMARK 921   NORMALIZED FREE ENERGY PREDICTED BY IDOCK:   -4.69 KCAL/MOL
REMARK 922        TOTAL FREE ENERGY PREDICTED BY IDOCK:   -5.22 KCAL/MOL
REMARK 923 INTER-LIGAND FREE ENERGY PREDICTED BY IDOCK:   -4.93 KCAL/MOL
REMARK 924 INTRA-LIGAND FREE ENERGY PREDICTED BY IDOCK:   -0.30 KCAL/MOL
REMARK 927      BINDING AFFINITY PREDICTED BY RF-SCORE:    0.00 PKD
ROOT
HETATM    1  C   UNL     1     -12.029  15.529  70.494  1.00  0.00    -0.371 C  
HETATM    2  N   UNL     1     -12.504  14.169  70.216  1.00  0.00    -0.356 NA 
HETATM    3  N   UNL     1     -11.701  13.367  69.368  1.00  0.00    -0.307 N  
HETATM    4  C   UNL     1     -13.549  13.815  72.505  1.00  0.00    -0.680 C  
HETATM    5  C   UNL     1     -11.786  12.034  69.780  1.00  0.00    -0.331 C  
HETATM    6  O   UNL     1     -11.360  11.014  69.264  1.00  0.00    -0.232 OA 
HETATM    7  C   UNL     1     -12.909  13.317  71.252  1.00  0.00    -0.312 C  
HETATM    8  C   UNL     1     -12.578  12.037  71.028  1.00  0.00    -0.370 C  
ENDROOT
BRANCH   3   9
HETATM    9  C   UNL     1     -11.261  13.775  68.095  1.00  0.00    -0.271 A  
HETATM   10  C   UNL     1     -11.671  14.478  65.810  1.00  0.00    -0.344 A  
HETATM   11  C   UNL     1     -10.306  14.662  65.613  1.00  0.00    -0.370 A  
HETATM   12  C   UNL     1     -12.153  14.054  67.054  1.00  0.00    -0.455 A  
HETATM   13  C   UNL     1      -9.414  14.401  66.651  1.00  0.00    -0.300 A  
HETATM   14  C   UNL     1      -9.887  13.934  67.876  1.00  0.00    -0.228 A  
ENDBRANCH   3   9
TORSDOF 1
ENDMDL
MODEL       21
REMARK 921   NORMALIZED FREE ENERGY PREDICTED BY IDOCK:   -4.68 KCAL/MOL
REMARK 922        TOTAL FREE ENERGY PREDICTED BY IDOCK:   -5.22 KCAL/MOL
REMARK 923 INTER-LIGAND FREE ENERGY PREDICTED BY IDOCK:   -5.04 KCAL/MOL
REMARK 924 INTRA-LIGAND FREE ENERGY PREDICTED BY IDOCK:   -0.18 KCAL/MOL
REMARK 927      BINDING AFFINITY PREDICTED BY RF-SCORE:    0.00 PKD
ROOT
HETATM    1  C   UNL     1     -11.881  11.764  69.287  1.00  0.00    -0.326 C  
HETATM    2  N   UNL     1     -12.042  12.667  70.432  1.00  0.00    -0.352 NA 
HETATM    3  N   UNL     1     -12.271  14.036  70.146  1.00  0.00    -0.341 N  
HETATM    4  C   UNL     1     -13.197  10.960  71.917  1.00  0.00    -0.508 C  
HETATM    5  C   UNL     1     -13.115  14.574  71.122  1.00  0.00    -0.359 C  
HETATM    6  O   UNL     1     -13.461  15.726  71.324  1.00  0.00    -0.555 OA 
HETATM    7  C   UNL     1     -12.917  12.359  71.482  1.00  0.00    -0.285 C  
HETATM    8  C   UNL     1     -13.531  13.444  71.978  1.00  0.00    -0.584 C  
ENDROOT
BRANCH   3   9
HETATM    9  C   UNL     1     -11.453  14.803  69.296  1.00  0.00    -0.296 A  
HETATM   10  C   UNL     1     -10.902  15.744  67.129  1.00  0.00    -0.289 A  
HETATM   11  C   UNL     1      -9.820  16.417  67.688  1.00  0.00    -0.243 A  
HETATM   12  C   UNL     1     -11.731  14.953  67.933  1.00  0.00    -0.344 A  
HETATM   13  C   UNL     1      -9.546  16.284  69.048  1.00  0.00    -0.257 A  
HETATM   14  C   UNL     1     -10.343  15.460  69.841  1.00  0.00    -0.298 A  
ENDBRANCH   3   9
TORSDOF 1
ENDMDL
MODEL       22
REMARK 921   NORMALIZED FREE ENERGY PREDICTED BY IDOCK:   -4.68 KCAL/MOL
REMARK 922        TOTAL FREE ENERGY PREDICTED BY IDOCK:   -5.21 KCAL/MOL
REMARK 923 INTER-LIGAND FREE ENERGY PREDICTED BY IDOCK:   -4.93 KCAL/MOL
REMARK 924 INTRA-LIGAND FREE ENERGY PREDICTED BY IDOCK:   -0.29 KCAL/MOL
REMARK 927      BINDING AFFINITY PREDICTED BY RF-SCORE:    0.00 PKD
ROOT
HETATM    1  C   UNL     1     -11.993  15.644  68.818  1.00  0.00    -0.229 C  
HETATM    2  N   UNL     1     -11.185  15.364  67.626  1.00  0.00    -0.324 NA 
HETATM    3  N   UNL     1     -10.028  16.158  67.431  1.00  0.00    -0.243 N  
HETATM    4  C   UNL     1     -11.624  12.861  67.628  1.00  0.00    -0.406 C  
HETATM    5  C   UNL     1      -9.034  15.381  66.829  1.00  0.00    -0.259 C  
HETATM    6  O   UNL     1      -7.944  15.696  66.379  1.00  0.00    -0.168 OA 
HETATM    7  C   UNL     1     -10.792  14.057  67.307  1.00  0.00    -0.284 C  
HETATM    8  C   UNL     1      -9.563  14.003  66.772  1.00  0.00    -0.293 C  
ENDROOT
BRANCH   3   9
HETATM    9  C   UNL     1     -10.037  17.565  67.439  1.00  0.00    -0.325 A  
HETATM   10  C   UNL     1      -9.552  19.704  68.474  1.00  0.00    -0.467 A  
HETATM   11  C   UNL     1     -10.015  20.366  67.342  1.00  0.00    -0.556 A  
HETATM   12  C   UNL     1      -9.543  18.305  68.519  1.00  0.00    -0.358 A  
HETATM   13  C   UNL     1     -10.494  19.635  66.257  1.00  0.00    -0.621 A  
HETATM   14  C   UNL     1     -10.529  18.242  66.317  1.00  0.00    -0.397 A  
ENDBRANCH   3   9
TORSDOF 1
ENDMDL
MODEL       23
REMARK 921   NORMALIZED FREE ENERGY PREDICTED BY IDOCK:   -4.62 KCAL/MOL
REMARK 922        TOTAL FREE ENERGY PREDICTED BY IDOCK:   -5.15 KCAL/MOL
REMARK 923 INTER-LIGAND FREE ENERGY PREDICTED BY IDOCK:   -5.04 KCAL/MOL
REMARK 924 INTRA-LIGAND FREE ENERGY PREDICTED BY IDOCK:   -0.11 KCAL/MOL
REMARK 927      BINDING AFFINITY PREDICTED BY RF-SCORE:    0.00 PKD
ROOT
HETATM    1  C   UNL     1     -11.901  11.638  69.365  1.00  0.00    -0.342 C  
HETATM    2  N   UNL     1     -12.099  12.530  70.513  1.00  0.00    -0.345 NA 
HETATM    3  N   UNL     1     -12.328  13.900  70.232  1.00  0.00    -0.343 N  
HETATM    4  C   UNL     1     -13.286  10.803  71.949  1.00  0.00    -0.524 C  
HETATM    5  C   UNL     1     -13.202  14.424  71.188  1.00  0.00    -0.350 C  
HETATM    6  O   UNL     1     -13.561  15.573  71.391  1.00  0.00    -0.501 OA 
HETATM    7  C   UNL     1     -13.002  12.208  71.534  1.00  0.00    -0.295 C  
HETATM    8  C   UNL     1     -13.636  13.285  72.023  1.00  0.00    -0.573 C  
ENDROOT
BRANCH   3   9
HETATM    9  C   UNL     1     -11.491  14.679  69.412  1.00  0.00    -0.296 A  
HETATM   10  C   UNL     1      -9.575  16.126  69.067  1.00  0.00    -0.251 A  
HETATM   11  C   UNL     1      -9.825  16.143  67.698  1.00  0.00    -0.236 A  
HETATM   12  C   UNL     1     -10.394  15.380  69.924  1.00  0.00    -0.298 A  
HETATM   13  C   UNL     1     -10.907  15.435  67.181  1.00  0.00    -0.321 A  
HETATM   14  C   UNL     1     -11.751  14.729  68.037  1.00  0.00    -0.360 A  
ENDBRANCH   3   9
TORSDOF 1
ENDMDL
MODEL       24
REMARK 921   NORMALIZED FREE ENERGY PREDICTED BY IDOCK:   -4.58 KCAL/MOL
REMARK 922        TOTAL FREE ENERGY PREDICTED BY IDOCK:   -5.12 KCAL/MOL
REMARK 923 INTER-LIGAND FREE ENERGY PREDICTED BY IDOCK:   -5.46 KCAL/MOL
REMARK 924 INTRA-LIGAND FREE ENERGY PREDICTED BY IDOCK:    0.34 KCAL/MOL
REMARK 927      BINDING AFFINITY PREDICTED BY RF-SCORE:    0.00 PKD
ROOT
HETATM    1  C   UNL     1     -13.613  13.233  71.848  1.00  0.00    -0.388 C  
HETATM    2  N   UNL     1     -12.441  14.096  71.665  1.00  0.00    -0.332 NA 
HETATM    3  N   UNL     1     -12.078  14.417  70.334  1.00  0.00    -0.309 N  
HETATM    4  C   UNL     1     -12.833  15.470  73.766  1.00  0.00    -0.680 C  
HETATM    5  C   UNL     1     -11.554  15.712  70.301  1.00  0.00    -0.356 C  
HETATM    6  O   UNL     1     -11.015  16.328  69.396  1.00  0.00    -0.300 OA 
HETATM    7  C   UNL     1     -12.301  15.291  72.383  1.00  0.00    -0.373 C  
HETATM    8  C   UNL     1     -11.726  16.264  71.661  1.00  0.00    -0.490 C  
ENDROOT
BRANCH   3   9
HETATM    9  C   UNL     1     -11.878  13.456  69.326  1.00  0.00    -0.334 A  
HETATM   10  C   UNL     1     -11.722  12.796  66.997  1.00  0.00    -0.440 A  
HETATM   11  C   UNL     1     -11.385  11.501  67.379  1.00  0.00    -0.367 A  
HETATM   12  C   UNL     1     -11.949  13.780  67.967  1.00  0.00    -0.390 A  
HETATM   13  C   UNL     1     -11.298  11.176  68.731  1.00  0.00    -0.342 A  
HETATM   14  C   UNL     1     -11.570  12.142  69.698  1.00  0.00    -0.361 A  
ENDBRANCH   3   9
TORSDOF 1
ENDMDL
MODEL       25
REMARK 921   NORMALIZED FREE ENERGY PREDICTED BY IDOCK:   -4.57 KCAL/MOL
REMARK 922        TOTAL FREE ENERGY PREDICTED BY IDOCK:   -5.11 KCAL/MOL
REMARK 923 INTER-LIGAND FREE ENERGY PREDICTED BY IDOCK:   -4.83 KCAL/MOL
REMARK 924 INTRA-LIGAND FREE ENERGY PREDICTED BY IDOCK:   -0.28 KCAL/MOL
REMARK 927      BINDING AFFINITY PREDICTED BY RF-SCORE:    0.00 PKD
ROOT
HETATM    1  C   UNL     1     -11.997  13.860  69.547  1.00  0.00    -0.343 C  
HETATM    2  N   UNL     1     -12.015  12.592  68.808  1.00  0.00    -0.291 NA 
HETATM    3  N   UNL     1     -11.202  12.509  67.652  1.00  0.00    -0.264 N  
HETATM    4  C   UNL     1     -12.311  11.129  70.864  1.00  0.00    -0.500 C  
HETATM    5  C   UNL     1     -10.717  11.204  67.525  1.00  0.00    -0.236 C  
HETATM    6  O   UNL     1     -10.092  10.673  66.621  1.00  0.00    -0.205 OA 
HETATM    7  C   UNL     1     -11.845  11.367  69.467  1.00  0.00    -0.357 C  
HETATM    8  C   UNL     1     -11.147  10.482  68.740  1.00  0.00    -0.315 C  
ENDROOT
BRANCH   3   9
HETATM    9  C   UNL     1     -11.240  13.445  66.601  1.00  0.00    -0.309 A  
HETATM   10  C   UNL     1     -12.331  14.497  64.708  1.00  0.00    -0.403 A  
HETATM   11  C   UNL     1     -11.273  15.392  64.586  1.00  0.00    -0.374 A  
HETATM   12  C   UNL     1     -12.327  13.536  65.726  1.00  0.00    -0.516 A  
HETATM   13  C   UNL     1     -10.194  15.316  65.464  1.00  0.00    -0.417 A  
HETATM   14  C   UNL     1     -10.166  14.330  66.449  1.00  0.00    -0.295 A  
ENDBRANCH   3   9
TORSDOF 1
ENDMDL
MODEL       26
REMARK 921   NORMALIZED FREE ENERGY PREDICTED BY IDOCK:   -4.56 KCAL/MOL
REMARK 922        TOTAL FREE ENERGY PREDICTED BY IDOCK:   -5.10 KCAL/MOL
REMARK 923 INTER-LIGAND FREE ENERGY PREDICTED BY IDOCK:   -4.80 KCAL/MOL
REMARK 924 INTRA-LIGAND FREE ENERGY PREDICTED BY IDOCK:   -0.30 KCAL/MOL
REMARK 927      BINDING AFFINITY PREDICTED BY RF-SCORE:    0.00 PKD
ROOT
HETATM    1  C   UNL     1      -9.749  10.274  64.419  1.00  0.00    -0.315 C  
HETATM    2  N   UNL     1      -9.821  10.445  65.875  1.00  0.00    -0.221 NA 
HETATM    3  N   UNL     1     -10.821  11.317  66.372  1.00  0.00    -0.270 N  
HETATM    4  C   UNL     1      -9.127   8.064  66.425  1.00  0.00    -0.226 C  
HETATM    5  C   UNL     1     -11.281  10.834  67.600  1.00  0.00    -0.299 C  
HETATM    6  O   UNL     1     -12.038  11.334  68.417  1.00  0.00    -0.598 OA 
HETATM    7  C   UNL     1      -9.836   9.339  66.735  1.00  0.00    -0.225 C  
HETATM    8  C   UNL     1     -10.623   9.527  67.805  1.00  0.00    -0.318 C  
ENDROOT
BRANCH   3   9
HETATM    9  C   UNL     1     -10.996  12.640  65.925  1.00  0.00    -0.278 A  
HETATM   10  C   UNL     1     -10.235  14.927  65.652  1.00  0.00    -0.382 A  
HETATM   11  C   UNL     1     -11.386  15.232  64.931  1.00  0.00    -0.387 A  
HETATM   12  C   UNL     1     -10.028  13.628  66.133  1.00  0.00    -0.314 A  
HETATM   13  C   UNL     1     -12.346  14.247  64.708  1.00  0.00    -0.440 A  
HETATM   14  C   UNL     1     -12.164  12.966  65.226  1.00  0.00    -0.524 A  
ENDBRANCH   3   9
TORSDOF 1
ENDMDL
MODEL       27
REMARK 921   NORMALIZED FREE ENERGY PREDICTED BY IDOCK:   -4.54 KCAL/MOL
REMARK 922        TOTAL FREE ENERGY PREDICTED BY IDOCK:   -5.07 KCAL/MOL
REMARK 923 INTER-LIGAND FREE ENERGY PREDICTED BY IDOCK:   -4.77 KCAL/MOL
REMARK 924 INTRA-LIGAND FREE ENERGY PREDICTED BY IDOCK:   -0.30 KCAL/MOL
REMARK 927      BINDING AFFINITY PREDICTED BY RF-SCORE:    0.00 PKD
ROOT
HETATM    1  C   UNL     1     -12.003  11.059  68.774  1.00  0.00    -0.225 C  
HETATM    2  N   UNL     1     -11.812  12.189  69.690  1.00  0.00    -0.322 NA 
HETATM    3  N   UNL     1     -11.942  13.490  69.144  1.00  0.00    -0.337 N  
HETATM    4  C   UNL     1     -12.806  11.019  71.715  1.00  0.00    -0.496 C  
HETATM    5  C   UNL     1     -12.491  14.339  70.109  1.00  0.00    -0.335 C  
HETATM    6  O   UNL     1     -12.655  15.549  70.102  1.00  0.00    -0.380 OA 
HETATM    7  C   UNL     1     -12.471  12.240  70.926  1.00  0.00    -0.276 C  
HETATM    8  C   UNL     1     -12.839  13.485  71.264  1.00  0.00    -0.420 C  
ENDROOT
BRANCH   3   9
HETATM    9  C   UNL     1     -11.245  13.932  68.005  1.00  0.00    -0.271 A  
HETATM   10  C   UNL     1      -9.198  14.485  66.827  1.00  0.00    -0.286 A  
HETATM   11  C   UNL     1      -9.924  14.741  65.668  1.00  0.00    -0.390 A  
HETATM   12  C   UNL     1      -9.852  14.062  67.991  1.00  0.00    -0.228 A  
HETATM   13  C   UNL     1     -11.310  14.598  65.672  1.00  0.00    -0.338 A  
HETATM   14  C   UNL     1     -11.968  14.221  66.842  1.00  0.00    -0.467 A  
ENDBRANCH   3   9
TORSDOF 1
ENDMDL
MODEL       28
REMARK 921   NORMALIZED FREE ENERGY PREDICTED BY IDOCK:   -4.53 KCAL/MOL
REMARK 922        TOTAL FREE ENERGY PREDICTED BY IDOCK:   -5.06 KCAL/MOL
REMARK 923 INTER-LIGAND FREE ENERGY PREDICTED BY IDOCK:   -4.91 KCAL/MOL
REMARK 924 INTRA-LIGAND FREE ENERGY PREDICTED BY IDOCK:   -0.15 KCAL/MOL
REMARK 927      BINDING AFFINITY PREDICTED BY RF-SCORE:    0.00 PKD
ROOT
HETATM    1  C   UNL     1     -10.351  14.919  68.081  1.00  0.00    -0.237 C  
HETATM    2  N   UNL     1     -10.648  14.334  66.769  1.00  0.00    -0.276 NA 
HETATM    3  N   UNL     1     -11.564  13.254  66.738  1.00  0.00    -0.346 N  
HETATM    4  C   UNL     1     -10.458  16.521  65.489  1.00  0.00    -0.320 C  
HETATM    5  C   UNL     1     -12.304  13.313  65.553  1.00  0.00    -0.480 C  
HETATM    6  O   UNL     1     -13.100  12.522  65.073  1.00  0.00    -0.765 OA 
HETATM    7  C   UNL     1     -10.993  15.141  65.677  1.00  0.00    -0.355 C  
HETATM    8  C   UNL     1     -11.913  14.571  64.884  1.00  0.00    -0.425 C  
ENDROOT
BRANCH   3   9
HETATM    9  C   UNL     1     -11.440  12.102  67.536  1.00  0.00    -0.340 A  
HETATM   10  C   UNL     1     -10.558   9.886  67.978  1.00  0.00    -0.288 A  
HETATM   11  C   UNL     1     -11.178   9.879  69.223  1.00  0.00    -0.174 A  
HETATM   12  C   UNL     1     -10.670  11.003  67.141  1.00  0.00    -0.313 A  
HETATM   13  C   UNL     1     -11.933  10.977  69.630  1.00  0.00    -0.424 A  
HETATM   14  C   UNL     1     -12.085  12.071  68.779  1.00  0.00    -0.166 A  
ENDBRANCH   3   9
TORSDOF 1
ENDMDL
MODEL       29
REMARK 921   NORMALIZED FREE ENERGY PREDICTED BY IDOCK:   -4.53 KCAL/MOL
REMARK 922        TOTAL FREE ENERGY PREDICTED BY IDOCK:   -5.05 KCAL/MOL
REMARK 923 INTER-LIGAND FREE ENERGY PREDICTED BY IDOCK:   -4.81 KCAL/MOL
REMARK 924 INTRA-LIGAND FREE ENERGY PREDICTED BY IDOCK:   -0.24 KCAL/MOL
REMARK 927      BINDING AFFINITY PREDICTED BY RF-SCORE:    0.00 PKD
ROOT
HETATM    1  C   UNL     1      -9.556   9.316  70.635  1.00  0.00    -0.273 C  
HETATM    2  N   UNL     1     -11.020   9.224  70.646  1.00  0.00    -0.254 NA 
HETATM    3  N   UNL     1     -11.626   8.753  71.836  1.00  0.00    -0.338 N  
HETATM    4  C   UNL     1     -11.392  11.252  69.162  1.00  0.00    -0.349 C  
HETATM    5  C   UNL     1     -12.853   9.400  72.013  1.00  0.00    -0.414 C  
HETATM    6  O   UNL     1     -13.742   9.207  72.827  1.00  0.00    -0.434 OA 
HETATM    7  C   UNL     1     -11.817  10.298  70.227  1.00  0.00    -0.288 C  
HETATM    8  C   UNL     1     -12.943  10.417  70.946  1.00  0.00    -0.475 C  
ENDROOT
BRANCH   3   9
HETATM    9  C   UNL     1     -11.266   7.551  72.473  1.00  0.00    -0.331 A  
HETATM   10  C   UNL     1     -10.091   6.307  74.193  1.00  0.00    -0.327 A  
HETATM   11  C   UNL     1     -10.663   5.123  73.737  1.00  0.00    -0.352 A  
HETATM   12  C   UNL     1     -10.406   7.524  73.576  1.00  0.00    -0.373 A  
HETATM   13  C   UNL     1     -11.533   5.145  72.649  1.00  0.00    -0.221 A  
HETATM   14  C   UNL     1     -11.811   6.350  72.004  1.00  0.00    -0.382 A  
ENDBRANCH   3   9
TORSDOF 1
ENDMDL
MODEL       30
REMARK 921   NORMALIZED FREE ENERGY PREDICTED BY IDOCK:   -4.52 KCAL/MOL
REMARK 922        TOTAL FREE ENERGY PREDICTED BY IDOCK:   -5.05 KCAL/MOL
REMARK 923 INTER-LIGAND FREE ENERGY PREDICTED BY IDOCK:   -4.76 KCAL/MOL
REMARK 924 INTRA-LIGAND FREE ENERGY PREDICTED BY IDOCK:   -0.29 KCAL/MOL
REMARK 927      BINDING AFFINITY PREDICTED BY RF-SCORE:    0.00 PKD
ROOT
HETATM    1  C   UNL     1      -7.784  16.419  68.958  1.00  0.00    -0.235 C  
HETATM    2  N   UNL     1      -8.244  17.486  68.063  1.00  0.00    -0.232 NA 
HETATM    3  N   UNL     1      -9.621  17.498  67.729  1.00  0.00    -0.264 N  
HETATM    4  C   UNL     1      -6.628  19.240  68.939  1.00  0.00    -0.331 C  
HETATM    5  C   UNL     1     -10.046  18.821  67.583  1.00  0.00    -0.367 C  
HETATM    6  O   UNL     1     -11.107  19.275  67.185  1.00  0.00    -0.425 OA 
HETATM    7  C   UNL     1      -7.912  18.826  68.301  1.00  0.00    -0.318 C  
HETATM    8  C   UNL     1      -8.903  19.670  67.977  1.00  0.00    -0.371 C  
ENDROOT
BRANCH   3   9
HETATM    9  C   UNL     1     -10.309  16.384  67.213  1.00  0.00    -0.287 A  
HETATM   10  C   UNL     1     -11.891  14.558  67.424  1.00  0.00    -0.416 A  
HETATM   11  C   UNL     1     -11.701  14.228  66.086  1.00  0.00    -0.397 A  
HETATM   12  C   UNL     1     -11.213  15.646  67.985  1.00  0.00    -0.339 A  
HETATM   13  C   UNL     1     -10.813  14.968  65.308  1.00  0.00    -0.399 A  
HETATM   14  C   UNL     1     -10.102  16.023  65.876  1.00  0.00    -0.378 A  
ENDBRANCH   3   9
TORSDOF 1
ENDMDL
MODEL       31
REMARK 921   NORMALIZED FREE ENERGY PREDICTED BY IDOCK:   -4.52 KCAL/MOL
REMARK 922        TOTAL FREE ENERGY PREDICTED BY IDOCK:   -5.05 KCAL/MOL
REMARK 923 INTER-LIGAND FREE ENERGY PREDICTED BY IDOCK:   -5.06 KCAL/MOL
REMARK 924 INTRA-LIGAND FREE ENERGY PREDICTED BY IDOCK:    0.02 KCAL/MOL
REMARK 927      BINDING AFFINITY PREDICTED BY RF-SCORE:    0.00 PKD
ROOT
HETATM    1  C   UNL     1      -9.921  12.479  67.368  1.00  0.00    -0.207 C  
HETATM    2  N   UNL     1     -10.719  13.070  66.288  1.00  0.00    -0.274 NA 
HETATM    3  N   UNL     1     -11.168  12.197  65.267  1.00  0.00    -0.324 N  
HETATM    4  C   UNL     1     -11.862  14.797  67.760  1.00  0.00    -0.322 C  
HETATM    5  C   UNL     1     -12.420  12.625  64.816  1.00  0.00    -0.484 C  
HETATM    6  O   UNL     1     -13.100  12.242  63.877  1.00  0.00    -0.772 OA 
HETATM    7  C   UNL     1     -11.810  13.904  66.565  1.00  0.00    -0.414 C  
HETATM    8  C   UNL     1     -12.819  13.741  65.697  1.00  0.00    -0.456 C  
ENDROOT
BRANCH   3   9
HETATM    9  C   UNL     1     -10.320  11.334  64.548  1.00  0.00    -0.322 A  
HETATM   10  C   UNL     1      -8.947  10.794  62.623  1.00  0.00    -0.326 A  
HETATM   11  C   UNL     1      -8.571   9.593  63.219  1.00  0.00    -0.210 A  
HETATM   12  C   UNL     1      -9.805  11.674  63.293  1.00  0.00    -0.428 A  
HETATM   13  C   UNL     1      -9.069   9.256  64.476  1.00  0.00    -0.145 A  
HETATM   14  C   UNL     1      -9.960  10.110  65.124  1.00  0.00    -0.379 A  
ENDBRANCH   3   9
TORSDOF 1
ENDMDL
MODEL       32
REMARK 921   NORMALIZED FREE ENERGY PREDICTED BY IDOCK:   -4.52 KCAL/MOL
REMARK 922        TOTAL FREE ENERGY PREDICTED BY IDOCK:   -5.05 KCAL/MOL
REMARK 923 INTER-LIGAND FREE ENERGY PREDICTED BY IDOCK:   -4.75 KCAL/MOL
REMARK 924 INTRA-LIGAND FREE ENERGY PREDICTED BY IDOCK:   -0.30 KCAL/MOL
REMARK 927      BINDING AFFINITY PREDICTED BY RF-SCORE:    0.00 PKD
ROOT
HETATM    1  C   UNL     1      -8.788  12.633  66.757  1.00  0.00    -0.168 C  
HETATM    2  N   UNL     1     -10.190  12.603  66.325  1.00  0.00    -0.246 NA 
HETATM    3  N   UNL     1     -10.753  13.825  65.882  1.00  0.00    -0.282 N  
HETATM    4  C   UNL     1     -10.088  10.256  65.359  1.00  0.00    -0.354 C  
HETATM    5  C   UNL     1     -11.674  13.563  64.864  1.00  0.00    -0.357 C  
HETATM    6  O   UNL     1     -12.463  14.302  64.297  1.00  0.00    -0.657 OA 
HETATM    7  C   UNL     1     -10.650  11.636  65.422  1.00  0.00    -0.280 C  
HETATM    8  C   UNL     1     -11.575  12.117  64.577  1.00  0.00    -0.403 C  
ENDROOT
BRANCH   3   9
HETATM    9  C   UNL     1     -10.714  15.019  66.626  1.00  0.00    -0.312 A  
HETATM   10  C   UNL     1     -10.102  17.349  66.906  1.00  0.00    -0.314 A  
HETATM   11  C   UNL     1     -10.752  17.380  68.137  1.00  0.00    -0.343 A  
HETATM   12  C   UNL     1     -10.098  16.177  66.140  1.00  0.00    -0.356 A  
HETATM   13  C   UNL     1     -11.380  16.233  68.619  1.00  0.00    -0.333 A  
HETATM   14  C   UNL     1     -11.337  15.052  67.879  1.00  0.00    -0.344 A  
ENDBRANCH   3   9
TORSDOF 1
ENDMDL
MODEL       33
REMARK 921   NORMALIZED FREE ENERGY PREDICTED BY IDOCK:   -4.50 KCAL/MOL
REMARK 922        TOTAL FREE ENERGY PREDICTED BY IDOCK:   -5.03 KCAL/MOL
REMARK 923 INTER-LIGAND FREE ENERGY PREDICTED BY IDOCK:   -5.12 KCAL/MOL
REMARK 924 INTRA-LIGAND FREE ENERGY PREDICTED BY IDOCK:    0.09 KCAL/MOL
REMARK 927      BINDING AFFINITY PREDICTED BY RF-SCORE:    0.00 PKD
ROOT
HETATM    1  C   UNL     1     -10.720  11.023  66.116  1.00  0.00    -0.194 C  
HETATM    2  N   UNL     1     -11.680  11.921  66.766  1.00  0.00    -0.590 NA 
HETATM    3  N   UNL     1     -11.458  12.222  68.132  1.00  0.00    -0.293 N  
HETATM    4  C   UNL     1     -12.117  13.332  64.699  1.00  0.00    -0.458 C  
HETATM    5  C   UNL     1     -11.869  13.534  68.386  1.00  0.00    -0.373 C  
HETATM    6  O   UNL     1     -11.968  14.146  69.437  1.00  0.00    -0.300 OA 
HETATM    7  C   UNL     1     -12.049  13.137  66.176  1.00  0.00    -0.417 C  
HETATM    8  C   UNL     1     -12.241  14.112  67.078  1.00  0.00    -0.374 C  
ENDROOT
BRANCH   3   9
HETATM    9  C   UNL     1     -11.271  11.245  69.127  1.00  0.00    -0.273 A  
HETATM   10  C   UNL     1      -9.912   9.614  70.299  1.00  0.00    -0.326 A  
HETATM   11  C   UNL     1     -10.955   9.370  71.187  1.00  0.00    -0.430 A  
HETATM   12  C   UNL     1     -10.059  10.564  69.281  1.00  0.00    -0.244 A  
HETATM   13  C   UNL     1     -12.160  10.057  71.048  1.00  0.00    -0.469 A  
HETATM   14  C   UNL     1     -12.325  10.969  70.006  1.00  0.00    -0.377 A  
ENDBRANCH   3   9
TORSDOF 1
ENDMDL
MODEL       34
REMARK 921   NORMALIZED FREE ENERGY PREDICTED BY IDOCK:   -4.50 KCAL/MOL
REMARK 922        TOTAL FREE ENERGY PREDICTED BY IDOCK:   -5.02 KCAL/MOL
REMARK 923 INTER-LIGAND FREE ENERGY PREDICTED BY IDOCK:   -4.74 KCAL/MOL
REMARK 924 INTRA-LIGAND FREE ENERGY PREDICTED BY IDOCK:   -0.28 KCAL/MOL
REMARK 927      BINDING AFFINITY PREDICTED BY RF-SCORE:    0.00 PKD
ROOT
HETATM    1  C   UNL     1     -12.248  13.362  69.623  1.00  0.00    -0.221 C  
HETATM    2  N   UNL     1     -11.238  14.362  69.257  1.00  0.00    -0.265 NA 
HETATM    3  N   UNL     1     -11.240  14.817  67.916  1.00  0.00    -0.293 N  
HETATM    4  C   UNL     1     -11.234  15.527  71.515  1.00  0.00    -0.399 C  
HETATM    5  C   UNL     1     -10.859  16.162  67.888  1.00  0.00    -0.332 C  
HETATM    6  O   UNL     1     -10.613  16.899  66.946  1.00  0.00    -0.297 OA 
HETATM    7  C   UNL     1     -11.039  15.509  70.036  1.00  0.00    -0.315 C  
HETATM    8  C   UNL     1     -10.746  16.591  69.298  1.00  0.00    -0.331 C  
ENDROOT
BRANCH   3   9
HETATM    9  C   UNL     1     -11.203  13.961  66.800  1.00  0.00    -0.318 A  
HETATM   10  C   UNL     1     -10.075  12.372  65.356  1.00  0.00    -0.289 A  
HETATM   11  C   UNL     1     -11.239  12.213  64.609  1.00  0.00    -0.374 A  
HETATM   12  C   UNL     1     -10.060  13.229  66.463  1.00  0.00    -0.275 A  
HETATM   13  C   UNL     1     -12.385  12.928  64.949  1.00  0.00    -0.532 A  
HETATM   14  C   UNL     1     -12.358  13.817  66.023  1.00  0.00    -0.499 A  
ENDBRANCH   3   9
TORSDOF 1
ENDMDL
MODEL       35
REMARK 921   NORMALIZED FREE ENERGY PREDICTED BY IDOCK:   -4.47 KCAL/MOL
REMARK 922        TOTAL FREE ENERGY PREDICTED BY IDOCK:   -4.99 KCAL/MOL
REMARK 923 INTER-LIGAND FREE ENERGY PREDICTED BY IDOCK:   -4.72 KCAL/MOL
REMARK 924 INTRA-LIGAND FREE ENERGY PREDICTED BY IDOCK:   -0.27 KCAL/MOL
REMARK 927      BINDING AFFINITY PREDICTED BY RF-SCORE:    0.00 PKD
ROOT
HETATM    1  C   UNL     1     -12.129  15.028  64.337  1.00  0.00    -0.359 C  
HETATM    2  N   UNL     1     -11.349  13.996  65.028  1.00  0.00    -0.328 NA 
HETATM    3  N   UNL     1     -11.073  14.208  66.401  1.00  0.00    -0.315 N  
HETATM    4  C   UNL     1     -12.308  12.052  63.702  1.00  0.00    -0.648 C  
HETATM    5  C   UNL     1     -11.060  12.976  67.061  1.00  0.00    -0.281 C  
HETATM    6  O   UNL     1     -10.746  12.692  68.206  1.00  0.00    -0.215 OA 
HETATM    7  C   UNL     1     -11.688  12.640  64.925  1.00  0.00    -0.353 C  
HETATM    8  C   UNL     1     -11.480  11.967  66.067  1.00  0.00    -0.399 C  
ENDROOT
BRANCH   3   9
HETATM    9  C   UNL     1     -10.492  15.385  66.908  1.00  0.00    -0.295 A  
HETATM   10  C   UNL     1     -10.484  17.302  68.393  1.00  0.00    -0.381 A  
HETATM   11  C   UNL     1      -9.227  17.671  67.923  1.00  0.00    -0.267 A  
HETATM   12  C   UNL     1     -11.109  16.150  67.903  1.00  0.00    -0.293 A  
HETATM   13  C   UNL     1      -8.600  16.905  66.942  1.00  0.00    -0.241 A  
HETATM   14  C   UNL     1      -9.242  15.783  66.419  1.00  0.00    -0.347 A  
ENDBRANCH   3   9
TORSDOF 1
ENDMDL
MODEL       36
REMARK 921   NORMALIZED FREE ENERGY PREDICTED BY IDOCK:   -4.46 KCAL/MOL
REMARK 922        TOTAL FREE ENERGY PREDICTED BY IDOCK:   -4.99 KCAL/MOL
REMARK 923 INTER-LIGAND FREE ENERGY PREDICTED BY IDOCK:   -4.79 KCAL/MOL
REMARK 924 INTRA-LIGAND FREE ENERGY PREDICTED BY IDOCK:   -0.20 KCAL/MOL
REMARK 927      BINDING AFFINITY PREDICTED BY RF-SCORE:    0.00 PKD
ROOT
HETATM    1  C   UNL     1     -10.604  18.988  65.943  1.00  0.00    -0.393 C  
HETATM    2  N   UNL     1      -9.744  18.224  66.853  1.00  0.00    -0.301 NA 
HETATM    3  N   UNL     1      -9.459  16.883  66.496  1.00  0.00    -0.263 N  
HETATM    4  C   UNL     1      -8.313  20.207  67.542  1.00  0.00    -0.383 C  
HETATM    5  C   UNL     1      -8.163  16.563  66.913  1.00  0.00    -0.215 C  
HETATM    6  O   UNL     1      -7.572  15.495  66.917  1.00  0.00    -0.209 OA 
HETATM    7  C   UNL     1      -8.529  18.748  67.314  1.00  0.00    -0.270 C  
HETATM    8  C   UNL     1      -7.575  17.813  67.436  1.00  0.00    -0.213 C  
ENDROOT
BRANCH   3   9
HETATM    9  C   UNL     1     -10.446  15.932  66.179  1.00  0.00    -0.326 A  
HETATM   10  C   UNL     1     -11.810  14.707  64.591  1.00  0.00    -0.459 A  
HETATM   11  C   UNL     1     -12.363  13.963  65.628  1.00  0.00    -0.511 A  
HETATM   12  C   UNL     1     -10.837  15.678  64.861  1.00  0.00    -0.438 A  
HETATM   13  C   UNL     1     -11.966  14.201  66.942  1.00  0.00    -0.479 A  
HETATM   14  C   UNL     1     -11.033  15.199  67.218  1.00  0.00    -0.327 A  
ENDBRANCH   3   9
TORSDOF 1
ENDMDL
MODEL       37
REMARK 921   NORMALIZED FREE ENERGY PREDICTED BY IDOCK:   -4.41 KCAL/MOL
REMARK 922        TOTAL FREE ENERGY PREDICTED BY IDOCK:   -4.93 KCAL/MOL
REMARK 923 INTER-LIGAND FREE ENERGY PREDICTED BY IDOCK:   -4.63 KCAL/MOL
REMARK 924 INTRA-LIGAND FREE ENERGY PREDICTED BY IDOCK:   -0.31 KCAL/MOL
REMARK 927      BINDING AFFINITY PREDICTED BY RF-SCORE:    0.00 PKD
ROOT
HETATM    1  C   UNL     1     -13.224   9.367  72.253  1.00  0.00    -0.446 C  
HETATM    2  N   UNL     1     -11.848   9.510  71.764  1.00  0.00    -0.385 NA 
HETATM    3  N   UNL     1     -11.144   8.318  71.464  1.00  0.00    -0.248 N  
HETATM    4  C   UNL     1     -12.272  11.672  70.500  1.00  0.00    -0.451 C  
HETATM    5  C   UNL     1     -10.288   8.550  70.383  1.00  0.00    -0.202 C  
HETATM    6  O   UNL     1      -9.426   7.844  69.888  1.00  0.00    -0.160 OA 
HETATM    7  C   UNL     1     -11.537  10.394  70.723  1.00  0.00    -0.358 C  
HETATM    8  C   UNL     1     -10.579   9.920  69.911  1.00  0.00    -0.312 C  
ENDROOT
BRANCH   3   9
HETATM    9  C   UNL     1     -11.013   7.242  72.361  1.00  0.00    -0.267 A  
HETATM   10  C   UNL     1     -11.374   4.930  73.002  1.00  0.00    -0.354 A  
HETATM   11  C   UNL     1     -10.635   5.129  74.164  1.00  0.00    -0.322 A  
HETATM   12  C   UNL     1     -11.548   5.978  72.089  1.00  0.00    -0.348 A  
HETATM   13  C   UNL     1     -10.086   6.381  74.432  1.00  0.00    -0.367 A  
HETATM   14  C   UNL     1     -10.297   7.438  73.548  1.00  0.00    -0.405 A  
ENDBRANCH   3   9
TORSDOF 1
ENDMDL
MODEL       38
REMARK 921   NORMALIZED FREE ENERGY PREDICTED BY IDOCK:   -4.40 KCAL/MOL
REMARK 922        TOTAL FREE ENERGY PREDICTED BY IDOCK:   -4.92 KCAL/MOL
REMARK 923 INTER-LIGAND FREE ENERGY PREDICTED BY IDOCK:   -4.63 KCAL/MOL
REMARK 924 INTRA-LIGAND FREE ENERGY PREDICTED BY IDOCK:   -0.29 KCAL/MOL
REMARK 927      BINDING AFFINITY PREDICTED BY RF-SCORE:    0.00 PKD
ROOT
HETATM    1  C   UNL     1     -12.656  11.572  70.336  1.00  0.00    -0.157 C  
HETATM    2  N   UNL     1     -12.105  12.931  70.371  1.00  0.00    -0.353 NA 
HETATM    3  N   UNL     1     -11.860  13.559  69.125  1.00  0.00    -0.322 N  
HETATM    4  C   UNL     1     -13.332  13.626  72.484  1.00  0.00    -0.638 C  
HETATM    5  C   UNL     1     -12.096  14.931  69.249  1.00  0.00    -0.251 C  
HETATM    6  O   UNL     1     -11.891  15.846  68.467  1.00  0.00    -0.366 OA 
HETATM    7  C   UNL     1     -12.675  13.924  71.178  1.00  0.00    -0.367 C  
HETATM    8  C   UNL     1     -12.643  15.137  70.606  1.00  0.00    -0.450 C  
ENDROOT
BRANCH   3   9
HETATM    9  C   UNL     1     -11.102  12.977  68.093  1.00  0.00    -0.256 A  
HETATM   10  C   UNL     1      -9.015  12.157  67.168  1.00  0.00    -0.189 A  
HETATM   11  C   UNL     1      -9.680  11.734  66.021  1.00  0.00    -0.254 A  
HETATM   12  C   UNL     1      -9.725  12.759  68.213  1.00  0.00    -0.216 A  
HETATM   13  C   UNL     1     -11.054  11.934  65.902  1.00  0.00    -0.365 A  
HETATM   14  C   UNL     1     -11.755  12.576  66.921  1.00  0.00    -0.447 A  
ENDBRANCH   3   9
TORSDOF 1
ENDMDL
MODEL       39
REMARK 921   NORMALIZED FREE ENERGY PREDICTED BY IDOCK:   -4.39 KCAL/MOL
REMARK 922        TOTAL FREE ENERGY PREDICTED BY IDOCK:   -4.91 KCAL/MOL
REMARK 923 INTER-LIGAND FREE ENERGY PREDICTED BY IDOCK:   -4.72 KCAL/MOL
REMARK 924 INTRA-LIGAND FREE ENERGY PREDICTED BY IDOCK:   -0.20 KCAL/MOL
REMARK 927      BINDING AFFINITY PREDICTED BY RF-SCORE:    0.00 PKD
ROOT
HETATM    1  C   UNL     1      -9.245   9.346  70.477  1.00  0.00    -0.259 C  
HETATM    2  N   UNL     1     -10.430   9.473  71.334  1.00  0.00    -0.276 NA 
HETATM    3  N   UNL     1     -11.635   9.882  70.710  1.00  0.00    -0.321 N  
HETATM    4  C   UNL     1      -9.808   7.553  72.878  1.00  0.00    -0.272 C  
HETATM    5  C   UNL     1     -12.713   9.255  71.341  1.00  0.00    -0.330 C  
HETATM    6  O   UNL     1     -13.915   9.417  71.206  1.00  0.00    -0.272 OA 
HETATM    7  C   UNL     1     -10.801   8.448  72.214  1.00  0.00    -0.352 C  
HETATM    8  C   UNL     1     -12.131   8.310  72.317  1.00  0.00    -0.439 C  
ENDROOT
BRANCH   3   9
HETATM    9  C   UNL     1     -11.747  11.031  69.906  1.00  0.00    -0.346 A  
HETATM   10  C   UNL     1     -12.011  13.425  69.616  1.00  0.00    -0.386 A  
HETATM   11  C   UNL     1     -11.878  13.280  68.238  1.00  0.00    -0.389 A  
HETATM   12  C   UNL     1     -11.926  12.306  70.453  1.00  0.00    -0.349 A  
HETATM   13  C   UNL     1     -11.683  12.015  67.689  1.00  0.00    -0.365 A  
HETATM   14  C   UNL     1     -11.645  10.894  68.517  1.00  0.00    -0.360 A  
ENDBRANCH   3   9
TORSDOF 1
ENDMDL
MODEL       40
REMARK 921   NORMALIZED FREE ENERGY PREDICTED BY IDOCK:   -4.38 KCAL/MOL
REMARK 922        TOTAL FREE ENERGY PREDICTED BY IDOCK:   -4.90 KCAL/MOL
REMARK 923 INTER-LIGAND FREE ENERGY PREDICTED BY IDOCK:   -4.59 KCAL/MOL
REMARK 924 INTRA-LIGAND FREE ENERGY PREDICTED BY IDOCK:   -0.31 KCAL/MOL
REMARK 927      BINDING AFFINITY PREDICTED BY RF-SCORE:    0.00 PKD
ROOT
HETATM    1  C   UNL     1     -10.598  17.790  65.962  1.00  0.00    -0.229 C  
HETATM    2  N   UNL     1     -10.485  16.974  67.176  1.00  0.00    -0.313 NA 
HETATM    3  N   UNL     1     -10.118  15.616  67.006  1.00  0.00    -0.248 N  
HETATM    4  C   UNL     1      -9.632  18.860  68.648  1.00  0.00    -0.443 C  
HETATM    5  C   UNL     1      -9.339  15.213  68.095  1.00  0.00    -0.192 C  
HETATM    6  O   UNL     1      -8.923  14.109  68.408  1.00  0.00    -0.183 OA 
HETATM    7  C   UNL     1      -9.751  17.418  68.283  1.00  0.00    -0.299 C  
HETATM    8  C   UNL     1      -9.106  16.423  68.909  1.00  0.00    -0.256 C  
ENDROOT
BRANCH   3   9
HETATM    9  C   UNL     1     -10.778  14.731  66.134  1.00  0.00    -0.314 A  
HETATM   10  C   UNL     1     -10.851  13.331  64.155  1.00  0.00    -0.369 A  
HETATM   11  C   UNL     1     -12.133  12.908  64.492  1.00  0.00    -0.473 A  
HETATM   12  C   UNL     1     -10.164  14.226  64.983  1.00  0.00    -0.402 A  
HETATM   13  C   UNL     1     -12.744  13.395  65.646  1.00  0.00    -0.432 A  
HETATM   14  C   UNL     1     -12.080  14.323  66.447  1.00  0.00    -0.442 A  
ENDBRANCH   3   9
TORSDOF 1
ENDMDL
MODEL       41
REMARK 921   NORMALIZED FREE ENERGY PREDICTED BY IDOCK:   -4.38 KCAL/MOL
REMARK 922        TOTAL FREE ENERGY PREDICTED BY IDOCK:   -4.90 KCAL/MOL
REMARK 923 INTER-LIGAND FREE ENERGY PREDICTED BY IDOCK:   -4.66 KCAL/MOL
REMARK 924 INTRA-LIGAND FREE ENERGY PREDICTED BY IDOCK:   -0.24 KCAL/MOL
REMARK 927      BINDING AFFINITY PREDICTED BY RF-SCORE:    0.00 PKD
ROOT
HETATM    1  C   UNL     1     -10.252   9.460  70.903  1.00  0.00    -0.303 C  
HETATM    2  N   UNL     1     -11.649   9.055  70.710  1.00  0.00    -0.278 NA 
HETATM    3  N   UNL     1     -12.005   7.749  71.128  1.00  0.00    -0.299 N  
HETATM    4  C   UNL     1     -12.622  11.365  71.125  1.00  0.00    -0.490 C  
HETATM    5  C   UNL     1     -13.319   7.762  71.604  1.00  0.00    -0.342 C  
HETATM    6  O   UNL     1     -14.051   6.845  71.941  1.00  0.00    -0.285 OA 
HETATM    7  C   UNL     1     -12.706   9.875  71.125  1.00  0.00    -0.366 C  
HETATM    8  C   UNL     1     -13.747   9.176  71.601  1.00  0.00    -0.433 C  
ENDROOT
BRANCH   3   9
HETATM    9  C   UNL     1     -11.319   6.587  70.729  1.00  0.00    -0.342 A  
HETATM   10  C   UNL     1     -10.394   5.122  69.032  1.00  0.00    -0.205 A  
HETATM   11  C   UNL     1      -9.871   4.294  70.020  1.00  0.00    -0.275 A  
HETATM   12  C   UNL     1     -11.101   6.278  69.382  1.00  0.00    -0.477 A  
HETATM   13  C   UNL     1     -10.071   4.605  71.364  1.00  0.00    -0.248 A  
HETATM   14  C   UNL     1     -10.814   5.731  71.715  1.00  0.00    -0.311 A  
ENDBRANCH   3   9
TORSDOF 1
ENDMDL
MODEL       42
REMARK 921   NORMALIZED FREE ENERGY PREDICTED BY IDOCK:   -4.37 KCAL/MOL
REMARK 922        TOTAL FREE ENERGY PREDICTED BY IDOCK:   -4.89 KCAL/MOL
REMARK 923 INTER-LIGAND FREE ENERGY PREDICTED BY IDOCK:   -4.59 KCAL/MOL
REMARK 924 INTRA-LIGAND FREE ENERGY PREDICTED BY IDOCK:   -0.30 KCAL/MOL
REMARK 927      BINDING AFFINITY PREDICTED BY RF-SCORE:    0.00 PKD
ROOT
HETATM    1  C   UNL     1      -9.060   7.857  73.223  1.00  0.00    -0.278 C  
HETATM    2  N   UNL     1     -10.029   6.940  72.614  1.00  0.00    -0.168 NA 
HETATM    3  N   UNL     1     -10.710   7.397  71.459  1.00  0.00    -0.222 N  
HETATM    4  C   UNL     1      -8.736   4.826  73.177  1.00  0.00    -0.109 C  
HETATM    5  C   UNL     1     -10.943   6.314  70.605  1.00  0.00    -0.309 C  
HETATM    6  O   UNL     1     -11.597   6.240  69.577  1.00  0.00    -0.423 OA 
HETATM    7  C   UNL     1      -9.693   5.607  72.340  1.00  0.00    -0.156 C  
HETATM    8  C   UNL     1     -10.252   5.155  71.207  1.00  0.00    -0.292 C  
ENDROOT
BRANCH   3   9
HETATM    9  C   UNL     1     -11.403   8.619  71.393  1.00  0.00    -0.284 A  
HETATM   10  C   UNL     1     -11.672  10.888  70.579  1.00  0.00    -0.441 A  
HETATM   11  C   UNL     1     -12.886  10.994  71.250  1.00  0.00    -0.528 A  
HETATM   12  C   UNL     1     -10.938   9.697  70.632  1.00  0.00    -0.386 A  
HETATM   13  C   UNL     1     -13.363   9.918  71.997  1.00  0.00    -0.532 A  
HETATM   14  C   UNL     1     -12.611   8.747  72.090  1.00  0.00    -0.463 A  
ENDBRANCH   3   9
TORSDOF 1
ENDMDL
MODEL       43
REMARK 921   NORMALIZED FREE ENERGY PREDICTED BY IDOCK:   -4.35 KCAL/MOL
REMARK 922        TOTAL FREE ENERGY PREDICTED BY IDOCK:   -4.87 KCAL/MOL
REMARK 923 INTER-LIGAND FREE ENERGY PREDICTED BY IDOCK:   -4.59 KCAL/MOL
REMARK 924 INTRA-LIGAND FREE ENERGY PREDICTED BY IDOCK:   -0.28 KCAL/MOL
REMARK 927      BINDING AFFINITY PREDICTED BY RF-SCORE:    0.00 PKD
ROOT
HETATM    1  C   UNL     1     -11.158   6.124  68.779  1.00  0.00    -0.319 C  
HETATM    2  N   UNL     1     -10.548   5.897  70.094  1.00  0.00    -0.266 NA 
HETATM    3  N   UNL     1     -11.362   6.128  71.230  1.00  0.00    -0.291 N  
HETATM    4  C   UNL     1      -9.080   3.966  69.341  1.00  0.00    -0.196 C  
HETATM    5  C   UNL     1     -11.014   5.220  72.235  1.00  0.00    -0.185 C  
HETATM    6  O   UNL     1     -11.373   5.150  73.400  1.00  0.00    -0.313 OA 
HETATM    7  C   UNL     1      -9.849   4.716  70.375  1.00  0.00    -0.236 C  
HETATM    8  C   UNL     1     -10.026   4.298  71.638  1.00  0.00    -0.250 C  
ENDROOT
BRANCH   3   9
HETATM    9  C   UNL     1     -12.071   7.323  71.453  1.00  0.00    -0.335 A  
HETATM   10  C   UNL     1     -12.180   9.730  71.730  1.00  0.00    -0.449 A  
HETATM   11  C   UNL     1     -13.567   9.665  71.817  1.00  0.00    -0.424 A  
HETATM   12  C   UNL     1     -11.431   8.564  71.528  1.00  0.00    -0.350 A  
HETATM   13  C   UNL     1     -14.212   8.433  71.728  1.00  0.00    -0.536 A  
HETATM   14  C   UNL     1     -13.465   7.266  71.574  1.00  0.00    -0.439 A  
ENDBRANCH   3   9
TORSDOF 1
ENDMDL
MODEL       44
REMARK 921   NORMALIZED FREE ENERGY PREDICTED BY IDOCK:   -4.34 KCAL/MOL
REMARK 922        TOTAL FREE ENERGY PREDICTED BY IDOCK:   -4.85 KCAL/MOL
REMARK 923 INTER-LIGAND FREE ENERGY PREDICTED BY IDOCK:   -4.58 KCAL/MOL
REMARK 924 INTRA-LIGAND FREE ENERGY PREDICTED BY IDOCK:   -0.28 KCAL/MOL
REMARK 927      BINDING AFFINITY PREDICTED BY RF-SCORE:    0.00 PKD
ROOT
HETATM    1  C   UNL     1      -8.878  15.271  69.084  1.00  0.00    -0.238 C  
HETATM    2  N   UNL     1      -9.384  14.766  67.803  1.00  0.00    -0.196 NA 
HETATM    3  N   UNL     1     -10.703  14.250  67.789  1.00  0.00    -0.249 N  
HETATM    4  C   UNL     1      -8.140  16.461  66.376  1.00  0.00    -0.357 C  
HETATM    5  C   UNL     1     -11.293  14.532  66.554  1.00  0.00    -0.352 C  
HETATM    6  O   UNL     1     -12.357  14.167  66.081  1.00  0.00    -0.450 OA 
HETATM    7  C   UNL     1      -9.273  15.525  66.630  1.00  0.00    -0.271 C  
HETATM    8  C   UNL     1     -10.333  15.381  65.820  1.00  0.00    -0.381 C  
ENDROOT
BRANCH   3   9
HETATM    9  C   UNL     1     -11.164  13.263  68.681  1.00  0.00    -0.274 A  
HETATM   10  C   UNL     1     -12.438  12.556  70.620  1.00  0.00    -0.323 A  
HETATM   11  C   UNL     1     -12.109  11.229  70.362  1.00  0.00    -0.474 A  
HETATM   12  C   UNL     1     -11.985  13.573  69.771  1.00  0.00    -0.405 A  
HETATM   13  C   UNL     1     -11.305  10.913  69.268  1.00  0.00    -0.345 A  
HETATM   14  C   UNL     1     -10.814  11.928  68.449  1.00  0.00    -0.263 A  
ENDBRANCH   3   9
TORSDOF 1
ENDMDL
MODEL       45
REMARK 921   NORMALIZED FREE ENERGY PREDICTED BY IDOCK:   -4.33 KCAL/MOL
REMARK 922        TOTAL FREE ENERGY PREDICTED BY IDOCK:   -4.85 KCAL/MOL
REMARK 923 INTER-LIGAND FREE ENERGY PREDICTED BY IDOCK:   -4.55 KCAL/MOL
REMARK 924 INTRA-LIGAND FREE ENERGY PREDICTED BY IDOCK:   -0.30 KCAL/MOL
REMARK 927      BINDING AFFINITY PREDICTED BY RF-SCORE:    0.00 PKD
ROOT
HETATM    1  C   UNL     1     -12.889  13.912  65.605  1.00  0.00    -0.424 C  
HETATM    2  N   UNL     1     -11.467  13.586  65.758  1.00  0.00    -0.310 NA 
HETATM    3  N   UNL     1     -11.008  13.303  67.067  1.00  0.00    -0.272 N  
HETATM    4  C   UNL     1     -11.258  12.400  63.521  1.00  0.00    -0.540 C  
HETATM    5  C   UNL     1      -9.999  12.337  67.001  1.00  0.00    -0.211 C  
HETATM    6  O   UNL     1      -9.257  11.903  67.867  1.00  0.00    -0.174 OA 
HETATM    7  C   UNL     1     -10.849  12.634  64.937  1.00  0.00    -0.298 C  
HETATM    8  C   UNL     1      -9.927  11.910  65.588  1.00  0.00    -0.269 C  
ENDROOT
BRANCH   3   9
HETATM    9  C   UNL     1     -11.221  14.151  68.170  1.00  0.00    -0.276 A  
HETATM   10  C   UNL     1     -10.949  16.262  69.333  1.00  0.00    -0.337 A  
HETATM   11  C   UNL     1     -11.760  15.806  70.367  1.00  0.00    -0.390 A  
HETATM   12  C   UNL     1     -10.694  15.446  68.224  1.00  0.00    -0.260 A  
HETATM   13  C   UNL     1     -12.300  14.522  70.312  1.00  0.00    -0.408 A  
HETATM   14  C   UNL     1     -12.009  13.691  69.231  1.00  0.00    -0.384 A  
ENDBRANCH   3   9
TORSDOF 1
ENDMDL
MODEL       46
REMARK 921   NORMALIZED FREE ENERGY PREDICTED BY IDOCK:   -4.29 KCAL/MOL
REMARK 922        TOTAL FREE ENERGY PREDICTED BY IDOCK:   -4.80 KCAL/MOL
REMARK 923 INTER-LIGAND FREE ENERGY PREDICTED BY IDOCK:   -4.55 KCAL/MOL
REMARK 924 INTRA-LIGAND FREE ENERGY PREDICTED BY IDOCK:   -0.25 KCAL/MOL
REMARK 927      BINDING AFFINITY PREDICTED BY RF-SCORE:    0.00 PKD
ROOT
HETATM    1  C   UNL     1      -9.961   5.974  72.994  1.00  0.00    -0.175 C  
HETATM    2  N   UNL     1     -10.528   5.436  71.753  1.00  0.00    -0.222 NA 
HETATM    3  N   UNL     1     -11.074   6.368  70.837  1.00  0.00    -0.281 N  
HETATM    4  C   UNL     1      -8.865   3.527  71.543  1.00  0.00    -0.138 C  
HETATM    5  C   UNL     1     -10.855   5.913  69.533  1.00  0.00    -0.372 C  
HETATM    6  O   UNL     1     -11.263   6.339  68.465  1.00  0.00    -0.352 OA 
HETATM    7  C   UNL     1      -9.815   4.521  70.966  1.00  0.00    -0.196 C  
HETATM    8  C   UNL     1     -10.015   4.704  69.652  1.00  0.00    -0.281 C  
ENDROOT
BRANCH   3   9
HETATM    9  C   UNL     1     -12.034   7.336  71.187  1.00  0.00    -0.328 A  
HETATM   10  C   UNL     1     -14.293   8.001  71.767  1.00  0.00    -0.583 A  
HETATM   11  C   UNL     1     -13.866   9.311  71.962  1.00  0.00    -0.446 A  
HETATM   12  C   UNL     1     -13.377   7.008  71.400  1.00  0.00    -0.335 A  
HETATM   13  C   UNL     1     -12.526   9.641  71.767  1.00  0.00    -0.487 A  
HETATM   14  C   UNL     1     -11.621   8.663  71.355  1.00  0.00    -0.354 A  
ENDBRANCH   3   9
TORSDOF 1
ENDMDL
MODEL       47
REMARK 921   NORMALIZED FREE ENERGY PREDICTED BY IDOCK:   -4.28 KCAL/MOL
REMARK 922        TOTAL FREE ENERGY PREDICTED BY IDOCK:   -4.79 KCAL/MOL
REMARK 923 INTER-LIGAND FREE ENERGY PREDICTED BY IDOCK:   -4.71 KCAL/MOL
REMARK 924 INTRA-LIGAND FREE ENERGY PREDICTED BY IDOCK:   -0.08 KCAL/MOL
REMARK 927      BINDING AFFINITY PREDICTED BY RF-SCORE:    0.00 PKD
ROOT
HETATM    1  C   UNL     1     -13.009  10.752  71.456  1.00  0.00    -0.456 C  
HETATM    2  N   UNL     1     -12.019   9.947  70.732  1.00  0.00    -0.307 NA 
HETATM    3  N   UNL     1     -11.055  10.647  69.966  1.00  0.00    -0.294 N  
HETATM    4  C   UNL     1     -11.883   8.113  72.485  1.00  0.00    -0.438 C  
HETATM    5  C   UNL     1      -9.846   9.946  69.998  1.00  0.00    -0.243 C  
HETATM    6  O   UNL     1      -8.807  10.126  69.383  1.00  0.00    -0.170 OA 
HETATM    7  C   UNL     1     -11.307   8.924  71.374  1.00  0.00    -0.309 C  
HETATM    8  C   UNL     1     -10.042   8.825  70.941  1.00  0.00    -0.276 C  
ENDROOT
BRANCH   3   9
HETATM    9  C   UNL     1     -11.380  11.621  69.004  1.00  0.00    -0.275 A  
HETATM   10  C   UNL     1     -11.869  13.905  68.349  1.00  0.00    -0.409 A  
HETATM   11  C   UNL     1     -11.944  13.515  67.016  1.00  0.00    -0.440 A  
HETATM   12  C   UNL     1     -11.568  12.966  69.343  1.00  0.00    -0.363 A  
HETATM   13  C   UNL     1     -11.742  12.180  66.671  1.00  0.00    -0.385 A  
HETATM   14  C   UNL     1     -11.488  11.235  67.663  1.00  0.00    -0.341 A  
ENDBRANCH   3   9
TORSDOF 1
ENDMDL
MODEL       48
REMARK 921   NORMALIZED FREE ENERGY PREDICTED BY IDOCK:   -4.23 KCAL/MOL
REMARK 922        TOTAL FREE ENERGY PREDICTED BY IDOCK:   -4.74 KCAL/MOL
REMARK 923 INTER-LIGAND FREE ENERGY PREDICTED BY IDOCK:   -4.46 KCAL/MOL
REMARK 924 INTRA-LIGAND FREE ENERGY PREDICTED BY IDOCK:   -0.28 KCAL/MOL
REMARK 927      BINDING AFFINITY PREDICTED BY RF-SCORE:    0.00 PKD
ROOT
HETATM    1  C   UNL     1      -9.349   9.955  69.607  1.00  0.00    -0.228 C  
HETATM    2  N   UNL     1     -10.791  10.176  69.762  1.00  0.00    -0.259 NA 
HETATM    3  N   UNL     1     -11.383   9.744  70.974  1.00  0.00    -0.359 N  
HETATM    4  C   UNL     1     -10.834  12.357  68.459  1.00  0.00    -0.270 C  
HETATM    5  C   UNL     1     -12.418  10.619  71.317  1.00  0.00    -0.410 C  
HETATM    6  O   UNL     1     -13.254  10.550  72.203  1.00  0.00    -0.458 OA 
HETATM    7  C   UNL     1     -11.365  11.426  69.497  1.00  0.00    -0.289 C  
HETATM    8  C   UNL     1     -12.372  11.720  70.334  1.00  0.00    -0.362 C  
ENDROOT
BRANCH   3   9
HETATM    9  C   UNL     1     -11.242   8.443  71.492  1.00  0.00    -0.267 A  
HETATM   10  C   UNL     1     -11.464   6.033  71.319  1.00  0.00    -0.251 A  
HETATM   11  C   UNL     1     -10.851   5.881  72.559  1.00  0.00    -0.289 A  
HETATM   12  C   UNL     1     -11.642   7.311  70.774  1.00  0.00    -0.334 A  
HETATM   13  C   UNL     1     -10.436   7.004  73.272  1.00  0.00    -0.365 A  
HETATM   14  C   UNL     1     -10.655   8.278  72.752  1.00  0.00    -0.321 A  
ENDBRANCH   3   9
TORSDOF 1
ENDMDL
MODEL       49
REMARK 921   NORMALIZED FREE ENERGY PREDICTED BY IDOCK:   -4.22 KCAL/MOL
REMARK 922        TOTAL FREE ENERGY PREDICTED BY IDOCK:   -4.73 KCAL/MOL
REMARK 923 INTER-LIGAND FREE ENERGY PREDICTED BY IDOCK:   -4.68 KCAL/MOL
REMARK 924 INTRA-LIGAND FREE ENERGY PREDICTED BY IDOCK:   -0.05 KCAL/MOL
REMARK 927      BINDING AFFINITY PREDICTED BY RF-SCORE:    0.00 PKD
ROOT
HETATM    1  C   UNL     1     -13.034  10.667  71.370  1.00  0.00    -0.443 C  
HETATM    2  N   UNL     1     -12.000   9.877  70.692  1.00  0.00    -0.280 NA 
HETATM    3  N   UNL     1     -11.017  10.592  69.966  1.00  0.00    -0.291 N  
HETATM    4  C   UNL     1     -11.908   8.050  72.455  1.00  0.00    -0.419 C  
HETATM    5  C   UNL     1      -9.798   9.911  70.051  1.00  0.00    -0.243 C  
HETATM    6  O   UNL     1      -8.738  10.108  69.480  1.00  0.00    -0.174 OA 
HETATM    7  C   UNL     1     -11.299   8.868  71.367  1.00  0.00    -0.309 C  
HETATM    8  C   UNL     1     -10.015   8.790  70.989  1.00  0.00    -0.297 C  
ENDROOT
BRANCH   3   9
HETATM    9  C   UNL     1     -11.317  11.558  68.988  1.00  0.00    -0.276 A  
HETATM   10  C   UNL     1     -11.731  12.227  66.694  1.00  0.00    -0.417 A  
HETATM   11  C   UNL     1     -12.000  13.527  67.113  1.00  0.00    -0.426 A  
HETATM   12  C   UNL     1     -11.409  11.237  67.630  1.00  0.00    -0.352 A  
HETATM   13  C   UNL     1     -11.925  13.849  68.467  1.00  0.00    -0.394 A  
HETATM   14  C   UNL     1     -11.559  12.876  69.395  1.00  0.00    -0.363 A  
ENDBRANCH   3   9
TORSDOF 1
ENDMDL
MODEL       50
REMARK 921   NORMALIZED FREE ENERGY PREDICTED BY IDOCK:   -4.17 KCAL/MOL
REMARK 922        TOTAL FREE ENERGY PREDICTED BY IDOCK:   -4.68 KCAL/MOL
REMARK 923 INTER-LIGAND FREE ENERGY PREDICTED BY IDOCK:   -4.38 KCAL/MOL
REMARK 924 INTRA-LIGAND FREE ENERGY PREDICTED BY IDOCK:   -0.30 KCAL/MOL
REMARK 927      BINDING AFFINITY PREDICTED BY RF-SCORE:    0.00 PKD
ROOT
HETATM    1  C   UNL     1     -13.152  10.431  71.950  1.00  0.00    -0.458 C  
HETATM    2  N   UNL     1     -11.892  10.409  71.198  1.00  0.00    -0.357 NA 
HETATM    3  N   UNL     1     -11.433   9.148  70.746  1.00  0.00    -0.275 N  
HETATM    4  C   UNL     1     -12.251  12.660  70.075  1.00  0.00    -0.267 C  
HETATM    5  C   UNL     1     -10.782   9.309  69.520  1.00  0.00    -0.222 C  
HETATM    6  O   UNL     1     -10.139   8.515  68.851  1.00  0.00    -0.192 OA 
HETATM    7  C   UNL     1     -11.671  11.287  70.128  1.00  0.00    -0.343 C  
HETATM    8  C   UNL     1     -10.966  10.724  69.135  1.00  0.00    -0.293 C  
ENDROOT
BRANCH   3   9
HETATM    9  C   UNL     1     -11.279   8.027  71.583  1.00  0.00    -0.255 A  
HETATM   10  C   UNL     1     -11.777   5.738  72.212  1.00  0.00    -0.265 A  
HETATM   11  C   UNL     1     -10.852   5.813  73.248  1.00  0.00    -0.306 A  
HETATM   12  C   UNL     1     -11.978   6.835  71.366  1.00  0.00    -0.403 A  
HETATM   13  C   UNL     1     -10.141   6.993  73.461  1.00  0.00    -0.348 A  
HETATM   14  C   UNL     1     -10.374   8.102  72.649  1.00  0.00    -0.398 A  
ENDBRANCH   3   9
TORSDOF 1
ENDMDL
MODEL       51
REMARK 921   NORMALIZED FREE ENERGY PREDICTED BY IDOCK:   -4.17 KCAL/MOL
REMARK 922        TOTAL FREE ENERGY PREDICTED BY IDOCK:   -4.68 KCAL/MOL
REMARK 923 INTER-LIGAND FREE ENERGY PREDICTED BY IDOCK:   -4.38 KCAL/MOL
REMARK 924 INTRA-LIGAND FREE ENERGY PREDICTED BY IDOCK:   -0.29 KCAL/MOL
REMARK 927      BINDING AFFINITY PREDICTED BY RF-SCORE:    0.00 PKD
ROOT
HETATM    1  C   UNL     1      -8.827  15.014  68.812  1.00  0.00    -0.192 C  
HETATM    2  N   UNL     1      -8.753  15.980  67.710  1.00  0.00    -0.167 NA 
HETATM    3  N   UNL     1      -9.906  16.122  66.900  1.00  0.00    -0.235 N  
HETATM    4  C   UNL     1      -7.248  17.619  68.937  1.00  0.00    -0.256 C  
HETATM    5  C   UNL     1     -10.011  17.451  66.480  1.00  0.00    -0.311 C  
HETATM    6  O   UNL     1     -10.771  17.974  65.681  1.00  0.00    -0.533 OA 
HETATM    7  C   UNL     1      -8.287  17.285  67.920  1.00  0.00    -0.220 C  
HETATM    8  C   UNL     1      -8.939  18.192  67.177  1.00  0.00    -0.256 C  
ENDROOT
BRANCH   3   9
HETATM    9  C   UNL     1     -10.564  15.043  66.282  1.00  0.00    -0.307 A  
HETATM   10  C   UNL     1     -10.656  13.223  64.680  1.00  0.00    -0.421 A  
HETATM   11  C   UNL     1     -11.909  12.854  65.160  1.00  0.00    -0.415 A  
HETATM   12  C   UNL     1      -9.973  14.303  65.252  1.00  0.00    -0.313 A  
HETATM   13  C   UNL     1     -12.496  13.577  66.196  1.00  0.00    -0.424 A  
HETATM   14  C   UNL     1     -11.838  14.681  66.735  1.00  0.00    -0.334 A  
ENDBRANCH   3   9
TORSDOF 1
ENDMDL
MODEL       52
REMARK 921   NORMALIZED FREE ENERGY PREDICTED BY IDOCK:   -4.17 KCAL/MOL
REMARK 922        TOTAL FREE ENERGY PREDICTED BY IDOCK:   -4.67 KCAL/MOL
REMARK 923 INTER-LIGAND FREE ENERGY PREDICTED BY IDOCK:   -4.47 KCAL/MOL
REMARK 924 INTRA-LIGAND FREE ENERGY PREDICTED BY IDOCK:   -0.20 KCAL/MOL
REMARK 927      BINDING AFFINITY PREDICTED BY RF-SCORE:    0.00 PKD
ROOT
HETATM    1  C   UNL     1     -12.410  12.192  70.798  1.00  0.00    -0.297 C  
HETATM    2  N   UNL     1     -11.464  11.749  69.767  1.00  0.00    -0.271 NA 
HETATM    3  N   UNL     1     -11.324  10.352  69.580  1.00  0.00    -0.256 N  
HETATM    4  C   UNL     1     -11.891  13.704  68.202  1.00  0.00    -0.407 C  
HETATM    5  C   UNL     1     -11.080  10.093  68.228  1.00  0.00    -0.227 C  
HETATM    6  O   UNL     1     -10.780   9.056  67.660  1.00  0.00    -0.248 OA 
HETATM    7  C   UNL     1     -11.490  12.294  68.477  1.00  0.00    -0.303 C  
HETATM    8  C   UNL     1     -11.207  11.388  67.528  1.00  0.00    -0.356 C  
ENDROOT
BRANCH   3   9
HETATM    9  C   UNL     1     -11.047   9.448  70.622  1.00  0.00    -0.289 A  
HETATM   10  C   UNL     1      -9.522   8.348  72.154  1.00  0.00    -0.360 A  
HETATM   11  C   UNL     1     -10.590   7.690  72.756  1.00  0.00    -0.381 A  
HETATM   12  C   UNL     1      -9.749   9.242  71.101  1.00  0.00    -0.327 A  
HETATM   13  C   UNL     1     -11.887   7.903  72.294  1.00  0.00    -0.404 A  
HETATM   14  C   UNL     1     -12.110   8.757  71.214  1.00  0.00    -0.344 A  
ENDBRANCH   3   9
TORSDOF 1
ENDMDL
MODEL       53
REMARK 921   NORMALIZED FREE ENERGY PREDICTED BY IDOCK:   -4.16 KCAL/MOL
REMARK 922        TOTAL FREE ENERGY PREDICTED BY IDOCK:   -4.67 KCAL/MOL
REMARK 923 INTER-LIGAND FREE ENERGY PREDICTED BY IDOCK:   -4.36 KCAL/MOL
REMARK 924 INTRA-LIGAND FREE ENERGY PREDICTED BY IDOCK:   -0.31 KCAL/MOL
REMARK 927      BINDING AFFINITY PREDICTED BY RF-SCORE:    0.00 PKD
ROOT
HETATM    1  C   UNL     1     -10.777  18.064  67.534  1.00  0.00    -0.336 C  
HETATM    2  N   UNL     1      -9.713  17.817  68.514  1.00  0.00    -0.327 NA 
HETATM    3  N   UNL     1      -9.543  16.483  68.957  1.00  0.00    -0.261 N  
HETATM    4  C   UNL     1      -8.136  19.585  67.596  1.00  0.00    -0.323 C  
HETATM    5  C   UNL     1      -8.186  16.250  69.200  1.00  0.00    -0.215 C  
HETATM    6  O   UNL     1      -7.623  15.291  69.703  1.00  0.00    -0.216 OA 
HETATM    7  C   UNL     1      -8.416  18.308  68.315  1.00  0.00    -0.295 C  
HETATM    8  C   UNL     1      -7.471  17.464  68.757  1.00  0.00    -0.258 C  
ENDROOT
BRANCH   3   9
HETATM    9  C   UNL     1     -10.587  15.691  69.471  1.00  0.00    -0.266 A  
HETATM   10  C   UNL     1     -12.063  13.769  69.378  1.00  0.00    -0.377 A  
HETATM   11  C   UNL     1     -12.616  14.124  70.605  1.00  0.00    -0.421 A  
HETATM   12  C   UNL     1     -11.036  14.538  68.819  1.00  0.00    -0.262 A  
HETATM   13  C   UNL     1     -12.162  15.263  71.267  1.00  0.00    -0.408 A  
HETATM   14  C   UNL     1     -11.172  16.057  70.690  1.00  0.00    -0.395 A  
ENDBRANCH   3   9
TORSDOF 1
ENDMDL
MODEL       54
REMARK 921   NORMALIZED FREE ENERGY PREDICTED BY IDOCK:   -4.14 KCAL/MOL
REMARK 922        TOTAL FREE ENERGY PREDICTED BY IDOCK:   -4.65 KCAL/MOL
REMARK 923 INTER-LIGAND FREE ENERGY PREDICTED BY IDOCK:   -4.68 KCAL/MOL
REMARK 924 INTRA-LIGAND FREE ENERGY PREDICTED BY IDOCK:    0.03 KCAL/MOL
REMARK 927      BINDING AFFINITY PREDICTED BY RF-SCORE:    0.00 PKD
ROOT
HETATM    1  C   UNL     1     -10.487  15.535  68.266  1.00  0.00    -0.242 C  
HETATM    2  N   UNL     1     -10.331  15.297  66.827  1.00  0.00    -0.273 NA 
HETATM    3  N   UNL     1     -11.055  14.214  66.271  1.00  0.00    -0.314 N  
HETATM    4  C   UNL     1     -10.077  17.749  66.211  1.00  0.00    -0.345 C  
HETATM    5  C   UNL     1     -11.439  14.540  64.967  1.00  0.00    -0.382 C  
HETATM    6  O   UNL     1     -11.962  13.860  64.100  1.00  0.00    -0.443 OA 
HETATM    7  C   UNL     1     -10.461  16.341  65.901  1.00  0.00    -0.345 C  
HETATM    8  C   UNL     1     -11.044  15.949  64.759  1.00  0.00    -0.397 C  
ENDROOT
BRANCH   3   9
HETATM    9  C   UNL     1     -11.010  12.902  66.778  1.00  0.00    -0.272 A  
HETATM   10  C   UNL     1     -11.698  11.189  68.350  1.00  0.00    -0.349 A  
HETATM   11  C   UNL     1     -10.927  10.248  67.675  1.00  0.00    -0.356 A  
HETATM   12  C   UNL     1     -11.758  12.511  67.893  1.00  0.00    -0.416 A  
HETATM   13  C   UNL     1     -10.191  10.628  66.554  1.00  0.00    -0.288 A  
HETATM   14  C   UNL     1     -10.212  11.955  66.125  1.00  0.00    -0.258 A  
ENDBRANCH   3   9
TORSDOF 1
ENDMDL
MODEL       55
REMARK 921   NORMALIZED FREE ENERGY PREDICTED BY IDOCK:   -4.14 KCAL/MOL
REMARK 922        TOTAL FREE ENERGY PREDICTED BY IDOCK:   -4.65 KCAL/MOL
REMARK 923 INTER-LIGAND FREE ENERGY PREDICTED BY IDOCK:   -4.38 KCAL/MOL
REMARK 924 INTRA-LIGAND FREE ENERGY PREDICTED BY IDOCK:   -0.27 KCAL/MOL
REMARK 927      BINDING AFFINITY PREDICTED BY RF-SCORE:    0.00 PKD
ROOT
HETATM    1  C   UNL     1     -13.111   6.950  71.779  1.00  0.00    -0.245 C  
HETATM    2  N   UNL     1     -11.645   6.910  71.803  1.00  0.00    -0.272 NA 
HETATM    3  N   UNL     1     -10.967   8.153  71.856  1.00  0.00    -0.257 N  
HETATM    4  C   UNL     1     -11.492   4.760  73.148  1.00  0.00    -0.348 C  
HETATM    5  C   UNL     1      -9.798   8.006  72.608  1.00  0.00    -0.279 C  
HETATM    6  O   UNL     1      -8.873   8.780  72.798  1.00  0.00    -0.382 OA 
HETATM    7  C   UNL     1     -10.957   6.077  72.695  1.00  0.00    -0.264 C  
HETATM    8  C   UNL     1      -9.827   6.633  73.155  1.00  0.00    -0.188 C  
ENDROOT
BRANCH   3   9
HETATM    9  C   UNL     1     -11.203   9.210  70.958  1.00  0.00    -0.312 A  
HETATM   10  C   UNL     1     -11.036  10.237  68.767  1.00  0.00    -0.276 A  
HETATM   11  C   UNL     1     -11.787  11.322  69.210  1.00  0.00    -0.423 A  
HETATM   12  C   UNL     1     -10.760   9.172  69.632  1.00  0.00    -0.236 A  
HETATM   13  C   UNL     1     -12.245  11.359  70.526  1.00  0.00    -0.478 A  
HETATM   14  C   UNL     1     -11.931  10.320  71.402  1.00  0.00    -0.419 A  
ENDBRANCH   3   9
TORSDOF 1
ENDMDL
MODEL       56
REMARK 921   NORMALIZED FREE ENERGY PREDICTED BY IDOCK:   -4.13 KCAL/MOL
REMARK 922        TOTAL FREE ENERGY PREDICTED BY IDOCK:   -4.64 KCAL/MOL
REMARK 923 INTER-LIGAND FREE ENERGY PREDICTED BY IDOCK:   -4.33 KCAL/MOL
REMARK 924 INTRA-LIGAND FREE ENERGY PREDICTED BY IDOCK:   -0.31 KCAL/MOL
REMARK 927      BINDING AFFINITY PREDICTED BY RF-SCORE:    0.00 PKD
ROOT
HETATM    1  C   UNL     1     -10.634  11.076  68.785  1.00  0.00    -0.202 C  
HETATM    2  N   UNL     1     -10.810  10.318  67.541  1.00  0.00    -0.295 NA 
HETATM    3  N   UNL     1     -10.385  10.940  66.342  1.00  0.00    -0.245 N  
HETATM    4  C   UNL     1     -10.388   8.044  68.592  1.00  0.00    -0.224 C  
HETATM    5  C   UNL     1      -9.893   9.966  65.468  1.00  0.00    -0.311 C  
HETATM    6  O   UNL     1      -9.546  10.048  64.301  1.00  0.00    -0.297 OA 
HETATM    7  C   UNL     1     -10.384   8.987  67.437  1.00  0.00    -0.268 C  
HETATM    8  C   UNL     1      -9.895   8.695  66.222  1.00  0.00    -0.320 C  
ENDROOT
BRANCH   3   9
HETATM    9  C   UNL     1     -10.789  12.228  65.944  1.00  0.00    -0.271 A  
HETATM   10  C   UNL     1     -10.332  14.555  65.435  1.00  0.00    -0.405 A  
HETATM   11  C   UNL     1     -11.660  14.743  65.064  1.00  0.00    -0.378 A  
HETATM   12  C   UNL     1      -9.889  13.295  65.856  1.00  0.00    -0.241 A  
HETATM   13  C   UNL     1     -12.558  13.679  65.135  1.00  0.00    -0.474 A  
HETATM   14  C   UNL     1     -12.130  12.436  65.599  1.00  0.00    -0.396 A  
ENDBRANCH   3   9
TORSDOF 1
ENDMDL
MODEL       57
REMARK 921   NORMALIZED FREE ENERGY PREDICTED BY IDOCK:   -4.12 KCAL/MOL
REMARK 922        TOTAL FREE ENERGY PREDICTED BY IDOCK:   -4.63 KCAL/MOL
REMARK 923 INTER-LIGAND FREE ENERGY PREDICTED BY IDOCK:   -4.32 KCAL/MOL
REMARK 924 INTRA-LIGAND FREE ENERGY PREDICTED BY IDOCK:   -0.31 KCAL/MOL
REMARK 927      BINDING AFFINITY PREDICTED BY RF-SCORE:    0.00 PKD
ROOT
HETATM    1  C   UNL     1     -12.946   7.004  71.576  1.00  0.00    -0.359 C  
HETATM    2  N   UNL     1     -11.479   6.985  71.613  1.00  0.00    -0.255 NA 
HETATM    3  N   UNL     1     -10.816   8.234  71.523  1.00  0.00    -0.238 N  
HETATM    4  C   UNL     1     -11.311   5.011  73.203  1.00  0.00    -0.397 C  
HETATM    5  C   UNL     1      -9.650   8.191  72.293  1.00  0.00    -0.251 C  
HETATM    6  O   UNL     1      -8.737   8.993  72.396  1.00  0.00    -0.347 OA 
HETATM    7  C   UNL     1     -10.788   6.272  72.601  1.00  0.00    -0.242 C  
HETATM    8  C   UNL     1      -9.667   6.893  72.998  1.00  0.00    -0.190 C  
ENDROOT
BRANCH   3   9
HETATM    9  C   UNL     1     -11.058   9.175  70.505  1.00  0.00    -0.260 A  
HETATM   10  C   UNL     1     -11.895  11.312  69.718  1.00  0.00    -0.437 A  
HETATM   11  C   UNL     1     -11.429  11.031  68.437  1.00  0.00    -0.378 A  
HETATM   12  C   UNL     1     -11.693  10.396  70.758  1.00  0.00    -0.464 A  
HETATM   13  C   UNL     1     -10.782   9.823  68.183  1.00  0.00    -0.280 A  
HETATM   14  C   UNL     1     -10.622   8.890  69.206  1.00  0.00    -0.219 A  
ENDBRANCH   3   9
TORSDOF 1
ENDMDL
MODEL       58
REMARK 921   NORMALIZED FREE ENERGY PREDICTED BY IDOCK:   -4.12 KCAL/MOL
REMARK 922        TOTAL FREE ENERGY PREDICTED BY IDOCK:   -4.62 KCAL/MOL
REMARK 923 INTER-LIGAND FREE ENERGY PREDICTED BY IDOCK:   -4.37 KCAL/MOL
REMARK 924 INTRA-LIGAND FREE ENERGY PREDICTED BY IDOCK:   -0.25 KCAL/MOL
REMARK 927      BINDING AFFINITY PREDICTED BY RF-SCORE:    0.00 PKD
ROOT
HETATM    1  C   UNL     1     -12.977  10.505  70.884  1.00  0.00    -0.367 C  
HETATM    2  N   UNL     1     -12.169  11.715  70.696  1.00  0.00    -0.384 NA 
HETATM    3  N   UNL     1     -11.576  11.902  69.423  1.00  0.00    -0.302 N  
HETATM    4  C   UNL     1     -13.588  13.180  72.211  1.00  0.00    -0.677 C  
HETATM    5  C   UNL     1     -11.539  13.268  69.130  1.00  0.00    -0.319 C  
HETATM    6  O   UNL     1     -11.009  13.869  68.209  1.00  0.00    -0.241 OA 
HETATM    7  C   UNL     1     -12.657  12.976  71.063  1.00  0.00    -0.299 C  
HETATM    8  C   UNL     1     -12.268  13.946  70.222  1.00  0.00    -0.428 C  
ENDROOT
BRANCH   3   9
HETATM    9  C   UNL     1     -10.782  10.933  68.782  1.00  0.00    -0.207 A  
HETATM   10  C   UNL     1      -8.915   9.386  68.731  1.00  0.00    -0.132 A  
HETATM   11  C   UNL     1      -9.301   8.948  67.468  1.00  0.00    -0.160 A  
HETATM   12  C   UNL     1      -9.664  10.362  69.399  1.00  0.00    -0.222 A  
HETATM   13  C   UNL     1     -10.423   9.502  66.855  1.00  0.00    -0.279 A  
HETATM   14  C   UNL     1     -11.143  10.508  67.498  1.00  0.00    -0.358 A  
ENDBRANCH   3   9
TORSDOF 1
ENDMDL
MODEL       59
REMARK 921   NORMALIZED FREE ENERGY PREDICTED BY IDOCK:   -4.11 KCAL/MOL
REMARK 922        TOTAL FREE ENERGY PREDICTED BY IDOCK:   -4.61 KCAL/MOL
REMARK 923 INTER-LIGAND FREE ENERGY PREDICTED BY IDOCK:   -4.38 KCAL/MOL
REMARK 924 INTRA-LIGAND FREE ENERGY PREDICTED BY IDOCK:   -0.23 KCAL/MOL
REMARK 927      BINDING AFFINITY PREDICTED BY RF-SCORE:    0.00 PKD
ROOT
HETATM    1  C   UNL     1      -8.751  10.699  69.280  1.00  0.00    -0.077 C  
HETATM    2  N   UNL     1      -9.777  10.528  68.244  1.00  0.00    -0.150 NA 
HETATM    3  N   UNL     1     -10.875  11.423  68.272  1.00  0.00    -0.196 N  
HETATM    4  C   UNL     1      -8.160   9.777  66.435  1.00  0.00    -0.116 C  
HETATM    5  C   UNL     1     -11.291  11.679  66.962  1.00  0.00    -0.305 C  
HETATM    6  O   UNL     1     -12.263  12.285  66.542  1.00  0.00    -0.588 OA 
HETATM    7  C   UNL     1      -9.430  10.412  66.892  1.00  0.00    -0.168 C  
HETATM    8  C   UNL     1     -10.314  11.010  66.079  1.00  0.00    -0.311 C  
ENDROOT
BRANCH   3   9
HETATM    9  C   UNL     1     -11.665  11.656  69.413  1.00  0.00    -0.340 A  
HETATM   10  C   UNL     1     -13.017  10.888  71.275  1.00  0.00    -0.492 A  
HETATM   11  C   UNL     1     -13.155  12.198  71.724  1.00  0.00    -0.457 A  
HETATM   12  C   UNL     1     -12.256  10.612  70.132  1.00  0.00    -0.398 A  
HETATM   13  C   UNL     1     -12.555  13.241  71.020  1.00  0.00    -0.408 A  
HETATM   14  C   UNL     1     -11.837  12.972  69.856  1.00  0.00    -0.377 A  
ENDBRANCH   3   9
TORSDOF 1
ENDMDL
MODEL       60
REMARK 921   NORMALIZED FREE ENERGY PREDICTED BY IDOCK:   -4.08 KCAL/MOL
REMARK 922        TOTAL FREE ENERGY PREDICTED BY IDOCK:   -4.59 KCAL/MOL
REMARK 923 INTER-LIGAND FREE ENERGY PREDICTED BY IDOCK:   -4.29 KCAL/MOL
REMARK 924 INTRA-LIGAND FREE ENERGY PREDICTED BY IDOCK:   -0.30 KCAL/MOL
REMARK 927      BINDING AFFINITY PREDICTED BY RF-SCORE:    0.00 PKD
ROOT
HETATM    1  C   UNL     1      -7.221  16.821  67.539  1.00  0.00    -0.148 C  
HETATM    2  N   UNL     1      -8.243  17.612  66.843  1.00  0.00    -0.216 NA 
HETATM    3  N   UNL     1      -9.443  17.877  67.547  1.00  0.00    -0.256 N  
HETATM    4  C   UNL     1      -6.589  19.063  65.572  1.00  0.00    -0.309 C  
HETATM    5  C   UNL     1      -9.920  19.139  67.183  1.00  0.00    -0.356 C  
HETATM    6  O   UNL     1     -10.970  19.699  67.452  1.00  0.00    -0.448 OA 
HETATM    7  C   UNL     1      -7.917  18.816  66.206  1.00  0.00    -0.264 C  
HETATM    8  C   UNL     1      -8.888  19.736  66.310  1.00  0.00    -0.417 C  
ENDROOT
BRANCH   3   9
HETATM    9  C   UNL     1     -10.228  16.879  68.155  1.00  0.00    -0.311 A  
HETATM   10  C   UNL     1     -11.633  14.904  68.060  1.00  0.00    -0.363 A  
HETATM   11  C   UNL     1     -11.704  14.879  69.449  1.00  0.00    -0.349 A  
HETATM   12  C   UNL     1     -10.880  15.890  67.411  1.00  0.00    -0.291 A  
HETATM   13  C   UNL     1     -11.044  15.852  70.196  1.00  0.00    -0.369 A  
HETATM   14  C   UNL     1     -10.332  16.862  69.551  1.00  0.00    -0.189 A  
ENDBRANCH   3   9
TORSDOF 1
ENDMDL
MODEL       61
REMARK 921   NORMALIZED FREE ENERGY PREDICTED BY IDOCK:   -4.02 KCAL/MOL
REMARK 922        TOTAL FREE ENERGY PREDICTED BY IDOCK:   -4.52 KCAL/MOL
REMARK 923 INTER-LIGAND FREE ENERGY PREDICTED BY IDOCK:   -4.24 KCAL/MOL
REMARK 924 INTRA-LIGAND FREE ENERGY PREDICTED BY IDOCK:   -0.27 KCAL/MOL
REMARK 927      BINDING AFFINITY PREDICTED BY RF-SCORE:    0.00 PKD
ROOT
HETATM    1  C   UNL     1     -11.203   6.212  69.790  1.00  0.00    -0.423 C  
HETATM    2  N   UNL     1      -9.991   6.898  70.250  1.00  0.00    -0.179 NA 
HETATM    3  N   UNL     1     -10.139   7.824  71.312  1.00  0.00    -0.179 N  
HETATM    4  C   UNL     1      -8.435   4.935  69.827  1.00  0.00    -0.091 C  
HETATM    5  C   UNL     1      -8.991   7.795  72.109  1.00  0.00    -0.137 C  
HETATM    6  O   UNL     1      -8.652   8.508  73.040  1.00  0.00    -0.355 OA 
HETATM    7  C   UNL     1      -8.821   6.186  70.543  1.00  0.00    -0.146 C  
HETATM    8  C   UNL     1      -8.149   6.700  71.584  1.00  0.00    -0.107 C  
ENDROOT
BRANCH   3   9
HETATM    9  C   UNL     1     -11.072   8.877  71.306  1.00  0.00    -0.297 A  
HETATM   10  C   UNL     1     -11.882  11.017  70.501  1.00  0.00    -0.464 A  
HETATM   11  C   UNL     1     -13.020  10.893  71.292  1.00  0.00    -0.492 A  
HETATM   12  C   UNL     1     -10.917  10.002  70.490  1.00  0.00    -0.392 A  
HETATM   13  C   UNL     1     -13.188   9.767  72.096  1.00  0.00    -0.530 A  
HETATM   14  C   UNL     1     -12.206   8.778  72.122  1.00  0.00    -0.448 A  
ENDBRANCH   3   9
TORSDOF 1
ENDMDL
MODEL       62
REMARK 921   NORMALIZED FREE ENERGY PREDICTED BY IDOCK:   -4.01 KCAL/MOL
REMARK 922        TOTAL FREE ENERGY PREDICTED BY IDOCK:   -4.51 KCAL/MOL
REMARK 923 INTER-LIGAND FREE ENERGY PREDICTED BY IDOCK:   -4.26 KCAL/MOL
REMARK 924 INTRA-LIGAND FREE ENERGY PREDICTED BY IDOCK:   -0.25 KCAL/MOL
REMARK 927      BINDING AFFINITY PREDICTED BY RF-SCORE:    0.00 PKD
ROOT
HETATM    1  C   UNL     1     -11.048   6.406  69.413  1.00  0.00    -0.387 C  
HETATM    2  N   UNL     1      -9.920   7.272  69.778  1.00  0.00    -0.181 NA 
HETATM    3  N   UNL     1     -10.049   8.030  70.967  1.00  0.00    -0.185 N  
HETATM    4  C   UNL     1      -8.129   5.721  68.861  1.00  0.00    -0.102 C  
HETATM    5  C   UNL     1      -8.794   8.151  71.572  1.00  0.00    -0.154 C  
HETATM    6  O   UNL     1      -8.435   8.815  72.530  1.00  0.00    -0.403 OA 
HETATM    7  C   UNL     1      -8.607   6.784  69.791  1.00  0.00    -0.141 C  
HETATM    8  C   UNL     1      -7.871   7.311  70.781  1.00  0.00    -0.094 C  
ENDROOT
BRANCH   3   9
HETATM    9  C   UNL     1     -11.145   8.867  71.245  1.00  0.00    -0.297 A  
HETATM   10  C   UNL     1     -13.261   9.334  72.336  1.00  0.00    -0.501 A  
HETATM   11  C   UNL     1     -13.253  10.625  71.816  1.00  0.00    -0.526 A  
HETATM   12  C   UNL     1     -12.200   8.460  72.070  1.00  0.00    -0.419 A  
HETATM   13  C   UNL     1     -12.198  11.041  71.007  1.00  0.00    -0.456 A  
HETATM   14  C   UNL     1     -11.164  10.157  70.702  1.00  0.00    -0.418 A  
ENDBRANCH   3   9
TORSDOF 1
ENDMDL
MODEL       63
REMARK 921   NORMALIZED FREE ENERGY PREDICTED BY IDOCK:   -4.00 KCAL/MOL
REMARK 922        TOTAL FREE ENERGY PREDICTED BY IDOCK:   -4.49 KCAL/MOL
REMARK 923 INTER-LIGAND FREE ENERGY PREDICTED BY IDOCK:   -4.32 KCAL/MOL
REMARK 924 INTRA-LIGAND FREE ENERGY PREDICTED BY IDOCK:   -0.18 KCAL/MOL
REMARK 927      BINDING AFFINITY PREDICTED BY RF-SCORE:    0.00 PKD
ROOT
HETATM    1  C   UNL     1      -8.193   8.842  71.312  1.00  0.00    -0.157 C  
HETATM    2  N   UNL     1      -9.497   8.866  71.984  1.00  0.00    -0.347 NA 
HETATM    3  N   UNL     1     -10.646   8.740  71.165  1.00  0.00    -0.222 N  
HETATM    4  C   UNL     1      -8.696   7.691  74.089  1.00  0.00    -0.290 C  
HETATM    5  C   UNL     1     -11.632   8.038  71.863  1.00  0.00    -0.298 C  
HETATM    6  O   UNL     1     -12.800   7.818  71.583  1.00  0.00    -0.325 OA 
HETATM    7  C   UNL     1      -9.751   8.060  73.101  1.00  0.00    -0.270 C  
HETATM    8  C   UNL     1     -11.009   7.594  73.127  1.00  0.00    -0.411 C  
ENDROOT
BRANCH   3   9
HETATM    9  C   UNL     1     -10.896   9.549  70.041  1.00  0.00    -0.252 A  
HETATM   10  C   UNL     1     -11.702  11.589  69.006  1.00  0.00    -0.400 A  
HETATM   11  C   UNL     1     -11.284  11.132  67.761  1.00  0.00    -0.359 A  
HETATM   12  C   UNL     1     -11.492  10.810  70.150  1.00  0.00    -0.415 A  
HETATM   13  C   UNL     1     -10.675   9.884  67.647  1.00  0.00    -0.339 A  
HETATM   14  C   UNL     1     -10.507   9.086  68.778  1.00  0.00    -0.230 A  
ENDBRANCH   3   9
TORSDOF 1
ENDMDL
MODEL       64
REMARK 921   NORMALIZED FREE ENERGY PREDICTED BY IDOCK:   -3.98 KCAL/MOL
REMARK 922        TOTAL FREE ENERGY PREDICTED BY IDOCK:   -4.48 KCAL/MOL
REMARK 923 INTER-LIGAND FREE ENERGY PREDICTED BY IDOCK:   -4.17 KCAL/MOL
REMARK 924 INTRA-LIGAND FREE ENERGY PREDICTED BY IDOCK:   -0.31 KCAL/MOL
REMARK 927      BINDING AFFINITY PREDICTED BY RF-SCORE:    0.00 PKD
ROOT
HETATM    1  C   UNL     1     -12.127  13.668  67.084  1.00  0.00    -0.362 C  
HETATM    2  N   UNL     1     -11.198  13.231  66.036  1.00  0.00    -0.294 NA 
HETATM    3  N   UNL     1     -10.820  11.866  66.039  1.00  0.00    -0.288 N  
HETATM    4  C   UNL     1     -12.095  14.807  64.256  1.00  0.00    -0.415 C  
HETATM    5  C   UNL     1     -10.637  11.437  64.721  1.00  0.00    -0.316 C  
HETATM    6  O   UNL     1     -10.197  10.387  64.281  1.00  0.00    -0.323 OA 
HETATM    7  C   UNL     1     -11.423  13.548  64.690  1.00  0.00    -0.358 C  
HETATM    8  C   UNL     1     -11.053  12.562  63.858  1.00  0.00    -0.476 C  
ENDROOT
BRANCH   3   9
HETATM    9  C   UNL     1     -10.302  11.201  67.166  1.00  0.00    -0.212 A  
HETATM   10  C   UNL     1     -10.416   9.495  68.886  1.00  0.00    -0.235 A  
HETATM   11  C   UNL     1      -9.164   9.877  69.358  1.00  0.00    -0.225 A  
HETATM   12  C   UNL     1     -10.979  10.141  67.779  1.00  0.00    -0.338 A  
HETATM   13  C   UNL     1      -8.478  10.922  68.742  1.00  0.00    -0.150 A  
HETATM   14  C   UNL     1      -9.057  11.597  67.669  1.00  0.00    -0.174 A  
ENDBRANCH   3   9
TORSDOF 1
ENDMDL
MODEL       65
REMARK 921   NORMALIZED FREE ENERGY PREDICTED BY IDOCK:   -3.98 KCAL/MOL
REMARK 922        TOTAL FREE ENERGY PREDICTED BY IDOCK:   -4.48 KCAL/MOL
REMARK 923 INTER-LIGAND FREE ENERGY PREDICTED BY IDOCK:   -4.20 KCAL/MOL
REMARK 924 INTRA-LIGAND FREE ENERGY PREDICTED BY IDOCK:   -0.27 KCAL/MOL
REMARK 927      BINDING AFFINITY PREDICTED BY RF-SCORE:    0.00 PKD
ROOT
HETATM    1  C   UNL     1     -12.026  11.846  69.968  1.00  0.00    -0.332 C  
HETATM    2  N   UNL     1     -11.043  11.129  69.148  1.00  0.00    -0.229 NA 
HETATM    3  N   UNL     1     -10.951   9.727  69.332  1.00  0.00    -0.230 N  
HETATM    4  C   UNL     1     -11.300  12.626  67.112  1.00  0.00    -0.373 C  
HETATM    5  C   UNL     1     -10.642   9.124  68.109  1.00  0.00    -0.183 C  
HETATM    6  O   UNL     1     -10.355   7.967  67.845  1.00  0.00    -0.211 OA 
HETATM    7  C   UNL     1     -10.974  11.324  67.763  1.00  0.00    -0.252 C  
HETATM    8  C   UNL     1     -10.677  10.198  67.096  1.00  0.00    -0.286 C  
ENDROOT
BRANCH   3   9
HETATM    9  C   UNL     1     -10.771   9.114  70.586  1.00  0.00    -0.254 A  
HETATM   10  C   UNL     1     -11.594   7.881  72.505  1.00  0.00    -0.443 A  
HETATM   11  C   UNL     1     -10.310   7.842  73.041  1.00  0.00    -0.401 A  
HETATM   12  C   UNL     1     -11.824   8.497  71.270  1.00  0.00    -0.335 A  
HETATM   13  C   UNL     1      -9.254   8.441  72.356  1.00  0.00    -0.345 A  
HETATM   14  C   UNL     1      -9.489   9.096  71.149  1.00  0.00    -0.331 A  
ENDBRANCH   3   9
TORSDOF 1
ENDMDL
MODEL       66
REMARK 921   NORMALIZED FREE ENERGY PREDICTED BY IDOCK:   -3.96 KCAL/MOL
REMARK 922        TOTAL FREE ENERGY PREDICTED BY IDOCK:   -4.45 KCAL/MOL
REMARK 923 INTER-LIGAND FREE ENERGY PREDICTED BY IDOCK:   -4.14 KCAL/MOL
REMARK 924 INTRA-LIGAND FREE ENERGY PREDICTED BY IDOCK:   -0.31 KCAL/MOL
REMARK 927      BINDING AFFINITY PREDICTED BY RF-SCORE:    0.00 PKD
ROOT
HETATM    1  C   UNL     1      -8.958   8.508  68.355  1.00  0.00    -0.139 C  
HETATM    2  N   UNL     1     -10.311   9.074  68.408  1.00  0.00    -0.202 NA 
HETATM    3  N   UNL     1     -10.819   9.407  69.688  1.00  0.00    -0.238 N  
HETATM    4  C   UNL     1     -10.128  10.325  66.204  1.00  0.00    -0.307 C  
HETATM    5  C   UNL     1     -11.637  10.535  69.577  1.00  0.00    -0.260 C  
HETATM    6  O   UNL     1     -12.361  11.074  70.398  1.00  0.00    -0.320 OA 
HETATM    7  C   UNL     1     -10.686  10.136  67.576  1.00  0.00    -0.290 C  
HETATM    8  C   UNL     1     -11.519  10.997  68.179  1.00  0.00    -0.374 C  
ENDROOT
BRANCH   3   9
HETATM    9  C   UNL     1     -10.847   8.512  70.774  1.00  0.00    -0.231 A  
HETATM   10  C   UNL     1     -10.158   7.815  72.993  1.00  0.00    -0.382 A  
HETATM   11  C   UNL     1     -11.021   6.726  72.927  1.00  0.00    -0.297 A  
HETATM   12  C   UNL     1     -10.083   8.720  71.927  1.00  0.00    -0.409 A  
HETATM   13  C   UNL     1     -11.796   6.522  71.787  1.00  0.00    -0.384 A  
HETATM   14  C   UNL     1     -11.689   7.396  70.706  1.00  0.00    -0.305 A  
ENDBRANCH   3   9
TORSDOF 1
ENDMDL
MODEL       67
REMARK 921   NORMALIZED FREE ENERGY PREDICTED BY IDOCK:   -3.92 KCAL/MOL
REMARK 922        TOTAL FREE ENERGY PREDICTED BY IDOCK:   -4.41 KCAL/MOL
REMARK 923 INTER-LIGAND FREE ENERGY PREDICTED BY IDOCK:   -4.20 KCAL/MOL
REMARK 924 INTRA-LIGAND FREE ENERGY PREDICTED BY IDOCK:   -0.22 KCAL/MOL
REMARK 927      BINDING AFFINITY PREDICTED BY RF-SCORE:    0.00 PKD
ROOT
HETATM    1  C   UNL     1      -8.287  13.015  67.559  1.00  0.00    -0.184 C  
HETATM    2  N   UNL     1      -8.902  14.321  67.820  1.00  0.00    -0.176 NA 
HETATM    3  N   UNL     1     -10.306  14.416  67.658  1.00  0.00    -0.237 N  
HETATM    4  C   UNL     1      -7.294  14.970  69.677  1.00  0.00    -0.181 C  
HETATM    5  C   UNL     1     -10.816  15.320  68.595  1.00  0.00    -0.253 C  
HETATM    6  O   UNL     1     -11.938  15.783  68.722  1.00  0.00    -0.374 OA 
HETATM    7  C   UNL     1      -8.618  15.036  68.991  1.00  0.00    -0.205 C  
HETATM    8  C   UNL     1      -9.683  15.700  69.463  1.00  0.00    -0.287 C  
ENDROOT
BRANCH   3   9
HETATM    9  C   UNL     1     -10.987  14.014  66.494  1.00  0.00    -0.306 A  
HETATM   10  C   UNL     1     -12.269  12.403  65.211  1.00  0.00    -0.418 A  
HETATM   11  C   UNL     1     -12.396  13.321  64.172  1.00  0.00    -0.408 A  
HETATM   12  C   UNL     1     -11.583  12.753  66.380  1.00  0.00    -0.435 A  
HETATM   13  C   UNL     1     -11.819  14.584  64.286  1.00  0.00    -0.368 A  
HETATM   14  C   UNL     1     -11.096  14.917  65.430  1.00  0.00    -0.366 A  
ENDBRANCH   3   9
TORSDOF 1
ENDMDL
MODEL       68
REMARK 921   NORMALIZED FREE ENERGY PREDICTED BY IDOCK:   -3.89 KCAL/MOL
REMARK 922        TOTAL FREE ENERGY PREDICTED BY IDOCK:   -4.39 KCAL/MOL
REMARK 923 INTER-LIGAND FREE ENERGY PREDICTED BY IDOCK:   -4.33 KCAL/MOL
REMARK 924 INTRA-LIGAND FREE ENERGY PREDICTED BY IDOCK:   -0.06 KCAL/MOL
REMARK 927      BINDING AFFINITY PREDICTED BY RF-SCORE:    0.00 PKD
ROOT
HETATM    1  C   UNL     1     -11.904  13.929  69.850  1.00  0.00    -0.328 C  
HETATM    2  N   UNL     1     -12.264  12.506  69.848  1.00  0.00    -0.215 NA 
HETATM    3  N   UNL     1     -11.363  11.615  69.216  1.00  0.00    -0.268 N  
HETATM    4  C   UNL     1     -13.398  12.550  72.121  1.00  0.00    -0.540 C  
HETATM    5  C   UNL     1     -11.373  10.394  69.897  1.00  0.00    -0.302 C  
HETATM    6  O   UNL     1     -10.847   9.327  69.622  1.00  0.00    -0.232 OA 
HETATM    7  C   UNL     1     -12.660  11.858  71.025  1.00  0.00    -0.283 C  
HETATM    8  C   UNL     1     -12.226  10.590  71.087  1.00  0.00    -0.496 C  
ENDROOT
BRANCH   3   9
HETATM    9  C   UNL     1     -10.888  11.785  67.903  1.00  0.00    -0.211 A  
HETATM   10  C   UNL     1      -9.135  11.684  66.229  1.00  0.00    -0.219 A  
HETATM   11  C   UNL     1     -10.041  12.069  65.246  1.00  0.00    -0.289 A  
HETATM   12  C   UNL     1      -9.559  11.521  67.553  1.00  0.00    -0.179 A  
HETATM   13  C   UNL     1     -11.370  12.318  65.585  1.00  0.00    -0.394 A  
HETATM   14  C   UNL     1     -11.783  12.202  66.911  1.00  0.00    -0.374 A  
ENDBRANCH   3   9
TORSDOF 1
ENDMDL
MODEL       69
REMARK 921   NORMALIZED FREE ENERGY PREDICTED BY IDOCK:   -3.89 KCAL/MOL
REMARK 922        TOTAL FREE ENERGY PREDICTED BY IDOCK:   -4.39 KCAL/MOL
REMARK 923 INTER-LIGAND FREE ENERGY PREDICTED BY IDOCK:   -4.07 KCAL/MOL
REMARK 924 INTRA-LIGAND FREE ENERGY PREDICTED BY IDOCK:   -0.31 KCAL/MOL
REMARK 927      BINDING AFFINITY PREDICTED BY RF-SCORE:    0.00 PKD
ROOT
HETATM    1  C   UNL     1     -10.575   9.227  67.699  1.00  0.00    -0.261 C  
HETATM    2  N   UNL     1     -10.631   9.975  68.960  1.00  0.00    -0.204 NA 
HETATM    3  N   UNL     1     -11.255  11.246  68.927  1.00  0.00    -0.229 N  
HETATM    4  C   UNL     1     -10.886   7.923  70.437  1.00  0.00    -0.244 C  
HETATM    5  C   UNL     1     -11.905  11.469  70.145  1.00  0.00    -0.356 C  
HETATM    6  O   UNL     1     -12.452  12.469  70.581  1.00  0.00    -0.319 OA 
HETATM    7  C   UNL     1     -11.084   9.372  70.141  1.00  0.00    -0.242 C  
HETATM    8  C   UNL     1     -11.784  10.214  70.916  1.00  0.00    -0.468 C  
ENDROOT
BRANCH   3   9
HETATM    9  C   UNL     1     -10.913  12.261  68.015  1.00  0.00    -0.225 A  
HETATM   10  C   UNL     1     -11.427  13.737  66.160  1.00  0.00    -0.350 A  
HETATM   11  C   UNL     1     -10.183  14.345  66.289  1.00  0.00    -0.307 A  
HETATM   12  C   UNL     1     -11.803  12.709  67.033  1.00  0.00    -0.415 A  
HETATM   13  C   UNL     1      -9.297  13.914  67.275  1.00  0.00    -0.231 A  
HETATM   14  C   UNL     1      -9.651  12.859  68.115  1.00  0.00    -0.223 A  
ENDBRANCH   3   9
TORSDOF 1
ENDMDL
MODEL       70
REMARK 921   NORMALIZED FREE ENERGY PREDICTED BY IDOCK:   -3.89 KCAL/MOL
REMARK 922        TOTAL FREE ENERGY PREDICTED BY IDOCK:   -4.38 KCAL/MOL
REMARK 923 INTER-LIGAND FREE ENERGY PREDICTED BY IDOCK:   -4.15 KCAL/MOL
REMARK 924 INTRA-LIGAND FREE ENERGY PREDICTED BY IDOCK:   -0.23 KCAL/MOL
REMARK 927      BINDING AFFINITY PREDICTED BY RF-SCORE:    0.00 PKD
ROOT
HETATM    1  C   UNL     1     -11.976  12.616  63.874  1.00  0.00    -0.479 C  
HETATM    2  N   UNL     1     -11.518  13.351  65.058  1.00  0.00    -0.304 NA 
HETATM    3  N   UNL     1     -10.402  12.823  65.752  1.00  0.00    -0.277 N  
HETATM    4  C   UNL     1     -12.100  15.649  64.146  1.00  0.00    -0.002 C  
HETATM    5  C   UNL     1      -9.647  13.876  66.275  1.00  0.00    -0.256 C  
HETATM    6  O   UNL     1      -8.690  13.868  67.032  1.00  0.00    -0.221 OA 
HETATM    7  C   UNL     1     -11.304  14.735  65.014  1.00  0.00    -0.391 C  
HETATM    8  C   UNL     1     -10.258  15.120  65.762  1.00  0.00    -0.365 C  
ENDROOT
BRANCH   3   9
HETATM    9  C   UNL     1     -10.320  11.491  66.200  1.00  0.00    -0.245 A  
HETATM   10  C   UNL     1     -10.876   9.717  67.757  1.00  0.00    -0.278 A  
HETATM   11  C   UNL     1     -10.173   8.803  66.979  1.00  0.00    -0.351 A  
HETATM   12  C   UNL     1     -10.968  11.056  67.361  1.00  0.00    -0.349 A  
HETATM   13  C   UNL     1      -9.538   9.227  65.813  1.00  0.00    -0.341 A  
HETATM   14  C   UNL     1      -9.589  10.569  65.441  1.00  0.00    -0.291 A  
ENDBRANCH   3   9
TORSDOF 1
ENDMDL
MODEL       71
REMARK 921   NORMALIZED FREE ENERGY PREDICTED BY IDOCK:   -3.88 KCAL/MOL
REMARK 922        TOTAL FREE ENERGY PREDICTED BY IDOCK:   -4.37 KCAL/MOL
REMARK 923 INTER-LIGAND FREE ENERGY PREDICTED BY IDOCK:   -4.45 KCAL/MOL
REMARK 924 INTRA-LIGAND FREE ENERGY PREDICTED BY IDOCK:    0.08 KCAL/MOL
REMARK 927      BINDING AFFINITY PREDICTED BY RF-SCORE:    0.00 PKD
ROOT
HETATM    1  C   UNL     1     -10.161   9.018  67.301  1.00  0.00    -0.234 C  
HETATM    2  N   UNL     1     -10.830  10.322  67.363  1.00  0.00    -0.288 NA 
HETATM    3  N   UNL     1     -10.827  10.988  68.613  1.00  0.00    -0.198 N  
HETATM    4  C   UNL     1     -10.219  11.012  64.996  1.00  0.00    -0.360 C  
HETATM    5  C   UNL     1     -10.758  12.367  68.398  1.00  0.00    -0.235 C  
HETATM    6  O   UNL     1     -10.855  13.299  69.180  1.00  0.00    -0.206 OA 
HETATM    7  C   UNL     1     -10.568  11.318  66.414  1.00  0.00    -0.266 C  
HETATM    8  C   UNL     1     -10.576  12.551  66.943  1.00  0.00    -0.255 C  
ENDROOT
BRANCH   3   9
HETATM    9  C   UNL     1     -11.256  10.395  69.815  1.00  0.00    -0.293 A  
HETATM   10  C   UNL     1     -12.915  10.012  71.542  1.00  0.00    -0.535 A  
HETATM   11  C   UNL     1     -12.063   9.109  72.172  1.00  0.00    -0.389 A  
HETATM   12  C   UNL     1     -12.523  10.640  70.354  1.00  0.00    -0.421 A  
HETATM   13  C   UNL     1     -10.806   8.849  71.631  1.00  0.00    -0.420 A  
HETATM   14  C   UNL     1     -10.395   9.509  70.474  1.00  0.00    -0.350 A  
ENDBRANCH   3   9
TORSDOF 1
ENDMDL
MODEL       72
REMARK 921   NORMALIZED FREE ENERGY PREDICTED BY IDOCK:   -3.85 KCAL/MOL
REMARK 922        TOTAL FREE ENERGY PREDICTED BY IDOCK:   -4.34 KCAL/MOL
REMARK 923 INTER-LIGAND FREE ENERGY PREDICTED BY IDOCK:   -4.04 KCAL/MOL
REMARK 924 INTRA-LIGAND FREE ENERGY PREDICTED BY IDOCK:   -0.31 KCAL/MOL
REMARK 927      BINDING AFFINITY PREDICTED BY RF-SCORE:    0.00 PKD
ROOT
HETATM    1  C   UNL     1     -10.611  18.947  66.741  1.00  0.00    -0.405 C  
HETATM    2  N   UNL     1      -9.340  18.344  67.157  1.00  0.00    -0.266 NA 
HETATM    3  N   UNL     1      -9.262  16.930  67.142  1.00  0.00    -0.225 N  
HETATM    4  C   UNL     1      -7.883  20.200  66.216  1.00  0.00    -0.281 C  
HETATM    5  C   UNL     1      -7.963  16.546  66.796  1.00  0.00    -0.255 C  
HETATM    6  O   UNL     1      -7.437  15.445  66.786  1.00  0.00    -0.115 OA 
HETATM    7  C   UNL     1      -8.121  18.786  66.627  1.00  0.00    -0.275 C  
HETATM    8  C   UNL     1      -7.241  17.789  66.452  1.00  0.00    -0.308 C  
ENDROOT
BRANCH   3   9
HETATM    9  C   UNL     1     -10.192  16.090  67.781  1.00  0.00    -0.260 A  
HETATM   10  C   UNL     1     -11.885  14.353  67.749  1.00  0.00    -0.402 A  
HETATM   11  C   UNL     1     -11.963  14.392  69.138  1.00  0.00    -0.357 A  
HETATM   12  C   UNL     1     -10.988  15.186  67.069  1.00  0.00    -0.322 A  
HETATM   13  C   UNL     1     -11.161  15.280  69.853  1.00  0.00    -0.305 A  
HETATM   14  C   UNL     1     -10.301  16.142  69.176  1.00  0.00    -0.259 A  
ENDBRANCH   3   9
TORSDOF 1
ENDMDL
MODEL       73
REMARK 921   NORMALIZED FREE ENERGY PREDICTED BY IDOCK:   -3.85 KCAL/MOL
REMARK 922        TOTAL FREE ENERGY PREDICTED BY IDOCK:   -4.34 KCAL/MOL
REMARK 923 INTER-LIGAND FREE ENERGY PREDICTED BY IDOCK:   -4.09 KCAL/MOL
REMARK 924 INTRA-LIGAND FREE ENERGY PREDICTED BY IDOCK:   -0.25 KCAL/MOL
REMARK 927      BINDING AFFINITY PREDICTED BY RF-SCORE:    0.00 PKD
ROOT
HETATM    1  C   UNL     1      -8.841  11.201  67.757  1.00  0.00    -0.135 C  
HETATM    2  N   UNL     1      -9.827  11.177  66.671  1.00  0.00    -0.194 NA 
HETATM    3  N   UNL     1     -10.050  12.390  65.976  1.00  0.00    -0.246 N  
HETATM    4  C   UNL     1      -9.313   8.797  65.944  1.00  0.00    -0.284 C  
HETATM    5  C   UNL     1     -10.331  12.107  64.636  1.00  0.00    -0.297 C  
HETATM    6  O   UNL     1     -10.698  12.837  63.730  1.00  0.00    -0.413 OA 
HETATM    7  C   UNL     1      -9.790  10.186  65.681  1.00  0.00    -0.280 C  
HETATM    8  C   UNL     1     -10.140  10.651  64.472  1.00  0.00    -0.421 C  
ENDROOT
BRANCH   3   9
HETATM    9  C   UNL     1     -10.362  13.607  66.609  1.00  0.00    -0.275 A  
HETATM   10  C   UNL     1      -9.987  15.969  67.015  1.00  0.00    -0.257 A  
HETATM   11  C   UNL     1     -11.101  16.011  67.848  1.00  0.00    -0.307 A  
HETATM   12  C   UNL     1      -9.627  14.775  66.378  1.00  0.00    -0.324 A  
HETATM   13  C   UNL     1     -11.846  14.854  68.070  1.00  0.00    -0.296 A  
HETATM   14  C   UNL     1     -11.462  13.654  67.475  1.00  0.00    -0.360 A  
ENDBRANCH   3   9
TORSDOF 1
ENDMDL
MODEL       74
REMARK 921   NORMALIZED FREE ENERGY PREDICTED BY IDOCK:   -3.84 KCAL/MOL
REMARK 922        TOTAL FREE ENERGY PREDICTED BY IDOCK:   -4.33 KCAL/MOL
REMARK 923 INTER-LIGAND FREE ENERGY PREDICTED BY IDOCK:   -4.03 KCAL/MOL
REMARK 924 INTRA-LIGAND FREE ENERGY PREDICTED BY IDOCK:   -0.30 KCAL/MOL
REMARK 927      BINDING AFFINITY PREDICTED BY RF-SCORE:    0.00 PKD
ROOT
HETATM    1  C   UNL     1      -9.926  11.444  64.140  1.00  0.00    -0.290 C  
HETATM    2  N   UNL     1     -11.104  11.729  64.966  1.00  0.00    -0.303 NA 
HETATM    3  N   UNL     1     -10.896  11.863  66.361  1.00  0.00    -0.267 N  
HETATM    4  C   UNL     1     -12.278  13.148  63.216  1.00  0.00    -0.438 C  
HETATM    5  C   UNL     1     -11.785  12.814  66.868  1.00  0.00    -0.380 C  
HETATM    6  O   UNL     1     -12.026  13.141  68.019  1.00  0.00    -0.351 OA 
HETATM    7  C   UNL     1     -11.996  12.755  64.627  1.00  0.00    -0.396 C  
HETATM    8  C   UNL     1     -12.485  13.391  65.702  1.00  0.00    -0.519 C  
ENDROOT
BRANCH   3   9
HETATM    9  C   UNL     1     -10.229  10.904  67.146  1.00  0.00    -0.210 A  
HETATM   10  C   UNL     1      -8.342  10.163  68.477  1.00  0.00    -0.116 A  
HETATM   11  C   UNL     1      -9.004   8.974  68.769  1.00  0.00    -0.137 A  
HETATM   12  C   UNL     1      -8.959  11.137  67.683  1.00  0.00    -0.140 A  
HETATM   13  C   UNL     1     -10.276   8.743  68.249  1.00  0.00    -0.240 A  
HETATM   14  C   UNL     1     -10.873   9.692  67.420  1.00  0.00    -0.242 A  
ENDBRANCH   3   9
TORSDOF 1
ENDMDL
MODEL       75
REMARK 921   NORMALIZED FREE ENERGY PREDICTED BY IDOCK:   -3.84 KCAL/MOL
REMARK 922        TOTAL FREE ENERGY PREDICTED BY IDOCK:   -4.32 KCAL/MOL
REMARK 923 INTER-LIGAND FREE ENERGY PREDICTED BY IDOCK:   -4.02 KCAL/MOL
REMARK 924 INTRA-LIGAND FREE ENERGY PREDICTED BY IDOCK:   -0.31 KCAL/MOL
REMARK 927      BINDING AFFINITY PREDICTED BY RF-SCORE:    0.00 PKD
ROOT
HETATM    1  C   UNL     1     -11.758   6.248  70.165  1.00  0.00    -0.203 C  
HETATM    2  N   UNL     1     -10.449   6.745  70.604  1.00  0.00    -0.211 NA 
HETATM    3  N   UNL     1     -10.444   7.863  71.475  1.00  0.00    -0.207 N  
HETATM    4  C   UNL     1      -9.338   4.461  70.661  1.00  0.00    -0.222 C  
HETATM    5  C   UNL     1      -9.370   7.748  72.362  1.00  0.00    -0.169 C  
HETATM    6  O   UNL     1      -8.930   8.538  73.182  1.00  0.00    -0.288 OA 
HETATM    7  C   UNL     1      -9.477   5.876  71.116  1.00  0.00    -0.161 C  
HETATM    8  C   UNL     1      -8.761   6.426  72.108  1.00  0.00    -0.132 C  
ENDROOT
BRANCH   3   9
HETATM    9  C   UNL     1     -11.125   9.065  71.207  1.00  0.00    -0.312 A  
HETATM   10  C   UNL     1     -12.880  10.678  71.655  1.00  0.00    -0.570 A  
HETATM   11  C   UNL     1     -12.375  11.514  70.664  1.00  0.00    -0.457 A  
HETATM   12  C   UNL     1     -12.247   9.463  71.942  1.00  0.00    -0.440 A  
HETATM   13  C   UNL     1     -11.249  11.130  69.939  1.00  0.00    -0.293 A  
HETATM   14  C   UNL     1     -10.644   9.899  70.192  1.00  0.00    -0.350 A  
ENDBRANCH   3   9
TORSDOF 1
ENDMDL
MODEL       76
REMARK 921   NORMALIZED FREE ENERGY PREDICTED BY IDOCK:   -3.83 KCAL/MOL
REMARK 922        TOTAL FREE ENERGY PREDICTED BY IDOCK:   -4.31 KCAL/MOL
REMARK 923 INTER-LIGAND FREE ENERGY PREDICTED BY IDOCK:   -4.00 KCAL/MOL
REMARK 924 INTRA-LIGAND FREE ENERGY PREDICTED BY IDOCK:   -0.31 KCAL/MOL
REMARK 927      BINDING AFFINITY PREDICTED BY RF-SCORE:    0.00 PKD
ROOT
HETATM    1  C   UNL     1     -10.464  18.274  66.131  1.00  0.00    -0.383 C  
HETATM    2  N   UNL     1      -9.826  18.420  67.444  1.00  0.00    -0.303 NA 
HETATM    3  N   UNL     1      -8.959  17.380  67.859  1.00  0.00    -0.246 N  
HETATM    4  C   UNL     1      -9.611  20.949  67.319  1.00  0.00    -0.386 C  
HETATM    5  C   UNL     1      -7.918  17.924  68.617  1.00  0.00    -0.281 C  
HETATM    6  O   UNL     1      -7.036  17.380  69.261  1.00  0.00    -0.244 OA 
HETATM    7  C   UNL     1      -9.176  19.607  67.806  1.00  0.00    -0.332 C  
HETATM    8  C   UNL     1      -8.083  19.391  68.553  1.00  0.00    -0.396 C  
ENDROOT
BRANCH   3   9
HETATM    9  C   UNL     1      -9.322  16.020  67.874  1.00  0.00    -0.208 A  
HETATM   10  C   UNL     1      -9.059  13.725  67.136  1.00  0.00    -0.243 A  
HETATM   11  C   UNL     1     -10.049  13.318  68.024  1.00  0.00    -0.235 A  
HETATM   12  C   UNL     1      -8.679  15.071  67.073  1.00  0.00    -0.262 A  
HETATM   13  C   UNL     1     -10.683  14.256  68.836  1.00  0.00    -0.268 A  
HETATM   14  C   UNL     1     -10.339  15.604  68.741  1.00  0.00    -0.218 A  
ENDBRANCH   3   9
TORSDOF 1
ENDMDL
MODEL       77
REMARK 921   NORMALIZED FREE ENERGY PREDICTED BY IDOCK:   -3.77 KCAL/MOL
REMARK 922        TOTAL FREE ENERGY PREDICTED BY IDOCK:   -4.26 KCAL/MOL
REMARK 923 INTER-LIGAND FREE ENERGY PREDICTED BY IDOCK:   -3.97 KCAL/MOL
REMARK 924 INTRA-LIGAND FREE ENERGY PREDICTED BY IDOCK:   -0.28 KCAL/MOL
REMARK 927      BINDING AFFINITY PREDICTED BY RF-SCORE:    0.00 PKD
ROOT
HETATM    1  C   UNL     1     -10.455   8.912  68.512  1.00  0.00    -0.182 C  
HETATM    2  N   UNL     1      -9.912   9.349  69.803  1.00  0.00    -0.187 NA 
HETATM    3  N   UNL     1     -10.334   8.637  70.953  1.00  0.00    -0.201 N  
HETATM    4  C   UNL     1      -7.643  10.029  68.885  1.00  0.00    -0.086 C  
HETATM    5  C   UNL     1      -9.283   8.590  71.874  1.00  0.00    -0.255 C  
HETATM    6  O   UNL     1      -9.255   8.190  73.027  1.00  0.00    -0.247 OA 
HETATM    7  C   UNL     1      -8.538   9.553  69.980  1.00  0.00    -0.215 C  
HETATM    8  C   UNL     1      -8.114   9.190  71.200  1.00  0.00    -0.136 C  
ENDROOT
BRANCH   3   9
HETATM    9  C   UNL     1     -11.684   8.409  71.279  1.00  0.00    -0.285 A  
HETATM   10  C   UNL     1     -13.871   9.170  72.000  1.00  0.00    -0.480 A  
HETATM   11  C   UNL     1     -14.382   7.887  71.830  1.00  0.00    -0.589 A  
HETATM   12  C   UNL     1     -12.529   9.438  71.707  1.00  0.00    -0.471 A  
HETATM   13  C   UNL     1     -13.549   6.860  71.389  1.00  0.00    -0.234 A  
HETATM   14  C   UNL     1     -12.201   7.116  71.141  1.00  0.00    -0.405 A  
ENDBRANCH   3   9
TORSDOF 1
ENDMDL
MODEL       78
REMARK 921   NORMALIZED FREE ENERGY PREDICTED BY IDOCK:   -3.76 KCAL/MOL
REMARK 922        TOTAL FREE ENERGY PREDICTED BY IDOCK:   -4.24 KCAL/MOL
REMARK 923 INTER-LIGAND FREE ENERGY PREDICTED BY IDOCK:   -4.01 KCAL/MOL
REMARK 924 INTRA-LIGAND FREE ENERGY PREDICTED BY IDOCK:   -0.23 KCAL/MOL
REMARK 927      BINDING AFFINITY PREDICTED BY RF-SCORE:    0.00 PKD
ROOT
HETATM    1  C   UNL     1      -9.793  10.084  67.576  1.00  0.00    -0.175 C  
HETATM    2  N   UNL     1      -9.073  11.334  67.304  1.00  0.00    -0.154 NA 
HETATM    3  N   UNL     1      -9.840  12.431  66.841  1.00  0.00    -0.211 N  
HETATM    4  C   UNL     1      -7.373  11.034  69.168  1.00  0.00    -0.121 C  
HETATM    5  C   UNL     1      -9.293  13.616  67.340  1.00  0.00    -0.227 C  
HETATM    6  O   UNL     1      -9.562  14.781  67.093  1.00  0.00    -0.218 OA 
HETATM    7  C   UNL     1      -8.183  11.876  68.240  1.00  0.00    -0.157 C  
HETATM    8  C   UNL     1      -8.213  13.217  68.266  1.00  0.00    -0.154 C  
ENDROOT
BRANCH   3   9
HETATM    9  C   UNL     1     -10.711  12.364  65.738  1.00  0.00    -0.267 A  
HETATM   10  C   UNL     1     -12.871  12.713  64.689  1.00  0.00    -0.361 A  
HETATM   11  C   UNL     1     -12.359  12.276  63.472  1.00  0.00    -0.670 A  
HETATM   12  C   UNL     1     -12.045  12.778  65.818  1.00  0.00    -0.505 A  
HETATM   13  C   UNL     1     -11.027  11.877  63.381  1.00  0.00    -0.470 A  
HETATM   14  C   UNL     1     -10.216  11.896  64.515  1.00  0.00    -0.320 A  
ENDBRANCH   3   9
TORSDOF 1
ENDMDL
MODEL       79
REMARK 921   NORMALIZED FREE ENERGY PREDICTED BY IDOCK:   -3.75 KCAL/MOL
REMARK 922        TOTAL FREE ENERGY PREDICTED BY IDOCK:   -4.23 KCAL/MOL
REMARK 923 INTER-LIGAND FREE ENERGY PREDICTED BY IDOCK:   -3.93 KCAL/MOL
REMARK 924 INTRA-LIGAND FREE ENERGY PREDICTED BY IDOCK:   -0.30 KCAL/MOL
REMARK 927      BINDING AFFINITY PREDICTED BY RF-SCORE:    0.00 PKD
ROOT
HETATM    1  C   UNL     1     -10.722   6.880  69.460  1.00  0.00    -0.246 C  
HETATM    2  N   UNL     1     -10.833   7.851  70.554  1.00  0.00    -0.238 NA 
HETATM    3  N   UNL     1     -11.224   9.168  70.208  1.00  0.00    -0.240 N  
HETATM    4  C   UNL     1     -11.639   6.169  72.280  1.00  0.00    -0.362 C  
HETATM    5  C   UNL     1     -11.995   9.704  71.244  1.00  0.00    -0.380 C  
HETATM    6  O   UNL     1     -12.424  10.835  71.411  1.00  0.00    -0.369 OA 
HETATM    7  C   UNL     1     -11.547   7.550  71.722  1.00  0.00    -0.270 C  
HETATM    8  C   UNL     1     -12.199   8.612  72.217  1.00  0.00    -0.447 C  
ENDROOT
BRANCH   3   9
HETATM    9  C   UNL     1     -10.588   9.936  69.215  1.00  0.00    -0.224 A  
HETATM   10  C   UNL     1     -10.598  11.164  67.124  1.00  0.00    -0.286 A  
HETATM   11  C   UNL     1      -9.271  11.531  67.324  1.00  0.00    -0.168 A  
HETATM   12  C   UNL     1     -11.265  10.384  68.076  1.00  0.00    -0.340 A  
HETATM   13  C   UNL     1      -8.596  11.101  68.465  1.00  0.00    -0.157 A  
HETATM   14  C   UNL     1      -9.244  10.286  69.392  1.00  0.00    -0.206 A  
ENDBRANCH   3   9
TORSDOF 1
ENDMDL
MODEL       80
REMARK 921   NORMALIZED FREE ENERGY PREDICTED BY IDOCK:   -3.73 KCAL/MOL
REMARK 922        TOTAL FREE ENERGY PREDICTED BY IDOCK:   -4.21 KCAL/MOL
REMARK 923 INTER-LIGAND FREE ENERGY PREDICTED BY IDOCK:   -3.95 KCAL/MOL
REMARK 924 INTRA-LIGAND FREE ENERGY PREDICTED BY IDOCK:   -0.26 KCAL/MOL
REMARK 927      BINDING AFFINITY PREDICTED BY RF-SCORE:    0.00 PKD
ROOT
HETATM    1  C   UNL     1      -9.483  11.071  65.341  1.00  0.00    -0.222 C  
HETATM    2  N   UNL     1      -9.837  11.240  66.755  1.00  0.00    -0.196 NA 
HETATM    3  N   UNL     1     -10.450  12.462  67.124  1.00  0.00    -0.219 N  
HETATM    4  C   UNL     1     -10.405   8.795  67.147  1.00  0.00    -0.364 C  
HETATM    5  C   UNL     1     -11.366  12.224  68.153  1.00  0.00    -0.295 C  
HETATM    6  O   UNL     1     -12.009  13.002  68.839  1.00  0.00    -0.304 OA 
HETATM    7  C   UNL     1     -10.545  10.249  67.448  1.00  0.00    -0.270 C  
HETATM    8  C   UNL     1     -11.413  10.759  68.334  1.00  0.00    -0.358 C  
ENDROOT
BRANCH   3   9
HETATM    9  C   UNL     1      -9.916  13.728  66.816  1.00  0.00    -0.270 A  
HETATM   10  C   UNL     1      -8.301  15.508  67.140  1.00  0.00    -0.243 A  
HETATM   11  C   UNL     1      -8.863  16.221  66.086  1.00  0.00    -0.362 A  
HETATM   12  C   UNL     1      -8.812  14.253  67.494  1.00  0.00    -0.202 A  
HETATM   13  C   UNL     1      -9.954  15.695  65.396  1.00  0.00    -0.311 A  
HETATM   14  C   UNL     1     -10.494  14.468  65.777  1.00  0.00    -0.335 A  
ENDBRANCH   3   9
TORSDOF 1
ENDMDL
MODEL       81
REMARK 921   NORMALIZED FREE ENERGY PREDICTED BY IDOCK:   -3.70 KCAL/MOL
REMARK 922        TOTAL FREE ENERGY PREDICTED BY IDOCK:   -4.18 KCAL/MOL
REMARK 923 INTER-LIGAND FREE ENERGY PREDICTED BY IDOCK:   -3.88 KCAL/MOL
REMARK 924 INTRA-LIGAND FREE ENERGY PREDICTED BY IDOCK:   -0.31 KCAL/MOL
REMARK 927      BINDING AFFINITY PREDICTED BY RF-SCORE:    0.00 PKD
ROOT
HETATM    1  C   UNL     1      -7.933  10.022  65.053  1.00  0.00    -0.143 C  
HETATM    2  N   UNL     1      -9.380  10.227  64.921  1.00  0.00    -0.228 NA 
HETATM    3  N   UNL     1     -10.075  10.668  66.073  1.00  0.00    -0.241 N  
HETATM    4  C   UNL     1      -9.285  11.017  62.508  1.00  0.00    -0.337 C  
HETATM    5  C   UNL     1     -11.123  11.507  65.683  1.00  0.00    -0.199 C  
HETATM    6  O   UNL     1     -12.031  11.999  66.333  1.00  0.00    -0.611 OA 
HETATM    7  C   UNL     1      -9.913  10.971  63.861  1.00  0.00    -0.341 C  
HETATM    8  C   UNL     1     -10.982  11.696  64.224  1.00  0.00    -0.418 C  
ENDROOT
BRANCH   3   9
HETATM    9  C   UNL     1      -9.995  10.031  67.325  1.00  0.00    -0.197 A  
HETATM   10  C   UNL     1      -9.449  10.014  69.688  1.00  0.00    -0.247 A  
HETATM   11  C   UNL     1      -9.947   8.720  69.802  1.00  0.00    -0.193 A  
HETATM   12  C   UNL     1      -9.489  10.679  68.457  1.00  0.00    -0.176 A  
HETATM   13  C   UNL     1     -10.467   8.075  68.681  1.00  0.00    -0.196 A  
HETATM   14  C   UNL     1     -10.466   8.718  67.445  1.00  0.00    -0.349 A  
ENDBRANCH   3   9
TORSDOF 1
ENDMDL
MODEL       82
REMARK 921   NORMALIZED FREE ENERGY PREDICTED BY IDOCK:   -3.69 KCAL/MOL
REMARK 922        TOTAL FREE ENERGY PREDICTED BY IDOCK:   -4.17 KCAL/MOL
REMARK 923 INTER-LIGAND FREE ENERGY PREDICTED BY IDOCK:   -3.88 KCAL/MOL
REMARK 924 INTRA-LIGAND FREE ENERGY PREDICTED BY IDOCK:   -0.29 KCAL/MOL
REMARK 927      BINDING AFFINITY PREDICTED BY RF-SCORE:    0.00 PKD
ROOT
HETATM    1  C   UNL     1     -11.916  12.833  66.903  1.00  0.00    -0.310 C  
HETATM    2  N   UNL     1     -11.047  12.719  65.726  1.00  0.00    -0.279 NA 
HETATM    3  N   UNL     1     -10.493  11.444  65.457  1.00  0.00    -0.261 N  
HETATM    4  C   UNL     1     -12.318  14.419  64.330  1.00  0.00    -0.428 C  
HETATM    5  C   UNL     1     -10.387  11.272  64.074  1.00  0.00    -0.371 C  
HETATM    6  O   UNL     1      -9.858  10.387  63.421  1.00  0.00    -0.307 OA 
HETATM    7  C   UNL     1     -11.445  13.218  64.480  1.00  0.00    -0.365 C  
HETATM    8  C   UNL     1     -11.033  12.451  63.459  1.00  0.00    -0.506 C  
ENDROOT
BRANCH   3   9
HETATM    9  C   UNL     1      -9.782  10.685  66.405  1.00  0.00    -0.196 A  
HETATM   10  C   UNL     1      -7.941  10.371  67.953  1.00  0.00    -0.102 A  
HETATM   11  C   UNL     1      -8.471   9.146  68.347  1.00  0.00    -0.128 A  
HETATM   12  C   UNL     1      -8.604  11.152  66.998  1.00  0.00    -0.147 A  
HETATM   13  C   UNL     1      -9.652   8.683  67.771  1.00  0.00    -0.178 A  
HETATM   14  C   UNL     1     -10.289   9.437  66.786  1.00  0.00    -0.303 A  
ENDBRANCH   3   9
TORSDOF 1
ENDMDL
MODEL       83
REMARK 921   NORMALIZED FREE ENERGY PREDICTED BY IDOCK:   -3.68 KCAL/MOL
REMARK 922        TOTAL FREE ENERGY PREDICTED BY IDOCK:   -4.16 KCAL/MOL
REMARK 923 INTER-LIGAND FREE ENERGY PREDICTED BY IDOCK:   -3.89 KCAL/MOL
REMARK 924 INTRA-LIGAND FREE ENERGY PREDICTED BY IDOCK:   -0.26 KCAL/MOL
REMARK 927      BINDING AFFINITY PREDICTED BY RF-SCORE:    0.00 PKD
ROOT
HETATM    1  C   UNL     1      -9.580   5.063  71.493  1.00  0.00    -0.158 C  
HETATM    2  N   UNL     1     -10.291   5.140  70.212  1.00  0.00    -0.275 NA 
HETATM    3  N   UNL     1     -10.646   6.431  69.749  1.00  0.00    -0.229 N  
HETATM    4  C   UNL     1      -9.100   3.156  69.163  1.00  0.00    -0.201 C  
HETATM    5  C   UNL     1     -10.574   6.453  68.353  1.00  0.00    -0.257 C  
HETATM    6  O   UNL     1     -10.911   7.312  67.554  1.00  0.00    -0.249 OA 
HETATM    7  C   UNL     1      -9.824   4.458  69.081  1.00  0.00    -0.128 C  
HETATM    8  C   UNL     1     -10.020   5.145  67.946  1.00  0.00    -0.202 C  
ENDROOT
BRANCH   3   9
HETATM    9  C   UNL     1     -11.355   7.370  70.520  1.00  0.00    -0.271 A  
HETATM   10  C   UNL     1     -11.615   9.567  71.515  1.00  0.00    -0.465 A  
HETATM   11  C   UNL     1     -12.869   9.208  71.999  1.00  0.00    -0.483 A  
HETATM   12  C   UNL     1     -10.864   8.658  70.759  1.00  0.00    -0.272 A  
HETATM   13  C   UNL     1     -13.370   7.932  71.751  1.00  0.00    -0.364 A  
HETATM   14  C   UNL     1     -12.605   7.010  71.039  1.00  0.00    -0.338 A  
ENDBRANCH   3   9
TORSDOF 1
ENDMDL
MODEL       84
REMARK 921   NORMALIZED FREE ENERGY PREDICTED BY IDOCK:   -3.65 KCAL/MOL
REMARK 922        TOTAL FREE ENERGY PREDICTED BY IDOCK:   -4.13 KCAL/MOL
REMARK 923 INTER-LIGAND FREE ENERGY PREDICTED BY IDOCK:   -3.82 KCAL/MOL
REMARK 924 INTRA-LIGAND FREE ENERGY PREDICTED BY IDOCK:   -0.31 KCAL/MOL
REMARK 927      BINDING AFFINITY PREDICTED BY RF-SCORE:    0.00 PKD
ROOT
HETATM    1  C   UNL     1      -8.211  11.446  67.314  1.00  0.00    -0.150 C  
HETATM    2  N   UNL     1      -9.191  11.444  68.405  1.00  0.00    -0.179 NA 
HETATM    3  N   UNL     1     -10.559  11.496  68.043  1.00  0.00    -0.183 N  
HETATM    4  C   UNL     1      -7.830   9.943  69.938  1.00  0.00    -0.182 C  
HETATM    5  C   UNL     1     -11.306  10.755  68.963  1.00  0.00    -0.284 C  
HETATM    6  O   UNL     1     -12.514  10.639  69.096  1.00  0.00    -0.317 OA 
HETATM    7  C   UNL     1      -9.120  10.503  69.441  1.00  0.00    -0.104 C  
HETATM    8  C   UNL     1     -10.330  10.105  69.862  1.00  0.00    -0.308 C  
ENDROOT
BRANCH   3   9
HETATM    9  C   UNL     1     -11.103  12.466  67.181  1.00  0.00    -0.280 A  
HETATM   10  C   UNL     1     -12.115  13.142  65.083  1.00  0.00    -0.463 A  
HETATM   11  C   UNL     1     -12.247  14.444  65.557  1.00  0.00    -0.352 A  
HETATM   12  C   UNL     1     -11.562  12.148  65.898  1.00  0.00    -0.425 A  
HETATM   13  C   UNL     1     -11.806  14.764  66.840  1.00  0.00    -0.279 A  
HETATM   14  C   UNL     1     -11.212  13.786  67.636  1.00  0.00    -0.316 A  
ENDBRANCH   3   9
TORSDOF 1
ENDMDL
MODEL       85
REMARK 921   NORMALIZED FREE ENERGY PREDICTED BY IDOCK:   -3.65 KCAL/MOL
REMARK 922        TOTAL FREE ENERGY PREDICTED BY IDOCK:   -4.13 KCAL/MOL
REMARK 923 INTER-LIGAND FREE ENERGY PREDICTED BY IDOCK:   -3.83 KCAL/MOL
REMARK 924 INTRA-LIGAND FREE ENERGY PREDICTED BY IDOCK:   -0.30 KCAL/MOL
REMARK 927      BINDING AFFINITY PREDICTED BY RF-SCORE:    0.00 PKD
ROOT
HETATM    1  C   UNL     1     -10.656  18.260  67.318  1.00  0.00    -0.381 C  
HETATM    2  N   UNL     1      -9.649  17.262  67.698  1.00  0.00    -0.252 NA 
HETATM    3  N   UNL     1      -8.373  17.746  68.076  1.00  0.00    -0.242 N  
HETATM    4  C   UNL     1     -11.305  15.648  68.749  1.00  0.00    -0.351 C  
HETATM    5  C   UNL     1      -7.843  16.915  69.067  1.00  0.00    -0.184 C  
HETATM    6  O   UNL     1      -6.734  16.896  69.577  1.00  0.00    -0.236 OA 
HETATM    7  C   UNL     1      -9.945  16.247  68.616  1.00  0.00    -0.233 C  
HETATM    8  C   UNL     1      -8.905  15.947  69.408  1.00  0.00    -0.203 C  
ENDROOT
BRANCH   3   9
HETATM    9  C   UNL     1      -7.609  18.630  67.292  1.00  0.00    -0.226 A  
HETATM   10  C   UNL     1      -6.644  20.811  66.847  1.00  0.00    -0.353 A  
HETATM   11  C   UNL     1      -6.004  20.306  65.719  1.00  0.00    -0.216 A  
HETATM   12  C   UNL     1      -7.430  19.972  67.646  1.00  0.00    -0.327 A  
HETATM   13  C   UNL     1      -6.166  18.966  65.370  1.00  0.00    -0.313 A  
HETATM   14  C   UNL     1      -6.986  18.141  66.138  1.00  0.00    -0.314 A  
ENDBRANCH   3   9
TORSDOF 1
ENDMDL
MODEL       86
REMARK 921   NORMALIZED FREE ENERGY PREDICTED BY IDOCK:   -3.62 KCAL/MOL
REMARK 922        TOTAL FREE ENERGY PREDICTED BY IDOCK:   -4.10 KCAL/MOL
REMARK 923 INTER-LIGAND FREE ENERGY PREDICTED BY IDOCK:   -3.79 KCAL/MOL
REMARK 924 INTRA-LIGAND FREE ENERGY PREDICTED BY IDOCK:   -0.31 KCAL/MOL
REMARK 927      BINDING AFFINITY PREDICTED BY RF-SCORE:    0.00 PKD
ROOT
HETATM    1  C   UNL     1     -12.098   7.004  70.876  1.00  0.00    -0.357 C  
HETATM    2  N   UNL     1     -12.067   8.416  71.271  1.00  0.00    -0.291 NA 
HETATM    3  N   UNL     1     -11.352   9.304  70.430  1.00  0.00    -0.258 N  
HETATM    4  C   UNL     1     -14.402   8.431  72.272  1.00  0.00    -0.465 C  
HETATM    5  C   UNL     1     -11.989  10.549  70.432  1.00  0.00    -0.335 C  
HETATM    6  O   UNL     1     -11.646  11.617  69.950  1.00  0.00    -0.296 OA 
HETATM    7  C   UNL     1     -13.241   9.099  71.616  1.00  0.00    -0.377 C  
HETATM    8  C   UNL     1     -13.233  10.378  71.210  1.00  0.00    -0.431 C  
ENDROOT
BRANCH   3   9
HETATM    9  C   UNL     1     -10.020   9.097  70.027  1.00  0.00    -0.199 A  
HETATM   10  C   UNL     1      -8.333   8.703  68.330  1.00  0.00    -0.127 A  
HETATM   11  C   UNL     1      -7.334   8.774  69.296  1.00  0.00    -0.070 A  
HETATM   12  C   UNL     1      -9.674   8.884  68.689  1.00  0.00    -0.169 A  
HETATM   13  C   UNL     1      -7.671   9.001  70.629  1.00  0.00    -0.131 A  
HETATM   14  C   UNL     1      -9.010   9.135  70.995  1.00  0.00    -0.281 A  
ENDBRANCH   3   9
TORSDOF 1
ENDMDL
MODEL       87
REMARK 921   NORMALIZED FREE ENERGY PREDICTED BY IDOCK:   -3.59 KCAL/MOL
REMARK 922        TOTAL FREE ENERGY PREDICTED BY IDOCK:   -4.06 KCAL/MOL
REMARK 923 INTER-LIGAND FREE ENERGY PREDICTED BY IDOCK:   -3.77 KCAL/MOL
REMARK 924 INTRA-LIGAND FREE ENERGY PREDICTED BY IDOCK:   -0.29 KCAL/MOL
REMARK 927      BINDING AFFINITY PREDICTED BY RF-SCORE:    0.00 PKD
ROOT
HETATM    1  C   UNL     1     -10.698   7.706  70.343  1.00  0.00    -0.236 C  
HETATM    2  N   UNL     1     -10.915   9.157  70.367  1.00  0.00    -0.239 NA 
HETATM    3  N   UNL     1     -10.938   9.826  69.119  1.00  0.00    -0.207 N  
HETATM    4  C   UNL     1     -12.464   9.128  72.380  1.00  0.00    -0.350 C  
HETATM    5  C   UNL     1     -11.844  10.888  69.184  1.00  0.00    -0.317 C  
HETATM    6  O   UNL     1     -12.078  11.783  68.388  1.00  0.00    -0.490 OA 
HETATM    7  C   UNL     1     -11.962   9.722  71.107  1.00  0.00    -0.376 C  
HETATM    8  C   UNL     1     -12.509  10.785  70.499  1.00  0.00    -0.447 C  
ENDROOT
BRANCH   3   9
HETATM    9  C   UNL     1      -9.922   9.711  68.152  1.00  0.00    -0.159 A  
HETATM   10  C   UNL     1      -7.621   9.953  67.423  1.00  0.00    -0.091 A  
HETATM   11  C   UNL     1      -7.939   9.371  66.200  1.00  0.00    -0.110 A  
HETATM   12  C   UNL     1      -8.604  10.106  68.408  1.00  0.00    -0.119 A  
HETATM   13  C   UNL     1      -9.246   8.961  65.945  1.00  0.00    -0.290 A  
HETATM   14  C   UNL     1     -10.237   9.156  66.906  1.00  0.00    -0.336 A  
ENDBRANCH   3   9
TORSDOF 1
ENDMDL
MODEL       88
REMARK 921   NORMALIZED FREE ENERGY PREDICTED BY IDOCK:   -3.57 KCAL/MOL
REMARK 922        TOTAL FREE ENERGY PREDICTED BY IDOCK:   -4.04 KCAL/MOL
REMARK 923 INTER-LIGAND FREE ENERGY PREDICTED BY IDOCK:   -3.74 KCAL/MOL
REMARK 924 INTRA-LIGAND FREE ENERGY PREDICTED BY IDOCK:   -0.30 KCAL/MOL
REMARK 927      BINDING AFFINITY PREDICTED BY RF-SCORE:    0.00 PKD
ROOT
HETATM    1  C   UNL     1      -9.770   9.493  67.182  1.00  0.00    -0.171 C  
HETATM    2  N   UNL     1     -10.830   9.670  68.182  1.00  0.00    -0.222 NA 
HETATM    3  N   UNL     1     -10.579   9.167  69.482  1.00  0.00    -0.222 N  
HETATM    4  C   UNL     1     -11.631  11.906  67.281  1.00  0.00    -0.364 C  
HETATM    5  C   UNL     1     -11.195   9.998  70.422  1.00  0.00    -0.323 C  
HETATM    6  O   UNL     1     -11.333   9.867  71.627  1.00  0.00    -0.300 OA 
HETATM    7  C   UNL     1     -11.439  10.916  68.380  1.00  0.00    -0.304 C  
HETATM    8  C   UNL     1     -11.741  11.144  69.667  1.00  0.00    -0.410 C  
ENDROOT
BRANCH   3   9
HETATM    9  C   UNL     1     -10.165   7.847  69.742  1.00  0.00    -0.212 A  
HETATM   10  C   UNL     1      -8.498   6.218  70.415  1.00  0.00    -0.134 A  
HETATM   11  C   UNL     1      -9.443   5.202  70.322  1.00  0.00    -0.233 A  
HETATM   12  C   UNL     1      -8.860   7.544  70.145  1.00  0.00    -0.147 A  
HETATM   13  C   UNL     1     -10.749   5.500  69.936  1.00  0.00    -0.358 A  
HETATM   14  C   UNL     1     -11.099   6.812  69.622  1.00  0.00    -0.343 A  
ENDBRANCH   3   9
TORSDOF 1
ENDMDL
MODEL       89
REMARK 921   NORMALIZED FREE ENERGY PREDICTED BY IDOCK:   -3.56 KCAL/MOL
REMARK 922        TOTAL FREE ENERGY PREDICTED BY IDOCK:   -4.03 KCAL/MOL
REMARK 923 INTER-LIGAND FREE ENERGY PREDICTED BY IDOCK:   -3.83 KCAL/MOL
REMARK 924 INTRA-LIGAND FREE ENERGY PREDICTED BY IDOCK:   -0.20 KCAL/MOL
REMARK 927      BINDING AFFINITY PREDICTED BY RF-SCORE:    0.00 PKD
ROOT
HETATM    1  C   UNL     1     -10.832  13.868  69.389  1.00  0.00    -0.070 C  
HETATM    2  N   UNL     1     -11.857  12.911  69.820  1.00  0.00    -0.324 NA 
HETATM    3  N   UNL     1     -11.431  11.586  70.084  1.00  0.00    -0.232 N  
HETATM    4  C   UNL     1     -13.233  14.611  71.113  1.00  0.00    -0.431 C  
HETATM    5  C   UNL     1     -12.195  11.059  71.129  1.00  0.00    -0.310 C  
HETATM    6  O   UNL     1     -12.244   9.927  71.584  1.00  0.00    -0.382 OA 
HETATM    7  C   UNL     1     -12.751  13.224  70.853  1.00  0.00    -0.254 C  
HETATM    8  C   UNL     1     -13.045  12.163  71.620  1.00  0.00    -0.413 C  
ENDROOT
BRANCH   3   9
HETATM    9  C   UNL     1     -10.688  10.809  69.176  1.00  0.00    -0.227 A  
HETATM   10  C   UNL     1      -8.829   9.353  68.625  1.00  0.00    -0.132 A  
HETATM   11  C   UNL     1      -9.311   9.215  67.327  1.00  0.00    -0.166 A  
HETATM   12  C   UNL     1      -9.525  10.132  69.557  1.00  0.00    -0.235 A  
HETATM   13  C   UNL     1     -10.478   9.875  66.946  1.00  0.00    -0.284 A  
HETATM   14  C   UNL     1     -11.147  10.689  67.859  1.00  0.00    -0.371 A  
ENDBRANCH   3   9
TORSDOF 1
ENDMDL
MODEL       90
REMARK 921   NORMALIZED FREE ENERGY PREDICTED BY IDOCK:   -3.48 KCAL/MOL
REMARK 922        TOTAL FREE ENERGY PREDICTED BY IDOCK:   -3.95 KCAL/MOL
REMARK 923 INTER-LIGAND FREE ENERGY PREDICTED BY IDOCK:   -3.65 KCAL/MOL
REMARK 924 INTRA-LIGAND FREE ENERGY PREDICTED BY IDOCK:   -0.30 KCAL/MOL
REMARK 927      BINDING AFFINITY PREDICTED BY RF-SCORE:    0.00 PKD
ROOT
HETATM    1  C   UNL     1     -11.733  11.296  68.095  1.00  0.00    -0.253 C  
HETATM    2  N   UNL     1     -10.899  11.594  66.925  1.00  0.00    -0.263 NA 
HETATM    3  N   UNL     1     -10.424  10.490  66.175  1.00  0.00    -0.205 N  
HETATM    4  C   UNL     1     -12.104  13.748  66.323  1.00  0.00    -0.484 C  
HETATM    5  C   UNL     1     -10.360  10.848  64.825  1.00  0.00    -0.323 C  
HETATM    6  O   UNL     1      -9.898  10.250  63.866  1.00  0.00    -0.305 OA 
HETATM    7  C   UNL     1     -11.297  12.542  65.974  1.00  0.00    -0.344 C  
HETATM    8  C   UNL     1     -10.952  12.198  64.725  1.00  0.00    -0.356 C  
ENDROOT
BRANCH   3   9
HETATM    9  C   UNL     1      -9.736   9.400  66.739  1.00  0.00    -0.198 A  
HETATM   10  C   UNL     1      -9.585   7.070  67.396  1.00  0.00    -0.164 A  
HETATM   11  C   UNL     1      -8.267   7.262  67.800  1.00  0.00    -0.119 A  
HETATM   12  C   UNL     1     -10.315   8.132  66.847  1.00  0.00    -0.401 A  
HETATM   13  C   UNL     1      -7.680   8.520  67.680  1.00  0.00    -0.102 A  
HETATM   14  C   UNL     1      -8.420   9.589  67.177  1.00  0.00    -0.131 A  
ENDBRANCH   3   9
TORSDOF 1
ENDMDL
MODEL       91
REMARK 921   NORMALIZED FREE ENERGY PREDICTED BY IDOCK:   -3.48 KCAL/MOL
REMARK 922        TOTAL FREE ENERGY PREDICTED BY IDOCK:   -3.95 KCAL/MOL
REMARK 923 INTER-LIGAND FREE ENERGY PREDICTED BY IDOCK:   -3.64 KCAL/MOL
REMARK 924 INTRA-LIGAND FREE ENERGY PREDICTED BY IDOCK:   -0.31 KCAL/MOL
REMARK 927      BINDING AFFINITY PREDICTED BY RF-SCORE:    0.00 PKD
ROOT
HETATM    1  C   UNL     1      -9.831   4.585  69.090  1.00  0.00    -0.152 C  
HETATM    2  N   UNL     1     -10.538   5.736  68.517  1.00  0.00    -0.232 NA 
HETATM    3  N   UNL     1     -10.289   7.001  69.104  1.00  0.00    -0.194 N  
HETATM    4  C   UNL     1     -10.512   4.863  66.132  1.00  0.00    -0.346 C  
HETATM    5  C   UNL     1     -10.343   7.985  68.112  1.00  0.00    -0.200 C  
HETATM    6  O   UNL     1     -10.310   9.202  68.198  1.00  0.00    -0.198 OA 
HETATM    7  C   UNL     1     -10.548   5.966  67.136  1.00  0.00    -0.299 C  
HETATM    8  C   UNL     1     -10.503   7.272  66.828  1.00  0.00    -0.311 C  
ENDROOT
BRANCH   3   9
HETATM    9  C   UNL     1     -10.404   7.260  70.482  1.00  0.00    -0.206 A  
HETATM   10  C   UNL     1      -9.460   7.854  72.636  1.00  0.00    -0.284 A  
HETATM   11  C   UNL     1     -10.730   7.841  73.205  1.00  0.00    -0.414 A  
HETATM   12  C   UNL     1      -9.296   7.584  71.272  1.00  0.00    -0.157 A  
HETATM   13  C   UNL     1     -11.839   7.533  72.420  1.00  0.00    -0.305 A  
HETATM   14  C   UNL     1     -11.673   7.218  71.072  1.00  0.00    -0.340 A  
ENDBRANCH   3   9
TORSDOF 1
ENDMDL
MODEL       92
REMARK 921   NORMALIZED FREE ENERGY PREDICTED BY IDOCK:   -3.47 KCAL/MOL
REMARK 922        TOTAL FREE ENERGY PREDICTED BY IDOCK:   -3.94 KCAL/MOL
REMARK 923 INTER-LIGAND FREE ENERGY PREDICTED BY IDOCK:   -3.62 KCAL/MOL
REMARK 924 INTRA-LIGAND FREE ENERGY PREDICTED BY IDOCK:   -0.31 KCAL/MOL
REMARK 927      BINDING AFFINITY PREDICTED BY RF-SCORE:    0.00 PKD
ROOT
HETATM    1  C   UNL     1     -11.515   9.587  70.516  1.00  0.00    -0.276 C  
HETATM    2  N   UNL     1     -11.082  10.660  69.614  1.00  0.00    -0.264 NA 
HETATM    3  N   UNL     1     -10.885  10.317  68.253  1.00  0.00    -0.237 N  
HETATM    4  C   UNL     1     -12.375  12.498  70.799  1.00  0.00    -0.376 C  
HETATM    5  C   UNL     1     -11.239  11.406  67.450  1.00  0.00    -0.305 C  
HETATM    6  O   UNL     1     -11.109  11.582  66.250  1.00  0.00    -0.302 OA 
HETATM    7  C   UNL     1     -11.739  11.897  69.591  1.00  0.00    -0.343 C  
HETATM    8  C   UNL     1     -11.808  12.423  68.358  1.00  0.00    -0.361 C  
ENDROOT
BRANCH   3   9
HETATM    9  C   UNL     1     -10.075   9.249  67.826  1.00  0.00    -0.204 A  
HETATM   10  C   UNL     1      -9.758   7.101  66.745  1.00  0.00    -0.252 A  
HETATM   11  C   UNL     1      -8.383   7.201  66.934  1.00  0.00    -0.118 A  
HETATM   12  C   UNL     1     -10.604   8.132  67.171  1.00  0.00    -0.355 A  
HETATM   13  C   UNL     1      -7.849   8.318  67.572  1.00  0.00    -0.106 A  
HETATM   14  C   UNL     1      -8.694   9.324  68.040  1.00  0.00    -0.125 A  
ENDBRANCH   3   9
TORSDOF 1
ENDMDL
MODEL       93
REMARK 921   NORMALIZED FREE ENERGY PREDICTED BY IDOCK:   -3.46 KCAL/MOL
REMARK 922        TOTAL FREE ENERGY PREDICTED BY IDOCK:   -3.92 KCAL/MOL
REMARK 923 INTER-LIGAND FREE ENERGY PREDICTED BY IDOCK:   -3.62 KCAL/MOL
REMARK 924 INTRA-LIGAND FREE ENERGY PREDICTED BY IDOCK:   -0.30 KCAL/MOL
REMARK 927      BINDING AFFINITY PREDICTED BY RF-SCORE:    0.00 PKD
ROOT
HETATM    1  C   UNL     1      -7.161  10.937  66.383  1.00  0.00    -0.140 C  
HETATM    2  N   UNL     1      -8.183  10.254  67.184  1.00  0.00    -0.121 NA 
HETATM    3  N   UNL     1      -9.372   9.868  66.518  1.00  0.00    -0.158 N  
HETATM    4  C   UNL     1      -6.531   9.041  68.685  1.00  0.00    -0.054 C  
HETATM    5  C   UNL     1      -9.841   8.672  67.071  1.00  0.00    -0.220 C  
HETATM    6  O   UNL     1     -10.882   8.065  66.883  1.00  0.00    -0.267 OA 
HETATM    7  C   UNL     1      -7.854   9.169  68.007  1.00  0.00    -0.100 C  
HETATM    8  C   UNL     1      -8.814   8.233  68.039  1.00  0.00    -0.135 C  
ENDROOT
BRANCH   3   9
HETATM    9  C   UNL     1     -10.159  10.748  65.752  1.00  0.00    -0.261 A  
HETATM   10  C   UNL     1     -11.032  11.551  63.636  1.00  0.00    -0.482 A  
HETATM   11  C   UNL     1     -11.816  12.486  64.306  1.00  0.00    -0.468 A  
HETATM   12  C   UNL     1     -10.218  10.668  64.357  1.00  0.00    -0.400 A  
HETATM   13  C   UNL     1     -11.773  12.559  65.697  1.00  0.00    -0.473 A  
HETATM   14  C   UNL     1     -10.928  11.713  66.413  1.00  0.00    -0.345 A  
ENDBRANCH   3   9
TORSDOF 1
ENDMDL
MODEL       94
REMARK 921   NORMALIZED FREE ENERGY PREDICTED BY IDOCK:   -3.45 KCAL/MOL
REMARK 922        TOTAL FREE ENERGY PREDICTED BY IDOCK:   -3.92 KCAL/MOL
REMARK 923 INTER-LIGAND FREE ENERGY PREDICTED BY IDOCK:   -3.61 KCAL/MOL
REMARK 924 INTRA-LIGAND FREE ENERGY PREDICTED BY IDOCK:   -0.31 KCAL/MOL
REMARK 927      BINDING AFFINITY PREDICTED BY RF-SCORE:    0.00 PKD
ROOT
HETATM    1  C   UNL     1     -10.017   4.609  71.543  1.00  0.00    -0.195 C  
HETATM    2  N   UNL     1     -10.091   6.048  71.820  1.00  0.00    -0.185 NA 
HETATM    3  N   UNL     1     -10.736   6.857  70.852  1.00  0.00    -0.226 N  
HETATM    4  C   UNL     1     -10.320   5.790  74.337  1.00  0.00    -0.271 C  
HETATM    5  C   UNL     1     -11.395   7.907  71.498  1.00  0.00    -0.256 C  
HETATM    6  O   UNL     1     -11.960   8.889  71.044  1.00  0.00    -0.290 OA 
HETATM    7  C   UNL     1     -10.540   6.526  73.058  1.00  0.00    -0.250 C  
HETATM    8  C   UNL     1     -11.257   7.654  72.947  1.00  0.00    -0.426 C  
ENDROOT
BRANCH   3   9
HETATM    9  C   UNL     1     -10.405   6.852  69.484  1.00  0.00    -0.207 A  
HETATM   10  C   UNL     1     -10.921   6.400  67.158  1.00  0.00    -0.476 A  
HETATM   11  C   UNL     1      -9.704   6.953  66.772  1.00  0.00    -0.232 A  
HETATM   12  C   UNL     1     -11.284   6.366  68.510  1.00  0.00    -0.321 A  
HETATM   13  C   UNL     1      -8.832   7.453  67.737  1.00  0.00    -0.128 A  
HETATM   14  C   UNL     1      -9.170   7.377  69.087  1.00  0.00    -0.147 A  
ENDBRANCH   3   9
TORSDOF 1
ENDMDL
MODEL       95
REMARK 921   NORMALIZED FREE ENERGY PREDICTED BY IDOCK:   -3.43 KCAL/MOL
REMARK 922        TOTAL FREE ENERGY PREDICTED BY IDOCK:   -3.90 KCAL/MOL
REMARK 923 INTER-LIGAND FREE ENERGY PREDICTED BY IDOCK:   -3.63 KCAL/MOL
REMARK 924 INTRA-LIGAND FREE ENERGY PREDICTED BY IDOCK:   -0.27 KCAL/MOL
REMARK 927      BINDING AFFINITY PREDICTED BY RF-SCORE:    0.00 PKD
ROOT
HETATM    1  C   UNL     1      -9.376  12.806  66.616  1.00  0.00    -0.242 C  
HETATM    2  N   UNL     1     -10.656  12.624  67.311  1.00  0.00    -0.227 NA 
HETATM    3  N   UNL     1     -10.676  11.713  68.395  1.00  0.00    -0.206 N  
HETATM    4  C   UNL     1     -11.427  15.027  67.013  1.00  0.00    -0.288 C  
HETATM    5  C   UNL     1     -11.575  12.171  69.363  1.00  0.00    -0.317 C  
HETATM    6  O   UNL     1     -11.985  11.639  70.382  1.00  0.00    -0.357 OA 
HETATM    7  C   UNL     1     -11.410  13.724  67.740  1.00  0.00    -0.303 C  
HETATM    8  C   UNL     1     -12.031  13.501  68.908  1.00  0.00    -0.378 C  
ENDROOT
BRANCH   3   9
HETATM    9  C   UNL     1     -10.213  10.387  68.309  1.00  0.00    -0.160 A  
HETATM   10  C   UNL     1      -8.809   8.556  69.056  1.00  0.00    -0.145 A  
HETATM   11  C   UNL     1      -9.406   7.709  68.128  1.00  0.00    -0.146 A  
HETATM   12  C   UNL     1      -9.224   9.889  69.163  1.00  0.00    -0.184 A  
HETATM   13  C   UNL     1     -10.404   8.195  67.285  1.00  0.00    -0.373 A  
HETATM   14  C   UNL     1     -10.785   9.534  67.358  1.00  0.00    -0.297 A  
ENDBRANCH   3   9
TORSDOF 1
ENDMDL
MODEL       96
REMARK 921   NORMALIZED FREE ENERGY PREDICTED BY IDOCK:   -3.43 KCAL/MOL
REMARK 922        TOTAL FREE ENERGY PREDICTED BY IDOCK:   -3.90 KCAL/MOL
REMARK 923 INTER-LIGAND FREE ENERGY PREDICTED BY IDOCK:   -3.59 KCAL/MOL
REMARK 924 INTRA-LIGAND FREE ENERGY PREDICTED BY IDOCK:   -0.31 KCAL/MOL
REMARK 927      BINDING AFFINITY PREDICTED BY RF-SCORE:    0.00 PKD
ROOT
HETATM    1  C   UNL     1     -11.609   9.711  71.326  1.00  0.00    -0.393 C  
HETATM    2  N   UNL     1     -10.891  10.060  70.095  1.00  0.00    -0.290 NA 
HETATM    3  N   UNL     1     -10.771   9.049  69.110  1.00  0.00    -0.198 N  
HETATM    4  C   UNL     1     -11.666  12.480  70.051  1.00  0.00    -0.297 C  
HETATM    5  C   UNL     1     -10.809   9.636  67.842  1.00  0.00    -0.215 C  
HETATM    6  O   UNL     1     -10.618   9.154  66.737  1.00  0.00    -0.227 OA 
HETATM    7  C   UNL     1     -11.194  11.230  69.386  1.00  0.00    -0.280 C  
HETATM    8  C   UNL     1     -11.100  11.069  68.057  1.00  0.00    -0.343 C  
ENDROOT
BRANCH   3   9
HETATM    9  C   UNL     1     -10.269   7.761  69.371  1.00  0.00    -0.208 A  
HETATM   10  C   UNL     1     -10.508   5.349  69.478  1.00  0.00    -0.343 A  
HETATM   11  C   UNL     1      -9.168   5.224  69.831  1.00  0.00    -0.178 A  
HETATM   12  C   UNL     1     -11.056   6.613  69.228  1.00  0.00    -0.345 A  
HETATM   13  C   UNL     1      -8.375   6.363  69.960  1.00  0.00    -0.130 A  
HETATM   14  C   UNL     1      -8.930   7.625  69.757  1.00  0.00    -0.140 A  
ENDBRANCH   3   9
TORSDOF 1
ENDMDL
MODEL       97
REMARK 921   NORMALIZED FREE ENERGY PREDICTED BY IDOCK:   -3.41 KCAL/MOL
REMARK 922        TOTAL FREE ENERGY PREDICTED BY IDOCK:   -3.88 KCAL/MOL
REMARK 923 INTER-LIGAND FREE ENERGY PREDICTED BY IDOCK:   -3.63 KCAL/MOL
REMARK 924 INTRA-LIGAND FREE ENERGY PREDICTED BY IDOCK:   -0.25 KCAL/MOL
REMARK 927      BINDING AFFINITY PREDICTED BY RF-SCORE:    0.00 PKD
ROOT
HETATM    1  C   UNL     1     -11.182  10.564  69.790  1.00  0.00    -0.298 C  
HETATM    2  N   UNL     1     -11.905   9.549  70.565  1.00  0.00    -0.227 NA 
HETATM    3  N   UNL     1     -11.181   8.392  70.944  1.00  0.00    -0.258 N  
HETATM    4  C   UNL     1     -13.361  11.208  71.822  1.00  0.00    -0.378 C  
HETATM    5  C   UNL     1     -11.637   7.954  72.191  1.00  0.00    -0.328 C  
HETATM    6  O   UNL     1     -11.378   6.941  72.820  1.00  0.00    -0.258 OA 
HETATM    7  C   UNL     1     -12.658   9.898  71.693  1.00  0.00    -0.424 C  
HETATM    8  C   UNL     1     -12.598   8.972  72.662  1.00  0.00    -0.244 C  
ENDROOT
BRANCH   3   9
HETATM    9  C   UNL     1     -10.458   7.591  70.040  1.00  0.00    -0.228 A  
HETATM   10  C   UNL     1     -10.332   5.933  68.274  1.00  0.00    -0.263 A  
HETATM   11  C   UNL     1      -8.951   6.094  68.212  1.00  0.00    -0.114 A  
HETATM   12  C   UNL     1     -11.090   6.694  69.172  1.00  0.00    -0.332 A  
HETATM   13  C   UNL     1      -8.318   6.997  69.063  1.00  0.00    -0.126 A  
HETATM   14  C   UNL     1      -9.065   7.722  69.990  1.00  0.00    -0.150 A  
ENDBRANCH   3   9
TORSDOF 1
ENDMDL
MODEL       98
REMARK 921   NORMALIZED FREE ENERGY PREDICTED BY IDOCK:   -3.36 KCAL/MOL
REMARK 922        TOTAL FREE ENERGY PREDICTED BY IDOCK:   -3.82 KCAL/MOL
REMARK 923 INTER-LIGAND FREE ENERGY PREDICTED BY IDOCK:   -3.52 KCAL/MOL
REMARK 924 INTRA-LIGAND FREE ENERGY PREDICTED BY IDOCK:   -0.30 KCAL/MOL
REMARK 927      BINDING AFFINITY PREDICTED BY RF-SCORE:    0.00 PKD
ROOT
HETATM    1  C   UNL     1     -10.542   8.268  67.533  1.00  0.00    -0.221 C  
HETATM    2  N   UNL     1      -9.434   9.132  67.954  1.00  0.00    -0.140 NA 
HETATM    3  N   UNL     1      -9.417   9.543  69.309  1.00  0.00    -0.161 N  
HETATM    4  C   UNL     1      -7.714   8.077  66.410  1.00  0.00    -0.092 C  
HETATM    5  C   UNL     1      -8.091   9.644  69.741  1.00  0.00    -0.155 C  
HETATM    6  O   UNL     1      -7.626  10.078  70.783  1.00  0.00    -0.265 OA 
HETATM    7  C   UNL     1      -8.105   8.807  67.651  1.00  0.00    -0.106 C  
HETATM    8  C   UNL     1      -7.254   9.142  68.632  1.00  0.00    -0.075 C  
ENDROOT
BRANCH   3   9
HETATM    9  C   UNL     1     -10.508  10.153  69.955  1.00  0.00    -0.275 A  
HETATM   10  C   UNL     1     -12.108  11.957  70.213  1.00  0.00    -0.409 A  
HETATM   11  C   UNL     1     -12.739  11.262  71.239  1.00  0.00    -0.510 A  
HETATM   12  C   UNL     1     -11.006  11.398  69.555  1.00  0.00    -0.226 A  
HETATM   13  C   UNL     1     -12.257  10.014  71.631  1.00  0.00    -0.456 A  
HETATM   14  C   UNL     1     -11.132   9.476  71.009  1.00  0.00    -0.433 A  
ENDBRANCH   3   9
TORSDOF 1
ENDMDL
MODEL       99
REMARK 921   NORMALIZED FREE ENERGY PREDICTED BY IDOCK:   -3.35 KCAL/MOL
REMARK 922        TOTAL FREE ENERGY PREDICTED BY IDOCK:   -3.81 KCAL/MOL
REMARK 923 INTER-LIGAND FREE ENERGY PREDICTED BY IDOCK:   -3.59 KCAL/MOL
REMARK 924 INTRA-LIGAND FREE ENERGY PREDICTED BY IDOCK:   -0.22 KCAL/MOL
REMARK 927      BINDING AFFINITY PREDICTED BY RF-SCORE:    0.00 PKD
ROOT
HETATM    1  C   UNL     1      -7.659  10.113  69.595  1.00  0.00    -0.156 C  
HETATM    2  N   UNL     1      -8.723  10.354  68.614  1.00  0.00    -0.130 NA 
HETATM    3  N   UNL     1     -10.047  10.443  69.109  1.00  0.00    -0.211 N  
HETATM    4  C   UNL     1      -7.309  11.815  67.090  1.00  0.00    -0.146 C  
HETATM    5  C   UNL     1     -10.763  11.365  68.339  1.00  0.00    -0.203 C  
HETATM    6  O   UNL     1     -11.950  11.649  68.342  1.00  0.00    -0.483 OA 
HETATM    7  C   UNL     1      -8.615  11.379  67.665  1.00  0.00    -0.130 C  
HETATM    8  C   UNL     1      -9.791  11.971  67.407  1.00  0.00    -0.191 C  
ENDROOT
BRANCH   3   9
HETATM    9  C   UNL     1     -10.641   9.468  69.931  1.00  0.00    -0.241 A  
HETATM   10  C   UNL     1     -11.234   7.173  70.447  1.00  0.00    -0.320 A  
HETATM   11  C   UNL     1     -11.772   7.578  71.665  1.00  0.00    -0.313 A  
HETATM   12  C   UNL     1     -10.651   8.112  69.587  1.00  0.00    -0.223 A  
HETATM   13  C   UNL     1     -11.751   8.925  72.020  1.00  0.00    -0.438 A  
HETATM   14  C   UNL     1     -11.213   9.867  71.145  1.00  0.00    -0.404 A  
ENDBRANCH   3   9
TORSDOF 1
ENDMDL
MODEL      100
REMARK 921   NORMALIZED FREE ENERGY PREDICTED BY IDOCK:   -3.34 KCAL/MOL
REMARK 922        TOTAL FREE ENERGY PREDICTED BY IDOCK:   -3.80 KCAL/MOL
REMARK 923 INTER-LIGAND FREE ENERGY PREDICTED BY IDOCK:   -3.53 KCAL/MOL
REMARK 924 INTRA-LIGAND FREE ENERGY PREDICTED BY IDOCK:   -0.28 KCAL/MOL
REMARK 927      BINDING AFFINITY PREDICTED BY RF-SCORE:    0.00 PKD
ROOT
HETATM    1  C   UNL     1      -9.906  10.494  68.896  1.00  0.00    -0.201 C  
HETATM    2  N   UNL     1      -9.709   9.140  68.367  1.00  0.00    -0.149 NA 
HETATM    3  N   UNL     1     -10.419   8.091  69.001  1.00  0.00    -0.217 N  
HETATM    4  C   UNL     1      -9.431   9.872  65.950  1.00  0.00    -0.272 C  
HETATM    5  C   UNL     1     -10.764   7.129  68.047  1.00  0.00    -0.171 C  
HETATM    6  O   UNL     1     -11.264   6.023  68.179  1.00  0.00    -0.263 OA 
HETATM    7  C   UNL     1      -9.809   8.876  66.995  1.00  0.00    -0.214 C  
HETATM    8  C   UNL     1     -10.360   7.680  66.737  1.00  0.00    -0.343 C  
ENDROOT
BRANCH   3   9
HETATM    9  C   UNL     1     -10.392   7.856  70.388  1.00  0.00    -0.212 A  
HETATM   10  C   UNL     1      -9.273   7.143  72.418  1.00  0.00    -0.154 A  
HETATM   11  C   UNL     1     -10.391   7.494  73.168  1.00  0.00    -0.402 A  
HETATM   12  C   UNL     1      -9.262   7.341  71.032  1.00  0.00    -0.154 A  
HETATM   13  C   UNL     1     -11.514   8.022  72.533  1.00  0.00    -0.471 A  
HETATM   14  C   UNL     1     -11.523   8.177  71.148  1.00  0.00    -0.304 A  
ENDBRANCH   3   9
TORSDOF 1
ENDMDL
MODEL      101
REMARK 921   NORMALIZED FREE ENERGY PREDICTED BY IDOCK:   -3.34 KCAL/MOL
REMARK 922        TOTAL FREE ENERGY PREDICTED BY IDOCK:   -3.80 KCAL/MOL
REMARK 923 INTER-LIGAND FREE ENERGY PREDICTED BY IDOCK:   -3.64 KCAL/MOL
REMARK 924 INTRA-LIGAND FREE ENERGY PREDICTED BY IDOCK:   -0.15 KCAL/MOL
REMARK 927      BINDING AFFINITY PREDICTED BY RF-SCORE:    0.00 PKD
ROOT
HETATM    1  C   UNL     1      -9.149  14.572  67.428  1.00  0.00    -0.196 C  
HETATM    2  N   UNL     1     -10.515  14.551  67.963  1.00  0.00    -0.234 NA 
HETATM    3  N   UNL     1     -10.891  13.418  68.727  1.00  0.00    -0.250 N  
HETATM    4  C   UNL     1     -10.656  17.059  68.342  1.00  0.00    -0.375 C  
HETATM    5  C   UNL     1     -11.776  13.816  69.733  1.00  0.00    -0.302 C  
HETATM    6  O   UNL     1     -12.429  13.155  70.523  1.00  0.00    -0.313 OA 
HETATM    7  C   UNL     1     -11.041  15.651  68.652  1.00  0.00    -0.317 C  
HETATM    8  C   UNL     1     -11.845  15.291  69.665  1.00  0.00    -0.363 C  
ENDROOT
BRANCH   3   9
HETATM    9  C   UNL     1     -10.744  12.092  68.281  1.00  0.00    -0.224 A  
HETATM   10  C   UNL     1     -10.954  10.364  66.591  1.00  0.00    -0.067 A  
HETATM   11  C   UNL     1     -10.342   9.448  67.440  1.00  0.00    -0.325 A  
HETATM   12  C   UNL     1     -11.138  11.691  67.000  1.00  0.00    -0.359 A  
HETATM   13  C   UNL     1      -9.933   9.846  68.712  1.00  0.00    -0.183 A  
HETATM   14  C   UNL     1     -10.158  11.153  69.138  1.00  0.00    -0.134 A  
ENDBRANCH   3   9
TORSDOF 1
ENDMDL
MODEL      102
REMARK 921   NORMALIZED FREE ENERGY PREDICTED BY IDOCK:   -3.32 KCAL/MOL
REMARK 922        TOTAL FREE ENERGY PREDICTED BY IDOCK:   -3.77 KCAL/MOL
REMARK 923 INTER-LIGAND FREE ENERGY PREDICTED BY IDOCK:   -3.46 KCAL/MOL
REMARK 924 INTRA-LIGAND FREE ENERGY PREDICTED BY IDOCK:   -0.31 KCAL/MOL
REMARK 927      BINDING AFFINITY PREDICTED BY RF-SCORE:    0.00 PKD
ROOT
HETATM    1  C   UNL     1      -8.310  18.933  68.602  1.00  0.00    -0.349 C  
HETATM    2  N   UNL     1      -8.614  18.176  67.383  1.00  0.00    -0.242 NA 
HETATM    3  N   UNL     1      -8.663  16.765  67.496  1.00  0.00    -0.197 N  
HETATM    4  C   UNL     1     -10.181  19.922  66.408  1.00  0.00    -0.617 C  
HETATM    5  C   UNL     1      -9.632  16.268  66.620  1.00  0.00    -0.246 C  
HETATM    6  O   UNL     1      -9.911  15.121  66.312  1.00  0.00    -0.260 OA 
HETATM    7  C   UNL     1      -9.701  18.519  66.569  1.00  0.00    -0.343 C  
HETATM    8  C   UNL     1     -10.305  17.446  66.034  1.00  0.00    -0.309 C  
ENDROOT
BRANCH   3   9
HETATM    9  C   UNL     1      -7.631  15.990  68.057  1.00  0.00    -0.129 A  
HETATM   10  C   UNL     1      -6.750  14.511  69.765  1.00  0.00    -0.150 A  
HETATM   11  C   UNL     1      -5.552  14.402  69.065  1.00  0.00    -0.084 A  
HETATM   12  C   UNL     1      -7.797  15.287  69.255  1.00  0.00    -0.221 A  
HETATM   13  C   UNL     1      -5.386  15.088  67.863  1.00  0.00    -0.108 A  
HETATM   14  C   UNL     1      -6.411  15.899  67.377  1.00  0.00    -0.209 A  
ENDBRANCH   3   9
TORSDOF 1
ENDMDL
MODEL      103
REMARK 921   NORMALIZED FREE ENERGY PREDICTED BY IDOCK:   -3.30 KCAL/MOL
REMARK 922        TOTAL FREE ENERGY PREDICTED BY IDOCK:   -3.75 KCAL/MOL
REMARK 923 INTER-LIGAND FREE ENERGY PREDICTED BY IDOCK:   -3.49 KCAL/MOL
REMARK 924 INTRA-LIGAND FREE ENERGY PREDICTED BY IDOCK:   -0.26 KCAL/MOL
REMARK 927      BINDING AFFINITY PREDICTED BY RF-SCORE:    0.00 PKD
ROOT
HETATM    1  C   UNL     1     -11.001  10.880  69.891  1.00  0.00    -0.199 C  
HETATM    2  N   UNL     1      -9.821  10.771  69.026  1.00  0.00    -0.203 NA 
HETATM    3  N   UNL     1      -9.444  11.929  68.303  1.00  0.00    -0.194 N  
HETATM    4  C   UNL     1      -8.574   9.151  70.535  1.00  0.00    -0.252 C  
HETATM    5  C   UNL     1      -8.051  11.965  68.188  1.00  0.00    -0.155 C  
HETATM    6  O   UNL     1      -7.326  12.710  67.548  1.00  0.00    -0.128 OA 
HETATM    7  C   UNL     1      -8.621  10.227  69.502  1.00  0.00    -0.138 C  
HETATM    8  C   UNL     1      -7.539  10.840  68.997  1.00  0.00    -0.126 C  
ENDROOT
BRANCH   3   9
HETATM    9  C   UNL     1     -10.325  12.660  67.484  1.00  0.00    -0.218 A  
HETATM   10  C   UNL     1     -11.913  12.825  65.658  1.00  0.00    -0.503 A  
HETATM   11  C   UNL     1     -12.124  14.168  65.952  1.00  0.00    -0.441 A  
HETATM   12  C   UNL     1     -11.030  12.063  66.433  1.00  0.00    -0.337 A  
HETATM   13  C   UNL     1     -11.436  14.764  67.008  1.00  0.00    -0.362 A  
HETATM   14  C   UNL     1     -10.522  14.020  67.752  1.00  0.00    -0.236 A  
ENDBRANCH   3   9
TORSDOF 1
ENDMDL
MODEL      104
REMARK 921   NORMALIZED FREE ENERGY PREDICTED BY IDOCK:   -3.29 KCAL/MOL
REMARK 922        TOTAL FREE ENERGY PREDICTED BY IDOCK:   -3.75 KCAL/MOL
REMARK 923 INTER-LIGAND FREE ENERGY PREDICTED BY IDOCK:   -3.45 KCAL/MOL
REMARK 924 INTRA-LIGAND FREE ENERGY PREDICTED BY IDOCK:   -0.30 KCAL/MOL
REMARK 927      BINDING AFFINITY PREDICTED BY RF-SCORE:    0.00 PKD
ROOT
HETATM    1  C   UNL     1      -7.429   9.595  68.044  1.00  0.00    -0.082 C  
HETATM    2  N   UNL     1      -8.656   8.871  68.395  1.00  0.00    -0.133 NA 
HETATM    3  N   UNL     1      -9.639   8.741  67.384  1.00  0.00    -0.155 N  
HETATM    4  C   UNL     1      -7.517   7.233  69.968  1.00  0.00    -0.085 C  
HETATM    5  C   UNL     1     -10.289   7.512  67.531  1.00  0.00    -0.252 C  
HETATM    6  O   UNL     1     -11.267   7.057  66.961  1.00  0.00    -0.328 OA 
HETATM    7  C   UNL     1      -8.604   7.619  69.022  1.00  0.00    -0.136 C  
HETATM    8  C   UNL     1      -9.577   6.793  68.609  1.00  0.00    -0.131 C  
ENDROOT
BRANCH   3   9
HETATM    9  C   UNL     1     -10.155   9.826  66.652  1.00  0.00    -0.237 A  
HETATM   10  C   UNL     1     -11.376  11.916  66.493  1.00  0.00    -0.403 A  
HETATM   11  C   UNL     1     -11.076  11.997  65.137  1.00  0.00    -0.369 A  
HETATM   12  C   UNL     1     -10.900  10.843  67.257  1.00  0.00    -0.342 A  
HETATM   13  C   UNL     1     -10.321  10.995  64.531  1.00  0.00    -0.420 A  
HETATM   14  C   UNL     1      -9.886   9.902  65.280  1.00  0.00    -0.373 A  
ENDBRANCH   3   9
TORSDOF 1
ENDMDL
MODEL      105
REMARK 921   NORMALIZED FREE ENERGY PREDICTED BY IDOCK:   -3.29 KCAL/MOL
REMARK 922        TOTAL FREE ENERGY PREDICTED BY IDOCK:   -3.74 KCAL/MOL
REMARK 923 INTER-LIGAND FREE ENERGY PREDICTED BY IDOCK:   -3.44 KCAL/MOL
REMARK 924 INTRA-LIGAND FREE ENERGY PREDICTED BY IDOCK:   -0.30 KCAL/MOL
REMARK 927      BINDING AFFINITY PREDICTED BY RF-SCORE:    0.00 PKD
ROOT
HETATM    1  C   UNL     1      -8.915   9.775  69.617  1.00  0.00    -0.215 C  
HETATM    2  N   UNL     1      -8.982   8.683  68.639  1.00  0.00    -0.142 NA 
HETATM    3  N   UNL     1     -10.099   7.815  68.717  1.00  0.00    -0.191 N  
HETATM    4  C   UNL     1      -7.897   9.993  66.752  1.00  0.00    -0.110 C  
HETATM    5  C   UNL     1     -10.446   7.398  67.429  1.00  0.00    -0.296 C  
HETATM    6  O   UNL     1     -11.256   6.564  67.056  1.00  0.00    -0.397 OA 
HETATM    7  C   UNL     1      -8.797   8.923  67.271  1.00  0.00    -0.128 C  
HETATM    8  C   UNL     1      -9.580   8.153  66.501  1.00  0.00    -0.303 C  
ENDROOT
BRANCH   3   9
HETATM    9  C   UNL     1     -10.497   7.159  69.896  1.00  0.00    -0.223 A  
HETATM   10  C   UNL     1     -12.016   6.835  71.759  1.00  0.00    -0.382 A  
HETATM   11  C   UNL     1     -11.266   5.747  72.192  1.00  0.00    -0.327 A  
HETATM   12  C   UNL     1     -11.646   7.531  70.602  1.00  0.00    -0.272 A  
HETATM   13  C   UNL     1     -10.128   5.362  71.485  1.00  0.00    -0.253 A  
HETATM   14  C   UNL     1      -9.732   6.082  70.359  1.00  0.00    -0.206 A  
ENDBRANCH   3   9
TORSDOF 1
ENDMDL
MODEL      106
REMARK 921   NORMALIZED FREE ENERGY PREDICTED BY IDOCK:   -3.28 KCAL/MOL
REMARK 922        TOTAL FREE ENERGY PREDICTED BY IDOCK:   -3.74 KCAL/MOL
REMARK 923 INTER-LIGAND FREE ENERGY PREDICTED BY IDOCK:   -3.52 KCAL/MOL
REMARK 924 INTRA-LIGAND FREE ENERGY PREDICTED BY IDOCK:   -0.21 KCAL/MOL
REMARK 927      BINDING AFFINITY PREDICTED BY RF-SCORE:    0.00 PKD
ROOT
HETATM    1  C   UNL     1     -10.969  11.303  68.695  1.00  0.00    -0.218 C  
HETATM    2  N   UNL     1      -9.876  10.510  68.120  1.00  0.00    -0.150 NA 
HETATM    3  N   UNL     1      -9.180  11.072  67.022  1.00  0.00    -0.153 N  
HETATM    4  C   UNL     1      -9.151   9.478  70.326  1.00  0.00    -0.296 C  
HETATM    5  C   UNL     1      -7.838  10.684  67.082  1.00  0.00    -0.117 C  
HETATM    6  O   UNL     1      -6.930  10.839  66.282  1.00  0.00    -0.125 OA 
HETATM    7  C   UNL     1      -8.886   9.943  68.933  1.00  0.00    -0.145 C  
HETATM    8  C   UNL     1      -7.675   9.953  68.356  1.00  0.00    -0.084 C  
ENDROOT
BRANCH   3   9
HETATM    9  C   UNL     1      -9.812  11.559  65.863  1.00  0.00    -0.231 A  
HETATM   10  C   UNL     1     -10.729  13.357  64.518  1.00  0.00    -0.434 A  
HETATM   11  C   UNL     1     -10.997  12.461  63.488  1.00  0.00    -0.506 A  
HETATM   12  C   UNL     1     -10.120  12.914  65.698  1.00  0.00    -0.282 A  
HETATM   13  C   UNL     1     -10.679  11.113  63.641  1.00  0.00    -0.381 A  
HETATM   14  C   UNL     1     -10.114  10.661  64.833  1.00  0.00    -0.402 A  
ENDBRANCH   3   9
TORSDOF 1
ENDMDL
MODEL      107
REMARK 921   NORMALIZED FREE ENERGY PREDICTED BY IDOCK:   -3.26 KCAL/MOL
REMARK 922        TOTAL FREE ENERGY PREDICTED BY IDOCK:   -3.71 KCAL/MOL
REMARK 923 INTER-LIGAND FREE ENERGY PREDICTED BY IDOCK:   -3.45 KCAL/MOL
REMARK 924 INTRA-LIGAND FREE ENERGY PREDICTED BY IDOCK:   -0.26 KCAL/MOL
REMARK 927      BINDING AFFINITY PREDICTED BY RF-SCORE:    0.00 PKD
ROOT
HETATM    1  C   UNL     1      -8.074  10.646  66.679  1.00  0.00    -0.136 C  
HETATM    2  N   UNL     1      -8.412   9.245  66.953  1.00  0.00    -0.126 NA 
HETATM    3  N   UNL     1      -9.746   8.968  67.342  1.00  0.00    -0.159 N  
HETATM    4  C   UNL     1      -6.853   8.281  65.194  1.00  0.00    -0.069 C  
HETATM    5  C   UNL     1     -10.120   7.719  66.838  1.00  0.00    -0.286 C  
HETATM    6  O   UNL     1     -11.122   7.051  67.036  1.00  0.00    -0.373 OA 
HETATM    7  C   UNL     1      -8.073   8.228  66.051  1.00  0.00    -0.110 C  
HETATM    8  C   UNL     1      -9.004   7.264  65.984  1.00  0.00    -0.149 C  
ENDROOT
BRANCH   3   9
HETATM    9  C   UNL     1     -10.404   9.626  68.397  1.00  0.00    -0.204 A  
HETATM   10  C   UNL     1     -11.975  11.264  69.252  1.00  0.00    -0.411 A  
HETATM   11  C   UNL     1     -11.734  10.830  70.551  1.00  0.00    -0.449 A  
HETATM   12  C   UNL     1     -11.328  10.652  68.172  1.00  0.00    -0.354 A  
HETATM   13  C   UNL     1     -10.826   9.798  70.781  1.00  0.00    -0.403 A  
HETATM   14  C   UNL     1     -10.145   9.218  69.711  1.00  0.00    -0.218 A  
ENDBRANCH   3   9
TORSDOF 1
ENDMDL
MODEL      108
REMARK 921   NORMALIZED FREE ENERGY PREDICTED BY IDOCK:   -3.23 KCAL/MOL
REMARK 922        TOTAL FREE ENERGY PREDICTED BY IDOCK:   -3.69 KCAL/MOL
REMARK 923 INTER-LIGAND FREE ENERGY PREDICTED BY IDOCK:   -3.38 KCAL/MOL
REMARK 924 INTRA-LIGAND FREE ENERGY PREDICTED BY IDOCK:   -0.31 KCAL/MOL
REMARK 927      BINDING AFFINITY PREDICTED BY RF-SCORE:    0.00 PKD
ROOT
HETATM    1  C   UNL     1     -11.925   6.300  72.384  1.00  0.00    -0.188 C  
HETATM    2  N   UNL     1     -11.757   7.751  72.238  1.00  0.00    -0.323 NA 
HETATM    3  N   UNL     1     -10.568   8.201  71.614  1.00  0.00    -0.222 N  
HETATM    4  C   UNL     1     -14.226   8.239  71.889  1.00  0.00    -0.535 C  
HETATM    5  C   UNL     1     -10.845   9.359  70.881  1.00  0.00    -0.322 C  
HETATM    6  O   UNL     1     -10.098  10.130  70.301  1.00  0.00    -0.227 OA 
HETATM    7  C   UNL     1     -12.778   8.549  71.706  1.00  0.00    -0.349 C  
HETATM    8  C   UNL     1     -12.308   9.554  70.952  1.00  0.00    -0.305 C  
ENDROOT
BRANCH   3   9
HETATM    9  C   UNL     1      -9.278   7.809  72.015  1.00  0.00    -0.144 A  
HETATM   10  C   UNL     1      -7.147   6.722  71.612  1.00  0.00    -0.076 A  
HETATM   11  C   UNL     1      -6.691   7.137  72.860  1.00  0.00    -0.064 A  
HETATM   12  C   UNL     1      -8.431   7.073  71.179  1.00  0.00    -0.119 A  
HETATM   13  C   UNL     1      -7.524   7.883  73.691  1.00  0.00    -0.179 A  
HETATM   14  C   UNL     1      -8.819   8.194  73.281  1.00  0.00    -0.324 A  
ENDBRANCH   3   9
TORSDOF 1
ENDMDL
MODEL      109
REMARK 921   NORMALIZED FREE ENERGY PREDICTED BY IDOCK:   -3.22 KCAL/MOL
REMARK 922        TOTAL FREE ENERGY PREDICTED BY IDOCK:   -3.67 KCAL/MOL
REMARK 923 INTER-LIGAND FREE ENERGY PREDICTED BY IDOCK:   -3.43 KCAL/MOL
REMARK 924 INTRA-LIGAND FREE ENERGY PREDICTED BY IDOCK:   -0.24 KCAL/MOL
REMARK 927      BINDING AFFINITY PREDICTED BY RF-SCORE:    0.00 PKD
ROOT
HETATM    1  C   UNL     1      -9.669   9.920  67.784  1.00  0.00    -0.150 C  
HETATM    2  N   UNL     1      -8.963  10.251  69.027  1.00  0.00    -0.162 NA 
HETATM    3  N   UNL     1      -9.276   9.478  70.171  1.00  0.00    -0.229 N  
HETATM    4  C   UNL     1      -6.791  10.920  67.891  1.00  0.00    -0.068 C  
HETATM    5  C   UNL     1      -8.129   9.336  70.957  1.00  0.00    -0.066 C  
HETATM    6  O   UNL     1      -7.982   8.858  72.070  1.00  0.00    -0.350 OA 
HETATM    7  C   UNL     1      -7.571  10.400  69.052  1.00  0.00    -0.108 C  
HETATM    8  C   UNL     1      -7.022   9.942  70.188  1.00  0.00    -0.138 C  
ENDROOT
BRANCH   3   9
HETATM    9  C   UNL     1     -10.587   9.272  70.640  1.00  0.00    -0.262 A  
HETATM   10  C   UNL     1     -12.758  10.082  71.357  1.00  0.00    -0.518 A  
HETATM   11  C   UNL     1     -13.210   8.773  71.493  1.00  0.00    -0.356 A  
HETATM   12  C   UNL     1     -11.454  10.335  70.912  1.00  0.00    -0.425 A  
HETATM   13  C   UNL     1     -12.355   7.710  71.209  1.00  0.00    -0.334 A  
HETATM   14  C   UNL     1     -11.043   7.959  70.811  1.00  0.00    -0.264 A  
ENDBRANCH   3   9
TORSDOF 1
ENDMDL
MODEL      110
REMARK 921   NORMALIZED FREE ENERGY PREDICTED BY IDOCK:   -3.22 KCAL/MOL
REMARK 922        TOTAL FREE ENERGY PREDICTED BY IDOCK:   -3.67 KCAL/MOL
REMARK 923 INTER-LIGAND FREE ENERGY PREDICTED BY IDOCK:   -3.38 KCAL/MOL
REMARK 924 INTRA-LIGAND FREE ENERGY PREDICTED BY IDOCK:   -0.29 KCAL/MOL
REMARK 927      BINDING AFFINITY PREDICTED BY RF-SCORE:    0.00 PKD
ROOT
HETATM    1  C   UNL     1      -8.450   8.531  66.132  1.00  0.00    -0.132 C  
HETATM    2  N   UNL     1      -9.790   9.067  66.398  1.00  0.00    -0.267 NA 
HETATM    3  N   UNL     1     -10.198   9.138  67.752  1.00  0.00    -0.210 N  
HETATM    4  C   UNL     1      -9.762  10.729  64.476  1.00  0.00    -0.351 C  
HETATM    5  C   UNL     1     -11.013  10.261  67.928  1.00  0.00    -0.292 C  
HETATM    6  O   UNL     1     -11.668  10.623  68.891  1.00  0.00    -0.272 OA 
HETATM    7  C   UNL     1     -10.217  10.271  65.821  1.00  0.00    -0.219 C  
HETATM    8  C   UNL     1     -10.995  10.990  66.643  1.00  0.00    -0.253 C  
ENDROOT
BRANCH   3   9
HETATM    9  C   UNL     1     -10.152   8.047  68.640  1.00  0.00    -0.199 A  
HETATM   10  C   UNL     1     -10.763   5.794  69.298  1.00  0.00    -0.386 A  
HETATM   11  C   UNL     1      -9.941   5.889  70.417  1.00  0.00    -0.247 A  
HETATM   12  C   UNL     1     -10.855   6.862  68.397  1.00  0.00    -0.238 A  
HETATM   13  C   UNL     1      -9.227   7.062  70.655  1.00  0.00    -0.158 A  
HETATM   14  C   UNL     1      -9.353   8.143  69.785  1.00  0.00    -0.159 A  
ENDBRANCH   3   9
TORSDOF 1
ENDMDL
MODEL      111
REMARK 921   NORMALIZED FREE ENERGY PREDICTED BY IDOCK:   -3.21 KCAL/MOL
REMARK 922        TOTAL FREE ENERGY PREDICTED BY IDOCK:   -3.66 KCAL/MOL
REMARK 923 INTER-LIGAND FREE ENERGY PREDICTED BY IDOCK:   -3.67 KCAL/MOL
REMARK 924 INTRA-LIGAND FREE ENERGY PREDICTED BY IDOCK:    0.00 KCAL/MOL
REMARK 927      BINDING AFFINITY PREDICTED BY RF-SCORE:    0.00 PKD
ROOT
HETATM    1  C   UNL     1     -10.611   8.223  67.256  1.00  0.00    -0.265 C  
HETATM    2  N   UNL     1     -10.290   9.480  67.941  1.00  0.00    -0.213 NA 
HETATM    3  N   UNL     1     -10.672  10.681  67.294  1.00  0.00    -0.270 N  
HETATM    4  C   UNL     1     -10.620   8.559  70.285  1.00  0.00    -0.238 C  
HETATM    5  C   UNL     1     -11.026  11.629  68.259  1.00  0.00    -0.226 C  
HETATM    6  O   UNL     1     -11.292  12.815  68.147  1.00  0.00    -0.249 OA 
HETATM    7  C   UNL     1     -10.609   9.671  69.291  1.00  0.00    -0.219 C  
HETATM    8  C   UNL     1     -10.986  10.931  69.561  1.00  0.00    -0.306 C  
ENDROOT
BRANCH   3   9
HETATM    9  C   UNL     1     -10.335  10.994  65.964  1.00  0.00    -0.254 A  
HETATM   10  C   UNL     1      -8.813  10.960  64.076  1.00  0.00    -0.055 A  
HETATM   11  C   UNL     1      -9.773  11.579  63.281  1.00  0.00    -0.405 A  
HETATM   12  C   UNL     1      -9.097  10.649  65.411  1.00  0.00    -0.214 A  
HETATM   13  C   UNL     1     -11.013  11.911  63.822  1.00  0.00    -0.494 A  
HETATM   14  C   UNL     1     -11.282  11.644  65.164  1.00  0.00    -0.262 A  
ENDBRANCH   3   9
TORSDOF 1
ENDMDL
MODEL      112
REMARK 921   NORMALIZED FREE ENERGY PREDICTED BY IDOCK:   -3.21 KCAL/MOL
REMARK 922        TOTAL FREE ENERGY PREDICTED BY IDOCK:   -3.66 KCAL/MOL
REMARK 923 INTER-LIGAND FREE ENERGY PREDICTED BY IDOCK:   -3.39 KCAL/MOL
REMARK 924 INTRA-LIGAND FREE ENERGY PREDICTED BY IDOCK:   -0.28 KCAL/MOL
REMARK 927      BINDING AFFINITY PREDICTED BY RF-SCORE:    0.00 PKD
ROOT
HETATM    1  C   UNL     1     -11.120  11.604  64.694  1.00  0.00    -0.278 C  
HETATM    2  N   UNL     1     -11.105  11.720  66.157  1.00  0.00    -0.310 NA 
HETATM    3  N   UNL     1     -10.063  11.052  66.846  1.00  0.00    -0.203 N  
HETATM    4  C   UNL     1     -12.019  14.091  66.212  1.00  0.00    -0.454 C  
HETATM    5  C   UNL     1      -9.705  11.799  67.972  1.00  0.00    -0.185 C  
HETATM    6  O   UNL     1      -8.951  11.534  68.894  1.00  0.00    -0.095 OA 
HETATM    7  C   UNL     1     -11.223  12.966  66.787  1.00  0.00    -0.298 C  
HETATM    8  C   UNL     1     -10.477  13.057  67.898  1.00  0.00    -0.234 C  
ENDROOT
BRANCH   3   9
HETATM    9  C   UNL     1      -9.759   9.690  66.670  1.00  0.00    -0.209 A  
HETATM   10  C   UNL     1     -10.257   7.332  66.940  1.00  0.00    -0.340 A  
HETATM   11  C   UNL     1      -9.124   7.000  66.205  1.00  0.00    -0.178 A  
HETATM   12  C   UNL     1     -10.589   8.674  67.157  1.00  0.00    -0.304 A  
HETATM   13  C   UNL     1      -8.302   8.007  65.704  1.00  0.00    -0.146 A  
HETATM   14  C   UNL     1      -8.604   9.344  65.959  1.00  0.00    -0.154 A  
ENDBRANCH   3   9
TORSDOF 1
ENDMDL
MODEL      113
REMARK 921   NORMALIZED FREE ENERGY PREDICTED BY IDOCK:   -3.21 KCAL/MOL
REMARK 922        TOTAL FREE ENERGY PREDICTED BY IDOCK:   -3.66 KCAL/MOL
REMARK 923 INTER-LIGAND FREE ENERGY PREDICTED BY IDOCK:   -3.35 KCAL/MOL
REMARK 924 INTRA-LIGAND FREE ENERGY PREDICTED BY IDOCK:   -0.31 KCAL/MOL
REMARK 927      BINDING AFFINITY PREDICTED BY RF-SCORE:    0.00 PKD
ROOT
HETATM    1  C   UNL     1     -10.474   8.970  66.513  1.00  0.00    -0.122 C  
HETATM    2  N   UNL     1      -9.319   9.814  66.187  1.00  0.00    -0.177 NA 
HETATM    3  N   UNL     1      -9.406  11.185  66.532  1.00  0.00    -0.176 N  
HETATM    4  C   UNL     1      -7.584   8.002  66.586  1.00  0.00    -0.093 C  
HETATM    5  C   UNL     1      -8.137  11.649  66.891  1.00  0.00    -0.164 C  
HETATM    6  O   UNL     1      -7.743  12.778  67.134  1.00  0.00    -0.146 OA 
HETATM    7  C   UNL     1      -8.018   9.428  66.533  1.00  0.00    -0.108 C  
HETATM    8  C   UNL     1      -7.249  10.467  66.894  1.00  0.00    -0.106 C  
ENDROOT
BRANCH   3   9
HETATM    9  C   UNL     1     -10.476  12.019  66.159  1.00  0.00    -0.236 A  
HETATM   10  C   UNL     1     -12.347  13.469  66.688  1.00  0.00    -0.351 A  
HETATM   11  C   UNL     1     -12.537  13.731  65.334  1.00  0.00    -0.534 A  
HETATM   12  C   UNL     1     -11.307  12.630  67.104  1.00  0.00    -0.373 A  
HETATM   13  C   UNL     1     -11.703  13.138  64.389  1.00  0.00    -0.429 A  
HETATM   14  C   UNL     1     -10.696  12.266  64.798  1.00  0.00    -0.338 A  
ENDBRANCH   3   9
TORSDOF 1
ENDMDL
MODEL      114
REMARK 921   NORMALIZED FREE ENERGY PREDICTED BY IDOCK:   -3.21 KCAL/MOL
REMARK 922        TOTAL FREE ENERGY PREDICTED BY IDOCK:   -3.66 KCAL/MOL
REMARK 923 INTER-LIGAND FREE ENERGY PREDICTED BY IDOCK:   -3.37 KCAL/MOL
REMARK 924 INTRA-LIGAND FREE ENERGY PREDICTED BY IDOCK:   -0.29 KCAL/MOL
REMARK 927      BINDING AFFINITY PREDICTED BY RF-SCORE:    0.00 PKD
ROOT
HETATM    1  C   UNL     1     -11.133  12.648  65.411  1.00  0.00    -0.292 C  
HETATM    2  N   UNL     1     -10.553  13.557  66.407  1.00  0.00    -0.280 NA 
HETATM    3  N   UNL     1      -9.691  12.986  67.375  1.00  0.00    -0.208 N  
HETATM    4  C   UNL     1     -10.366  15.540  64.831  1.00  0.00    -0.208 C  
HETATM    5  C   UNL     1      -8.691  13.907  67.698  1.00  0.00    -0.187 C  
HETATM    6  O   UNL     1      -7.829  13.873  68.562  1.00  0.00    -0.133 OA 
HETATM    7  C   UNL     1      -9.935  14.753  66.022  1.00  0.00    -0.313 C  
HETATM    8  C   UNL     1      -8.872  15.053  66.783  1.00  0.00    -0.299 C  
ENDROOT
BRANCH   3   9
HETATM    9  C   UNL     1     -10.037  11.880  68.173  1.00  0.00    -0.198 A  
HETATM   10  C   UNL     1     -11.459  10.769  69.794  1.00  0.00    -0.386 A  
HETATM   11  C   UNL     1     -10.706   9.606  69.669  1.00  0.00    -0.260 A  
HETATM   12  C   UNL     1     -11.140  11.900  69.034  1.00  0.00    -0.300 A  
HETATM   13  C   UNL     1      -9.616   9.574  68.802  1.00  0.00    -0.159 A  
HETATM   14  C   UNL     1      -9.268  10.714  68.079  1.00  0.00    -0.148 A  
ENDBRANCH   3   9
TORSDOF 1
ENDMDL
MODEL      115
REMARK 921   NORMALIZED FREE ENERGY PREDICTED BY IDOCK:   -3.15 KCAL/MOL
REMARK 922        TOTAL FREE ENERGY PREDICTED BY IDOCK:   -3.60 KCAL/MOL
REMARK 923 INTER-LIGAND FREE ENERGY PREDICTED BY IDOCK:   -3.46 KCAL/MOL
REMARK 924 INTRA-LIGAND FREE ENERGY PREDICTED BY IDOCK:   -0.14 KCAL/MOL
REMARK 927      BINDING AFFINITY PREDICTED BY RF-SCORE:    0.00 PKD
ROOT
HETATM    1  C   UNL     1     -11.879   6.932  70.409  1.00  0.00    -0.299 C  
HETATM    2  N   UNL     1     -10.579   6.947  69.728  1.00  0.00    -0.223 NA 
HETATM    3  N   UNL     1      -9.879   8.178  69.703  1.00  0.00    -0.181 N  
HETATM    4  C   UNL     1      -9.948   4.573  70.377  1.00  0.00    -0.284 C  
HETATM    5  C   UNL     1      -8.506   7.926  69.765  1.00  0.00    -0.132 C  
HETATM    6  O   UNL     1      -7.554   8.680  69.647  1.00  0.00    -0.076 OA 
HETATM    7  C   UNL     1      -9.607   5.976  70.000  1.00  0.00    -0.163 C  
HETATM    8  C   UNL     1      -8.360   6.470  69.972  1.00  0.00    -0.134 C  
ENDROOT
BRANCH   3   9
HETATM    9  C   UNL     1     -10.443   9.388  69.257  1.00  0.00    -0.218 A  
HETATM   10  C   UNL     1     -11.632  11.466  69.641  1.00  0.00    -0.399 A  
HETATM   11  C   UNL     1     -11.465  11.818  68.305  1.00  0.00    -0.370 A  
HETATM   12  C   UNL     1     -11.106  10.263  70.125  1.00  0.00    -0.385 A  
HETATM   13  C   UNL     1     -10.792  10.958  67.440  1.00  0.00    -0.333 A  
HETATM   14  C   UNL     1     -10.308   9.738  67.909  1.00  0.00    -0.258 A  
ENDBRANCH   3   9
TORSDOF 1
ENDMDL
MODEL      116
REMARK 921   NORMALIZED FREE ENERGY PREDICTED BY IDOCK:   -3.14 KCAL/MOL
REMARK 922        TOTAL FREE ENERGY PREDICTED BY IDOCK:   -3.59 KCAL/MOL
REMARK 923 INTER-LIGAND FREE ENERGY PREDICTED BY IDOCK:   -3.30 KCAL/MOL
REMARK 924 INTRA-LIGAND FREE ENERGY PREDICTED BY IDOCK:   -0.29 KCAL/MOL
REMARK 927      BINDING AFFINITY PREDICTED BY RF-SCORE:    0.00 PKD
ROOT
HETATM    1  C   UNL     1     -10.331   7.380  67.264  1.00  0.00    -0.286 C  
HETATM    2  N   UNL     1      -9.614   6.503  68.196  1.00  0.00    -0.124 NA 
HETATM    3  N   UNL     1     -10.302   6.112  69.371  1.00  0.00    -0.205 N  
HETATM    4  C   UNL     1      -8.339   5.241  66.397  1.00  0.00    -0.109 C  
HETATM    5  C   UNL     1      -9.915   4.814  69.718  1.00  0.00    -0.238 C  
HETATM    6  O   UNL     1     -10.166   4.150  70.711  1.00  0.00    -0.107 OA 
HETATM    7  C   UNL     1      -8.963   5.347  67.749  1.00  0.00    -0.108 C  
HETATM    8  C   UNL     1      -9.044   4.335  68.626  1.00  0.00    -0.178 C  
ENDROOT
BRANCH   3   9
HETATM    9  C   UNL     1     -10.916   7.019  70.255  1.00  0.00    -0.271 A  
HETATM   10  C   UNL     1     -12.846   7.867  71.455  1.00  0.00    -0.340 A  
HETATM   11  C   UNL     1     -12.045   8.811  72.091  1.00  0.00    -0.441 A  
HETATM   12  C   UNL     1     -12.281   6.957  70.553  1.00  0.00    -0.253 A  
HETATM   13  C   UNL     1     -10.681   8.867  71.811  1.00  0.00    -0.432 A  
HETATM   14  C   UNL     1     -10.126   7.993  70.878  1.00  0.00    -0.211 A  
ENDBRANCH   3   9
TORSDOF 1
ENDMDL
MODEL      117
REMARK 921   NORMALIZED FREE ENERGY PREDICTED BY IDOCK:   -3.13 KCAL/MOL
REMARK 922        TOTAL FREE ENERGY PREDICTED BY IDOCK:   -3.58 KCAL/MOL
REMARK 923 INTER-LIGAND FREE ENERGY PREDICTED BY IDOCK:   -3.31 KCAL/MOL
REMARK 924 INTRA-LIGAND FREE ENERGY PREDICTED BY IDOCK:   -0.26 KCAL/MOL
REMARK 927      BINDING AFFINITY PREDICTED BY RF-SCORE:    0.00 PKD
ROOT
HETATM    1  C   UNL     1     -10.149   9.880  69.807  1.00  0.00    -0.242 C  
HETATM    2  N   UNL     1     -10.304   9.647  68.367  1.00  0.00    -0.195 NA 
HETATM    3  N   UNL     1      -9.957  10.713  67.501  1.00  0.00    -0.168 N  
HETATM    4  C   UNL     1      -9.692   7.183  68.461  1.00  0.00    -0.143 C  
HETATM    5  C   UNL     1      -9.422  10.190  66.321  1.00  0.00    -0.180 C  
HETATM    6  O   UNL     1      -9.114  10.741  65.276  1.00  0.00    -0.185 OA 
HETATM    7  C   UNL     1      -9.787   8.496  67.759  1.00  0.00    -0.175 C  
HETATM    8  C   UNL     1      -9.312   8.731  66.526  1.00  0.00    -0.260 C  
ENDROOT
BRANCH   3   9
HETATM    9  C   UNL     1     -10.464  12.020  67.630  1.00  0.00    -0.205 A  
HETATM   10  C   UNL     1     -10.255  14.342  68.299  1.00  0.00    -0.244 A  
HETATM   11  C   UNL     1     -11.514  14.615  67.773  1.00  0.00    -0.359 A  
HETATM   12  C   UNL     1      -9.719  13.051  68.211  1.00  0.00    -0.221 A  
HETATM   13  C   UNL     1     -12.254  13.595  67.179  1.00  0.00    -0.340 A  
HETATM   14  C   UNL     1     -11.742  12.299  67.132  1.00  0.00    -0.396 A  
ENDBRANCH   3   9
TORSDOF 1
ENDMDL
MODEL      118
REMARK 921   NORMALIZED FREE ENERGY PREDICTED BY IDOCK:   -3.11 KCAL/MOL
REMARK 922        TOTAL FREE ENERGY PREDICTED BY IDOCK:   -3.55 KCAL/MOL
REMARK 923 INTER-LIGAND FREE ENERGY PREDICTED BY IDOCK:   -3.32 KCAL/MOL
REMARK 924 INTRA-LIGAND FREE ENERGY PREDICTED BY IDOCK:   -0.23 KCAL/MOL
REMARK 927      BINDING AFFINITY PREDICTED BY RF-SCORE:    0.00 PKD
ROOT
HETATM    1  C   UNL     1      -9.977  10.965  63.348  1.00  0.00    -0.361 C  
HETATM    2  N   UNL     1     -10.574  11.604  64.526  1.00  0.00    -0.298 NA 
HETATM    3  N   UNL     1      -9.738  11.778  65.656  1.00  0.00    -0.232 N  
HETATM    4  C   UNL     1     -12.099  13.149  63.207  1.00  0.00    -0.460 C  
HETATM    5  C   UNL     1     -10.094  12.961  66.311  1.00  0.00    -0.276 C  
HETATM    6  O   UNL     1      -9.721  13.421  67.379  1.00  0.00    -0.213 OA 
HETATM    7  C   UNL     1     -11.297  12.799  64.415  1.00  0.00    -0.347 C  
HETATM    8  C   UNL     1     -11.112  13.614  65.463  1.00  0.00    -0.301 C  
ENDROOT
BRANCH   3   9
HETATM    9  C   UNL     1      -8.997  10.738  66.247  1.00  0.00    -0.170 A  
HETATM   10  C   UNL     1      -8.813   8.762  67.641  1.00  0.00    -0.138 A  
HETATM   11  C   UNL     1      -7.465   8.649  67.318  1.00  0.00    -0.089 A  
HETATM   12  C   UNL     1      -9.586   9.793  67.093  1.00  0.00    -0.211 A  
HETATM   13  C   UNL     1      -6.876   9.579  66.464  1.00  0.00    -0.083 A  
HETATM   14  C   UNL     1      -7.632  10.633  65.953  1.00  0.00    -0.138 A  
ENDBRANCH   3   9
TORSDOF 1
ENDMDL
MODEL      119
REMARK 921   NORMALIZED FREE ENERGY PREDICTED BY IDOCK:   -3.09 KCAL/MOL
REMARK 922        TOTAL FREE ENERGY PREDICTED BY IDOCK:   -3.53 KCAL/MOL
REMARK 923 INTER-LIGAND FREE ENERGY PREDICTED BY IDOCK:   -3.24 KCAL/MOL
REMARK 924 INTRA-LIGAND FREE ENERGY PREDICTED BY IDOCK:   -0.29 KCAL/MOL
REMARK 927      BINDING AFFINITY PREDICTED BY RF-SCORE:    0.00 PKD
ROOT
HETATM    1  C   UNL     1      -7.197  12.199  67.084  1.00  0.00    -0.117 C  
HETATM    2  N   UNL     1      -8.590  12.095  67.533  1.00  0.00    -0.162 NA 
HETATM    3  N   UNL     1      -9.485  13.102  67.096  1.00  0.00    -0.230 N  
HETATM    4  C   UNL     1      -8.650   9.555  67.518  1.00  0.00    -0.126 C  
HETATM    5  C   UNL     1     -10.751  12.540  66.909  1.00  0.00    -0.243 C  
HETATM    6  O   UNL     1     -11.824  13.066  66.662  1.00  0.00    -0.367 OA 
HETATM    7  C   UNL     1      -9.301  10.893  67.416  1.00  0.00    -0.155 C  
HETATM    8  C   UNL     1     -10.594  11.086  67.116  1.00  0.00    -0.294 C  
ENDROOT
BRANCH   3   9
HETATM    9  C   UNL     1      -9.244  14.480  67.247  1.00  0.00    -0.207 A  
HETATM   10  C   UNL     1      -8.968  16.717  66.353  1.00  0.00    -0.325 A  
HETATM   11  C   UNL     1      -8.843  17.226  67.642  1.00  0.00    -0.220 A  
HETATM   12  C   UNL     1      -9.188  15.349  66.153  1.00  0.00    -0.362 A  
HETATM   13  C   UNL     1      -8.913  16.367  68.737  1.00  0.00    -0.245 A  
HETATM   14  C   UNL     1      -9.086  14.998  68.538  1.00  0.00    -0.188 A  
ENDBRANCH   3   9
TORSDOF 1
ENDMDL
MODEL      120
REMARK 921   NORMALIZED FREE ENERGY PREDICTED BY IDOCK:   -3.07 KCAL/MOL
REMARK 922        TOTAL FREE ENERGY PREDICTED BY IDOCK:   -3.52 KCAL/MOL
REMARK 923 INTER-LIGAND FREE ENERGY PREDICTED BY IDOCK:   -3.47 KCAL/MOL
REMARK 924 INTRA-LIGAND FREE ENERGY PREDICTED BY IDOCK:   -0.04 KCAL/MOL
REMARK 927      BINDING AFFINITY PREDICTED BY RF-SCORE:    0.00 PKD
ROOT
HETATM    1  C   UNL     1      -7.910   8.755  68.500  1.00  0.00    -0.104 C  
HETATM    2  N   UNL     1      -8.648   7.867  69.406  1.00  0.00    -0.136 NA 
HETATM    3  N   UNL     1     -10.061   7.963  69.392  1.00  0.00    -0.191 N  
HETATM    4  C   UNL     1      -7.009   5.934  69.224  1.00  0.00    -0.064 C  
HETATM    5  C   UNL     1     -10.608   6.698  69.626  1.00  0.00    -0.234 C  
HETATM    6  O   UNL     1     -11.764   6.356  69.816  1.00  0.00    -0.414 OA 
HETATM    7  C   UNL     1      -8.371   6.495  69.460  1.00  0.00    -0.130 C  
HETATM    8  C   UNL     1      -9.472   5.754  69.655  1.00  0.00    -0.174 C  
ENDROOT
BRANCH   3   9
HETATM    9  C   UNL     1     -10.764   9.172  69.550  1.00  0.00    -0.215 A  
HETATM   10  C   UNL     1     -11.898  10.827  70.912  1.00  0.00    -0.400 A  
HETATM   11  C   UNL     1     -12.084  11.632  69.793  1.00  0.00    -0.357 A  
HETATM   12  C   UNL     1     -11.221   9.607  70.798  1.00  0.00    -0.403 A  
HETATM   13  C   UNL     1     -11.616  11.211  68.549  1.00  0.00    -0.385 A  
HETATM   14  C   UNL     1     -10.984   9.975  68.425  1.00  0.00    -0.266 A  
ENDBRANCH   3   9
TORSDOF 1
ENDMDL
MODEL      121
REMARK 921   NORMALIZED FREE ENERGY PREDICTED BY IDOCK:   -3.05 KCAL/MOL
REMARK 922        TOTAL FREE ENERGY PREDICTED BY IDOCK:   -3.49 KCAL/MOL
REMARK 923 INTER-LIGAND FREE ENERGY PREDICTED BY IDOCK:   -3.28 KCAL/MOL
REMARK 924 INTRA-LIGAND FREE ENERGY PREDICTED BY IDOCK:   -0.21 KCAL/MOL
REMARK 927      BINDING AFFINITY PREDICTED BY RF-SCORE:    0.00 PKD
ROOT
HETATM    1  C   UNL     1     -12.407   7.725  71.616  1.00  0.00    -0.321 C  
HETATM    2  N   UNL     1     -11.586   8.912  71.351  1.00  0.00    -0.289 NA 
HETATM    3  N   UNL     1     -10.684   8.840  70.261  1.00  0.00    -0.222 N  
HETATM    4  C   UNL     1     -13.358  10.586  72.066  1.00  0.00    -0.420 C  
HETATM    5  C   UNL     1     -10.581  10.102  69.668  1.00  0.00    -0.257 C  
HETATM    6  O   UNL     1      -9.833  10.509  68.793  1.00  0.00    -0.170 OA 
HETATM    7  C   UNL     1     -12.160  10.187  71.271  1.00  0.00    -0.394 C  
HETATM    8  C   UNL     1     -11.572  10.962  70.347  1.00  0.00    -0.418 C  
ENDROOT
BRANCH   3   9
HETATM    9  C   UNL     1      -9.744   7.807  70.091  1.00  0.00    -0.183 A  
HETATM   10  C   UNL     1      -7.966   6.373  70.907  1.00  0.00    -0.112 A  
HETATM   11  C   UNL     1      -7.959   5.682  69.699  1.00  0.00    -0.095 A  
HETATM   12  C   UNL     1      -8.870   7.422  71.113  1.00  0.00    -0.142 A  
HETATM   13  C   UNL     1      -8.839   6.050  68.683  1.00  0.00    -0.109 A  
HETATM   14  C   UNL     1      -9.707   7.124  68.870  1.00  0.00    -0.146 A  
ENDBRANCH   3   9
TORSDOF 1
ENDMDL
MODEL      122
REMARK 921   NORMALIZED FREE ENERGY PREDICTED BY IDOCK:   -3.04 KCAL/MOL
REMARK 922        TOTAL FREE ENERGY PREDICTED BY IDOCK:   -3.48 KCAL/MOL
REMARK 923 INTER-LIGAND FREE ENERGY PREDICTED BY IDOCK:   -3.33 KCAL/MOL
REMARK 924 INTRA-LIGAND FREE ENERGY PREDICTED BY IDOCK:   -0.15 KCAL/MOL
REMARK 927      BINDING AFFINITY PREDICTED BY RF-SCORE:    0.00 PKD
ROOT
HETATM    1  C   UNL     1     -11.357   5.750  72.136  1.00  0.00    -0.258 C  
HETATM    2  N   UNL     1      -9.962   6.063  72.466  1.00  0.00    -0.175 NA 
HETATM    3  N   UNL     1      -9.634   7.428  72.649  1.00  0.00    -0.151 N  
HETATM    4  C   UNL     1      -9.567   3.957  73.832  1.00  0.00    -0.128 C  
HETATM    5  C   UNL     1      -8.643   7.535  73.629  1.00  0.00    -0.196 C  
HETATM    6  O   UNL     1      -7.994   8.500  74.001  1.00  0.00    -0.369 OA 
HETATM    7  C   UNL     1      -9.289   5.382  73.489  1.00  0.00    -0.134 C  
HETATM    8  C   UNL     1      -8.447   6.174  74.170  1.00  0.00    -0.112 C  
ENDROOT
BRANCH   3   9
HETATM    9  C   UNL     1      -9.933   8.435  71.712  1.00  0.00    -0.241 A  
HETATM   10  C   UNL     1     -11.375  10.166  70.815  1.00  0.00    -0.436 A  
HETATM   11  C   UNL     1     -10.415  10.482  69.859  1.00  0.00    -0.213 A  
HETATM   12  C   UNL     1     -11.129   9.158  71.755  1.00  0.00    -0.437 A  
HETATM   13  C   UNL     1      -9.214   9.776  69.821  1.00  0.00    -0.248 A  
HETATM   14  C   UNL     1      -8.987   8.740  70.726  1.00  0.00    -0.231 A  
ENDBRANCH   3   9
TORSDOF 1
ENDMDL
MODEL      123
REMARK 921   NORMALIZED FREE ENERGY PREDICTED BY IDOCK:   -3.00 KCAL/MOL
REMARK 922        TOTAL FREE ENERGY PREDICTED BY IDOCK:   -3.44 KCAL/MOL
REMARK 923 INTER-LIGAND FREE ENERGY PREDICTED BY IDOCK:   -3.19 KCAL/MOL
REMARK 924 INTRA-LIGAND FREE ENERGY PREDICTED BY IDOCK:   -0.25 KCAL/MOL
REMARK 927      BINDING AFFINITY PREDICTED BY RF-SCORE:    0.00 PKD
ROOT
HETATM    1  C   UNL     1      -7.165  12.690  67.468  1.00  0.00    -0.155 C  
HETATM    2  N   UNL     1      -8.467  13.295  67.163  1.00  0.00    -0.198 NA 
HETATM    3  N   UNL     1      -9.599  12.752  67.818  1.00  0.00    -0.198 N  
HETATM    4  C   UNL     1      -7.565  15.652  66.864  1.00  0.00    -0.201 C  
HETATM    5  C   UNL     1     -10.518  13.775  68.069  1.00  0.00    -0.244 C  
HETATM    6  O   UNL     1     -11.661  13.729  68.496  1.00  0.00    -0.292 OA 
HETATM    7  C   UNL     1      -8.648  14.684  67.204  1.00  0.00    -0.223 C  
HETATM    8  C   UNL     1      -9.859  15.034  67.665  1.00  0.00    -0.220 C  
ENDROOT
BRANCH   3   9
HETATM    9  C   UNL     1      -9.920  11.382  67.816  1.00  0.00    -0.178 A  
HETATM   10  C   UNL     1     -10.353   9.285  66.677  1.00  0.00    -0.292 A  
HETATM   11  C   UNL     1     -10.480   8.637  67.902  1.00  0.00    -0.269 A  
HETATM   12  C   UNL     1     -10.054  10.652  66.631  1.00  0.00    -0.270 A  
HETATM   13  C   UNL     1     -10.332   9.356  69.086  1.00  0.00    -0.221 A  
HETATM   14  C   UNL     1     -10.080  10.726  69.043  1.00  0.00    -0.225 A  
ENDBRANCH   3   9
TORSDOF 1
ENDMDL
MODEL      124
REMARK 921   NORMALIZED FREE ENERGY PREDICTED BY IDOCK:   -2.94 KCAL/MOL
REMARK 922        TOTAL FREE ENERGY PREDICTED BY IDOCK:   -3.37 KCAL/MOL
REMARK 923 INTER-LIGAND FREE ENERGY PREDICTED BY IDOCK:   -3.68 KCAL/MOL
REMARK 924 INTRA-LIGAND FREE ENERGY PREDICTED BY IDOCK:    0.30 KCAL/MOL
REMARK 927      BINDING AFFINITY PREDICTED BY RF-SCORE:    0.00 PKD
ROOT
HETATM    1  C   UNL     1     -10.579   6.702  68.675  1.00  0.00    -0.234 C  
HETATM    2  N   UNL     1     -10.319   6.926  70.102  1.00  0.00    -0.196 NA 
HETATM    3  N   UNL     1     -11.076   7.937  70.743  1.00  0.00    -0.253 N  
HETATM    4  C   UNL     1      -9.820   4.493  70.634  1.00  0.00    -0.292 C  
HETATM    5  C   UNL     1     -11.320   7.558  72.066  1.00  0.00    -0.273 C  
HETATM    6  O   UNL     1     -11.819   8.178  72.991  1.00  0.00    -0.283 OA 
HETATM    7  C   UNL     1     -10.286   5.859  71.009  1.00  0.00    -0.211 C  
HETATM    8  C   UNL     1     -10.798   6.182  72.206  1.00  0.00    -0.284 C  
ENDROOT
BRANCH   3   9
HETATM    9  C   UNL     1     -11.179   9.257  70.266  1.00  0.00    -0.231 A  
HETATM   10  C   UNL     1     -12.300  11.403  70.127  1.00  0.00    -0.344 A  
HETATM   11  C   UNL     1     -11.266  11.901  69.341  1.00  0.00    -0.278 A  
HETATM   12  C   UNL     1     -12.250  10.089  70.608  1.00  0.00    -0.360 A  
HETATM   13  C   UNL     1     -10.188  11.082  69.011  1.00  0.00    -0.217 A  
HETATM   14  C   UNL     1     -10.159   9.759  69.449  1.00  0.00    -0.221 A  
ENDBRANCH   3   9
TORSDOF 1
ENDMDL
MODEL      125
REMARK 921   NORMALIZED FREE ENERGY PREDICTED BY IDOCK:   -2.88 KCAL/MOL
REMARK 922        TOTAL FREE ENERGY PREDICTED BY IDOCK:   -3.31 KCAL/MOL
REMARK 923 INTER-LIGAND FREE ENERGY PREDICTED BY IDOCK:   -3.01 KCAL/MOL
REMARK 924 INTRA-LIGAND FREE ENERGY PREDICTED BY IDOCK:   -0.30 KCAL/MOL
REMARK 927      BINDING AFFINITY PREDICTED BY RF-SCORE:    0.00 PKD
ROOT
HETATM    1  C   UNL     1      -9.019   8.122  70.253  1.00  0.00    -0.146 C  
HETATM    2  N   UNL     1     -10.395   7.637  70.410  1.00  0.00    -0.211 NA 
HETATM    3  N   UNL     1     -10.584   6.487  71.216  1.00  0.00    -0.223 N  
HETATM    4  C   UNL     1     -11.464   9.941  70.347  1.00  0.00    -0.372 C  
HETATM    5  C   UNL     1     -11.809   6.591  71.882  1.00  0.00    -0.334 C  
HETATM    6  O   UNL     1     -12.410   5.780  72.569  1.00  0.00    -0.144 OA 
HETATM    7  C   UNL     1     -11.435   8.507  70.760  1.00  0.00    -0.253 C  
HETATM    8  C   UNL     1     -12.338   7.935  71.571  1.00  0.00    -0.340 C  
ENDROOT
BRANCH   3   9
HETATM    9  C   UNL     1      -9.881   5.282  71.035  1.00  0.00    -0.191 A  
HETATM   10  C   UNL     1      -9.241   3.354  69.709  1.00  0.00    -0.220 A  
HETATM   11  C   UNL     1      -8.383   2.933  70.721  1.00  0.00    -0.082 A  
HETATM   12  C   UNL     1      -9.975   4.537  69.854  1.00  0.00    -0.273 A  
HETATM   13  C   UNL     1      -8.273   3.679  71.893  1.00  0.00    -0.072 A  
HETATM   14  C   UNL     1      -9.039   4.832  72.059  1.00  0.00    -0.152 A  
ENDBRANCH   3   9
TORSDOF 1
ENDMDL
MODEL      126
REMARK 921   NORMALIZED FREE ENERGY PREDICTED BY IDOCK:   -2.76 KCAL/MOL
REMARK 922        TOTAL FREE ENERGY PREDICTED BY IDOCK:   -3.19 KCAL/MOL
REMARK 923 INTER-LIGAND FREE ENERGY PREDICTED BY IDOCK:   -2.95 KCAL/MOL
REMARK 924 INTRA-LIGAND FREE ENERGY PREDICTED BY IDOCK:   -0.24 KCAL/MOL
REMARK 927      BINDING AFFINITY PREDICTED BY RF-SCORE:    0.00 PKD
ROOT
HETATM    1  C   UNL     1      -6.498  15.996  70.115  1.00  0.00     0.062 C  
HETATM    2  N   UNL     1      -6.932  17.105  69.258  1.00  0.00    -0.222 NA 
HETATM    3  N   UNL     1      -8.316  17.189  68.966  1.00  0.00    -0.174 N  
HETATM    4  C   UNL     1      -5.210  18.759  70.124  1.00  0.00    -0.211 C  
HETATM    5  C   UNL     1      -8.682  18.534  68.862  1.00  0.00    -0.149 C  
HETATM    6  O   UNL     1      -9.731  19.047  68.507  1.00  0.00    -0.352 OA 
HETATM    7  C   UNL     1      -6.529  18.421  69.515  1.00  0.00    -0.202 C  
HETATM    8  C   UNL     1      -7.488  19.319  69.241  1.00  0.00    -0.255 C  
ENDROOT
BRANCH   3   9
HETATM    9  C   UNL     1      -9.071  16.121  68.447  1.00  0.00    -0.199 A  
HETATM   10  C   UNL     1      -9.458  14.361  66.823  1.00  0.00    -0.280 A  
HETATM   11  C   UNL     1     -10.587  13.951  67.525  1.00  0.00    -0.256 A  
HETATM   12  C   UNL     1      -8.687  15.432  67.291  1.00  0.00    -0.215 A  
HETATM   13  C   UNL     1     -10.966  14.623  68.685  1.00  0.00    -0.266 A  
HETATM   14  C   UNL     1     -10.226  15.719  69.128  1.00  0.00    -0.231 A  
ENDBRANCH   3   9
TORSDOF 1
ENDMDL
MODEL      127
REMARK 921   NORMALIZED FREE ENERGY PREDICTED BY IDOCK:   -2.73 KCAL/MOL
REMARK 922        TOTAL FREE ENERGY PREDICTED BY IDOCK:   -3.15 KCAL/MOL
REMARK 923 INTER-LIGAND FREE ENERGY PREDICTED BY IDOCK:   -2.85 KCAL/MOL
REMARK 924 INTRA-LIGAND FREE ENERGY PREDICTED BY IDOCK:   -0.30 KCAL/MOL
REMARK 927      BINDING AFFINITY PREDICTED BY RF-SCORE:    0.00 PKD
ROOT
HETATM    1  C   UNL     1      -8.499  10.236  69.214  1.00  0.00    -0.166 C  
HETATM    2  N   UNL     1      -8.599  10.736  67.838  1.00  0.00    -0.123 NA 
HETATM    3  N   UNL     1      -9.503  10.069  66.975  1.00  0.00    -0.160 N  
HETATM    4  C   UNL     1      -8.215  13.173  68.446  1.00  0.00    -0.130 C  
HETATM    5  C   UNL     1     -10.059  10.996  66.088  1.00  0.00    -0.237 C  
HETATM    6  O   UNL     1     -10.777  10.833  65.115  1.00  0.00    -0.215 OA 
HETATM    7  C   UNL     1      -8.776  12.100  67.574  1.00  0.00    -0.173 C  
HETATM    8  C   UNL     1      -9.570  12.324  66.516  1.00  0.00    -0.242 C  
ENDROOT
BRANCH   3   9
HETATM    9  C   UNL     1      -9.503   8.678  66.768  1.00  0.00    -0.191 A  
HETATM   10  C   UNL     1     -10.477   6.472  67.032  1.00  0.00    -0.364 A  
HETATM   11  C   UNL     1      -9.473   5.925  66.239  1.00  0.00    -0.161 A  
HETATM   12  C   UNL     1     -10.506   7.850  67.282  1.00  0.00    -0.390 A  
HETATM   13  C   UNL     1      -8.479   6.747  65.712  1.00  0.00    -0.150 A  
HETATM   14  C   UNL     1      -8.480   8.111  65.997  1.00  0.00    -0.150 A  
ENDBRANCH   3   9
TORSDOF 1
ENDMDL
MODEL      128
REMARK 921   NORMALIZED FREE ENERGY PREDICTED BY IDOCK:   -2.71 KCAL/MOL
REMARK 922        TOTAL FREE ENERGY PREDICTED BY IDOCK:   -3.13 KCAL/MOL
REMARK 923 INTER-LIGAND FREE ENERGY PREDICTED BY IDOCK:   -2.84 KCAL/MOL
REMARK 924 INTRA-LIGAND FREE ENERGY PREDICTED BY IDOCK:   -0.30 KCAL/MOL
REMARK 927      BINDING AFFINITY PREDICTED BY RF-SCORE:    0.00 PKD
ROOT
HETATM    1  C   UNL     1     -12.405  11.411  69.429  1.00  0.00    -0.118 C  
HETATM    2  N   UNL     1     -11.014  11.849  69.269  1.00  0.00    -0.193 NA 
HETATM    3  N   UNL     1     -10.139  10.973  68.580  1.00  0.00    -0.183 N  
HETATM    4  C   UNL     1     -11.570  14.318  69.049  1.00  0.00    -0.342 C  
HETATM    5  C   UNL     1      -9.210  11.728  67.858  1.00  0.00    -0.181 C  
HETATM    6  O   UNL     1      -8.218  11.383  67.236  1.00  0.00    -0.138 OA 
HETATM    7  C   UNL     1     -10.707  13.129  68.788  1.00  0.00    -0.225 C  
HETATM    8  C   UNL     1      -9.618  13.140  68.006  1.00  0.00    -0.220 C  
ENDROOT
BRANCH   3   9
HETATM    9  C   UNL     1      -9.969   9.617  68.914  1.00  0.00    -0.178 A  
HETATM   10  C   UNL     1      -9.292   7.854  70.437  1.00  0.00    -0.159 A  
HETATM   11  C   UNL     1      -9.740   6.893  69.536  1.00  0.00    -0.159 A  
HETATM   12  C   UNL     1      -9.423   9.216  70.138  1.00  0.00    -0.235 A  
HETATM   13  C   UNL     1     -10.299   7.287  68.322  1.00  0.00    -0.227 A  
HETATM   14  C   UNL     1     -10.388   8.641  68.002  1.00  0.00    -0.277 A  
ENDBRANCH   3   9
TORSDOF 1
ENDMDL
MODEL      129
REMARK 921   NORMALIZED FREE ENERGY PREDICTED BY IDOCK:   -2.71 KCAL/MOL
REMARK 922        TOTAL FREE ENERGY PREDICTED BY IDOCK:   -3.13 KCAL/MOL
REMARK 923 INTER-LIGAND FREE ENERGY PREDICTED BY IDOCK:   -3.05 KCAL/MOL
REMARK 924 INTRA-LIGAND FREE ENERGY PREDICTED BY IDOCK:   -0.08 KCAL/MOL
REMARK 927      BINDING AFFINITY PREDICTED BY RF-SCORE:    0.00 PKD
ROOT
HETATM    1  C   UNL     1      -8.149  11.547  68.589  1.00  0.00    -0.132 C  
HETATM    2  N   UNL     1      -7.729  12.951  68.517  1.00  0.00    -0.127 NA 
HETATM    3  N   UNL     1      -8.753  13.930  68.522  1.00  0.00    -0.164 N  
HETATM    4  C   UNL     1      -5.594  12.627  69.855  1.00  0.00    -0.111 C  
HETATM    5  C   UNL     1      -8.297  15.067  69.195  1.00  0.00    -0.187 C  
HETATM    6  O   UNL     1      -8.802  16.171  69.322  1.00  0.00    -0.247 OA 
HETATM    7  C   UNL     1      -6.733  13.455  69.364  1.00  0.00    -0.037 C  
HETATM    8  C   UNL     1      -6.971  14.719  69.747  1.00  0.00    -0.158 C  
ENDROOT
BRANCH   3   9
HETATM    9  C   UNL     1      -9.848  13.920  67.639  1.00  0.00    -0.236 A  
HETATM   10  C   UNL     1     -10.828  13.586  65.445  1.00  0.00    -0.299 A  
HETATM   11  C   UNL     1     -12.094  13.840  65.964  1.00  0.00    -0.470 A  
HETATM   12  C   UNL     1      -9.707  13.606  66.283  1.00  0.00    -0.295 A  
HETATM   13  C   UNL     1     -12.244  14.138  67.317  1.00  0.00    -0.314 A  
HETATM   14  C   UNL     1     -11.123  14.204  68.143  1.00  0.00    -0.276 A  
ENDBRANCH   3   9
TORSDOF 1
ENDMDL
MODEL      130
REMARK 921   NORMALIZED FREE ENERGY PREDICTED BY IDOCK:   -2.70 KCAL/MOL
REMARK 922        TOTAL FREE ENERGY PREDICTED BY IDOCK:   -3.12 KCAL/MOL
REMARK 923 INTER-LIGAND FREE ENERGY PREDICTED BY IDOCK:   -2.83 KCAL/MOL
REMARK 924 INTRA-LIGAND FREE ENERGY PREDICTED BY IDOCK:   -0.29 KCAL/MOL
REMARK 927      BINDING AFFINITY PREDICTED BY RF-SCORE:    0.00 PKD
ROOT
HETATM    1  C   UNL     1     -10.549   8.852  71.779  1.00  0.00    -0.362 C  
HETATM    2  N   UNL     1     -10.008   8.750  70.418  1.00  0.00    -0.182 NA 
HETATM    3  N   UNL     1     -10.015   7.468  69.817  1.00  0.00    -0.184 N  
HETATM    4  C   UNL     1     -10.800  11.048  69.680  1.00  0.00    -0.241 C  
HETATM    5  C   UNL     1     -10.230   7.607  68.443  1.00  0.00    -0.198 C  
HETATM    6  O   UNL     1     -10.186   6.782  67.544  1.00  0.00    -0.156 OA 
HETATM    7  C   UNL     1     -10.414   9.633  69.409  1.00  0.00    -0.220 C  
HETATM    8  C   UNL     1     -10.500   9.040  68.208  1.00  0.00    -0.247 C  
ENDROOT
BRANCH   3   9
HETATM    9  C   UNL     1      -9.472   6.318  70.421  1.00  0.00    -0.161 A  
HETATM   10  C   UNL     1      -7.624   5.070  71.374  1.00  0.00    -0.088 A  
HETATM   11  C   UNL     1      -8.486   4.026  71.698  1.00  0.00    -0.106 A  
HETATM   12  C   UNL     1      -8.117   6.224  70.754  1.00  0.00    -0.120 A  
HETATM   13  C   UNL     1      -9.840   4.121  71.382  1.00  0.00    -0.254 A  
HETATM   14  C   UNL     1     -10.324   5.250  70.723  1.00  0.00    -0.309 A  
ENDBRANCH   3   9
TORSDOF 1
ENDMDL
MODEL      131
REMARK 921   NORMALIZED FREE ENERGY PREDICTED BY IDOCK:   -2.68 KCAL/MOL
REMARK 922        TOTAL FREE ENERGY PREDICTED BY IDOCK:   -3.10 KCAL/MOL
REMARK 923 INTER-LIGAND FREE ENERGY PREDICTED BY IDOCK:   -2.80 KCAL/MOL
REMARK 924 INTRA-LIGAND FREE ENERGY PREDICTED BY IDOCK:   -0.30 KCAL/MOL
REMARK 927      BINDING AFFINITY PREDICTED BY RF-SCORE:    0.00 PKD
ROOT
HETATM    1  C   UNL     1      -9.972  11.145  67.471  1.00  0.00    -0.181 C  
HETATM    2  N   UNL     1      -8.707  11.560  66.855  1.00  0.00    -0.174 NA 
HETATM    3  N   UNL     1      -8.135  12.772  67.314  1.00  0.00    -0.183 N  
HETATM    4  C   UNL     1      -7.818   9.201  66.536  1.00  0.00    -0.100 C  
HETATM    5  C   UNL     1      -6.742  12.663  67.280  1.00  0.00    -0.100 C  
HETATM    6  O   UNL     1      -5.875  13.501  67.468  1.00  0.00    -0.308 OA 
HETATM    7  C   UNL     1      -7.633  10.668  66.734  1.00  0.00    -0.120 C  
HETATM    8  C   UNL     1      -6.444  11.265  66.906  1.00  0.00    -0.128 C  
ENDROOT
BRANCH   3   9
HETATM    9  C   UNL     1      -8.833  13.992  67.370  1.00  0.00    -0.206 A  
HETATM   10  C   UNL     1     -10.009  15.837  66.323  1.00  0.00    -0.315 A  
HETATM   11  C   UNL     1     -10.286  16.380  67.573  1.00  0.00    -0.288 A  
HETATM   12  C   UNL     1      -9.300  14.634  66.218  1.00  0.00    -0.293 A  
HETATM   13  C   UNL     1      -9.837  15.737  68.725  1.00  0.00    -0.214 A  
HETATM   14  C   UNL     1      -9.091  14.564  68.621  1.00  0.00    -0.187 A  
ENDBRANCH   3   9
TORSDOF 1
ENDMDL
MODEL      132
REMARK 921   NORMALIZED FREE ENERGY PREDICTED BY IDOCK:   -2.67 KCAL/MOL
REMARK 922        TOTAL FREE ENERGY PREDICTED BY IDOCK:   -3.09 KCAL/MOL
REMARK 923 INTER-LIGAND FREE ENERGY PREDICTED BY IDOCK:   -2.79 KCAL/MOL
REMARK 924 INTRA-LIGAND FREE ENERGY PREDICTED BY IDOCK:   -0.30 KCAL/MOL
REMARK 927      BINDING AFFINITY PREDICTED BY RF-SCORE:    0.00 PKD
ROOT
HETATM    1  C   UNL     1     -10.317   8.447  69.521  1.00  0.00    -0.219 C  
HETATM    2  N   UNL     1      -9.700   7.133  69.311  1.00  0.00    -0.159 NA 
HETATM    3  N   UNL     1      -9.867   6.172  70.339  1.00  0.00    -0.175 N  
HETATM    4  C   UNL     1     -10.058   7.105  66.796  1.00  0.00    -0.278 C  
HETATM    5  C   UNL     1      -9.955   4.899  69.767  1.00  0.00    -0.244 C  
HETATM    6  O   UNL     1      -9.978   3.795  70.286  1.00  0.00    -0.134 OA 
HETATM    7  C   UNL     1      -9.884   6.428  68.114  1.00  0.00    -0.127 C  
HETATM    8  C   UNL     1      -9.975   5.103  68.303  1.00  0.00    -0.208 C  
ENDROOT
BRANCH   3   9
HETATM    9  C   UNL     1      -9.561   6.413  71.691  1.00  0.00    -0.160 A  
HETATM   10  C   UNL     1      -8.008   6.974  73.468  1.00  0.00    -0.122 A  
HETATM   11  C   UNL     1      -9.049   6.960  74.392  1.00  0.00    -0.237 A  
HETATM   12  C   UNL     1      -8.264   6.720  72.115  1.00  0.00    -0.104 A  
HETATM   13  C   UNL     1     -10.346   6.670  73.973  1.00  0.00    -0.377 A  
HETATM   14  C   UNL     1     -10.594   6.371  72.634  1.00  0.00    -0.250 A  
ENDBRANCH   3   9
TORSDOF 1
ENDMDL
MODEL      133
REMARK 921   NORMALIZED FREE ENERGY PREDICTED BY IDOCK:   -2.63 KCAL/MOL
REMARK 922        TOTAL FREE ENERGY PREDICTED BY IDOCK:   -3.04 KCAL/MOL
REMARK 923 INTER-LIGAND FREE ENERGY PREDICTED BY IDOCK:   -2.76 KCAL/MOL
REMARK 924 INTRA-LIGAND FREE ENERGY PREDICTED BY IDOCK:   -0.28 KCAL/MOL
REMARK 927      BINDING AFFINITY PREDICTED BY RF-SCORE:    0.00 PKD
ROOT
HETATM    1  C   UNL     1      -9.276   2.754  67.880  1.00  0.00    -0.204 C  
HETATM    2  N   UNL     1      -9.576   3.886  66.996  1.00  0.00    -0.208 NA 
HETATM    3  N   UNL     1      -9.251   5.179  67.474  1.00  0.00    -0.114 N  
HETATM    4  C   UNL     1      -9.095   2.632  64.839  1.00  0.00    -0.136 C  
HETATM    5  C   UNL     1      -8.856   5.980  66.399  1.00  0.00    -0.136 C  
HETATM    6  O   UNL     1      -8.615   7.175  66.345  1.00  0.00    -0.122 OA 
HETATM    7  C   UNL     1      -9.181   3.881  65.652  1.00  0.00    -0.152 C  
HETATM    8  C   UNL     1      -8.809   5.094  65.217  1.00  0.00    -0.152 C  
ENDROOT
BRANCH   3   9
HETATM    9  C   UNL     1      -9.671   5.679  68.721  1.00  0.00    -0.137 A  
HETATM   10  C   UNL     1     -11.382   6.475  70.244  1.00  0.00    -0.456 A  
HETATM   11  C   UNL     1     -10.437   6.591  71.258  1.00  0.00    -0.250 A  
HETATM   12  C   UNL     1     -11.007   6.001  68.981  1.00  0.00    -0.409 A  
HETATM   13  C   UNL     1      -9.108   6.256  71.010  1.00  0.00    -0.156 A  
HETATM   14  C   UNL     1      -8.723   5.829  69.740  1.00  0.00    -0.127 A  
ENDBRANCH   3   9
TORSDOF 1
ENDMDL
MODEL      134
REMARK 921   NORMALIZED FREE ENERGY PREDICTED BY IDOCK:   -2.61 KCAL/MOL
REMARK 922        TOTAL FREE ENERGY PREDICTED BY IDOCK:   -3.03 KCAL/MOL
REMARK 923 INTER-LIGAND FREE ENERGY PREDICTED BY IDOCK:   -2.73 KCAL/MOL
REMARK 924 INTRA-LIGAND FREE ENERGY PREDICTED BY IDOCK:   -0.30 KCAL/MOL
REMARK 927      BINDING AFFINITY PREDICTED BY RF-SCORE:    0.00 PKD
ROOT
HETATM    1  C   UNL     1      -9.666   4.745  69.063  1.00  0.00    -0.178 C  
HETATM    2  N   UNL     1      -9.246   4.035  70.277  1.00  0.00    -0.124 NA 
HETATM    3  N   UNL     1      -9.977   4.298  71.461  1.00  0.00    -0.186 N  
HETATM    4  C   UNL     1      -8.544   1.910  69.074  1.00  0.00    -0.100 C  
HETATM    5  C   UNL     1     -10.034   3.134  72.233  1.00  0.00    -0.166 C  
HETATM    6  O   UNL     1     -10.451   2.951  73.365  1.00  0.00    -0.129 OA 
HETATM    7  C   UNL     1      -9.039   2.650  70.271  1.00  0.00    -0.111 C  
HETATM    8  C   UNL     1      -9.419   2.066  71.418  1.00  0.00    -0.202 C  
ENDROOT
BRANCH   3   9
HETATM    9  C   UNL     1     -10.214   5.592  71.961  1.00  0.00    -0.199 A  
HETATM   10  C   UNL     1      -9.458   7.708  72.873  1.00  0.00    -0.262 A  
HETATM   11  C   UNL     1     -10.764   8.187  72.867  1.00  0.00    -0.317 A  
HETATM   12  C   UNL     1      -9.177   6.420  72.403  1.00  0.00    -0.137 A  
HETATM   13  C   UNL     1     -11.800   7.372  72.413  1.00  0.00    -0.273 A  
HETATM   14  C   UNL     1     -11.529   6.073  71.989  1.00  0.00    -0.343 A  
ENDBRANCH   3   9
TORSDOF 1
ENDMDL
MODEL      135
REMARK 921   NORMALIZED FREE ENERGY PREDICTED BY IDOCK:   -2.58 KCAL/MOL
REMARK 922        TOTAL FREE ENERGY PREDICTED BY IDOCK:   -3.00 KCAL/MOL
REMARK 923 INTER-LIGAND FREE ENERGY PREDICTED BY IDOCK:   -2.88 KCAL/MOL
REMARK 924 INTRA-LIGAND FREE ENERGY PREDICTED BY IDOCK:   -0.12 KCAL/MOL
REMARK 927      BINDING AFFINITY PREDICTED BY RF-SCORE:    0.00 PKD
ROOT
HETATM    1  C   UNL     1      -8.678   5.514  70.204  1.00  0.00    -0.129 C  
HETATM    2  N   UNL     1      -8.191   6.809  69.714  1.00  0.00    -0.126 NA 
HETATM    3  N   UNL     1      -8.440   7.940  70.529  1.00  0.00    -0.124 N  
HETATM    4  C   UNL     1      -6.117   5.868  68.588  1.00  0.00    -0.025 C  
HETATM    5  C   UNL     1      -7.374   8.837  70.406  1.00  0.00    -0.063 C  
HETATM    6  O   UNL     1      -7.239   9.973  70.830  1.00  0.00    -0.326 OA 
HETATM    7  C   UNL     1      -6.875   6.964  69.259  1.00  0.00    -0.058 C  
HETATM    8  C   UNL     1      -6.357   8.160  69.574  1.00  0.00    -0.034 C  
ENDROOT
BRANCH   3   9
HETATM    9  C   UNL     1      -9.713   8.286  71.018  1.00  0.00    -0.163 A  
HETATM   10  C   UNL     1     -11.464   8.185  72.693  1.00  0.00    -0.454 A  
HETATM   11  C   UNL     1     -12.227   9.090  71.961  1.00  0.00    -0.446 A  
HETATM   12  C   UNL     1     -10.199   7.797  72.235  1.00  0.00    -0.285 A  
HETATM   13  C   UNL     1     -11.741   9.593  70.756  1.00  0.00    -0.390 A  
HETATM   14  C   UNL     1     -10.502   9.172  70.275  1.00  0.00    -0.257 A  
ENDBRANCH   3   9
TORSDOF 1
ENDMDL
MODEL      136
REMARK 921   NORMALIZED FREE ENERGY PREDICTED BY IDOCK:   -2.56 KCAL/MOL
REMARK 922        TOTAL FREE ENERGY PREDICTED BY IDOCK:   -2.97 KCAL/MOL
REMARK 923 INTER-LIGAND FREE ENERGY PREDICTED BY IDOCK:   -2.67 KCAL/MOL
REMARK 924 INTRA-LIGAND FREE ENERGY PREDICTED BY IDOCK:   -0.29 KCAL/MOL
REMARK 927      BINDING AFFINITY PREDICTED BY RF-SCORE:    0.00 PKD
ROOT
HETATM    1  C   UNL     1      -9.884   4.579  66.261  1.00  0.00    -0.230 C  
HETATM    2  N   UNL     1      -9.308   4.810  67.590  1.00  0.00    -0.131 NA 
HETATM    3  N   UNL     1      -9.637   6.030  68.231  1.00  0.00    -0.117 N  
HETATM    4  C   UNL     1      -9.373   2.372  68.301  1.00  0.00    -0.265 C  
HETATM    5  C   UNL     1      -9.715   5.817  69.610  1.00  0.00    -0.161 C  
HETATM    6  O   UNL     1      -9.848   6.608  70.530  1.00  0.00    -0.175 OA 
HETATM    7  C   UNL     1      -9.384   3.835  68.593  1.00  0.00    -0.163 C  
HETATM    8  C   UNL     1      -9.556   4.362  69.814  1.00  0.00    -0.276 C  
ENDROOT
BRANCH   3   9
HETATM    9  C   UNL     1      -9.478   7.294  67.633  1.00  0.00    -0.131 A  
HETATM   10  C   UNL     1      -8.120   9.028  66.617  1.00  0.00    -0.107 A  
HETATM   11  C   UNL     1      -9.259   9.789  66.374  1.00  0.00    -0.200 A  
HETATM   12  C   UNL     1      -8.227   7.772  67.228  1.00  0.00    -0.119 A  
HETATM   13  C   UNL     1     -10.509   9.311  66.762  1.00  0.00    -0.263 A  
HETATM   14  C   UNL     1     -10.614   8.082  67.412  1.00  0.00    -0.337 A  
ENDBRANCH   3   9
TORSDOF 1
ENDMDL
MODEL      137
REMARK 921   NORMALIZED FREE ENERGY PREDICTED BY IDOCK:   -2.54 KCAL/MOL
REMARK 922        TOTAL FREE ENERGY PREDICTED BY IDOCK:   -2.95 KCAL/MOL
REMARK 923 INTER-LIGAND FREE ENERGY PREDICTED BY IDOCK:   -2.67 KCAL/MOL
REMARK 924 INTRA-LIGAND FREE ENERGY PREDICTED BY IDOCK:   -0.29 KCAL/MOL
REMARK 927      BINDING AFFINITY PREDICTED BY RF-SCORE:    0.00 PKD
ROOT
HETATM    1  C   UNL     1      -9.360   9.826  68.576  1.00  0.00    -0.142 C  
HETATM    2  N   UNL     1      -8.780   8.478  68.539  1.00  0.00    -0.138 NA 
HETATM    3  N   UNL     1      -9.505   7.448  69.188  1.00  0.00    -0.150 N  
HETATM    4  C   UNL     1      -7.756   8.727  66.228  1.00  0.00    -0.098 C  
HETATM    5  C   UNL     1      -9.329   6.252  68.486  1.00  0.00    -0.121 C  
HETATM    6  O   UNL     1      -9.669   5.113  68.761  1.00  0.00    -0.134 OA 
HETATM    7  C   UNL     1      -8.333   7.914  67.338  1.00  0.00    -0.123 C  
HETATM    8  C   UNL     1      -8.564   6.594  67.269  1.00  0.00    -0.119 C  
ENDROOT
BRANCH   3   9
HETATM    9  C   UNL     1      -9.950   7.526  70.520  1.00  0.00    -0.184 A  
HETATM   10  C   UNL     1     -11.693   7.800  72.184  1.00  0.00    -0.368 A  
HETATM   11  C   UNL     1     -10.768   7.584  73.201  1.00  0.00    -0.452 A  
HETATM   12  C   UNL     1     -11.292   7.752  70.844  1.00  0.00    -0.288 A  
HETATM   13  C   UNL     1      -9.432   7.343  72.885  1.00  0.00    -0.217 A  
HETATM   14  C   UNL     1      -9.022   7.341  71.552  1.00  0.00    -0.133 A  
ENDBRANCH   3   9
TORSDOF 1
ENDMDL
MODEL      138
REMARK 921   NORMALIZED FREE ENERGY PREDICTED BY IDOCK:   -2.51 KCAL/MOL
REMARK 922        TOTAL FREE ENERGY PREDICTED BY IDOCK:   -2.92 KCAL/MOL
REMARK 923 INTER-LIGAND FREE ENERGY PREDICTED BY IDOCK:   -2.65 KCAL/MOL
REMARK 924 INTRA-LIGAND FREE ENERGY PREDICTED BY IDOCK:   -0.26 KCAL/MOL
REMARK 927      BINDING AFFINITY PREDICTED BY RF-SCORE:    0.00 PKD
ROOT
HETATM    1  C   UNL     1      -8.773   9.014  66.665  1.00  0.00    -0.128 C  
HETATM    2  N   UNL     1      -8.130  10.222  67.195  1.00  0.00    -0.120 NA 
HETATM    3  N   UNL     1      -8.331  10.508  68.568  1.00  0.00    -0.122 N  
HETATM    4  C   UNL     1      -6.076  10.067  65.708  1.00  0.00    -0.086 C  
HETATM    5  C   UNL     1      -7.179  11.108  69.084  1.00  0.00    -0.123 C  
HETATM    6  O   UNL     1      -6.969  11.619  70.173  1.00  0.00     0.069 OA 
HETATM    7  C   UNL     1      -6.775  10.486  66.958  1.00  0.00    -0.082 C  
HETATM    8  C   UNL     1      -6.171  11.068  68.004  1.00  0.00    -0.053 C  
ENDROOT
BRANCH   3   9
HETATM    9  C   UNL     1      -9.598  10.575  69.175  1.00  0.00    -0.199 A  
HETATM   10  C   UNL     1     -11.196   9.918  70.878  1.00  0.00    -0.433 A  
HETATM   11  C   UNL     1     -12.119  10.829  70.375  1.00  0.00    -0.443 A  
HETATM   12  C   UNL     1      -9.929   9.802  70.293  1.00  0.00    -0.309 A  
HETATM   13  C   UNL     1     -11.790  11.613  69.271  1.00  0.00    -0.396 A  
HETATM   14  C   UNL     1     -10.546  11.466  68.659  1.00  0.00    -0.229 A  
ENDBRANCH   3   9
TORSDOF 1
ENDMDL
MODEL      139
REMARK 921   NORMALIZED FREE ENERGY PREDICTED BY IDOCK:   -2.49 KCAL/MOL
REMARK 922        TOTAL FREE ENERGY PREDICTED BY IDOCK:   -2.90 KCAL/MOL
REMARK 923 INTER-LIGAND FREE ENERGY PREDICTED BY IDOCK:   -2.72 KCAL/MOL
REMARK 924 INTRA-LIGAND FREE ENERGY PREDICTED BY IDOCK:   -0.18 KCAL/MOL
REMARK 927      BINDING AFFINITY PREDICTED BY RF-SCORE:    0.00 PKD
ROOT
HETATM    1  C   UNL     1     -11.629  10.736  68.262  1.00  0.00    -0.221 C  
HETATM    2  N   UNL     1     -10.509  10.338  67.401  1.00  0.00    -0.233 NA 
HETATM    3  N   UNL     1     -10.087   8.988  67.477  1.00  0.00    -0.211 N  
HETATM    4  C   UNL     1     -11.124  11.888  65.485  1.00  0.00    -0.356 C  
HETATM    5  C   UNL     1      -9.651   8.573  66.215  1.00  0.00    -0.236 C  
HETATM    6  O   UNL     1      -9.099   7.542  65.865  1.00  0.00    -0.137 OA 
HETATM    7  C   UNL     1     -10.496  10.652  66.036  1.00  0.00    -0.183 C  
HETATM    8  C   UNL     1      -9.944   9.686  65.288  1.00  0.00    -0.159 C  
ENDROOT
BRANCH   3   9
HETATM    9  C   UNL     1      -9.759   8.338  68.681  1.00  0.00    -0.156 A  
HETATM   10  C   UNL     1      -8.215   7.796  70.471  1.00  0.00    -0.120 A  
HETATM   11  C   UNL     1      -9.212   7.078  71.124  1.00  0.00    -0.157 A  
HETATM   12  C   UNL     1      -8.490   8.443  69.260  1.00  0.00    -0.125 A  
HETATM   13  C   UNL     1     -10.483   6.983  70.560  1.00  0.00    -0.227 A  
HETATM   14  C   UNL     1     -10.746   7.587  69.331  1.00  0.00    -0.200 A  
ENDBRANCH   3   9
TORSDOF 1
ENDMDL
MODEL      140
REMARK 921   NORMALIZED FREE ENERGY PREDICTED BY IDOCK:   -2.48 KCAL/MOL
REMARK 922        TOTAL FREE ENERGY PREDICTED BY IDOCK:   -2.88 KCAL/MOL
REMARK 923 INTER-LIGAND FREE ENERGY PREDICTED BY IDOCK:   -2.59 KCAL/MOL
REMARK 924 INTRA-LIGAND FREE ENERGY PREDICTED BY IDOCK:   -0.30 KCAL/MOL
REMARK 927      BINDING AFFINITY PREDICTED BY RF-SCORE:    0.00 PKD
ROOT
HETATM    1  C   UNL     1      -7.513   8.604  68.784  1.00  0.00    -0.091 C  
HETATM    2  N   UNL     1      -8.440   7.574  68.301  1.00  0.00    -0.125 NA 
HETATM    3  N   UNL     1      -9.816   7.910  68.271  1.00  0.00    -0.164 N  
HETATM    4  C   UNL     1      -6.829   6.587  66.603  1.00  0.00    -0.065 C  
HETATM    5  C   UNL     1     -10.419   7.276  67.181  1.00  0.00    -0.324 C  
HETATM    6  O   UNL     1     -11.594   7.193  66.861  1.00  0.00     0.377 OA 
HETATM    7  C   UNL     1      -8.202   6.889  67.103  1.00  0.00    -0.118 C  
HETATM    8  C   UNL     1      -9.330   6.622  66.427  1.00  0.00    -0.175 C  
ENDROOT
BRANCH   3   9
HETATM    9  C   UNL     1     -10.519   8.424  69.376  1.00  0.00    -0.217 A  
HETATM   10  C   UNL     1     -11.433   8.225  71.614  1.00  0.00    -0.333 A  
HETATM   11  C   UNL     1     -11.856   9.549  71.568  1.00  0.00    -0.478 A  
HETATM   12  C   UNL     1     -10.747   7.665  70.529  1.00  0.00    -0.241 A  
HETATM   13  C   UNL     1     -11.617  10.315  70.428  1.00  0.00    -0.411 A  
HETATM   14  C   UNL     1     -10.976   9.746  69.329  1.00  0.00    -0.222 A  
ENDBRANCH   3   9
TORSDOF 1
ENDMDL
MODEL      141
REMARK 921   NORMALIZED FREE ENERGY PREDICTED BY IDOCK:   -2.47 KCAL/MOL
REMARK 922        TOTAL FREE ENERGY PREDICTED BY IDOCK:   -2.88 KCAL/MOL
REMARK 923 INTER-LIGAND FREE ENERGY PREDICTED BY IDOCK:   -2.57 KCAL/MOL
REMARK 924 INTRA-LIGAND FREE ENERGY PREDICTED BY IDOCK:   -0.31 KCAL/MOL
REMARK 927      BINDING AFFINITY PREDICTED BY RF-SCORE:    0.00 PKD
ROOT
HETATM    1  C   UNL     1     -10.417   9.560  66.410  1.00  0.00    -0.098 C  
HETATM    2  N   UNL     1      -9.832  10.090  67.646  1.00  0.00    -0.158 NA 
HETATM    3  N   UNL     1      -9.148   9.172  68.480  1.00  0.00    -0.133 N  
HETATM    4  C   UNL     1      -9.244  12.362  66.672  1.00  0.00    -0.218 C  
HETATM    5  C   UNL     1      -8.078   9.824  69.101  1.00  0.00    -0.107 C  
HETATM    6  O   UNL     1      -7.318   9.446  69.977  1.00  0.00    -0.075 OA 
HETATM    7  C   UNL     1      -9.034  11.242  67.635  1.00  0.00    -0.142 C  
HETATM    8  C   UNL     1      -8.024  11.180  68.515  1.00  0.00    -0.143 C  
ENDROOT
BRANCH   3   9
HETATM    9  C   UNL     1      -9.705   7.961  68.931  1.00  0.00    -0.158 A  
HETATM   10  C   UNL     1      -9.782   5.538  69.016  1.00  0.00    -0.195 A  
HETATM   11  C   UNL     1     -10.820   5.596  69.940  1.00  0.00    -0.370 A  
HETATM   12  C   UNL     1      -9.209   6.718  68.525  1.00  0.00    -0.128 A  
HETATM   13  C   UNL     1     -11.308   6.831  70.361  1.00  0.00    -0.399 A  
HETATM   14  C   UNL     1     -10.771   8.007  69.838  1.00  0.00    -0.242 A  
ENDBRANCH   3   9
TORSDOF 1
ENDMDL
MODEL      142
REMARK 921   NORMALIZED FREE ENERGY PREDICTED BY IDOCK:   -2.47 KCAL/MOL
REMARK 922        TOTAL FREE ENERGY PREDICTED BY IDOCK:   -2.88 KCAL/MOL
REMARK 923 INTER-LIGAND FREE ENERGY PREDICTED BY IDOCK:   -2.57 KCAL/MOL
REMARK 924 INTRA-LIGAND FREE ENERGY PREDICTED BY IDOCK:   -0.31 KCAL/MOL
REMARK 927      BINDING AFFINITY PREDICTED BY RF-SCORE:    0.00 PKD
ROOT
HETATM    1  C   UNL     1      -7.391   6.131  65.481  1.00  0.00    -0.080 C  
HETATM    2  N   UNL     1      -8.386   7.119  65.047  1.00  0.00    -0.094 NA 
HETATM    3  N   UNL     1      -8.909   7.984  66.038  1.00  0.00    -0.160 N  
HETATM    4  C   UNL     1      -7.364   7.485  62.749  1.00  0.00    -0.095 C  
HETATM    5  C   UNL     1      -9.168   9.234  65.467  1.00  0.00    -0.231 C  
HETATM    6  O   UNL     1      -9.729  10.216  65.926  1.00  0.00    -0.199 OA 
HETATM    7  C   UNL     1      -8.159   7.934  63.930  1.00  0.00    -0.082 C  
HETATM    8  C   UNL     1      -8.652   9.172  64.084  1.00  0.00    -0.191 C  
ENDROOT
BRANCH   3   9
HETATM    9  C   UNL     1      -9.470   7.536  67.249  1.00  0.00    -0.151 A  
HETATM   10  C   UNL     1      -9.507   7.396  69.670  1.00  0.00    -0.156 A  
HETATM   11  C   UNL     1     -10.695   6.673  69.618  1.00  0.00    -0.306 A  
HETATM   12  C   UNL     1      -8.903   7.846  68.490  1.00  0.00    -0.134 A  
HETATM   13  C   UNL     1     -11.272   6.375  68.386  1.00  0.00    -0.297 A  
HETATM   14  C   UNL     1     -10.648   6.781  67.207  1.00  0.00    -0.390 A  
ENDBRANCH   3   9
TORSDOF 1
ENDMDL
MODEL      143
REMARK 921   NORMALIZED FREE ENERGY PREDICTED BY IDOCK:   -2.46 KCAL/MOL
REMARK 922        TOTAL FREE ENERGY PREDICTED BY IDOCK:   -2.86 KCAL/MOL
REMARK 923 INTER-LIGAND FREE ENERGY PREDICTED BY IDOCK:   -2.55 KCAL/MOL
REMARK 924 INTRA-LIGAND FREE ENERGY PREDICTED BY IDOCK:   -0.31 KCAL/MOL
REMARK 927      BINDING AFFINITY PREDICTED BY RF-SCORE:    0.00 PKD
ROOT
HETATM    1  C   UNL     1      -8.364   7.860  65.266  1.00  0.00    -0.133 C  
HETATM    2  N   UNL     1      -9.517   8.126  66.134  1.00  0.00    -0.183 NA 
HETATM    3  N   UNL     1      -9.451   7.636  67.461  1.00  0.00    -0.138 N  
HETATM    4  C   UNL     1     -10.060  10.389  65.116  1.00  0.00    -0.379 C  
HETATM    5  C   UNL     1     -10.114   8.525  68.312  1.00  0.00    -0.192 C  
HETATM    6  O   UNL     1     -10.398   8.429  69.496  1.00  0.00    -0.210 OA 
HETATM    7  C   UNL     1     -10.062   9.412  66.243  1.00  0.00    -0.258 C  
HETATM    8  C   UNL     1     -10.493   9.687  67.483  1.00  0.00    -0.321 C  
ENDROOT
BRANCH   3   9
HETATM    9  C   UNL     1      -9.158   6.298  67.787  1.00  0.00    -0.114 A  
HETATM   10  C   UNL     1      -7.747   4.596  68.783  1.00  0.00    -0.072 A  
HETATM   11  C   UNL     1      -8.688   3.621  68.470  1.00  0.00    -0.137 A  
HETATM   12  C   UNL     1      -7.987   5.937  68.461  1.00  0.00    -0.102 A  
HETATM   13  C   UNL     1      -9.864   3.977  67.812  1.00  0.00    -0.088 A  
HETATM   14  C   UNL     1     -10.084   5.304  67.449  1.00  0.00    -0.228 A  
ENDBRANCH   3   9
TORSDOF 1
ENDMDL
MODEL      144
REMARK 921   NORMALIZED FREE ENERGY PREDICTED BY IDOCK:   -2.41 KCAL/MOL
REMARK 922        TOTAL FREE ENERGY PREDICTED BY IDOCK:   -2.81 KCAL/MOL
REMARK 923 INTER-LIGAND FREE ENERGY PREDICTED BY IDOCK:   -2.50 KCAL/MOL
REMARK 924 INTRA-LIGAND FREE ENERGY PREDICTED BY IDOCK:   -0.31 KCAL/MOL
REMARK 927      BINDING AFFINITY PREDICTED BY RF-SCORE:    0.00 PKD
ROOT
HETATM    1  C   UNL     1      -7.138   8.313  68.847  1.00  0.00    -0.066 C  
HETATM    2  N   UNL     1      -8.534   8.749  68.725  1.00  0.00    -0.127 NA 
HETATM    3  N   UNL     1      -9.386   8.497  69.828  1.00  0.00    -0.160 N  
HETATM    4  C   UNL     1      -8.014  10.811  67.335  1.00  0.00    -0.112 C  
HETATM    5  C   UNL     1     -10.317   9.534  69.935  1.00  0.00    -0.236 C  
HETATM    6  O   UNL     1     -11.295   9.652  70.656  1.00  0.00    -0.267 OA 
HETATM    7  C   UNL     1      -8.854  10.046  68.302  1.00  0.00    -0.116 C  
HETATM    8  C   UNL     1      -9.933  10.542  68.926  1.00  0.00    -0.213 C  
ENDROOT
BRANCH   3   9
HETATM    9  C   UNL     1      -9.539   7.231  70.423  1.00  0.00    -0.165 A  
HETATM   10  C   UNL     1      -9.328   5.705  72.296  1.00  0.00    -0.157 A  
HETATM   11  C   UNL     1      -9.955   4.703  71.562  1.00  0.00    -0.265 A  
HETATM   12  C   UNL     1      -9.136   6.974  71.738  1.00  0.00    -0.140 A  
HETATM   13  C   UNL     1     -10.373   4.958  70.257  1.00  0.00    -0.252 A  
HETATM   14  C   UNL     1     -10.141   6.207  69.682  1.00  0.00    -0.226 A  
ENDBRANCH   3   9
TORSDOF 1
ENDMDL
MODEL      145
REMARK 921   NORMALIZED FREE ENERGY PREDICTED BY IDOCK:   -2.40 KCAL/MOL
REMARK 922        TOTAL FREE ENERGY PREDICTED BY IDOCK:   -2.80 KCAL/MOL
REMARK 923 INTER-LIGAND FREE ENERGY PREDICTED BY IDOCK:   -2.59 KCAL/MOL
REMARK 924 INTRA-LIGAND FREE ENERGY PREDICTED BY IDOCK:   -0.21 KCAL/MOL
REMARK 927      BINDING AFFINITY PREDICTED BY RF-SCORE:    0.00 PKD
ROOT
HETATM    1  C   UNL     1      -7.735  10.347  69.374  1.00  0.00    -0.158 C  
HETATM    2  N   UNL     1      -7.124  11.487  68.682  1.00  0.00    -0.090 NA 
HETATM    3  N   UNL     1      -7.955  12.234  67.812  1.00  0.00    -0.141 N  
HETATM    4  C   UNL     1      -5.561  12.105  70.588  1.00  0.00    -0.157 C  
HETATM    5  C   UNL     1      -7.572  13.578  67.852  1.00  0.00    -0.151 C  
HETATM    6  O   UNL     1      -7.934  14.527  67.176  1.00  0.00    -0.198 OA 
HETATM    7  C   UNL     1      -6.372  12.441  69.381  1.00  0.00    -0.119 C  
HETATM    8  C   UNL     1      -6.538  13.682  68.902  1.00  0.00    -0.105 C  
ENDROOT
BRANCH   3   9
HETATM    9  C   UNL     1      -8.722  11.660  66.781  1.00  0.00    -0.189 A  
HETATM   10  C   UNL     1     -10.803  11.361  65.571  1.00  0.00    -0.282 A  
HETATM   11  C   UNL     1     -10.159  10.540  64.651  1.00  0.00    -0.408 A  
HETATM   12  C   UNL     1     -10.084  11.939  66.624  1.00  0.00    -0.225 A  
HETATM   13  C   UNL     1      -8.799  10.271  64.792  1.00  0.00    -0.217 A  
HETATM   14  C   UNL     1      -8.091  10.807  65.867  1.00  0.00    -0.148 A  
ENDBRANCH   3   9
TORSDOF 1
ENDMDL
MODEL      146
REMARK 921   NORMALIZED FREE ENERGY PREDICTED BY IDOCK:   -2.38 KCAL/MOL
REMARK 922        TOTAL FREE ENERGY PREDICTED BY IDOCK:   -2.79 KCAL/MOL
REMARK 923 INTER-LIGAND FREE ENERGY PREDICTED BY IDOCK:   -2.48 KCAL/MOL
REMARK 924 INTRA-LIGAND FREE ENERGY PREDICTED BY IDOCK:   -0.30 KCAL/MOL
REMARK 927      BINDING AFFINITY PREDICTED BY RF-SCORE:    0.00 PKD
ROOT
HETATM    1  C   UNL     1      -9.555   9.584  70.401  1.00  0.00    -0.269 C  
HETATM    2  N   UNL     1      -9.481   8.368  69.583  1.00  0.00    -0.165 NA 
HETATM    3  N   UNL     1      -9.668   7.132  70.249  1.00  0.00    -0.176 N  
HETATM    4  C   UNL     1     -10.497   9.422  67.506  1.00  0.00    -0.343 C  
HETATM    5  C   UNL     1     -10.316   6.241  69.389  1.00  0.00    -0.216 C  
HETATM    6  O   UNL     1     -10.556   5.051  69.512  1.00  0.00    -0.182 OA 
HETATM    7  C   UNL     1     -10.202   8.254  68.387  1.00  0.00    -0.209 C  
HETATM    8  C   UNL     1     -10.665   7.013  68.178  1.00  0.00    -0.242 C  
ENDROOT
BRANCH   3   9
HETATM    9  C   UNL     1      -8.945   6.744  71.392  1.00  0.00    -0.142 A  
HETATM   10  C   UNL     1      -8.816   6.078  73.721  1.00  0.00    -0.123 A  
HETATM   11  C   UNL     1      -7.442   5.896  73.601  1.00  0.00    -0.093 A  
HETATM   12  C   UNL     1      -9.573   6.483  72.614  1.00  0.00    -0.156 A  
HETATM   13  C   UNL     1      -6.813   6.140  72.382  1.00  0.00    -0.074 A  
HETATM   14  C   UNL     1      -7.558   6.588  71.291  1.00  0.00    -0.094 A  
ENDBRANCH   3   9
TORSDOF 1
ENDMDL
MODEL      147
REMARK 921   NORMALIZED FREE ENERGY PREDICTED BY IDOCK:   -2.34 KCAL/MOL
REMARK 922        TOTAL FREE ENERGY PREDICTED BY IDOCK:   -2.74 KCAL/MOL
REMARK 923 INTER-LIGAND FREE ENERGY PREDICTED BY IDOCK:   -2.43 KCAL/MOL
REMARK 924 INTRA-LIGAND FREE ENERGY PREDICTED BY IDOCK:   -0.31 KCAL/MOL
REMARK 927      BINDING AFFINITY PREDICTED BY RF-SCORE:    0.00 PKD
ROOT
HETATM    1  C   UNL     1      -6.788   6.807  67.953  1.00  0.00    -0.077 C  
HETATM    2  N   UNL     1      -7.946   6.973  67.067  1.00  0.00    -0.114 NA 
HETATM    3  N   UNL     1      -9.082   6.171  67.336  1.00  0.00    -0.111 N  
HETATM    4  C   UNL     1      -7.595   9.460  66.685  1.00  0.00    -0.094 C  
HETATM    5  C   UNL     1     -10.238   6.890  67.018  1.00  0.00    -0.248 C  
HETATM    6  O   UNL     1     -11.406   6.540  66.980  1.00  0.00    -0.342 OA 
HETATM    7  C   UNL     1      -8.455   8.244  66.768  1.00  0.00    -0.122 C  
HETATM    8  C   UNL     1      -9.792   8.253  66.659  1.00  0.00    -0.337 C  
ENDROOT
BRANCH   3   9
HETATM    9  C   UNL     1      -9.035   4.771  67.477  1.00  0.00    -0.110 A  
HETATM   10  C   UNL     1      -9.221   2.743  68.794  1.00  0.00    -0.231 A  
HETATM   11  C   UNL     1      -9.005   1.974  67.655  1.00  0.00    -0.184 A  
HETATM   12  C   UNL     1      -9.256   4.140  68.705  1.00  0.00    -0.206 A  
HETATM   13  C   UNL     1      -8.799   2.597  66.426  1.00  0.00    -0.136 A  
HETATM   14  C   UNL     1      -8.788   3.988  66.343  1.00  0.00    -0.121 A  
ENDBRANCH   3   9
TORSDOF 1
ENDMDL
MODEL      148
REMARK 921   NORMALIZED FREE ENERGY PREDICTED BY IDOCK:   -2.33 KCAL/MOL
REMARK 922        TOTAL FREE ENERGY PREDICTED BY IDOCK:   -2.73 KCAL/MOL
REMARK 923 INTER-LIGAND FREE ENERGY PREDICTED BY IDOCK:   -2.46 KCAL/MOL
REMARK 924 INTRA-LIGAND FREE ENERGY PREDICTED BY IDOCK:   -0.27 KCAL/MOL
REMARK 927      BINDING AFFINITY PREDICTED BY RF-SCORE:    0.00 PKD
ROOT
HETATM    1  C   UNL     1     -10.370   9.595  66.892  1.00  0.00    -0.238 C  
HETATM    2  N   UNL     1     -10.154  10.833  67.648  1.00  0.00    -0.172 NA 
HETATM    3  N   UNL     1      -8.868  11.031  68.207  1.00  0.00    -0.138 N  
HETATM    4  C   UNL     1     -11.689  12.256  66.207  1.00  0.00    -0.431 C  
HETATM    5  C   UNL     1      -8.563  12.395  68.185  1.00  0.00    -0.185 C  
HETATM    6  O   UNL     1      -7.626  13.008  68.671  1.00  0.00    -0.129 OA 
HETATM    7  C   UNL     1     -10.522  12.078  67.121  1.00  0.00    -0.220 C  
HETATM    8  C   UNL     1      -9.665  13.055  67.454  1.00  0.00    -0.213 C  
ENDROOT
BRANCH   3   9
HETATM    9  C   UNL     1      -8.217  10.088  69.024  1.00  0.00    -0.124 A  
HETATM   10  C   UNL     1      -6.332   8.662  69.565  1.00  0.00    -0.040 A  
HETATM   11  C   UNL     1      -6.955   8.274  70.747  1.00  0.00    -0.043 A  
HETATM   12  C   UNL     1      -6.951   9.583  68.712  1.00  0.00    -0.067 A  
HETATM   13  C   UNL     1      -8.210   8.785  71.071  1.00  0.00    -0.194 A  
HETATM   14  C   UNL     1      -8.848   9.667  70.200  1.00  0.00    -0.266 A  
ENDBRANCH   3   9
TORSDOF 1
ENDMDL
MODEL      149
REMARK 921   NORMALIZED FREE ENERGY PREDICTED BY IDOCK:   -2.18 KCAL/MOL
REMARK 922        TOTAL FREE ENERGY PREDICTED BY IDOCK:   -2.57 KCAL/MOL
REMARK 923 INTER-LIGAND FREE ENERGY PREDICTED BY IDOCK:   -2.32 KCAL/MOL
REMARK 924 INTRA-LIGAND FREE ENERGY PREDICTED BY IDOCK:   -0.25 KCAL/MOL
REMARK 927      BINDING AFFINITY PREDICTED BY RF-SCORE:    0.00 PKD
ROOT
HETATM    1  C   UNL     1      -8.617   9.393  68.434  1.00  0.00    -0.124 C  
HETATM    2  N   UNL     1      -7.848   8.154  68.271  1.00  0.00    -0.120 NA 
HETATM    3  N   UNL     1      -8.568   6.937  68.332  1.00  0.00    -0.126 N  
HETATM    4  C   UNL     1      -6.174   9.132  66.628  1.00  0.00    -0.065 C  
HETATM    5  C   UNL     1      -7.980   6.012  67.463  1.00  0.00    -0.102 C  
HETATM    6  O   UNL     1      -8.202   4.823  67.301  1.00  0.00    -0.105 OA 
HETATM    7  C   UNL     1      -6.945   7.996  67.212  1.00  0.00    -0.075 C  
HETATM    8  C   UNL     1      -6.924   6.742  66.733  1.00  0.00    -0.067 C  
ENDROOT
BRANCH   3   9
HETATM    9  C   UNL     1      -9.433   6.593  69.387  1.00  0.00    -0.146 A  
HETATM   10  C   UNL     1      -9.852   5.859  71.661  1.00  0.00    -0.197 A  
HETATM   11  C   UNL     1     -11.221   6.005  71.464  1.00  0.00    -0.326 A  
HETATM   12  C   UNL     1      -8.955   6.170  70.632  1.00  0.00    -0.148 A  
HETATM   13  C   UNL     1     -11.703   6.440  70.231  1.00  0.00    -0.389 A  
HETATM   14  C   UNL     1     -10.814   6.706  69.190  1.00  0.00    -0.329 A  
ENDBRANCH   3   9
TORSDOF 1
ENDMDL
MODEL      150
REMARK 921   NORMALIZED FREE ENERGY PREDICTED BY IDOCK:   -2.17 KCAL/MOL
REMARK 922        TOTAL FREE ENERGY PREDICTED BY IDOCK:   -2.56 KCAL/MOL
REMARK 923 INTER-LIGAND FREE ENERGY PREDICTED BY IDOCK:   -2.25 KCAL/MOL
REMARK 924 INTRA-LIGAND FREE ENERGY PREDICTED BY IDOCK:   -0.31 KCAL/MOL
REMARK 927      BINDING AFFINITY PREDICTED BY RF-SCORE:    0.00 PKD
ROOT
HETATM    1  C   UNL     1      -9.848  10.031  69.577  1.00  0.00    -0.229 C  
HETATM    2  N   UNL     1      -8.991   9.922  68.391  1.00  0.00    -0.119 NA 
HETATM    3  N   UNL     1      -9.209   8.811  67.540  1.00  0.00    -0.136 N  
HETATM    4  C   UNL     1      -8.802  12.426  68.007  1.00  0.00    -0.187 C  
HETATM    5  C   UNL     1      -8.962   9.190  66.217  1.00  0.00    -0.158 C  
HETATM    6  O   UNL     1      -8.910   8.524  65.196  1.00  0.00    -0.165 OA 
HETATM    7  C   UNL     1      -8.799  11.012  67.532  1.00  0.00    -0.131 C  
HETATM    8  C   UNL     1      -8.707  10.645  66.245  1.00  0.00    -0.163 C  
ENDROOT
BRANCH   3   9
HETATM    9  C   UNL     1      -9.238   7.477  67.988  1.00  0.00    -0.137 A  
HETATM   10  C   UNL     1     -10.372   5.364  68.352  1.00  0.00    -0.216 A  
HETATM   11  C   UNL     1      -9.190   4.803  68.827  1.00  0.00    -0.170 A  
HETATM   12  C   UNL     1     -10.394   6.693  67.914  1.00  0.00    -0.227 A  
HETATM   13  C   UNL     1      -8.031   5.574  68.890  1.00  0.00    -0.095 A  
HETATM   14  C   UNL     1      -8.063   6.912  68.497  1.00  0.00    -0.120 A  
ENDBRANCH   3   9
TORSDOF 1
ENDMDL
MODEL      151
REMARK 921   NORMALIZED FREE ENERGY PREDICTED BY IDOCK:   -2.00 KCAL/MOL
REMARK 922        TOTAL FREE ENERGY PREDICTED BY IDOCK:   -2.38 KCAL/MOL
REMARK 923 INTER-LIGAND FREE ENERGY PREDICTED BY IDOCK:   -2.08 KCAL/MOL
REMARK 924 INTRA-LIGAND FREE ENERGY PREDICTED BY IDOCK:   -0.30 KCAL/MOL
REMARK 927      BINDING AFFINITY PREDICTED BY RF-SCORE:    0.00 PKD
ROOT
HETATM    1  C   UNL     1      -7.521   7.342  68.896  1.00  0.00    -0.101 C  
HETATM    2  N   UNL     1      -8.849   7.055  69.451  1.00  0.00    -0.136 NA 
HETATM    3  N   UNL     1      -9.139   5.705  69.764  1.00  0.00    -0.136 N  
HETATM    4  C   UNL     1      -9.044   9.242  70.730  1.00  0.00    -0.306 C  
HETATM    5  C   UNL     1      -9.970   5.662  70.887  1.00  0.00    -0.194 C  
HETATM    6  O   UNL     1     -10.549   4.725  71.411  1.00  0.00    -0.113 OA 
HETATM    7  C   UNL     1      -9.364   7.800  70.521  1.00  0.00    -0.163 C  
HETATM    8  C   UNL     1     -10.089   7.054  71.368  1.00  0.00    -0.197 C  
ENDROOT
BRANCH   3   9
HETATM    9  C   UNL     1      -8.979   4.641  68.856  1.00  0.00    -0.108 A  
HETATM   10  C   UNL     1      -9.514   3.492  66.789  1.00  0.00    -0.190 A  
HETATM   11  C   UNL     1      -8.543   2.533  67.061  1.00  0.00    -0.120 A  
HETATM   12  C   UNL     1      -9.721   4.557  67.673  1.00  0.00    -0.206 A  
HETATM   13  C   UNL     1      -7.790   2.620  68.230  1.00  0.00    -0.056 A  
HETATM   14  C   UNL     1      -8.027   3.654  69.135  1.00  0.00    -0.059 A  
ENDBRANCH   3   9
TORSDOF 1
ENDMDL
MODEL      152
REMARK 921   NORMALIZED FREE ENERGY PREDICTED BY IDOCK:   -1.87 KCAL/MOL
REMARK 922        TOTAL FREE ENERGY PREDICTED BY IDOCK:   -2.24 KCAL/MOL
REMARK 923 INTER-LIGAND FREE ENERGY PREDICTED BY IDOCK:   -1.97 KCAL/MOL
REMARK 924 INTRA-LIGAND FREE ENERGY PREDICTED BY IDOCK:   -0.28 KCAL/MOL
REMARK 927      BINDING AFFINITY PREDICTED BY RF-SCORE:    0.00 PKD
ROOT
HETATM    1  C   UNL     1     -10.088   8.459  66.623  1.00  0.00    -0.288 C  
HETATM    2  N   UNL     1      -8.945   8.560  65.709  1.00  0.00    -0.190 NA 
HETATM    3  N   UNL     1      -8.345   7.347  65.291  1.00  0.00    -0.131 N  
HETATM    4  C   UNL     1      -9.804  10.615  64.487  1.00  0.00    -0.388 C  
HETATM    5  C   UNL     1      -7.887   7.491  63.978  1.00  0.00    -0.127 C  
HETATM    6  O   UNL     1      -7.211   6.746  63.287  1.00  0.00    -0.052 OA 
HETATM    7  C   UNL     1      -9.005   9.358  64.559  1.00  0.00    -0.181 C  
HETATM    8  C   UNL     1      -8.346   8.819  63.521  1.00  0.00    -0.147 C  
ENDROOT
BRANCH   3   9
HETATM    9  C   UNL     1      -7.907   6.346  66.177  1.00  0.00    -0.102 A  
HETATM   10  C   UNL     1      -8.150   4.191  67.264  1.00  0.00    -0.099 A  
HETATM   11  C   UNL     1      -6.923   4.364  67.898  1.00  0.00    -0.056 A  
HETATM   12  C   UNL     1      -8.635   5.170  66.388  1.00  0.00    -0.112 A  
HETATM   13  C   UNL     1      -6.187   5.527  67.680  1.00  0.00    -0.034 A  
HETATM   14  C   UNL     1      -6.690   6.523  66.845  1.00  0.00    -0.060 A  
ENDBRANCH   3   9
TORSDOF 1
ENDMDL
MODEL      153
REMARK 921   NORMALIZED FREE ENERGY PREDICTED BY IDOCK:   -1.83 KCAL/MOL
REMARK 922        TOTAL FREE ENERGY PREDICTED BY IDOCK:   -2.20 KCAL/MOL
REMARK 923 INTER-LIGAND FREE ENERGY PREDICTED BY IDOCK:   -1.93 KCAL/MOL
REMARK 924 INTRA-LIGAND FREE ENERGY PREDICTED BY IDOCK:   -0.26 KCAL/MOL
REMARK 927      BINDING AFFINITY PREDICTED BY RF-SCORE:    0.00 PKD
ROOT
HETATM    1  C   UNL     1     -10.111   9.469  66.250  1.00  0.00    -0.257 C  
HETATM    2  N   UNL     1      -9.355   9.149  67.466  1.00  0.00    -0.134 NA 
HETATM    3  N   UNL     1      -8.513   8.011  67.420  1.00  0.00    -0.125 N  
HETATM    4  C   UNL     1      -9.016  11.565  68.174  1.00  0.00    -0.172 C  
HETATM    5  C   UNL     1      -7.383   8.245  68.209  1.00  0.00    -0.095 C  
HETATM    6  O   UNL     1      -6.478   7.496  68.542  1.00  0.00    -0.042 OA 
HETATM    7  C   UNL     1      -8.613  10.129  68.138  1.00  0.00    -0.118 C  
HETATM    8  C   UNL     1      -7.473   9.650  68.657  1.00  0.00    -0.075 C  
ENDROOT
BRANCH   3   9
HETATM    9  C   UNL     1      -8.946   6.735  67.015  1.00  0.00    -0.116 A  
HETATM   10  C   UNL     1      -9.110   4.946  65.385  1.00  0.00    -0.155 A  
HETATM   11  C   UNL     1      -9.772   4.150  66.314  1.00  0.00    -0.219 A  
HETATM   12  C   UNL     1      -8.678   6.231  65.738  1.00  0.00    -0.145 A  
HETATM   13  C   UNL     1     -10.027   4.641  67.593  1.00  0.00    -0.161 A  
HETATM   14  C   UNL     1      -9.639   5.937  67.932  1.00  0.00    -0.120 A  
ENDBRANCH   3   9
TORSDOF 1
ENDMDL
MODEL      154
REMARK 921   NORMALIZED FREE ENERGY PREDICTED BY IDOCK:   -1.82 KCAL/MOL
REMARK 922        TOTAL FREE ENERGY PREDICTED BY IDOCK:   -2.19 KCAL/MOL
REMARK 923 INTER-LIGAND FREE ENERGY PREDICTED BY IDOCK:   -1.88 KCAL/MOL
REMARK 924 INTRA-LIGAND FREE ENERGY PREDICTED BY IDOCK:   -0.31 KCAL/MOL
REMARK 927      BINDING AFFINITY PREDICTED BY RF-SCORE:    0.00 PKD
ROOT
HETATM    1  C   UNL     1      -8.386  10.335  68.870  1.00  0.00    -0.136 C  
HETATM    2  N   UNL     1      -8.534   9.196  67.957  1.00  0.00    -0.121 NA 
HETATM    3  N   UNL     1      -8.893   7.953  68.532  1.00  0.00    -0.134 N  
HETATM    4  C   UNL     1      -9.436  10.567  66.017  1.00  0.00    -0.227 C  
HETATM    5  C   UNL     1      -9.703   7.249  67.635  1.00  0.00    -0.142 C  
HETATM    6  O   UNL     1     -10.125   6.105  67.676  1.00  0.00    -0.131 OA 
HETATM    7  C   UNL     1      -9.302   9.298  66.790  1.00  0.00    -0.156 C  
HETATM    8  C   UNL     1      -9.964   8.166  66.506  1.00  0.00    -0.302 C  
ENDROOT
BRANCH   3   9
HETATM    9  C   UNL     1      -8.204   7.362  69.607  1.00  0.00    -0.130 A  
HETATM   10  C   UNL     1      -8.102   6.508  71.875  1.00  0.00    -0.104 A  
HETATM   11  C   UNL     1      -6.785   6.105  71.672  1.00  0.00    -0.059 A  
HETATM   12  C   UNL     1      -8.820   7.118  70.839  1.00  0.00    -0.150 A  
HETATM   13  C   UNL     1      -6.172   6.331  70.442  1.00  0.00    -0.035 A  
HETATM   14  C   UNL     1      -6.870   6.980  69.425  1.00  0.00    -0.054 A  
ENDBRANCH   3   9
TORSDOF 1
ENDMDL
MODEL      155
REMARK 921   NORMALIZED FREE ENERGY PREDICTED BY IDOCK:    4.49 KCAL/MOL
REMARK 922        TOTAL FREE ENERGY PREDICTED BY IDOCK:    4.49 KCAL/MOL
REMARK 923 INTER-LIGAND FREE ENERGY PREDICTED BY IDOCK:    3.59 KCAL/MOL
REMARK 924 INTRA-LIGAND FREE ENERGY PREDICTED BY IDOCK:    0.90 KCAL/MOL
REMARK 927      BINDING AFFINITY PREDICTED BY RF-SCORE:    0.00 PKD
ROOT
HETATM    1  C   UNL     1      -5.898  16.284  72.420  1.00  0.00     1.832 C  
HETATM    2  N   UNL     1      -5.950  16.515  70.972  1.00  0.00     0.534 NA 
HETATM    3  N   UNL     1      -6.764  15.641  70.210  1.00  0.00     0.075 N  
HETATM    4  C   UNL     1      -5.743  19.042  71.130  1.00  0.00    -0.068 C  
HETATM    5  C   UNL     1      -7.323  16.349  69.142  1.00  0.00    -0.225 C  
HETATM    6  O   UNL     1      -7.975  15.961  68.186  1.00  0.00    -0.134 OA 
HETATM    7  C   UNL     1      -6.191  17.792  70.449  1.00  0.00     0.382 C  
HETATM    8  C   UNL     1      -6.937  17.763  69.335  1.00  0.00    -0.080 C  
ENDROOT
BRANCH   3   9
HETATM    9  C   UNL     1      -6.671  14.238  70.267  1.00  0.00     0.034 A  
HETATM   10  C   UNL     1      -5.847  12.185  71.260  1.00  0.00     0.485 A  
HETATM   11  C   UNL     1      -6.605  11.438  70.364  1.00  0.00     0.335 A  
HETATM   12  C   UNL     1      -5.893  13.584  71.227  1.00  0.00    -0.055 A  
HETATM   13  C   UNL     1      -7.394  12.084  69.415  1.00  0.00     0.217 A  
HETATM   14  C   UNL     1      -7.405  13.476  69.350  1.00  0.00     0.255 A  
ENDBRANCH   3   9
TORSDOF 1
ENDMDL
MODEL      156
REMARK 921   NORMALIZED FREE ENERGY PREDICTED BY IDOCK:   11.48 KCAL/MOL
REMARK 922        TOTAL FREE ENERGY PREDICTED BY IDOCK:   11.89 KCAL/MOL
REMARK 923 INTER-LIGAND FREE ENERGY PREDICTED BY IDOCK:   11.33 KCAL/MOL
REMARK 924 INTRA-LIGAND FREE ENERGY PREDICTED BY IDOCK:    0.56 KCAL/MOL
REMARK 927      BINDING AFFINITY PREDICTED BY RF-SCORE:    0.00 PKD
ROOT
HETATM    1  C   UNL     1      -9.802  12.482  69.861  1.00  0.00     2.330 C  
HETATM    2  N   UNL     1     -10.935  13.364  69.558  1.00  0.00    -0.036 NA 
HETATM    3  N   UNL     1     -11.490  13.277  68.258  1.00  0.00    -0.294 N  
HETATM    4  C   UNL     1     -11.916  13.296  71.901  1.00  0.00     1.125 C  
HETATM    5  C   UNL     1     -12.867  13.504  68.330  1.00  0.00     1.498 C  
HETATM    6  O   UNL     1     -13.697  13.641  67.446  1.00  0.00     4.333 OA 
HETATM    7  C   UNL     1     -12.034  13.454  70.422  1.00  0.00    -0.285 C  
HETATM    8  C   UNL     1     -13.195  13.605  69.767  1.00  0.00     1.224 C  
ENDROOT
BRANCH   3   9
HETATM    9  C   UNL     1     -10.731  13.380  67.077  1.00  0.00    -0.268 A  
HETATM   10  C   UNL     1      -8.677  13.874  65.887  1.00  0.00     0.964 A  
HETATM   11  C   UNL     1      -9.265  13.479  64.690  1.00  0.00     1.718 A  
HETATM   12  C   UNL     1      -9.400  13.807  67.084  1.00  0.00    -0.240 A  
HETATM   13  C   UNL     1     -10.587  13.037  64.679  1.00  0.00    -0.397 A  
HETATM   14  C   UNL     1     -11.323  13.014  65.862  1.00  0.00    -0.344 A  
ENDBRANCH   3   9
TORSDOF 1
ENDMDL
