MODEL        1
REMARK 921   NORMALIZED FREE ENERGY PREDICTED BY IDOCK:   -8.91 KCAL/MOL
REMARK 922        TOTAL FREE ENERGY PREDICTED BY IDOCK:  -16.48 KCAL/MOL
REMARK 923 INTER-LIGAND FREE ENERGY PREDICTED BY IDOCK:  -13.08 KCAL/MOL
REMARK 924 INTRA-LIGAND FREE ENERGY PREDICTED BY IDOCK:   -3.40 KCAL/MOL
REMARK 927      BINDING AFFINITY PREDICTED BY RF-SCORE:    0.00 PKD
ROOT
HETATM    1  F   UNL     1     -10.479   4.856  69.896  1.00  0.00    -0.332 F  
HETATM    2  C   UNL     1     -10.134   5.526  71.031  1.00  0.00    -0.209 C  
HETATM    3  C   UNL     1      -9.749   6.966  70.801  1.00  0.00    -0.176 A  
HETATM    4  F   UNL     1     -11.191   5.393  71.880  1.00  0.00    -0.298 F  
HETATM    5  F   UNL     1      -9.119   4.807  71.590  1.00  0.00    -0.135 F  
HETATM    6  C   UNL     1      -9.750   7.530  69.509  1.00  0.00    -0.164 A  
HETATM    7  C   UNL     1      -9.292   8.835  69.293  1.00  0.00    -0.149 A  
HETATM    8  C   UNL     1      -9.336   7.743  71.894  1.00  0.00    -0.195 A  
HETATM    9  C   UNL     1      -8.905   9.586  70.417  1.00  0.00    -0.279 A  
HETATM   10  C   UNL     1      -8.924   9.055  71.704  1.00  0.00    -0.144 A  
ENDROOT
BRANCH   7  11
HETATM   11  N   UNL     1      -9.146   9.423  68.033  1.00  0.00    -0.127 NA 
HETATM   12  C   UNL     1      -8.425  11.161  66.421  1.00  0.00    -0.167 C  
HETATM   13  C   UNL     1      -8.745  10.838  67.909  1.00  0.00    -0.129 C  
HETATM   14  N   UNL     1      -9.510  10.847  65.449  1.00  0.00    -0.203 NA 
HETATM   15  C   UNL     1     -10.240   9.043  67.108  1.00  0.00    -0.265 C  
HETATM   16  C   UNL     1      -9.861   9.414  65.655  1.00  0.00    -0.223 C  
BRANCH  14  17
HETATM   17  C   UNL     1     -10.710  11.701  65.615  1.00  0.00    -0.278 C  
BRANCH  17  18
HETATM   18  C   UNL     1     -11.325  12.250  64.306  1.00  0.00    -0.352 C  
BRANCH  18  19
HETATM   19  O   UNL     1     -11.262  13.707  64.239  1.00  0.00    -0.379 OA 
BRANCH  19  20
HETATM   20  C   UNL     1     -11.862  14.305  65.299  1.00  0.00    -0.374 C  
HETATM   21  O   UNL     1     -13.075  14.234  65.506  1.00  0.00    -0.639 OA 
BRANCH  20  22
HETATM   22  C   UNL     1     -10.967  15.043  66.254  1.00  0.00    -0.338 A  
HETATM   23  C   UNL     1      -9.851  15.626  65.603  1.00  0.00    -0.369 A  
HETATM   24  C   UNL     1      -8.880  16.334  66.299  1.00  0.00    -0.367 A  
HETATM   25  C   UNL     1      -9.011  16.488  67.670  1.00  0.00    -0.198 A  
HETATM   26  C   UNL     1     -10.109  15.934  68.335  1.00  0.00    -0.223 A  
HETATM   27  C   UNL     1     -11.107  15.195  67.660  1.00  0.00    -0.318 A  
BRANCH  27  28
HETATM   28  N   UNL     1     -12.136  14.587  68.409  1.00  0.00    -0.578 NA 
HETATM   29  H   UNL     1     -12.872  14.186  67.827  1.00  0.00     0.000 HD 
BRANCH  28  30
HETATM   30  C   UNL     1     -12.366  14.411  69.805  1.00  0.00    -0.285 A  
HETATM   31  C   UNL     1     -12.392  13.100  70.339  1.00  0.00    -0.351 A  
HETATM   32  C   UNL     1     -11.898  12.004  69.615  1.00  0.00    -0.401 A  
HETATM   33  C   UNL     1     -12.049  10.704  70.083  1.00  0.00    -0.414 A  
HETATM   34  C   UNL     1     -12.729  10.464  71.276  1.00  0.00    -0.536 A  
HETATM   35  C   UNL     1     -13.113  11.572  72.060  1.00  0.00    -0.430 A  
HETATM   36  C   UNL     1     -13.068   9.041  71.659  1.00  0.00    -0.365 C  
HETATM   37  C   UNL     1     -12.917  12.888  71.635  1.00  0.00    -0.313 A  
HETATM   38  F   UNL     1     -12.659   8.132  70.724  1.00  0.00    -0.188 F  
HETATM   39  F   UNL     1     -12.507   8.640  72.830  1.00  0.00    -0.454 F  
HETATM   40  F   UNL     1     -14.409   8.843  71.788  1.00  0.00    -0.418 F  
HETATM   41  N   UNL     1     -13.256  13.916  72.427  1.00  0.00    -0.465 NA 
HETATM   42  C   UNL     1     -13.086  15.175  71.948  1.00  0.00    -0.369 A  
HETATM   43  C   UNL     1     -12.671  15.469  70.651  1.00  0.00    -0.487 A  
ENDBRANCH  28  30
ENDBRANCH  27  28
ENDBRANCH  20  22
ENDBRANCH  19  20
ENDBRANCH  18  19
ENDBRANCH  17  18
ENDBRANCH  14  17
ENDBRANCH   7  11
TORSDOF 8
ENDMDL
MODEL        2
REMARK 921   NORMALIZED FREE ENERGY PREDICTED BY IDOCK:   -8.65 KCAL/MOL
REMARK 922        TOTAL FREE ENERGY PREDICTED BY IDOCK:  -16.10 KCAL/MOL
REMARK 923 INTER-LIGAND FREE ENERGY PREDICTED BY IDOCK:  -13.55 KCAL/MOL
REMARK 924 INTRA-LIGAND FREE ENERGY PREDICTED BY IDOCK:   -2.55 KCAL/MOL
REMARK 927      BINDING AFFINITY PREDICTED BY RF-SCORE:    0.00 PKD
ROOT
HETATM    1  F   UNL     1     -12.194  13.354  65.407  1.00  0.00    -0.372 F  
HETATM    2  C   UNL     1     -11.474  13.115  64.275  1.00  0.00    -0.384 C  
HETATM    3  C   UNL     1     -10.653  11.851  64.326  1.00  0.00    -0.381 A  
HETATM    4  F   UNL     1     -12.372  13.118  63.252  1.00  0.00    -0.579 F  
HETATM    5  F   UNL     1     -10.699  14.222  64.090  1.00  0.00    -0.294 F  
HETATM    6  C   UNL     1     -10.651  11.020  65.466  1.00  0.00    -0.267 A  
HETATM    7  C   UNL     1      -9.807   9.906  65.544  1.00  0.00    -0.311 A  
HETATM    8  C   UNL     1      -9.838  11.524  63.232  1.00  0.00    -0.431 A  
HETATM    9  C   UNL     1      -9.021   9.603  64.418  1.00  0.00    -0.276 A  
HETATM   10  C   UNL     1      -9.031  10.395  63.273  1.00  0.00    -0.241 A  
ENDROOT
BRANCH   7  11
HETATM   11  N   UNL     1      -9.656   9.107  66.681  1.00  0.00    -0.185 NA 
HETATM   12  C   UNL     1     -10.109   7.168  68.155  1.00  0.00    -0.169 C  
HETATM   13  C   UNL     1     -10.640   8.050  66.988  1.00  0.00    -0.294 C  
HETATM   14  N   UNL     1      -9.738   7.902  69.397  1.00  0.00    -0.168 NA 
HETATM   15  C   UNL     1      -9.255   9.895  67.870  1.00  0.00    -0.130 C  
HETATM   16  C   UNL     1      -8.762   8.952  68.992  1.00  0.00    -0.136 C  
BRANCH  14  17
HETATM   17  C   UNL     1     -10.898   8.514  70.085  1.00  0.00    -0.233 C  
BRANCH  17  18
HETATM   18  C   UNL     1     -10.680   9.952  70.613  1.00  0.00    -0.303 C  
BRANCH  18  19
HETATM   19  O   UNL     1     -11.939  10.616  70.932  1.00  0.00    -0.332 OA 
BRANCH  19  20
HETATM   20  C   UNL     1     -12.263  11.582  70.036  1.00  0.00    -0.278 C  
HETATM   21  O   UNL     1     -12.303  11.377  68.821  1.00  0.00    -0.480 OA 
BRANCH  20  22
HETATM   22  C   UNL     1     -12.615  12.931  70.595  1.00  0.00    -0.256 A  
HETATM   23  C   UNL     1     -13.198  12.843  71.884  1.00  0.00    -0.521 A  
HETATM   24  C   UNL     1     -13.624  13.968  72.578  1.00  0.00    -0.670 A  
HETATM   25  C   UNL     1     -13.462  15.218  72.001  1.00  0.00    -0.547 A  
HETATM   26  C   UNL     1     -12.878  15.334  70.735  1.00  0.00    -0.494 A  
HETATM   27  C   UNL     1     -12.448  14.209  69.997  1.00  0.00    -0.296 A  
BRANCH  27  28
HETATM   28  N   UNL     1     -11.953  14.395  68.688  1.00  0.00    -0.479 NA 
HETATM   29  H   UNL     1     -12.682  14.360  67.975  1.00  0.00     0.000 HD 
BRANCH  28  30
HETATM   30  C   UNL     1     -10.652  14.621  68.151  1.00  0.00    -0.237 A  
HETATM   31  C   UNL     1     -10.219  15.951  67.932  1.00  0.00    -0.251 A  
HETATM   32  C   UNL     1     -10.888  17.044  68.508  1.00  0.00    -0.310 A  
HETATM   33  C   UNL     1     -10.545  18.351  68.182  1.00  0.00    -0.298 A  
HETATM   34  C   UNL     1      -9.542  18.599  67.247  1.00  0.00    -0.316 A  
HETATM   35  C   UNL     1      -8.790  17.506  66.767  1.00  0.00    -0.275 A  
HETATM   36  C   UNL     1      -9.331  20.012  66.751  1.00  0.00    -0.392 C  
HETATM   37  C   UNL     1      -9.082  16.189  67.127  1.00  0.00    -0.203 A  
HETATM   38  F   UNL     1     -10.211  20.901  67.299  1.00  0.00    -0.517 F  
HETATM   39  F   UNL     1      -8.094  20.508  67.019  1.00  0.00    -0.343 F  
HETATM   40  F   UNL     1      -9.504  20.121  65.404  1.00  0.00    -0.271 F  
HETATM   41  N   UNL     1      -8.317  15.179  66.684  1.00  0.00    -0.200 NA 
HETATM   42  C   UNL     1      -8.669  13.914  67.028  1.00  0.00    -0.200 A  
HETATM   43  C   UNL     1      -9.826  13.587  67.731  1.00  0.00    -0.233 A  
ENDBRANCH  28  30
ENDBRANCH  27  28
ENDBRANCH  20  22
ENDBRANCH  19  20
ENDBRANCH  18  19
ENDBRANCH  17  18
ENDBRANCH  14  17
ENDBRANCH   7  11
TORSDOF 8
ENDMDL
MODEL        3
REMARK 921   NORMALIZED FREE ENERGY PREDICTED BY IDOCK:   -8.20 KCAL/MOL
REMARK 922        TOTAL FREE ENERGY PREDICTED BY IDOCK:  -15.44 KCAL/MOL
REMARK 923 INTER-LIGAND FREE ENERGY PREDICTED BY IDOCK:  -13.75 KCAL/MOL
REMARK 924 INTRA-LIGAND FREE ENERGY PREDICTED BY IDOCK:   -1.69 KCAL/MOL
REMARK 927      BINDING AFFINITY PREDICTED BY RF-SCORE:    0.00 PKD
ROOT
HETATM    1  F   UNL     1     -10.615  19.909  65.191  1.00  0.00    -0.432 F  
HETATM    2  C   UNL     1      -9.815  19.774  66.285  1.00  0.00    -0.455 C  
HETATM    3  C   UNL     1      -9.684  18.355  66.780  1.00  0.00    -0.331 A  
HETATM    4  F   UNL     1      -8.616  20.324  65.943  1.00  0.00    -0.308 F  
HETATM    5  F   UNL     1     -10.343  20.600  67.232  1.00  0.00    -0.509 F  
HETATM    6  C   UNL     1     -10.355  17.290  66.143  1.00  0.00    -0.320 A  
HETATM    7  C   UNL     1     -10.311  15.995  66.671  1.00  0.00    -0.298 A  
HETATM    8  C   UNL     1      -8.918  18.101  67.927  1.00  0.00    -0.273 A  
HETATM    9  C   UNL     1      -9.516  15.780  67.811  1.00  0.00    -0.212 A  
HETATM   10  C   UNL     1      -8.824  16.813  68.436  1.00  0.00    -0.237 A  
ENDROOT
BRANCH   7  11
HETATM   11  N   UNL     1     -11.044  14.913  66.172  1.00  0.00    -0.334 NA 
HETATM   12  C   UNL     1     -12.009  12.631  66.204  1.00  0.00    -0.395 C  
HETATM   13  C   UNL     1     -10.920  13.577  66.788  1.00  0.00    -0.292 C  
HETATM   14  N   UNL     1     -12.028  12.514  64.719  1.00  0.00    -0.388 NA 
HETATM   15  C   UNL     1     -11.049  14.876  64.691  1.00  0.00    -0.323 C  
HETATM   16  C   UNL     1     -12.139  13.900  64.187  1.00  0.00    -0.425 C  
BRANCH  14  17
HETATM   17  C   UNL     1     -10.826  11.844  64.169  1.00  0.00    -0.356 C  
BRANCH  17  18
HETATM   18  C   UNL     1      -9.796  11.356  65.215  1.00  0.00    -0.248 C  
BRANCH  18  19
HETATM   19  O   UNL     1     -10.071   9.995  65.664  1.00  0.00    -0.282 OA 
BRANCH  19  20
HETATM   20  C   UNL     1      -9.716   9.790  66.957  1.00  0.00    -0.183 C  
HETATM   21  O   UNL     1      -9.171  10.656  67.644  1.00  0.00    -0.145 OA 
BRANCH  20  22
HETATM   22  C   UNL     1     -10.054   8.449  67.545  1.00  0.00    -0.279 A  
HETATM   23  C   UNL     1      -9.936   7.402  66.597  1.00  0.00    -0.261 A  
HETATM   24  C   UNL     1     -10.225   6.082  66.918  1.00  0.00    -0.261 A  
HETATM   25  C   UNL     1     -10.627   5.774  68.209  1.00  0.00    -0.286 A  
HETATM   26  C   UNL     1     -10.739   6.788  69.167  1.00  0.00    -0.287 A  
HETATM   27  C   UNL     1     -10.467   8.142  68.869  1.00  0.00    -0.185 A  
BRANCH  27  28
HETATM   28  N   UNL     1     -10.691   9.121  69.860  1.00  0.00    -0.227 NA 
HETATM   29  H   UNL     1      -9.871   9.701  70.043  1.00  0.00     0.000 HD 
BRANCH  28  30
HETATM   30  C   UNL     1     -11.818   9.473  70.659  1.00  0.00    -0.233 A  
HETATM   31  C   UNL     1     -12.196  10.834  70.755  1.00  0.00    -0.480 A  
HETATM   32  C   UNL     1     -11.704  11.796  69.858  1.00  0.00    -0.399 A  
HETATM   33  C   UNL     1     -11.968  13.149  70.037  1.00  0.00    -0.391 A  
HETATM   34  C   UNL     1     -12.707  13.578  71.139  1.00  0.00    -0.425 A  
HETATM   35  C   UNL     1     -13.303  12.603  71.965  1.00  0.00    -0.555 A  
HETATM   36  C   UNL     1     -12.802  15.059  71.430  1.00  0.00    -0.359 C  
HETATM   37  C   UNL     1     -13.098  11.236  71.768  1.00  0.00    -0.422 A  
HETATM   38  F   UNL     1     -12.096  15.818  70.541  1.00  0.00    -0.322 F  
HETATM   39  F   UNL     1     -14.071  15.544  71.400  1.00  0.00    -0.539 F  
HETATM   40  F   UNL     1     -12.298  15.381  72.654  1.00  0.00    -0.370 F  
HETATM   41  N   UNL     1     -13.716  10.336  72.548  1.00  0.00     0.078 NA 
HETATM   42  C   UNL     1     -13.448   9.021  72.342  1.00  0.00    -0.470 A  
HETATM   43  C   UNL     1     -12.501   8.548  71.437  1.00  0.00    -0.327 A  
ENDBRANCH  28  30
ENDBRANCH  27  28
ENDBRANCH  20  22
ENDBRANCH  19  20
ENDBRANCH  18  19
ENDBRANCH  17  18
ENDBRANCH  14  17
ENDBRANCH   7  11
TORSDOF 8
ENDMDL
MODEL        4
REMARK 921   NORMALIZED FREE ENERGY PREDICTED BY IDOCK:   -8.11 KCAL/MOL
REMARK 922        TOTAL FREE ENERGY PREDICTED BY IDOCK:  -15.31 KCAL/MOL
REMARK 923 INTER-LIGAND FREE ENERGY PREDICTED BY IDOCK:  -12.86 KCAL/MOL
REMARK 924 INTRA-LIGAND FREE ENERGY PREDICTED BY IDOCK:   -2.44 KCAL/MOL
REMARK 927      BINDING AFFINITY PREDICTED BY RF-SCORE:    0.00 PKD
ROOT
HETATM    1  F   UNL     1     -10.447  20.155  67.630  1.00  0.00    -0.515 F  
HETATM    2  C   UNL     1      -9.374  19.334  67.455  1.00  0.00    -0.307 C  
HETATM    3  C   UNL     1      -9.504  17.999  68.145  1.00  0.00    -0.292 A  
HETATM    4  F   UNL     1      -9.208  19.216  66.108  1.00  0.00    -0.329 F  
HETATM    5  F   UNL     1      -8.294  20.038  67.900  1.00  0.00    -0.331 F  
HETATM    6  C   UNL     1     -10.647  17.670  68.902  1.00  0.00    -0.139 A  
HETATM    7  C   UNL     1     -10.713  16.473  69.623  1.00  0.00    -0.323 A  
HETATM    8  C   UNL     1      -8.440  17.087  68.069  1.00  0.00    -0.216 A  
HETATM    9  C   UNL     1      -9.634  15.578  69.505  1.00  0.00    -0.278 A  
HETATM   10  C   UNL     1      -8.510  15.873  68.739  1.00  0.00    -0.204 A  
ENDROOT
BRANCH   7  11
HETATM   11  N   UNL     1     -11.753  16.130  70.492  1.00  0.00    -0.316 NA 
HETATM   12  C   UNL     1     -12.908  15.958  72.677  1.00  0.00    -0.459 C  
HETATM   13  C   UNL     1     -11.542  16.139  71.953  1.00  0.00    -0.402 C  
HETATM   14  N   UNL     1     -13.691  14.755  72.279  1.00  0.00    -0.413 NA 
HETATM   15  C   UNL     1     -12.511  14.947  70.018  1.00  0.00    -0.275 C  
HETATM   16  C   UNL     1     -13.841  14.820  70.798  1.00  0.00     0.047 C  
BRANCH  14  17
HETATM   17  C   UNL     1     -13.051  13.480  72.678  1.00  0.00    -0.298 C  
BRANCH  17  18
HETATM   18  C   UNL     1     -13.618  12.208  72.005  1.00  0.00    -0.164 C  
BRANCH  18  19
HETATM   19  O   UNL     1     -12.596  11.477  71.264  1.00  0.00    -0.383 OA 
BRANCH  19  20
HETATM   20  C   UNL     1     -12.799  10.136  71.277  1.00  0.00    -0.410 C  
HETATM   21  O   UNL     1     -13.882   9.623  70.986  1.00  0.00    -0.219 OA 
BRANCH  20  22
HETATM   22  C   UNL     1     -11.618   9.276  71.629  1.00  0.00    -0.463 A  
HETATM   23  C   UNL     1     -11.951   8.262  72.561  1.00  0.00    -0.420 A  
HETATM   24  C   UNL     1     -11.004   7.369  73.046  1.00  0.00    -0.422 A  
HETATM   25  C   UNL     1      -9.697   7.460  72.593  1.00  0.00    -0.212 A  
HETATM   26  C   UNL     1      -9.345   8.443  71.663  1.00  0.00    -0.280 A  
HETATM   27  C   UNL     1     -10.280   9.377  71.162  1.00  0.00    -0.291 A  
BRANCH  27  28
HETATM   28  N   UNL     1      -9.833  10.399  70.298  1.00  0.00    -0.315 NA 
HETATM   29  H   UNL     1      -9.876  11.328  70.719  1.00  0.00     0.000 HD 
BRANCH  28  30
HETATM   30  C   UNL     1      -9.335  10.411  68.962  1.00  0.00    -0.194 A  
HETATM   31  C   UNL     1      -9.988  11.207  67.991  1.00  0.00    -0.190 A  
HETATM   32  C   UNL     1     -10.898  12.211  68.358  1.00  0.00    -0.255 A  
HETATM   33  C   UNL     1     -11.638  12.898  67.401  1.00  0.00    -0.414 A  
HETATM   34  C   UNL     1     -11.508  12.575  66.052  1.00  0.00    -0.423 A  
HETATM   35  C   UNL     1     -10.504  11.657  65.678  1.00  0.00    -0.314 A  
HETATM   36  C   UNL     1     -12.469  13.179  65.054  1.00  0.00    -0.460 C  
HETATM   37  C   UNL     1      -9.710  10.999  66.620  1.00  0.00    -0.195 A  
HETATM   38  F   UNL     1     -13.401  13.988  65.641  1.00  0.00    -0.522 F  
HETATM   39  F   UNL     1     -11.867  13.943  64.105  1.00  0.00    -0.404 F  
HETATM   40  F   UNL     1     -13.188  12.234  64.386  1.00  0.00    -0.501 F  
HETATM   41  N   UNL     1      -8.736  10.165  66.224  1.00  0.00    -0.139 NA 
HETATM   42  C   UNL     1      -8.022   9.518  67.180  1.00  0.00    -0.102 A  
HETATM   43  C   UNL     1      -8.296   9.590  68.544  1.00  0.00    -0.118 A  
ENDBRANCH  28  30
ENDBRANCH  27  28
ENDBRANCH  20  22
ENDBRANCH  19  20
ENDBRANCH  18  19
ENDBRANCH  17  18
ENDBRANCH  14  17
ENDBRANCH   7  11
TORSDOF 8
ENDMDL
MODEL        5
REMARK 921   NORMALIZED FREE ENERGY PREDICTED BY IDOCK:   -8.07 KCAL/MOL
REMARK 922        TOTAL FREE ENERGY PREDICTED BY IDOCK:  -15.24 KCAL/MOL
REMARK 923 INTER-LIGAND FREE ENERGY PREDICTED BY IDOCK:  -11.94 KCAL/MOL
REMARK 924 INTRA-LIGAND FREE ENERGY PREDICTED BY IDOCK:   -3.31 KCAL/MOL
REMARK 927      BINDING AFFINITY PREDICTED BY RF-SCORE:    0.00 PKD
ROOT
HETATM    1  F   UNL     1     -10.884  17.222  65.778  1.00  0.00    -0.311 F  
HETATM    2  C   UNL     1     -10.158  18.055  66.575  1.00  0.00    -0.379 C  
HETATM    3  C   UNL     1      -8.951  17.405  67.203  1.00  0.00    -0.248 A  
HETATM    4  F   UNL     1      -9.834  19.127  65.800  1.00  0.00    -0.348 F  
HETATM    5  F   UNL     1     -11.032  18.526  67.510  1.00  0.00    -0.448 F  
HETATM    6  C   UNL     1      -8.639  16.050  66.969  1.00  0.00    -0.238 A  
HETATM    7  C   UNL     1      -7.578  15.429  67.638  1.00  0.00    -0.167 A  
HETATM    8  C   UNL     1      -8.151  18.157  68.077  1.00  0.00    -0.264 A  
HETATM    9  C   UNL     1      -6.790  16.223  68.491  1.00  0.00    -0.137 A  
HETATM   10  C   UNL     1      -7.065  17.569  68.712  1.00  0.00    -0.248 A  
ENDROOT
BRANCH   7  11
HETATM   11  N   UNL     1      -7.282  14.066  67.556  1.00  0.00    -0.179 NA 
HETATM   12  C   UNL     1      -7.655  11.709  66.887  1.00  0.00    -0.138 C  
HETATM   13  C   UNL     1      -8.311  13.101  67.120  1.00  0.00    -0.140 C  
HETATM   14  N   UNL     1      -6.890  11.159  68.041  1.00  0.00    -0.066 NA 
HETATM   15  C   UNL     1      -6.492  13.593  68.717  1.00  0.00    -0.097 C  
HETATM   16  C   UNL     1      -5.893  12.198  68.421  1.00  0.00    -0.053 C  
BRANCH  14  17
HETATM   17  C   UNL     1      -7.746  10.816  69.201  1.00  0.00    -0.138 C  
BRANCH  17  18
HETATM   18  C   UNL     1      -8.221   9.346  69.269  1.00  0.00    -0.111 C  
BRANCH  18  19
HETATM   19  O   UNL     1      -9.672   9.232  69.170  1.00  0.00    -0.158 OA 
BRANCH  19  20
HETATM   20  C   UNL     1     -10.186   8.319  70.033  1.00  0.00    -0.202 C  
HETATM   21  O   UNL     1      -9.643   7.235  70.256  1.00  0.00    -0.166 OA 
BRANCH  20  22
HETATM   22  C   UNL     1     -11.449   8.703  70.750  1.00  0.00    -0.293 A  
HETATM   23  C   UNL     1     -12.178   7.573  71.196  1.00  0.00    -0.330 A  
HETATM   24  C   UNL     1     -13.391   7.695  71.861  1.00  0.00    -0.293 A  
HETATM   25  C   UNL     1     -13.899   8.961  72.111  1.00  0.00    -0.531 A  
HETATM   26  C   UNL     1     -13.192  10.094  71.694  1.00  0.00    -0.518 A  
HETATM   27  C   UNL     1     -11.964  10.004  71.002  1.00  0.00    -0.376 A  
BRANCH  27  28
HETATM   28  N   UNL     1     -11.354  11.185  70.529  1.00  0.00    -0.423 NA 
HETATM   29  H   UNL     1     -10.338  11.113  70.462  1.00  0.00     0.000 HD 
BRANCH  28  30
HETATM   30  C   UNL     1     -11.854  12.458  70.127  1.00  0.00    -0.262 A  
HETATM   31  C   UNL     1     -11.905  12.773  68.747  1.00  0.00    -0.346 A  
HETATM   32  C   UNL     1     -11.779  11.779  67.763  1.00  0.00    -0.337 A  
HETATM   33  C   UNL     1     -11.693  12.106  66.415  1.00  0.00    -0.394 A  
HETATM   34  C   UNL     1     -11.700  13.442  66.018  1.00  0.00    -0.398 A  
HETATM   35  C   UNL     1     -11.952  14.429  66.994  1.00  0.00    -0.424 A  
HETATM   36  C   UNL     1     -11.392  13.784  64.578  1.00  0.00    -0.380 C  
HETATM   37  C   UNL     1     -12.099  14.115  68.347  1.00  0.00    -0.273 A  
HETATM   38  F   UNL     1     -11.113  12.680  63.821  1.00  0.00    -0.374 F  
HETATM   39  F   UNL     1     -12.407  14.420  63.936  1.00  0.00    -0.507 F  
HETATM   40  F   UNL     1     -10.298  14.586  64.455  1.00  0.00    -0.420 F  
HETATM   41  N   UNL     1     -12.381  15.076  69.240  1.00  0.00    -0.156 NA 
HETATM   42  C   UNL     1     -12.472  14.724  70.548  1.00  0.00    -0.352 A  
HETATM   43  C   UNL     1     -12.197  13.449  71.037  1.00  0.00    -0.312 A  
ENDBRANCH  28  30
ENDBRANCH  27  28
ENDBRANCH  20  22
ENDBRANCH  19  20
ENDBRANCH  18  19
ENDBRANCH  17  18
ENDBRANCH  14  17
ENDBRANCH   7  11
TORSDOF 8
ENDMDL
MODEL        6
REMARK 921   NORMALIZED FREE ENERGY PREDICTED BY IDOCK:   -8.07 KCAL/MOL
REMARK 922        TOTAL FREE ENERGY PREDICTED BY IDOCK:  -15.24 KCAL/MOL
REMARK 923 INTER-LIGAND FREE ENERGY PREDICTED BY IDOCK:  -12.38 KCAL/MOL
REMARK 924 INTRA-LIGAND FREE ENERGY PREDICTED BY IDOCK:   -2.86 KCAL/MOL
REMARK 927      BINDING AFFINITY PREDICTED BY RF-SCORE:    0.00 PKD
ROOT
HETATM    1  F   UNL     1     -13.633  14.763  73.322  1.00  0.00    -0.512 F  
HETATM    2  C   UNL     1     -13.290  15.141  72.059  1.00  0.00    -0.398 C  
HETATM    3  C   UNL     1     -12.826  14.004  71.183  1.00  0.00    -0.427 A  
HETATM    4  F   UNL     1     -14.377  15.786  71.552  1.00  0.00    -0.487 F  
HETATM    5  F   UNL     1     -12.330  16.098  72.208  1.00  0.00    -0.460 F  
HETATM    6  C   UNL     1     -12.760  12.682  71.668  1.00  0.00    -0.292 A  
HETATM    7  C   UNL     1     -12.230  11.653  70.881  1.00  0.00    -0.298 A  
HETATM    8  C   UNL     1     -12.407  14.281  69.873  1.00  0.00    -0.377 A  
HETATM    9  C   UNL     1     -11.839  11.969  69.568  1.00  0.00    -0.390 A  
HETATM   10  C   UNL     1     -11.924  13.263  69.062  1.00  0.00    -0.336 A  
ENDROOT
BRANCH   7  11
HETATM   11  N   UNL     1     -12.017  10.345  71.329  1.00  0.00    -0.354 NA 
HETATM   12  C   UNL     1     -10.677   8.329  71.858  1.00  0.00    -0.283 C  
HETATM   13  C   UNL     1     -10.740   9.658  71.050  1.00  0.00    -0.323 C  
HETATM   14  N   UNL     1     -11.820   7.397  71.650  1.00  0.00    -0.278 NA 
HETATM   15  C   UNL     1     -13.203   9.482  71.123  1.00  0.00    -0.264 C  
HETATM   16  C   UNL     1     -13.058   8.175  71.937  1.00  0.00    -0.327 C  
BRANCH  14  17
HETATM   17  C   UNL     1     -11.872   6.829  70.283  1.00  0.00    -0.301 C  
BRANCH  17  18
HETATM   18  C   UNL     1     -10.539   6.849  69.500  1.00  0.00    -0.236 C  
BRANCH  18  19
HETATM   19  O   UNL     1     -10.749   6.830  68.056  1.00  0.00    -0.212 OA 
BRANCH  19  20
HETATM   20  C   UNL     1     -10.555   8.044  67.483  1.00  0.00    -0.232 C  
HETATM   21  O   UNL     1     -11.142   9.060  67.859  1.00  0.00    -0.035 OA 
BRANCH  20  22
HETATM   22  C   UNL     1      -9.546   8.112  66.371  1.00  0.00    -0.286 A  
HETATM   23  C   UNL     1      -9.029   6.836  66.036  1.00  0.00    -0.129 A  
HETATM   24  C   UNL     1      -8.064   6.668  65.052  1.00  0.00    -0.124 A  
HETATM   25  C   UNL     1      -7.600   7.779  64.365  1.00  0.00    -0.110 A  
HETATM   26  C   UNL     1      -8.103   9.049  64.668  1.00  0.00    -0.144 A  
HETATM   27  C   UNL     1      -9.074   9.256  65.673  1.00  0.00    -0.216 A  
BRANCH  27  28
HETATM   28  N   UNL     1      -9.466  10.574  65.988  1.00  0.00    -0.175 NA 
HETATM   29  H   UNL     1      -9.204  10.857  66.933  1.00  0.00     0.000 HD 
BRANCH  28  30
HETATM   30  C   UNL     1     -10.151  11.596  65.267  1.00  0.00    -0.264 A  
HETATM   31  C   UNL     1     -10.064  12.935  65.720  1.00  0.00    -0.294 A  
HETATM   32  C   UNL     1      -9.092  13.332  66.652  1.00  0.00    -0.181 A  
HETATM   33  C   UNL     1      -9.096  14.611  67.197  1.00  0.00    -0.236 A  
HETATM   34  C   UNL     1     -10.094  15.518  66.845  1.00  0.00    -0.263 A  
HETATM   35  C   UNL     1     -10.991  15.159  65.818  1.00  0.00    -0.350 A  
HETATM   36  C   UNL     1     -10.204  16.821  67.603  1.00  0.00    -0.289 C  
HETATM   37  C   UNL     1     -10.967  13.899  65.216  1.00  0.00    -0.331 A  
HETATM   38  F   UNL     1      -9.276  16.933  68.599  1.00  0.00    -0.230 F  
HETATM   39  F   UNL     1     -10.042  17.924  66.825  1.00  0.00    -0.289 F  
HETATM   40  F   UNL     1     -11.410  16.963  68.221  1.00  0.00    -0.347 F  
HETATM   41  N   UNL     1     -11.809  13.610  64.212  1.00  0.00    -0.413 NA 
HETATM   42  C   UNL     1     -11.774  12.357  63.692  1.00  0.00    -0.514 A  
HETATM   43  C   UNL     1     -10.989  11.322  64.194  1.00  0.00    -0.376 A  
ENDBRANCH  28  30
ENDBRANCH  27  28
ENDBRANCH  20  22
ENDBRANCH  19  20
ENDBRANCH  18  19
ENDBRANCH  17  18
ENDBRANCH  14  17
ENDBRANCH   7  11
TORSDOF 8
ENDMDL
MODEL        7
REMARK 921   NORMALIZED FREE ENERGY PREDICTED BY IDOCK:   -8.06 KCAL/MOL
REMARK 922        TOTAL FREE ENERGY PREDICTED BY IDOCK:  -15.24 KCAL/MOL
REMARK 923 INTER-LIGAND FREE ENERGY PREDICTED BY IDOCK:  -12.12 KCAL/MOL
REMARK 924 INTRA-LIGAND FREE ENERGY PREDICTED BY IDOCK:   -3.12 KCAL/MOL
REMARK 927      BINDING AFFINITY PREDICTED BY RF-SCORE:    0.00 PKD
ROOT
HETATM    1  F   UNL     1      -8.760   8.118  63.570  1.00  0.00    -0.029 F  
HETATM    2  C   UNL     1      -8.673   9.476  63.633  1.00  0.00    -0.221 C  
HETATM    3  C   UNL     1      -8.750  10.032  65.033  1.00  0.00    -0.192 A  
HETATM    4  F   UNL     1      -7.514   9.807  62.999  1.00  0.00    -0.111 F  
HETATM    5  F   UNL     1      -9.676   9.947  62.839  1.00  0.00    -0.298 F  
HETATM    6  C   UNL     1      -8.907   9.187  66.152  1.00  0.00    -0.187 A  
HETATM    7  C   UNL     1      -9.082   9.718  67.435  1.00  0.00    -0.134 A  
HETATM    8  C   UNL     1      -8.713  11.422  65.217  1.00  0.00     0.136 A  
HETATM    9  C   UNL     1      -9.020  11.115  67.578  1.00  0.00    -0.139 A  
HETATM   10  C   UNL     1      -8.837  11.963  66.489  1.00  0.00    -0.178 A  
ENDROOT
BRANCH   7  11
HETATM   11  N   UNL     1      -9.365   8.957  68.573  1.00  0.00    -0.140 NA 
HETATM   12  C   UNL     1     -10.714   7.448  70.004  1.00  0.00    -0.246 C  
HETATM   13  C   UNL     1     -10.732   8.452  68.815  1.00  0.00    -0.051 C  
HETATM   14  N   UNL     1     -10.124   7.965  71.271  1.00  0.00    -0.179 NA 
HETATM   15  C   UNL     1      -8.722   9.507  69.789  1.00  0.00    -0.194 C  
HETATM   16  C   UNL     1      -8.763   8.464  70.931  1.00  0.00    -0.154 C  
BRANCH  14  17
HETATM   17  C   UNL     1     -10.928   9.042  71.895  1.00  0.00    -0.353 C  
BRANCH  17  18
HETATM   18  C   UNL     1     -12.280   9.349  71.209  1.00  0.00    -0.345 C  
BRANCH  18  19
HETATM   19  O   UNL     1     -12.799  10.661  71.582  1.00  0.00    -0.414 OA 
BRANCH  19  20
HETATM   20  C   UNL     1     -12.378  11.646  70.750  1.00  0.00    -0.358 C  
HETATM   21  O   UNL     1     -11.905  11.418  69.634  1.00  0.00    -0.301 OA 
BRANCH  20  22
HETATM   22  C   UNL     1     -12.550  13.058  71.233  1.00  0.00    -0.373 A  
HETATM   23  C   UNL     1     -13.555  13.167  72.226  1.00  0.00    -0.677 A  
HETATM   24  C   UNL     1     -13.899  14.386  72.795  1.00  0.00    -0.368 A  
HETATM   25  C   UNL     1     -13.229  15.531  72.392  1.00  0.00    -0.546 A  
HETATM   26  C   UNL     1     -12.224  15.449  71.422  1.00  0.00    -0.433 A  
HETATM   27  C   UNL     1     -11.861  14.227  70.813  1.00  0.00    -0.269 A  
BRANCH  27  28
HETATM   28  N   UNL     1     -10.904  14.235  69.776  1.00  0.00    -0.454 NA 
HETATM   29  H   UNL     1     -10.224  13.477  69.852  1.00  0.00     0.000 HD 
BRANCH  28  30
HETATM   30  C   UNL     1     -10.683  15.075  68.646  1.00  0.00    -0.244 A  
HETATM   31  C   UNL     1     -11.113  14.639  67.370  1.00  0.00    -0.331 A  
HETATM   32  C   UNL     1     -12.012  13.570  67.224  1.00  0.00    -0.408 A  
HETATM   33  C   UNL     1     -12.326  13.057  65.971  1.00  0.00    -0.387 A  
HETATM   34  C   UNL     1     -11.721  13.581  64.829  1.00  0.00    -0.397 A  
HETATM   35  C   UNL     1     -10.918  14.732  64.967  1.00  0.00    -0.426 A  
HETATM   36  C   UNL     1     -11.910  12.875  63.506  1.00  0.00    -0.536 C  
HETATM   37  C   UNL     1     -10.637  15.298  66.212  1.00  0.00    -0.309 A  
HETATM   38  F   UNL     1     -12.671  11.745  63.614  1.00  0.00    -0.576 F  
HETATM   39  F   UNL     1     -12.518  13.637  62.560  1.00  0.00    -0.077 F  
HETATM   40  F   UNL     1     -10.731  12.460  62.965  1.00  0.00    -0.440 F  
HETATM   41  N   UNL     1      -9.904  16.418  66.300  1.00  0.00    -0.295 NA 
HETATM   42  C   UNL     1      -9.624  16.903  67.537  1.00  0.00    -0.245 A  
HETATM   43  C   UNL     1      -9.967  16.262  68.725  1.00  0.00    -0.237 A  
ENDBRANCH  28  30
ENDBRANCH  27  28
ENDBRANCH  20  22
ENDBRANCH  19  20
ENDBRANCH  18  19
ENDBRANCH  17  18
ENDBRANCH  14  17
ENDBRANCH   7  11
TORSDOF 8
ENDMDL
MODEL        8
REMARK 921   NORMALIZED FREE ENERGY PREDICTED BY IDOCK:   -8.00 KCAL/MOL
REMARK 922        TOTAL FREE ENERGY PREDICTED BY IDOCK:  -15.14 KCAL/MOL
REMARK 923 INTER-LIGAND FREE ENERGY PREDICTED BY IDOCK:  -12.03 KCAL/MOL
REMARK 924 INTRA-LIGAND FREE ENERGY PREDICTED BY IDOCK:   -3.11 KCAL/MOL
REMARK 927      BINDING AFFINITY PREDICTED BY RF-SCORE:    0.00 PKD
ROOT
HETATM    1  F   UNL     1     -11.027   7.493  71.877  1.00  0.00    -0.232 F  
HETATM    2  C   UNL     1     -11.454   6.803  70.782  1.00  0.00    -0.342 C  
HETATM    3  C   UNL     1     -10.748   7.184  69.504  1.00  0.00    -0.255 A  
HETATM    4  F   UNL     1     -11.309   5.484  71.090  1.00  0.00    -0.272 F  
HETATM    5  F   UNL     1     -12.797   7.020  70.710  1.00  0.00    -0.389 F  
HETATM    6  C   UNL     1      -9.747   8.176  69.484  1.00  0.00    -0.170 A  
HETATM    7  C   UNL     1      -9.173   8.595  68.279  1.00  0.00    -0.137 A  
HETATM    8  C   UNL     1     -11.134   6.568  68.304  1.00  0.00    -0.332 A  
HETATM    9  C   UNL     1      -9.574   7.939  67.101  1.00  0.00    -0.222 A  
HETATM   10  C   UNL     1     -10.540   6.937  67.105  1.00  0.00    -0.408 A  
ENDROOT
BRANCH   7  11
HETATM   11  N   UNL     1      -8.268   9.654  68.160  1.00  0.00    -0.106 NA 
HETATM   12  C   UNL     1      -6.629  11.327  68.971  1.00  0.00    -0.079 C  
HETATM   13  C   UNL     1      -7.795  10.372  69.361  1.00  0.00    -0.161 C  
HETATM   14  N   UNL     1      -6.929  12.294  67.879  1.00  0.00    -0.093 NA 
HETATM   15  C   UNL     1      -8.606  10.557  67.035  1.00  0.00    -0.127 C  
HETATM   16  C   UNL     1      -7.411  11.489  66.722  1.00  0.00    -0.118 C  
BRANCH  14  17
HETATM   17  C   UNL     1      -7.939  13.310  68.257  1.00  0.00    -0.144 C  
BRANCH  17  18
HETATM   18  C   UNL     1      -7.471  14.782  68.167  1.00  0.00    -0.117 C  
BRANCH  18  19
HETATM   19  O   UNL     1      -8.301  15.672  68.973  1.00  0.00    -0.197 OA 
BRANCH  19  20
HETATM   20  C   UNL     1      -7.881  16.961  68.930  1.00  0.00    -0.233 C  
HETATM   21  O   UNL     1      -6.806  17.328  69.410  1.00  0.00    -0.237 OA 
BRANCH  20  22
HETATM   22  C   UNL     1      -8.776  17.940  68.224  1.00  0.00    -0.277 A  
HETATM   23  C   UNL     1      -8.108  19.149  67.909  1.00  0.00    -0.323 A  
HETATM   24  C   UNL     1      -8.753  20.204  67.278  1.00  0.00    -0.429 A  
HETATM   25  C   UNL     1     -10.089  20.068  66.931  1.00  0.00    -0.601 A  
HETATM   26  C   UNL     1     -10.768  18.880  67.219  1.00  0.00    -0.523 A  
HETATM   27  C   UNL     1     -10.146  17.793  67.874  1.00  0.00    -0.342 A  
BRANCH  27  28
HETATM   28  N   UNL     1     -10.918  16.663  68.215  1.00  0.00    -0.359 NA 
HETATM   29  H   UNL     1     -11.422  16.773  69.096  1.00  0.00     0.000 HD 
BRANCH  28  30
HETATM   30  C   UNL     1     -11.145  15.401  67.592  1.00  0.00    -0.316 A  
HETATM   31  C   UNL     1     -11.594  14.314  68.380  1.00  0.00    -0.354 A  
HETATM   32  C   UNL     1     -12.116  14.510  69.669  1.00  0.00    -0.369 A  
HETATM   33  C   UNL     1     -12.428  13.434  70.492  1.00  0.00    -0.350 A  
HETATM   34  C   UNL     1     -12.195  12.130  70.056  1.00  0.00    -0.270 A  
HETATM   35  C   UNL     1     -11.791  11.935  68.720  1.00  0.00    -0.371 A  
HETATM   36  C   UNL     1     -12.339  10.989  71.038  1.00  0.00    -0.385 C  
HETATM   37  C   UNL     1     -11.528  13.002  67.858  1.00  0.00    -0.311 A  
HETATM   38  F   UNL     1     -12.675  11.412  72.293  1.00  0.00    -0.364 F  
HETATM   39  F   UNL     1     -13.290  10.083  70.690  1.00  0.00    -0.406 F  
HETATM   40  F   UNL     1     -11.181  10.289  71.194  1.00  0.00    -0.398 F  
HETATM   41  N   UNL     1     -11.186  12.776  66.580  1.00  0.00    -0.288 NA 
HETATM   42  C   UNL     1     -10.900  13.847  65.798  1.00  0.00    -0.289 A  
HETATM   43  C   UNL     1     -10.843  15.160  66.258  1.00  0.00    -0.333 A  
ENDBRANCH  28  30
ENDBRANCH  27  28
ENDBRANCH  20  22
ENDBRANCH  19  20
ENDBRANCH  18  19
ENDBRANCH  17  18
ENDBRANCH  14  17
ENDBRANCH   7  11
TORSDOF 8
ENDMDL
MODEL        9
REMARK 921   NORMALIZED FREE ENERGY PREDICTED BY IDOCK:   -7.99 KCAL/MOL
REMARK 922        TOTAL FREE ENERGY PREDICTED BY IDOCK:  -15.13 KCAL/MOL
REMARK 923 INTER-LIGAND FREE ENERGY PREDICTED BY IDOCK:  -12.36 KCAL/MOL
REMARK 924 INTRA-LIGAND FREE ENERGY PREDICTED BY IDOCK:   -2.77 KCAL/MOL
REMARK 927      BINDING AFFINITY PREDICTED BY RF-SCORE:    0.00 PKD
ROOT
HETATM    1  F   UNL     1      -8.805   2.510  69.857  1.00  0.00    -0.097 F  
HETATM    2  C   UNL     1      -9.098   2.793  68.557  1.00  0.00    -0.163 C  
HETATM    3  C   UNL     1      -9.728   4.148  68.350  1.00  0.00    -0.150 A  
HETATM    4  F   UNL     1      -7.931   2.645  67.869  1.00  0.00    -0.059 F  
HETATM    5  F   UNL     1      -9.907   1.781  68.132  1.00  0.00    -0.251 F  
HETATM    6  C   UNL     1      -9.983   5.013  69.434  1.00  0.00    -0.290 A  
HETATM    7  C   UNL     1     -10.662   6.222  69.245  1.00  0.00    -0.305 A  
HETATM    8  C   UNL     1     -10.110   4.530  67.056  1.00  0.00    -0.180 A  
HETATM    9  C   UNL     1     -11.011   6.577  67.930  1.00  0.00    -0.382 A  
HETATM   10  C   UNL     1     -10.741   5.748  66.844  1.00  0.00    -0.381 A  
ENDROOT
BRANCH   7  11
HETATM   11  N   UNL     1     -11.061   7.074  70.279  1.00  0.00    -0.273 NA 
HETATM   12  C   UNL     1     -12.601   7.970  72.001  1.00  0.00    -0.312 C  
HETATM   13  C   UNL     1     -12.477   7.140  70.691  1.00  0.00    -0.101 C  
HETATM   14  N   UNL     1     -12.016   9.339  71.951  1.00  0.00    -0.371 NA 
HETATM   15  C   UNL     1     -10.417   8.406  70.187  1.00  0.00    -0.228 C  
HETATM   16  C   UNL     1     -10.601   9.179  71.514  1.00  0.00    -0.358 C  
BRANCH  14  17
HETATM   17  C   UNL     1     -12.739  10.252  71.034  1.00  0.00    -0.396 C  
BRANCH  17  18
HETATM   18  C   UNL     1     -12.694  11.751  71.411  1.00  0.00    -0.308 C  
BRANCH  18  19
HETATM   19  O   UNL     1     -12.095  12.564  70.357  1.00  0.00    -0.362 OA 
BRANCH  19  20
HETATM   20  C   UNL     1     -12.416  13.878  70.463  1.00  0.00    -0.352 C  
HETATM   21  O   UNL     1     -13.187  14.308  71.323  1.00  0.00    -0.336 OA 
BRANCH  20  22
HETATM   22  C   UNL     1     -11.750  14.816  69.497  1.00  0.00    -0.358 A  
HETATM   23  C   UNL     1     -11.137  15.914  70.150  1.00  0.00    -0.369 A  
HETATM   24  C   UNL     1     -10.485  16.919  69.447  1.00  0.00    -0.283 A  
HETATM   25  C   UNL     1     -10.417  16.840  68.064  1.00  0.00    -0.333 A  
HETATM   26  C   UNL     1     -11.003  15.760  67.396  1.00  0.00    -0.279 A  
HETATM   27  C   UNL     1     -11.687  14.729  68.080  1.00  0.00    -0.333 A  
BRANCH  27  28
HETATM   28  N   UNL     1     -12.333  13.721  67.334  1.00  0.00    -0.433 NA 
HETATM   29  H   UNL     1     -13.148  13.331  67.808  1.00  0.00     0.000 HD 
BRANCH  28  30
HETATM   30  C   UNL     1     -12.090  13.131  66.059  1.00  0.00    -0.436 A  
HETATM   31  C   UNL     1     -11.327  11.941  65.984  1.00  0.00    -0.375 A  
HETATM   32  C   UNL     1     -11.072  11.162  67.124  1.00  0.00    -0.352 A  
HETATM   33  C   UNL     1     -10.211  10.071  67.074  1.00  0.00    -0.295 A  
HETATM   34  C   UNL     1      -9.558   9.750  65.885  1.00  0.00    -0.313 A  
HETATM   35  C   UNL     1      -9.913  10.455  64.716  1.00  0.00    -0.409 A  
HETATM   36  C   UNL     1      -8.471   8.700  65.902  1.00  0.00    -0.146 C  
HETATM   37  C   UNL     1     -10.819  11.517  64.735  1.00  0.00    -0.297 A  
HETATM   38  F   UNL     1      -8.247   8.193  67.151  1.00  0.00    -0.113 F  
HETATM   39  F   UNL     1      -8.734   7.625  65.113  1.00  0.00    -0.134 F  
HETATM   40  F   UNL     1      -7.268   9.190  65.494  1.00  0.00    -0.079 F  
HETATM   41  N   UNL     1     -11.164  12.137  63.595  1.00  0.00    -0.433 NA 
HETATM   42  C   UNL     1     -12.016  13.191  63.674  1.00  0.00    -0.514 A  
HETATM   43  C   UNL     1     -12.481  13.733  64.870  1.00  0.00    -0.420 A  
ENDBRANCH  28  30
ENDBRANCH  27  28
ENDBRANCH  20  22
ENDBRANCH  19  20
ENDBRANCH  18  19
ENDBRANCH  17  18
ENDBRANCH  14  17
ENDBRANCH   7  11
TORSDOF 8
ENDMDL
MODEL       10
REMARK 921   NORMALIZED FREE ENERGY PREDICTED BY IDOCK:   -7.98 KCAL/MOL
REMARK 922        TOTAL FREE ENERGY PREDICTED BY IDOCK:  -15.11 KCAL/MOL
REMARK 923 INTER-LIGAND FREE ENERGY PREDICTED BY IDOCK:  -13.23 KCAL/MOL
REMARK 924 INTRA-LIGAND FREE ENERGY PREDICTED BY IDOCK:   -1.88 KCAL/MOL
REMARK 927      BINDING AFFINITY PREDICTED BY RF-SCORE:    0.00 PKD
ROOT
HETATM    1  F   UNL     1      -6.669  18.818  65.309  1.00  0.00    -0.295 F  
HETATM    2  C   UNL     1      -7.060  19.388  66.483  1.00  0.00    -0.219 C  
HETATM    3  C   UNL     1      -8.229  18.698  67.141  1.00  0.00    -0.258 A  
HETATM    4  F   UNL     1      -5.951  19.414  67.274  1.00  0.00    -0.177 F  
HETATM    5  F   UNL     1      -7.333  20.690  66.188  1.00  0.00    -0.258 F  
HETATM    6  C   UNL     1      -8.841  17.570  66.557  1.00  0.00    -0.291 A  
HETATM    7  C   UNL     1      -9.989  17.002  67.121  1.00  0.00    -0.281 A  
HETATM    8  C   UNL     1      -8.744  19.223  68.336  1.00  0.00    -0.395 A  
HETATM    9  C   UNL     1     -10.462  17.546  68.328  1.00  0.00    -0.383 A  
HETATM   10  C   UNL     1      -9.853  18.641  68.935  1.00  0.00    -0.394 A  
ENDROOT
BRANCH   7  11
HETATM   11  N   UNL     1     -10.724  15.964  66.540  1.00  0.00    -0.293 NA 
HETATM   12  C   UNL     1     -11.804  13.736  66.448  1.00  0.00    -0.404 C  
HETATM   13  C   UNL     1     -10.729  14.619  67.147  1.00  0.00    -0.292 C  
HETATM   14  N   UNL     1     -11.683  13.631  64.967  1.00  0.00    -0.326 NA 
HETATM   15  C   UNL     1     -10.587  15.939  65.065  1.00  0.00    -0.346 C  
HETATM   16  C   UNL     1     -11.670  15.026  64.444  1.00  0.00    -0.312 C  
BRANCH  14  17
HETATM   17  C   UNL     1     -10.470  12.904  64.527  1.00  0.00    -0.377 C  
BRANCH  17  18
HETATM   18  C   UNL     1     -10.413  11.406  64.911  1.00  0.00    -0.305 C  
BRANCH  18  19
HETATM   19  O   UNL     1      -9.103  11.021  65.426  1.00  0.00    -0.198 OA 
BRANCH  19  20
HETATM   20  C   UNL     1      -9.110  10.810  66.766  1.00  0.00    -0.154 C  
HETATM   21  O   UNL     1      -8.803  11.683  67.580  1.00  0.00    -0.151 OA 
BRANCH  20  22
HETATM   22  C   UNL     1      -9.552   9.452  67.233  1.00  0.00    -0.194 A  
HETATM   23  C   UNL     1      -9.281   8.441  66.279  1.00  0.00    -0.263 A  
HETATM   24  C   UNL     1      -9.630   7.114  66.492  1.00  0.00    -0.203 A  
HETATM   25  C   UNL     1     -10.249   6.762  67.682  1.00  0.00    -0.225 A  
HETATM   26  C   UNL     1     -10.516   7.739  68.647  1.00  0.00    -0.199 A  
HETATM   27  C   UNL     1     -10.188   9.100  68.454  1.00  0.00    -0.200 A  
BRANCH  27  28
HETATM   28  N   UNL     1     -10.571  10.043  69.431  1.00  0.00    -0.218 NA 
HETATM   29  H   UNL     1      -9.926  10.830  69.504  1.00  0.00     0.000 HD 
BRANCH  28  30
HETATM   30  C   UNL     1     -11.668  10.132  70.337  1.00  0.00    -0.308 A  
HETATM   31  C   UNL     1     -12.150  11.409  70.712  1.00  0.00    -0.433 A  
HETATM   32  C   UNL     1     -11.800  12.565  69.995  1.00  0.00    -0.363 A  
HETATM   33  C   UNL     1     -12.162  13.829  70.445  1.00  0.00    -0.433 A  
HETATM   34  C   UNL     1     -12.860  13.973  71.643  1.00  0.00    -0.433 A  
HETATM   35  C   UNL     1     -13.318  12.808  72.293  1.00  0.00    -0.563 A  
HETATM   36  C   UNL     1     -13.057  15.356  72.219  1.00  0.00    -0.405 C  
HETATM   37  C   UNL     1     -13.014  11.527  71.826  1.00  0.00    -0.394 A  
HETATM   38  F   UNL     1     -12.476  16.332  71.460  1.00  0.00    -0.475 F  
HETATM   39  F   UNL     1     -14.361  15.718  72.345  1.00  0.00    -0.598 F  
HETATM   40  F   UNL     1     -12.502  15.488  73.456  1.00  0.00    -0.441 F  
HETATM   41  N   UNL     1     -13.504  10.443  72.446  1.00  0.00    -0.134 NA 
HETATM   42  C   UNL     1     -13.143   9.222  71.978  1.00  0.00    -0.436 A  
HETATM   43  C   UNL     1     -12.221   9.017  70.954  1.00  0.00    -0.205 A  
ENDBRANCH  28  30
ENDBRANCH  27  28
ENDBRANCH  20  22
ENDBRANCH  19  20
ENDBRANCH  18  19
ENDBRANCH  17  18
ENDBRANCH  14  17
ENDBRANCH   7  11
TORSDOF 8
ENDMDL
MODEL       11
REMARK 921   NORMALIZED FREE ENERGY PREDICTED BY IDOCK:   -7.96 KCAL/MOL
REMARK 922        TOTAL FREE ENERGY PREDICTED BY IDOCK:  -15.08 KCAL/MOL
REMARK 923 INTER-LIGAND FREE ENERGY PREDICTED BY IDOCK:  -12.22 KCAL/MOL
REMARK 924 INTRA-LIGAND FREE ENERGY PREDICTED BY IDOCK:   -2.86 KCAL/MOL
REMARK 927      BINDING AFFINITY PREDICTED BY RF-SCORE:    0.00 PKD
ROOT
HETATM    1  F   UNL     1     -13.178  10.791  70.220  1.00  0.00    -0.298 F  
HETATM    2  C   UNL     1     -13.146  10.078  71.381  1.00  0.00    -0.417 C  
HETATM    3  C   UNL     1     -11.944   9.176  71.514  1.00  0.00    -0.422 A  
HETATM    4  F   UNL     1     -13.230  10.994  72.386  1.00  0.00    -0.551 F  
HETATM    5  F   UNL     1     -14.317   9.380  71.418  1.00  0.00    -0.280 F  
HETATM    6  C   UNL     1     -10.966   9.099  70.501  1.00  0.00    -0.307 A  
HETATM    7  C   UNL     1      -9.911   8.184  70.587  1.00  0.00    -0.189 A  
HETATM    8  C   UNL     1     -11.826   8.362  72.651  1.00  0.00    -0.360 A  
HETATM    9  C   UNL     1      -9.819   7.401  71.751  1.00  0.00    -0.187 A  
HETATM   10  C   UNL     1     -10.759   7.484  72.775  1.00  0.00    -0.382 A  
ENDROOT
BRANCH   7  11
HETATM   11  N   UNL     1      -8.975   7.960  69.573  1.00  0.00    -0.142 NA 
HETATM   12  C   UNL     1      -7.329   8.603  67.836  1.00  0.00    -0.092 C  
HETATM   13  C   UNL     1      -8.535   9.069  68.703  1.00  0.00    -0.128 C  
HETATM   14  N   UNL     1      -7.557   7.373  67.027  1.00  0.00    -0.104 NA 
HETATM   15  C   UNL     1      -9.241   6.705  68.832  1.00  0.00    -0.130 C  
HETATM   16  C   UNL     1      -8.010   6.320  67.978  1.00  0.00    -0.108 C  
BRANCH  14  17
HETATM   17  C   UNL     1      -8.555   7.558  65.948  1.00  0.00    -0.151 C  
BRANCH  17  18
HETATM   18  C   UNL     1      -8.254   8.699  64.947  1.00  0.00    -0.157 C  
BRANCH  18  19
HETATM   19  O   UNL     1      -9.420   9.543  64.709  1.00  0.00    -0.242 OA 
BRANCH  19  20
HETATM   20  C   UNL     1      -9.250  10.811  65.161  1.00  0.00    -0.209 C  
HETATM   21  O   UNL     1      -8.196  11.202  65.666  1.00  0.00    -0.088 OA 
BRANCH  20  22
HETATM   22  C   UNL     1     -10.407  11.752  64.982  1.00  0.00    -0.325 A  
HETATM   23  C   UNL     1     -11.132  11.493  63.793  1.00  0.00    -0.471 A  
HETATM   24  C   UNL     1     -12.226  12.260  63.415  1.00  0.00    -0.630 A  
HETATM   25  C   UNL     1     -12.634  13.303  64.234  1.00  0.00    -0.253 A  
HETATM   26  C   UNL     1     -11.944  13.571  65.421  1.00  0.00    -0.406 A  
HETATM   27  C   UNL     1     -10.818  12.820  65.826  1.00  0.00    -0.272 A  
BRANCH  27  28
HETATM   28  N   UNL     1     -10.116  13.207  66.987  1.00  0.00    -0.238 NA 
HETATM   29  H   UNL     1      -9.564  12.450  67.393  1.00  0.00     0.000 HD 
BRANCH  28  30
HETATM   30  C   UNL     1     -10.013  14.429  67.714  1.00  0.00    -0.226 A  
HETATM   31  C   UNL     1     -10.690  14.553  68.951  1.00  0.00    -0.259 A  
HETATM   32  C   UNL     1     -11.192  13.430  69.628  1.00  0.00    -0.115 A  
HETATM   33  C   UNL     1     -11.973  13.566  70.770  1.00  0.00    -0.255 A  
HETATM   34  C   UNL     1     -12.299  14.834  71.248  1.00  0.00    -0.390 A  
HETATM   35  C   UNL     1     -11.691  15.953  70.641  1.00  0.00    -0.411 A  
HETATM   36  C   UNL     1     -13.318  14.964  72.357  1.00  0.00    -0.404 C  
HETATM   37  C   UNL     1     -10.856  15.833  69.528  1.00  0.00    -0.287 A  
HETATM   38  F   UNL     1     -13.827  13.759  72.750  1.00  0.00    -0.569 F  
HETATM   39  F   UNL     1     -12.828  15.541  73.486  1.00  0.00    -0.463 F  
HETATM   40  F   UNL     1     -14.399  15.705  71.986  1.00  0.00    -0.560 F  
HETATM   41  N   UNL     1     -10.262  16.916  69.004  1.00  0.00    -0.295 NA 
HETATM   42  C   UNL     1      -9.495  16.751  67.896  1.00  0.00    -0.230 A  
HETATM   43  C   UNL     1      -9.361  15.546  67.210  1.00  0.00    -0.220 A  
ENDBRANCH  28  30
ENDBRANCH  27  28
ENDBRANCH  20  22
ENDBRANCH  19  20
ENDBRANCH  18  19
ENDBRANCH  17  18
ENDBRANCH  14  17
ENDBRANCH   7  11
TORSDOF 8
ENDMDL
MODEL       12
REMARK 921   NORMALIZED FREE ENERGY PREDICTED BY IDOCK:   -7.94 KCAL/MOL
REMARK 922        TOTAL FREE ENERGY PREDICTED BY IDOCK:  -15.05 KCAL/MOL
REMARK 923 INTER-LIGAND FREE ENERGY PREDICTED BY IDOCK:  -11.57 KCAL/MOL
REMARK 924 INTRA-LIGAND FREE ENERGY PREDICTED BY IDOCK:   -3.48 KCAL/MOL
REMARK 927      BINDING AFFINITY PREDICTED BY RF-SCORE:    0.00 PKD
ROOT
HETATM    1  F   UNL     1     -10.509   3.070  72.193  1.00  0.00    -0.220 F  
HETATM    2  C   UNL     1     -10.628   4.092  73.085  1.00  0.00    -0.183 C  
HETATM    3  C   UNL     1     -10.162   5.426  72.556  1.00  0.00    -0.238 A  
HETATM    4  F   UNL     1     -11.935   4.106  73.467  1.00  0.00    -0.297 F  
HETATM    5  F   UNL     1      -9.925   3.704  74.187  1.00  0.00    -0.127 F  
HETATM    6  C   UNL     1      -9.647   5.560  71.250  1.00  0.00    -0.198 A  
HETATM    7  C   UNL     1      -9.121   6.778  70.805  1.00  0.00    -0.151 A  
HETATM    8  C   UNL     1     -10.199   6.544  73.402  1.00  0.00    -0.256 A  
HETATM    9  C   UNL     1      -9.195   7.879  71.677  1.00  0.00    -0.180 A  
HETATM   10  C   UNL     1      -9.727   7.772  72.960  1.00  0.00    -0.329 A  
ENDROOT
BRANCH   7  11
HETATM   11  N   UNL     1      -8.483   6.961  69.575  1.00  0.00    -0.132 NA 
HETATM   12  C   UNL     1      -7.331   8.246  67.797  1.00  0.00    -0.093 C  
HETATM   13  C   UNL     1      -8.263   8.320  69.041  1.00  0.00    -0.119 C  
HETATM   14  N   UNL     1      -7.784   7.333  66.710  1.00  0.00    -0.106 NA 
HETATM   15  C   UNL     1      -8.956   6.001  68.551  1.00  0.00    -0.114 C  
HETATM   16  C   UNL     1      -7.996   6.000  67.338  1.00  0.00    -0.102 C  
BRANCH  14  17
HETATM   17  C   UNL     1      -9.023   7.791  66.039  1.00  0.00    -0.145 C  
BRANCH  17  18
HETATM   18  C   UNL     1      -8.906   9.116  65.250  1.00  0.00    -0.199 C  
BRANCH  18  19
HETATM   19  O   UNL     1     -10.111   9.930  65.362  1.00  0.00    -0.313 OA 
BRANCH  19  20
HETATM   20  C   UNL     1      -9.885  11.117  65.979  1.00  0.00    -0.228 C  
HETATM   21  O   UNL     1      -8.940  11.298  66.750  1.00  0.00    -0.161 OA 
BRANCH  20  22
HETATM   22  C   UNL     1     -10.828  12.240  65.651  1.00  0.00    -0.321 A  
HETATM   23  C   UNL     1     -11.294  12.176  64.314  1.00  0.00    -0.426 A  
HETATM   24  C   UNL     1     -12.156  13.129  63.788  1.00  0.00    -0.563 A  
HETATM   25  C   UNL     1     -12.588  14.168  64.599  1.00  0.00    -0.285 A  
HETATM   26  C   UNL     1     -12.154  14.247  65.926  1.00  0.00    -0.416 A  
HETATM   27  C   UNL     1     -11.265  13.302  66.487  1.00  0.00    -0.304 A  
BRANCH  27  28
HETATM   28  N   UNL     1     -10.797  13.497  67.804  1.00  0.00    -0.249 NA 
HETATM   29  H   UNL     1      -9.780  13.562  67.863  1.00  0.00     0.000 HD 
BRANCH  28  30
HETATM   30  C   UNL     1     -11.441  13.623  69.069  1.00  0.00    -0.301 A  
HETATM   31  C   UNL     1     -11.725  12.455  69.817  1.00  0.00    -0.361 A  
HETATM   32  C   UNL     1     -11.124  11.224  69.509  1.00  0.00    -0.299 A  
HETATM   33  C   UNL     1     -11.506  10.054  70.155  1.00  0.00    -0.344 A  
HETATM   34  C   UNL     1     -12.524  10.080  71.107  1.00  0.00    -0.480 A  
HETATM   35  C   UNL     1     -13.036  11.334  71.502  1.00  0.00    -0.520 A  
HETATM   36  C   UNL     1     -13.068   8.775  71.640  1.00  0.00    -0.352 C  
HETATM   37  C   UNL     1     -12.623  12.527  70.906  1.00  0.00    -0.241 A  
HETATM   38  F   UNL     1     -12.473   7.683  71.072  1.00  0.00    -0.325 F  
HETATM   39  F   UNL     1     -12.911   8.622  72.981  1.00  0.00    -0.386 F  
HETATM   40  F   UNL     1     -14.399   8.626  71.391  1.00  0.00    -0.445 F  
HETATM   41  N   UNL     1     -13.102  13.704  71.339  1.00  0.00    -0.337 NA 
HETATM   42  C   UNL     1     -12.701  14.831  70.696  1.00  0.00    -0.358 A  
HETATM   43  C   UNL     1     -11.901  14.839  69.557  1.00  0.00    -0.366 A  
ENDBRANCH  28  30
ENDBRANCH  27  28
ENDBRANCH  20  22
ENDBRANCH  19  20
ENDBRANCH  18  19
ENDBRANCH  17  18
ENDBRANCH  14  17
ENDBRANCH   7  11
TORSDOF 8
ENDMDL
MODEL       13
REMARK 921   NORMALIZED FREE ENERGY PREDICTED BY IDOCK:   -7.92 KCAL/MOL
REMARK 922        TOTAL FREE ENERGY PREDICTED BY IDOCK:  -15.02 KCAL/MOL
REMARK 923 INTER-LIGAND FREE ENERGY PREDICTED BY IDOCK:  -12.06 KCAL/MOL
REMARK 924 INTRA-LIGAND FREE ENERGY PREDICTED BY IDOCK:   -2.97 KCAL/MOL
REMARK 927      BINDING AFFINITY PREDICTED BY RF-SCORE:    0.00 PKD
ROOT
HETATM    1  F   UNL     1     -12.726  16.206  72.248  1.00  0.00    -0.479 F  
HETATM    2  C   UNL     1     -13.041  14.929  72.600  1.00  0.00    -0.427 C  
HETATM    3  C   UNL     1     -12.632  13.893  71.583  1.00  0.00    -0.387 A  
HETATM    4  F   UNL     1     -12.468  14.724  73.819  1.00  0.00    -0.557 F  
HETATM    5  F   UNL     1     -14.387  14.928  72.820  1.00  0.00    -0.452 F  
HETATM    6  C   UNL     1     -11.989  14.256  70.381  1.00  0.00    -0.402 A  
HETATM    7  C   UNL     1     -11.708  13.300  69.398  1.00  0.00    -0.325 A  
HETATM    8  C   UNL     1     -12.943  12.546  71.820  1.00  0.00    -0.419 A  
HETATM    9  C   UNL     1     -12.019  11.959  69.684  1.00  0.00    -0.365 A  
HETATM   10  C   UNL     1     -12.627  11.578  70.877  1.00  0.00    -0.438 A  
ENDROOT
BRANCH   7  11
HETATM   11  N   UNL     1     -11.187  13.595  68.135  1.00  0.00    -0.262 NA 
HETATM   12  C   UNL     1     -10.995  14.852  66.008  1.00  0.00    -0.334 C  
HETATM   13  C   UNL     1     -11.902  14.515  67.227  1.00  0.00    -0.392 C  
HETATM   14  N   UNL     1     -10.479  13.679  65.249  1.00  0.00    -0.333 NA 
HETATM   15  C   UNL     1     -10.661  12.391  67.451  1.00  0.00    -0.229 C  
HETATM   16  C   UNL     1      -9.792  12.804  66.239  1.00  0.00    -0.267 C  
BRANCH  14  17
HETATM   17  C   UNL     1     -11.540  12.925  64.542  1.00  0.00    -0.350 C  
BRANCH  17  18
HETATM   18  C   UNL     1     -11.049  11.939  63.456  1.00  0.00    -0.428 C  
BRANCH  18  19
HETATM   19  O   UNL     1     -10.447  10.742  64.034  1.00  0.00    -0.358 OA 
BRANCH  19  20
HETATM   20  C   UNL     1      -9.258  10.426  63.462  1.00  0.00    -0.282 C  
HETATM   21  O   UNL     1      -8.672  11.180  62.683  1.00  0.00    -0.264 OA 
BRANCH  20  22
HETATM   22  C   UNL     1      -8.650   9.108  63.852  1.00  0.00    -0.188 A  
HETATM   23  C   UNL     1      -8.157   8.392  62.733  1.00  0.00    -0.170 A  
HETATM   24  C   UNL     1      -7.577   7.137  62.859  1.00  0.00    -0.107 A  
HETATM   25  C   UNL     1      -7.461   6.571  64.120  1.00  0.00    -0.092 A  
HETATM   26  C   UNL     1      -7.927   7.263  65.243  1.00  0.00    -0.127 A  
HETATM   27  C   UNL     1      -8.537   8.534  65.147  1.00  0.00    -0.152 A  
BRANCH  27  28
HETATM   28  N   UNL     1      -9.067   9.131  66.310  1.00  0.00    -0.166 NA 
HETATM   29  H   UNL     1     -10.041   9.418  66.205  1.00  0.00     0.000 HD 
BRANCH  28  30
HETATM   30  C   UNL     1      -8.533   9.417  67.600  1.00  0.00    -0.119 A  
HETATM   31  C   UNL     1      -9.195   8.915  68.747  1.00  0.00    -0.140 A  
HETATM   32  C   UNL     1     -10.162   7.901  68.649  1.00  0.00    -0.223 A  
HETATM   33  C   UNL     1     -10.906   7.506  69.755  1.00  0.00    -0.234 A  
HETATM   34  C   UNL     1     -10.723   8.140  70.984  1.00  0.00    -0.248 A  
HETATM   35  C   UNL     1      -9.668   9.067  71.107  1.00  0.00    -0.369 A  
HETATM   36  C   UNL     1     -11.684   7.846  72.113  1.00  0.00    -0.333 C  
HETATM   37  C   UNL     1      -8.871   9.435  70.021  1.00  0.00    -0.211 A  
HETATM   38  F   UNL     1     -12.668   6.968  71.755  1.00  0.00    -0.350 F  
HETATM   39  F   UNL     1     -11.092   7.304  73.210  1.00  0.00    -0.340 F  
HETATM   40  F   UNL     1     -12.338   8.961  72.542  1.00  0.00    -0.429 F  
HETATM   41  N   UNL     1      -7.848  10.288  70.187  1.00  0.00    -0.128 NA 
HETATM   42  C   UNL     1      -7.132  10.646  69.091  1.00  0.00    -0.095 A  
HETATM   43  C   UNL     1      -7.446  10.260  67.790  1.00  0.00    -0.088 A  
ENDBRANCH  28  30
ENDBRANCH  27  28
ENDBRANCH  20  22
ENDBRANCH  19  20
ENDBRANCH  18  19
ENDBRANCH  17  18
ENDBRANCH  14  17
ENDBRANCH   7  11
TORSDOF 8
ENDMDL
MODEL       14
REMARK 921   NORMALIZED FREE ENERGY PREDICTED BY IDOCK:   -7.89 KCAL/MOL
REMARK 922        TOTAL FREE ENERGY PREDICTED BY IDOCK:  -14.98 KCAL/MOL
REMARK 923 INTER-LIGAND FREE ENERGY PREDICTED BY IDOCK:  -11.83 KCAL/MOL
REMARK 924 INTRA-LIGAND FREE ENERGY PREDICTED BY IDOCK:   -3.14 KCAL/MOL
REMARK 927      BINDING AFFINITY PREDICTED BY RF-SCORE:    0.00 PKD
ROOT
HETATM    1  F   UNL     1      -8.951   8.996  70.484  1.00  0.00    -0.151 F  
HETATM    2  C   UNL     1      -9.917   8.379  71.220  1.00  0.00    -0.204 C  
HETATM    3  C   UNL     1     -11.189   9.178  71.356  1.00  0.00    -0.419 A  
HETATM    4  F   UNL     1     -10.119   7.166  70.634  1.00  0.00    -0.189 F  
HETATM    5  F   UNL     1      -9.346   8.114  72.430  1.00  0.00    -0.207 F  
HETATM    6  C   UNL     1     -11.325  10.451  70.765  1.00  0.00    -0.370 A  
HETATM    7  C   UNL     1     -12.468  11.228  70.984  1.00  0.00    -0.400 A  
HETATM    8  C   UNL     1     -12.240   8.660  72.129  1.00  0.00    -0.453 A  
HETATM    9  C   UNL     1     -13.505  10.665  71.748  1.00  0.00    -0.325 A  
HETATM   10  C   UNL     1     -13.400   9.397  72.316  1.00  0.00    -0.539 A  
ENDROOT
BRANCH   7  11
HETATM   11  N   UNL     1     -12.626  12.544  70.538  1.00  0.00    -0.163 NA 
HETATM   12  C   UNL     1     -12.362  14.445  68.971  1.00  0.00    -0.095 C  
HETATM   13  C   UNL     1     -11.821  13.054  69.410  1.00  0.00    -0.322 C  
HETATM   14  N   UNL     1     -12.446  15.470  70.048  1.00  0.00    -0.328 NA 
HETATM   15  C   UNL     1     -12.736  13.506  71.659  1.00  0.00    -0.287 C  
HETATM   16  C   UNL     1     -13.257  14.868  71.143  1.00  0.00    -0.414 C  
BRANCH  14  17
HETATM   17  C   UNL     1     -11.121  15.893  70.559  1.00  0.00    -0.364 C  
BRANCH  17  18
HETATM   18  C   UNL     1     -10.111  16.366  69.487  1.00  0.00    -0.199 C  
BRANCH  18  19
HETATM   19  O   UNL     1      -8.928  15.514  69.434  1.00  0.00    -0.257 OA 
BRANCH  19  20
HETATM   20  C   UNL     1      -7.789  16.214  69.205  1.00  0.00    -0.203 C  
HETATM   21  O   UNL     1      -6.746  16.013  69.832  1.00  0.00    -0.160 OA 
BRANCH  20  22
HETATM   22  C   UNL     1      -7.835  17.240  68.109  1.00  0.00    -0.220 A  
HETATM   23  C   UNL     1      -7.566  18.547  68.585  1.00  0.00    -0.330 A  
HETATM   24  C   UNL     1      -7.582  19.654  67.746  1.00  0.00    -0.313 A  
HETATM   25  C   UNL     1      -7.855  19.475  66.398  1.00  0.00    -0.317 A  
HETATM   26  C   UNL     1      -8.111  18.193  65.900  1.00  0.00    -0.002 A  
HETATM   27  C   UNL     1      -8.117  17.049  66.729  1.00  0.00    -0.242 A  
BRANCH  27  28
HETATM   28  N   UNL     1      -8.475  15.802  66.175  1.00  0.00    -0.355 NA 
HETATM   29  H   UNL     1      -7.670  15.239  65.900  1.00  0.00     0.000 HD 
BRANCH  28  30
HETATM   30  C   UNL     1      -9.722  15.161  65.917  1.00  0.00    -0.350 A  
HETATM   31  C   UNL     1      -9.885  13.801  66.276  1.00  0.00    -0.314 A  
HETATM   32  C   UNL     1      -8.989  13.161  67.146  1.00  0.00    -0.228 A  
HETATM   33  C   UNL     1      -9.072  11.795  67.389  1.00  0.00    -0.175 A  
HETATM   34  C   UNL     1     -10.037  11.026  66.741  1.00  0.00    -0.260 A  
HETATM   35  C   UNL     1     -11.011  11.691  65.967  1.00  0.00    -0.338 A  
HETATM   36  C   UNL     1      -9.976   9.520  66.852  1.00  0.00    -0.216 C  
HETATM   37  C   UNL     1     -10.980  13.071  65.758  1.00  0.00    -0.277 A  
HETATM   38  F   UNL     1      -8.914   9.088  67.596  1.00  0.00    -0.123 F  
HETATM   39  F   UNL     1     -11.076   8.968  67.429  1.00  0.00    -0.293 F  
HETATM   40  F   UNL     1      -9.834   8.914  65.640  1.00  0.00    -0.326 F  
HETATM   41  N   UNL     1     -11.949  13.674  65.052  1.00  0.00    -0.360 NA 
HETATM   42  C   UNL     1     -11.847  15.011  64.841  1.00  0.00    -0.298 A  
HETATM   43  C   UNL     1     -10.755  15.784  65.229  1.00  0.00    -0.446 A  
ENDBRANCH  28  30
ENDBRANCH  27  28
ENDBRANCH  20  22
ENDBRANCH  19  20
ENDBRANCH  18  19
ENDBRANCH  17  18
ENDBRANCH  14  17
ENDBRANCH   7  11
TORSDOF 8
ENDMDL
MODEL       15
REMARK 921   NORMALIZED FREE ENERGY PREDICTED BY IDOCK:   -7.86 KCAL/MOL
REMARK 922        TOTAL FREE ENERGY PREDICTED BY IDOCK:  -14.94 KCAL/MOL
REMARK 923 INTER-LIGAND FREE ENERGY PREDICTED BY IDOCK:  -11.66 KCAL/MOL
REMARK 924 INTRA-LIGAND FREE ENERGY PREDICTED BY IDOCK:   -3.28 KCAL/MOL
REMARK 927      BINDING AFFINITY PREDICTED BY RF-SCORE:    0.00 PKD
ROOT
HETATM    1  F   UNL     1     -11.846  14.922  66.522  1.00  0.00    -0.350 F  
HETATM    2  C   UNL     1     -12.169  14.331  65.338  1.00  0.00    -0.405 C  
HETATM    3  C   UNL     1     -11.411  13.056  65.062  1.00  0.00    -0.345 A  
HETATM    4  F   UNL     1     -13.518  14.143  65.369  1.00  0.00    -0.436 F  
HETATM    5  F   UNL     1     -11.950  15.276  64.380  1.00  0.00    -0.428 F  
HETATM    6  C   UNL     1     -10.453  12.559  65.969  1.00  0.00    -0.282 A  
HETATM    7  C   UNL     1      -9.681  11.434  65.656  1.00  0.00    -0.231 A  
HETATM    8  C   UNL     1     -11.632  12.381  63.852  1.00  0.00    -0.518 A  
HETATM    9  C   UNL     1      -9.947  10.777  64.442  1.00  0.00    -0.400 A  
HETATM   10  C   UNL     1     -10.909  11.237  63.547  1.00  0.00    -0.373 A  
ENDROOT
BRANCH   7  11
HETATM   11  N   UNL     1      -8.631  10.953  66.443  1.00  0.00    -0.155 NA 
HETATM   12  C   UNL     1      -7.326   9.237  67.664  1.00  0.00    -0.084 C  
HETATM   13  C   UNL     1      -8.707   9.611  67.053  1.00  0.00    -0.128 C  
HETATM   14  N   UNL     1      -6.770  10.215  68.641  1.00  0.00    -0.056 NA 
HETATM   15  C   UNL     1      -8.104  11.985  67.366  1.00  0.00    -0.168 C  
HETATM   16  C   UNL     1      -6.745  11.534  67.950  1.00  0.00    -0.065 C  
BRANCH  14  17
HETATM   17  C   UNL     1      -7.556  10.303  69.894  1.00  0.00    -0.143 C  
BRANCH  17  18
HETATM   18  C   UNL     1      -7.411   9.104  70.860  1.00  0.00    -0.116 C  
BRANCH  18  19
HETATM   19  O   UNL     1      -8.632   8.861  71.621  1.00  0.00    -0.280 OA 
BRANCH  19  20
HETATM   20  C   UNL     1      -8.969   7.548  71.664  1.00  0.00    -0.123 C  
HETATM   21  O   UNL     1      -8.881   6.871  72.690  1.00  0.00    -0.125 OA 
BRANCH  20  22
HETATM   22  C   UNL     1      -9.503   6.946  70.395  1.00  0.00    -0.169 A  
HETATM   23  C   UNL     1      -8.972   5.656  70.148  1.00  0.00    -0.151 A  
HETATM   24  C   UNL     1      -9.310   4.925  69.016  1.00  0.00    -0.183 A  
HETATM   25  C   UNL     1     -10.206   5.466  68.106  1.00  0.00    -0.226 A  
HETATM   26  C   UNL     1     -10.754   6.733  68.334  1.00  0.00    -0.284 A  
HETATM   27  C   UNL     1     -10.420   7.508  69.466  1.00  0.00    -0.226 A  
BRANCH  27  28
HETATM   28  N   UNL     1     -10.941   8.814  69.582  1.00  0.00    -0.396 NA 
HETATM   29  H   UNL     1     -10.513   9.476  68.933  1.00  0.00     0.000 HD 
BRANCH  28  30
HETATM   30  C   UNL     1     -11.937   9.407  70.412  1.00  0.00    -0.029 A  
HETATM   31  C   UNL     1     -12.122  10.810  70.371  1.00  0.00    -0.443 A  
HETATM   32  C   UNL     1     -11.588  11.590  69.332  1.00  0.00    -0.388 A  
HETATM   33  C   UNL     1     -11.654  12.978  69.366  1.00  0.00    -0.360 A  
HETATM   34  C   UNL     1     -12.230  13.625  70.458  1.00  0.00    -0.438 A  
HETATM   35  C   UNL     1     -12.875  12.839  71.436  1.00  0.00    -0.371 A  
HETATM   36  C   UNL     1     -12.102  15.126  70.576  1.00  0.00    -0.343 C  
HETATM   37  C   UNL     1     -12.871  11.443  71.390  1.00  0.00    -0.397 A  
HETATM   38  F   UNL     1     -11.383  15.677  69.554  1.00  0.00    -0.246 F  
HETATM   39  F   UNL     1     -13.294  15.780  70.579  1.00  0.00    -0.467 F  
HETATM   40  F   UNL     1     -11.455  15.505  71.713  1.00  0.00    -0.376 F  
HETATM   41  N   UNL     1     -13.532  10.730  72.315  1.00  0.00    -0.185 NA 
HETATM   42  C   UNL     1     -13.460   9.377  72.249  1.00  0.00    -0.465 A  
HETATM   43  C   UNL     1     -12.666   8.678  71.342  1.00  0.00    -0.308 A  
ENDBRANCH  28  30
ENDBRANCH  27  28
ENDBRANCH  20  22
ENDBRANCH  19  20
ENDBRANCH  18  19
ENDBRANCH  17  18
ENDBRANCH  14  17
ENDBRANCH   7  11
TORSDOF 8
ENDMDL
MODEL       16
REMARK 921   NORMALIZED FREE ENERGY PREDICTED BY IDOCK:   -7.80 KCAL/MOL
REMARK 922        TOTAL FREE ENERGY PREDICTED BY IDOCK:  -14.85 KCAL/MOL
REMARK 923 INTER-LIGAND FREE ENERGY PREDICTED BY IDOCK:  -11.66 KCAL/MOL
REMARK 924 INTRA-LIGAND FREE ENERGY PREDICTED BY IDOCK:   -3.19 KCAL/MOL
REMARK 927      BINDING AFFINITY PREDICTED BY RF-SCORE:    0.00 PKD
ROOT
HETATM    1  F   UNL     1     -14.113  14.443  71.107  1.00  0.00    -0.406 F  
HETATM    2  C   UNL     1     -12.906  15.011  71.383  1.00  0.00    -0.359 C  
HETATM    3  C   UNL     1     -12.001  15.140  70.183  1.00  0.00    -0.374 A  
HETATM    4  F   UNL     1     -13.180  16.211  71.966  1.00  0.00    -0.490 F  
HETATM    5  F   UNL     1     -12.352  14.242  72.363  1.00  0.00    -0.355 F  
HETATM    6  C   UNL     1     -12.402  14.693  68.907  1.00  0.00    -0.069 A  
HETATM    7  C   UNL     1     -11.517  14.722  67.823  1.00  0.00    -0.345 A  
HETATM    8  C   UNL     1     -10.714  15.673  70.355  1.00  0.00    -0.336 A  
HETATM    9  C   UNL     1     -10.244  15.281  68.034  1.00  0.00    -0.230 A  
HETATM   10  C   UNL     1      -9.841  15.754  69.280  1.00  0.00    -0.265 A  
ENDROOT
BRANCH   7  11
HETATM   11  N   UNL     1     -11.795  14.187  66.562  1.00  0.00    -0.401 NA 
HETATM   12  C   UNL     1     -12.463  12.425  64.953  1.00  0.00    -0.361 C  
HETATM   13  C   UNL     1     -11.920  12.727  66.379  1.00  0.00    -0.375 C  
HETATM   14  N   UNL     1     -11.685  13.019  63.830  1.00  0.00    -0.437 NA 
HETATM   15  C   UNL     1     -11.012  14.845  65.490  1.00  0.00    -0.350 C  
HETATM   16  C   UNL     1     -11.596  14.481  64.104  1.00  0.00    -0.130 C  
BRANCH  14  17
HETATM   17  C   UNL     1     -10.330  12.438  63.685  1.00  0.00    -0.403 C  
BRANCH  17  18
HETATM   18  C   UNL     1     -10.262  10.893  63.681  1.00  0.00    -0.332 C  
BRANCH  18  19
HETATM   19  O   UNL     1      -9.121  10.392  64.440  1.00  0.00    -0.197 OA 
BRANCH  19  20
HETATM   20  C   UNL     1      -9.458  10.000  65.694  1.00  0.00    -0.220 C  
HETATM   21  O   UNL     1     -10.213   9.051  65.916  1.00  0.00    -0.165 OA 
BRANCH  20  22
HETATM   22  C   UNL     1      -8.832  10.759  66.830  1.00  0.00    -0.147 A  
HETATM   23  C   UNL     1      -7.575  11.311  66.478  1.00  0.00    -0.111 A  
HETATM   24  C   UNL     1      -6.807  12.031  67.384  1.00  0.00    -0.142 A  
HETATM   25  C   UNL     1      -7.291  12.231  68.669  1.00  0.00    -0.106 A  
HETATM   26  C   UNL     1      -8.535  11.708  69.037  1.00  0.00     0.158 A  
HETATM   27  C   UNL     1      -9.333  10.958  68.144  1.00  0.00    -0.165 A  
BRANCH  27  28
HETATM   28  N   UNL     1     -10.533  10.384  68.614  1.00  0.00    -0.184 NA 
HETATM   29  H   UNL     1     -11.031   9.854  67.897  1.00  0.00     0.000 HD 
BRANCH  28  30
HETATM   30  C   UNL     1     -11.198  10.385  69.875  1.00  0.00    -0.306 A  
HETATM   31  C   UNL     1     -10.987   9.305  70.765  1.00  0.00    -0.349 A  
HETATM   32  C   UNL     1      -9.923   8.405  70.588  1.00  0.00    -0.212 A  
HETATM   33  C   UNL     1      -9.799   7.271  71.381  1.00  0.00    -0.191 A  
HETATM   34  C   UNL     1     -10.756   6.989  72.355  1.00  0.00    -0.262 A  
HETATM   35  C   UNL     1     -11.749   7.956  72.614  1.00  0.00    -0.398 A  
HETATM   36  C   UNL     1     -10.721   5.651  73.057  1.00  0.00    -0.255 C  
HETATM   37  C   UNL     1     -11.857   9.131  71.866  1.00  0.00    -0.369 A  
HETATM   38  F   UNL     1      -9.715   4.844  72.605  1.00  0.00    -0.157 F  
HETATM   39  F   UNL     1     -10.542   5.742  74.401  1.00  0.00    -0.274 F  
HETATM   40  F   UNL     1     -11.865   4.936  72.870  1.00  0.00    -0.323 F  
HETATM   41  N   UNL     1     -12.789  10.047  72.170  1.00  0.00    -0.368 NA 
HETATM   42  C   UNL     1     -12.878  11.151  71.385  1.00  0.00    -0.439 A  
HETATM   43  C   UNL     1     -12.131  11.351  70.228  1.00  0.00    -0.459 A  
ENDBRANCH  28  30
ENDBRANCH  27  28
ENDBRANCH  20  22
ENDBRANCH  19  20
ENDBRANCH  18  19
ENDBRANCH  17  18
ENDBRANCH  14  17
ENDBRANCH   7  11
TORSDOF 8
ENDMDL
MODEL       17
REMARK 921   NORMALIZED FREE ENERGY PREDICTED BY IDOCK:   -7.73 KCAL/MOL
REMARK 922        TOTAL FREE ENERGY PREDICTED BY IDOCK:  -14.75 KCAL/MOL
REMARK 923 INTER-LIGAND FREE ENERGY PREDICTED BY IDOCK:  -12.05 KCAL/MOL
REMARK 924 INTRA-LIGAND FREE ENERGY PREDICTED BY IDOCK:   -2.70 KCAL/MOL
REMARK 927      BINDING AFFINITY PREDICTED BY RF-SCORE:    0.00 PKD
ROOT
HETATM    1  F   UNL     1     -13.461  10.431  70.406  1.00  0.00    -0.360 F  
HETATM    2  C   UNL     1     -12.855   9.600  71.300  1.00  0.00    -0.350 C  
HETATM    3  C   UNL     1     -11.360   9.497  71.125  1.00  0.00    -0.440 A  
HETATM    4  F   UNL     1     -13.209  10.054  72.534  1.00  0.00    -0.464 F  
HETATM    5  F   UNL     1     -13.472   8.393  71.159  1.00  0.00    -0.285 F  
HETATM    6  C   UNL     1     -10.687  10.207  70.109  1.00  0.00    -0.355 A  
HETATM    7  C   UNL     1      -9.317  10.024  69.889  1.00  0.00    -0.169 A  
HETATM    8  C   UNL     1     -10.634   8.637  71.964  1.00  0.00    -0.421 A  
HETATM    9  C   UNL     1      -8.624   9.168  70.764  1.00  0.00    -0.265 A  
HETATM   10  C   UNL     1      -9.266   8.481  71.790  1.00  0.00    -0.316 A  
ENDROOT
BRANCH   7  11
HETATM   11  N   UNL     1      -8.604  10.593  68.830  1.00  0.00    -0.153 NA 
HETATM   12  C   UNL     1      -6.607  11.038  67.433  1.00  0.00    -0.069 C  
HETATM   13  C   UNL     1      -7.128  10.560  68.819  1.00  0.00    -0.073 C  
HETATM   14  N   UNL     1      -7.095  12.374  66.989  1.00  0.00    -0.072 NA 
HETATM   15  C   UNL     1      -9.162  11.902  68.419  1.00  0.00    -0.173 C  
HETATM   16  C   UNL     1      -8.582  12.321  67.047  1.00  0.00    -0.191 C  
BRANCH  14  17
HETATM   17  C   UNL     1      -6.586  13.490  67.821  1.00  0.00    -0.170 C  
BRANCH  17  18
HETATM   18  C   UNL     1      -7.577  14.653  68.057  1.00  0.00    -0.128 C  
BRANCH  18  19
HETATM   19  O   UNL     1      -7.171  15.870  67.362  1.00  0.00    -0.157 OA 
BRANCH  19  20
HETATM   20  C   UNL     1      -7.533  16.997  68.025  1.00  0.00    -0.182 C  
HETATM   21  O   UNL     1      -7.006  17.347  69.083  1.00  0.00    -0.237 OA 
BRANCH  20  22
HETATM   22  C   UNL     1      -8.600  17.842  67.388  1.00  0.00    -0.239 A  
HETATM   23  C   UNL     1      -8.621  19.161  67.906  1.00  0.00    -0.340 A  
HETATM   24  C   UNL     1      -9.544  20.106  67.478  1.00  0.00    -0.547 A  
HETATM   25  C   UNL     1     -10.465  19.755  66.502  1.00  0.00    -0.615 A  
HETATM   26  C   UNL     1     -10.456  18.464  65.964  1.00  0.00    -0.400 A  
HETATM   27  C   UNL     1      -9.541  17.475  66.389  1.00  0.00    -0.269 A  
BRANCH  27  28
HETATM   28  N   UNL     1      -9.652  16.168  65.869  1.00  0.00    -0.384 NA 
HETATM   29  H   UNL     1      -8.854  15.896  65.294  1.00  0.00     0.000 HD 
BRANCH  28  30
HETATM   30  C   UNL     1     -10.641  15.147  65.976  1.00  0.00    -0.322 A  
HETATM   31  C   UNL     1     -11.265  14.921  67.226  1.00  0.00    -0.348 A  
HETATM   32  C   UNL     1     -11.177  15.857  68.269  1.00  0.00    -0.354 A  
HETATM   33  C   UNL     1     -11.674  15.573  69.536  1.00  0.00    -0.380 A  
HETATM   34  C   UNL     1     -12.246  14.330  69.800  1.00  0.00    -0.390 A  
HETATM   35  C   UNL     1     -12.446  13.443  68.722  1.00  0.00     0.272 A  
HETATM   36  C   UNL     1     -12.585  13.963  71.228  1.00  0.00    -0.371 C  
HETATM   37  C   UNL     1     -12.006  13.734  67.429  1.00  0.00    -0.388 A  
HETATM   38  F   UNL     1     -12.247  14.943  72.118  1.00  0.00    -0.353 F  
HETATM   39  F   UNL     1     -13.906  13.721  71.433  1.00  0.00    -0.366 F  
HETATM   40  F   UNL     1     -11.921  12.852  71.651  1.00  0.00     0.004 F  
HETATM   41  N   UNL     1     -12.253  12.884  66.420  1.00  0.00    -0.482 NA 
HETATM   42  C   UNL     1     -11.766  13.194  65.191  1.00  0.00    -0.336 A  
HETATM   43  C   UNL     1     -10.945  14.287  64.928  1.00  0.00    -0.413 A  
ENDBRANCH  28  30
ENDBRANCH  27  28
ENDBRANCH  20  22
ENDBRANCH  19  20
ENDBRANCH  18  19
ENDBRANCH  17  18
ENDBRANCH  14  17
ENDBRANCH   7  11
TORSDOF 8
ENDMDL
MODEL       18
REMARK 921   NORMALIZED FREE ENERGY PREDICTED BY IDOCK:   -7.67 KCAL/MOL
REMARK 922        TOTAL FREE ENERGY PREDICTED BY IDOCK:  -14.66 KCAL/MOL
REMARK 923 INTER-LIGAND FREE ENERGY PREDICTED BY IDOCK:  -12.63 KCAL/MOL
REMARK 924 INTRA-LIGAND FREE ENERGY PREDICTED BY IDOCK:   -2.04 KCAL/MOL
REMARK 927      BINDING AFFINITY PREDICTED BY RF-SCORE:    0.00 PKD
ROOT
HETATM    1  F   UNL     1     -13.116  10.239  70.282  1.00  0.00    -0.347 F  
HETATM    2  C   UNL     1     -12.617   9.417  71.247  1.00  0.00    -0.325 C  
HETATM    3  C   UNL     1     -11.116   9.272  71.214  1.00  0.00    -0.427 A  
HETATM    4  F   UNL     1     -13.072   9.911  72.432  1.00  0.00    -0.477 F  
HETATM    5  F   UNL     1     -13.251   8.222  71.077  1.00  0.00    -0.223 F  
HETATM    6  C   UNL     1     -10.334   9.939  70.248  1.00  0.00    -0.339 A  
HETATM    7  C   UNL     1      -8.955   9.716  70.160  1.00  0.00    -0.236 A  
HETATM    8  C   UNL     1     -10.494   8.416  72.135  1.00  0.00    -0.396 A  
HETATM    9  C   UNL     1      -8.368   8.866  71.115  1.00  0.00    -0.232 A  
HETATM   10  C   UNL     1      -9.121   8.222  72.093  1.00  0.00    -0.279 A  
ENDROOT
BRANCH   7  11
HETATM   11  N   UNL     1      -8.132  10.241  69.159  1.00  0.00    -0.127 NA 
HETATM   12  C   UNL     1      -5.992  10.972  68.146  1.00  0.00    -0.049 C  
HETATM   13  C   UNL     1      -6.751  10.660  69.469  1.00  0.00    -0.101 C  
HETATM   14  N   UNL     1      -6.644  11.970  67.252  1.00  0.00    -0.134 NA 
HETATM   15  C   UNL     1      -8.852  11.199  68.288  1.00  0.00    -0.155 C  
HETATM   16  C   UNL     1      -8.029  11.477  67.008  1.00  0.00    -0.161 C  
BRANCH  14  17
HETATM   17  C   UNL     1      -6.676  13.336  67.824  1.00  0.00    -0.153 C  
BRANCH  17  18
HETATM   18  C   UNL     1      -7.725  14.293  67.211  1.00  0.00    -0.120 C  
BRANCH  18  19
HETATM   19  O   UNL     1      -7.289  15.685  67.252  1.00  0.00    -0.187 OA 
BRANCH  19  20
HETATM   20  C   UNL     1      -8.039  16.444  68.089  1.00  0.00    -0.165 C  
HETATM   21  O   UNL     1      -8.106  16.231  69.301  1.00  0.00    -0.237 OA 
BRANCH  20  22
HETATM   22  C   UNL     1      -8.771  17.604  67.475  1.00  0.00    -0.234 A  
HETATM   23  C   UNL     1      -7.897  18.501  66.812  1.00  0.00    -0.257 A  
HETATM   24  C   UNL     1      -8.357  19.657  66.195  1.00  0.00    -0.352 A  
HETATM   25  C   UNL     1      -9.714  19.937  66.214  1.00  0.00    -0.551 A  
HETATM   26  C   UNL     1     -10.600  19.062  66.851  1.00  0.00    -0.518 A  
HETATM   27  C   UNL     1     -10.164  17.886  67.501  1.00  0.00    -0.363 A  
BRANCH  27  28
HETATM   28  N   UNL     1     -11.102  17.099  68.202  1.00  0.00    -0.233 NA 
HETATM   29  H   UNL     1     -11.856  17.648  68.616  1.00  0.00     0.000 HD 
BRANCH  28  30
HETATM   30  C   UNL     1     -11.222  15.702  68.455  1.00  0.00    -0.342 A  
HETATM   31  C   UNL     1     -11.290  14.807  67.361  1.00  0.00    -0.361 A  
HETATM   32  C   UNL     1     -10.934  15.208  66.063  1.00  0.00    -0.332 A  
HETATM   33  C   UNL     1     -11.131  14.371  64.970  1.00  0.00    -0.385 A  
HETATM   34  C   UNL     1     -11.720  13.119  65.145  1.00  0.00    -0.367 A  
HETATM   35  C   UNL     1     -11.959  12.671  66.461  1.00  0.00    -0.401 A  
HETATM   36  C   UNL     1     -12.119  12.317  63.927  1.00  0.00    -0.506 C  
HETATM   37  C   UNL     1     -11.713  13.475  67.576  1.00  0.00    -0.367 A  
HETATM   38  F   UNL     1     -11.855  12.969  62.756  1.00  0.00    -0.436 F  
HETATM   39  F   UNL     1     -11.487  11.118  63.830  1.00  0.00    -0.425 F  
HETATM   40  F   UNL     1     -13.454  12.050  63.895  1.00  0.00    -0.432 F  
HETATM   41  N   UNL     1     -11.913  12.998  68.814  1.00  0.00    -0.306 NA 
HETATM   42  C   UNL     1     -11.700  13.834  69.862  1.00  0.00    -0.284 A  
HETATM   43  C   UNL     1     -11.381  15.184  69.734  1.00  0.00    -0.307 A  
ENDBRANCH  28  30
ENDBRANCH  27  28
ENDBRANCH  20  22
ENDBRANCH  19  20
ENDBRANCH  18  19
ENDBRANCH  17  18
ENDBRANCH  14  17
ENDBRANCH   7  11
TORSDOF 8
ENDMDL
MODEL       19
REMARK 921   NORMALIZED FREE ENERGY PREDICTED BY IDOCK:   -7.60 KCAL/MOL
REMARK 922        TOTAL FREE ENERGY PREDICTED BY IDOCK:  -14.56 KCAL/MOL
REMARK 923 INTER-LIGAND FREE ENERGY PREDICTED BY IDOCK:  -11.90 KCAL/MOL
REMARK 924 INTRA-LIGAND FREE ENERGY PREDICTED BY IDOCK:   -2.66 KCAL/MOL
REMARK 927      BINDING AFFINITY PREDICTED BY RF-SCORE:    0.00 PKD
ROOT
HETATM    1  F   UNL     1     -12.188   5.186  73.114  1.00  0.00    -0.331 F  
HETATM    2  C   UNL     1     -11.197   4.274  73.323  1.00  0.00    -0.241 C  
HETATM    3  C   UNL     1     -10.156   4.238  72.232  1.00  0.00    -0.249 A  
HETATM    4  F   UNL     1     -10.670   4.566  74.544  1.00  0.00    -0.289 F  
HETATM    5  F   UNL     1     -11.826   3.073  73.469  1.00  0.00    -0.307 F  
HETATM    6  C   UNL     1     -10.240   5.085  71.107  1.00  0.00    -0.281 A  
HETATM    7  C   UNL     1      -9.327   4.972  70.052  1.00  0.00    -0.150 A  
HETATM    8  C   UNL     1      -9.110   3.308  72.319  1.00  0.00    -0.145 A  
HETATM    9  C   UNL     1      -8.283   4.040  70.188  1.00  0.00    -0.069 A  
HETATM   10  C   UNL     1      -8.168   3.216  71.304  1.00  0.00    -0.075 A  
ENDROOT
BRANCH   7  11
HETATM   11  N   UNL     1      -9.414   5.686  68.853  1.00  0.00    -0.123 NA 
HETATM   12  C   UNL     1      -8.641   7.251  67.095  1.00  0.00    -0.121 C  
HETATM   13  C   UNL     1      -8.485   6.799  68.575  1.00  0.00    -0.123 C  
HETATM   14  N   UNL     1     -10.024   7.619  66.678  1.00  0.00    -0.232 NA 
HETATM   15  C   UNL     1     -10.816   5.989  68.482  1.00  0.00    -0.286 C  
HETATM   16  C   UNL     1     -10.889   6.452  67.008  1.00  0.00    -0.392 C  
BRANCH  14  17
HETATM   17  C   UNL     1     -10.530   8.842  67.344  1.00  0.00    -0.277 C  
BRANCH  17  18
HETATM   18  C   UNL     1      -9.524  10.012  67.449  1.00  0.00    -0.152 C  
BRANCH  18  19
HETATM   19  O   UNL     1      -9.748  10.825  68.640  1.00  0.00    -0.171 OA 
BRANCH  19  20
HETATM   20  C   UNL     1      -9.446  10.166  69.787  1.00  0.00    -0.167 C  
HETATM   21  O   UNL     1      -8.291   9.869  70.100  1.00  0.00    -0.192 OA 
BRANCH  20  22
HETATM   22  C   UNL     1     -10.593   9.839  70.700  1.00  0.00    -0.382 A  
HETATM   23  C   UNL     1     -10.321   8.719  71.524  1.00  0.00    -0.374 A  
HETATM   24  C   UNL     1     -11.253   8.226  72.428  1.00  0.00    -0.451 A  
HETATM   25  C   UNL     1     -12.483   8.856  72.540  1.00  0.00    -0.344 A  
HETATM   26  C   UNL     1     -12.771   9.972  71.747  1.00  0.00    -0.526 A  
HETATM   27  C   UNL     1     -11.852  10.490  70.808  1.00  0.00    -0.365 A  
BRANCH  27  28
HETATM   28  N   UNL     1     -12.247  11.560  69.978  1.00  0.00    -0.294 NA 
HETATM   29  H   UNL     1     -12.667  11.253  69.100  1.00  0.00     0.000 HD 
BRANCH  28  30
HETATM   30  C   UNL     1     -12.184  12.979  70.105  1.00  0.00    -0.272 A  
HETATM   31  C   UNL     1     -11.887  13.760  68.962  1.00  0.00    -0.397 A  
HETATM   32  C   UNL     1     -11.961  13.221  67.667  1.00  0.00    -0.366 A  
HETATM   33  C   UNL     1     -11.539  13.948  66.560  1.00  0.00    -0.385 A  
HETATM   34  C   UNL     1     -11.001  15.223  66.723  1.00  0.00    -0.306 A  
HETATM   35  C   UNL     1     -11.045  15.807  68.006  1.00  0.00    -0.337 A  
HETATM   36  C   UNL     1     -10.355  15.907  65.539  1.00  0.00    -0.400 C  
HETATM   37  C   UNL     1     -11.519  15.116  69.122  1.00  0.00    -0.306 A  
HETATM   38  F   UNL     1     -10.366  15.135  64.412  1.00  0.00    -0.256 F  
HETATM   39  F   UNL     1     -10.953  17.076  65.188  1.00  0.00    -0.385 F  
HETATM   40  F   UNL     1      -9.043  16.199  65.760  1.00  0.00    -0.346 F  
HETATM   41  N   UNL     1     -11.585  15.719  70.319  1.00  0.00    -0.336 NA 
HETATM   42  C   UNL     1     -12.013  14.989  71.380  1.00  0.00    -0.341 A  
HETATM   43  C   UNL     1     -12.298  13.627  71.328  1.00  0.00    -0.359 A  
ENDBRANCH  28  30
ENDBRANCH  27  28
ENDBRANCH  20  22
ENDBRANCH  19  20
ENDBRANCH  18  19
ENDBRANCH  17  18
ENDBRANCH  14  17
ENDBRANCH   7  11
TORSDOF 8
ENDMDL
MODEL       20
REMARK 921   NORMALIZED FREE ENERGY PREDICTED BY IDOCK:   -7.53 KCAL/MOL
REMARK 922        TOTAL FREE ENERGY PREDICTED BY IDOCK:  -14.45 KCAL/MOL
REMARK 923 INTER-LIGAND FREE ENERGY PREDICTED BY IDOCK:  -11.71 KCAL/MOL
REMARK 924 INTRA-LIGAND FREE ENERGY PREDICTED BY IDOCK:   -2.74 KCAL/MOL
REMARK 927      BINDING AFFINITY PREDICTED BY RF-SCORE:    0.00 PKD
ROOT
HETATM    1  F   UNL     1     -12.823  16.162  71.463  1.00  0.00    -0.499 F  
HETATM    2  C   UNL     1     -12.807  14.860  71.863  1.00  0.00    -0.328 C  
HETATM    3  C   UNL     1     -12.412  13.889  70.778  1.00  0.00    -0.445 A  
HETATM    4  F   UNL     1     -11.976  14.809  72.941  1.00  0.00    -0.380 F  
HETATM    5  F   UNL     1     -14.056  14.607  72.347  1.00  0.00    -0.472 F  
HETATM    6  C   UNL     1     -12.102  14.330  69.474  1.00  0.00    -0.376 A  
HETATM    7  C   UNL     1     -11.839  13.414  68.449  1.00  0.00    -0.366 A  
HETATM    8  C   UNL     1     -12.401  12.516  71.064  1.00  0.00    -0.307 A  
HETATM    9  C   UNL     1     -11.820  12.048  68.782  1.00  0.00    -0.358 A  
HETATM   10  C   UNL     1     -12.095  11.597  70.070  1.00  0.00    -0.395 A  
ENDROOT
BRANCH   7  11
HETATM   11  N   UNL     1     -11.646  13.762  67.109  1.00  0.00    -0.343 NA 
HETATM   12  C   UNL     1     -12.341  14.381  64.813  1.00  0.00    -0.414 C  
HETATM   13  C   UNL     1     -12.772  13.722  66.155  1.00  0.00    -0.283 C  
HETATM   14  N   UNL     1     -11.115  13.814  64.185  1.00  0.00    -0.266 NA 
HETATM   15  C   UNL     1     -10.393  13.194  66.558  1.00  0.00    -0.283 C  
HETATM   16  C   UNL     1     -10.043  13.879  65.216  1.00  0.00    -0.303 C  
BRANCH  14  17
HETATM   17  C   UNL     1     -11.290  12.422  63.709  1.00  0.00    -0.464 C  
BRANCH  17  18
HETATM   18  C   UNL     1      -9.987  11.611  63.522  1.00  0.00    -0.405 C  
BRANCH  18  19
HETATM   19  O   UNL     1      -9.951  10.425  64.372  1.00  0.00    -0.335 OA 
BRANCH  19  20
HETATM   20  C   UNL     1      -8.691  10.086  64.744  1.00  0.00    -0.187 C  
HETATM   21  O   UNL     1      -7.881   9.576  63.966  1.00  0.00    -0.117 OA 
BRANCH  20  22
HETATM   22  C   UNL     1      -8.298  10.396  66.160  1.00  0.00    -0.149 A  
HETATM   23  C   UNL     1      -7.102  11.152  66.233  1.00  0.00    -0.049 A  
HETATM   24  C   UNL     1      -6.541  11.529  67.446  1.00  0.00    -0.101 A  
HETATM   25  C   UNL     1      -7.177  11.169  68.624  1.00  0.00    -0.098 A  
HETATM   26  C   UNL     1      -8.366  10.434  68.580  1.00  0.00    -0.127 A  
HETATM   27  C   UNL     1      -8.955  10.022  67.364  1.00  0.00    -0.131 A  
BRANCH  27  28
HETATM   28  N   UNL     1     -10.104   9.204  67.399  1.00  0.00    -0.212 NA 
HETATM   29  H   UNL     1     -10.969   9.719  67.231  1.00  0.00     0.000 HD 
BRANCH  28  30
HETATM   30  C   UNL     1     -10.315   7.811  67.620  1.00  0.00    -0.239 A  
HETATM   31  C   UNL     1     -10.534   7.349  68.940  1.00  0.00    -0.213 A  
HETATM   32  C   UNL     1     -10.859   8.232  69.982  1.00  0.00    -0.232 A  
HETATM   33  C   UNL     1     -10.938   7.795  71.299  1.00  0.00    -0.259 A  
HETATM   34  C   UNL     1     -10.664   6.465  71.613  1.00  0.00    -0.274 A  
HETATM   35  C   UNL     1     -10.463   5.557  70.553  1.00  0.00    -0.347 A  
HETATM   36  C   UNL     1     -10.548   6.059  73.064  1.00  0.00    -0.240 C  
HETATM   37  C   UNL     1     -10.436   5.966  69.218  1.00  0.00    -0.274 A  
HETATM   38  F   UNL     1     -10.715   7.110  73.921  1.00  0.00    -0.398 F  
HETATM   39  F   UNL     1     -11.458   5.126  73.447  1.00  0.00    -0.353 F  
HETATM   40  F   UNL     1      -9.323   5.545  73.364  1.00  0.00    -0.137 F  
HETATM   41  N   UNL     1     -10.285   5.066  68.234  1.00  0.00    -0.114 NA 
HETATM   42  C   UNL     1     -10.222   5.521  66.957  1.00  0.00    -0.224 A  
HETATM   43  C   UNL     1     -10.209   6.869  66.606  1.00  0.00    -0.215 A  
ENDBRANCH  28  30
ENDBRANCH  27  28
ENDBRANCH  20  22
ENDBRANCH  19  20
ENDBRANCH  18  19
ENDBRANCH  17  18
ENDBRANCH  14  17
ENDBRANCH   7  11
TORSDOF 8
ENDMDL
MODEL       21
REMARK 921   NORMALIZED FREE ENERGY PREDICTED BY IDOCK:   -7.53 KCAL/MOL
REMARK 922        TOTAL FREE ENERGY PREDICTED BY IDOCK:  -14.44 KCAL/MOL
REMARK 923 INTER-LIGAND FREE ENERGY PREDICTED BY IDOCK:  -11.85 KCAL/MOL
REMARK 924 INTRA-LIGAND FREE ENERGY PREDICTED BY IDOCK:   -2.60 KCAL/MOL
REMARK 927      BINDING AFFINITY PREDICTED BY RF-SCORE:    0.00 PKD
ROOT
HETATM    1  F   UNL     1     -10.694  14.789  68.641  1.00  0.00    -0.228 F  
HETATM    2  C   UNL     1     -11.523  15.427  69.514  1.00  0.00    -0.319 C  
HETATM    3  C   UNL     1     -12.240  14.502  70.465  1.00  0.00    -0.399 A  
HETATM    4  F   UNL     1     -10.753  16.348  70.157  1.00  0.00    -0.305 F  
HETATM    5  F   UNL     1     -12.390  16.143  68.744  1.00  0.00    -0.239 F  
HETATM    6  C   UNL     1     -12.050  13.105  70.418  1.00  0.00    -0.392 A  
HETATM    7  C   UNL     1     -12.798  12.249  71.233  1.00  0.00    -0.239 A  
HETATM    8  C   UNL     1     -13.153  15.044  71.383  1.00  0.00    -0.464 A  
HETATM    9  C   UNL     1     -13.687  12.833  72.152  1.00  0.00    -0.454 A  
HETATM   10  C   UNL     1     -13.867  14.212  72.234  1.00  0.00    -0.643 A  
ENDROOT
BRANCH   7  11
HETATM   11  N   UNL     1     -12.758  10.853  71.160  1.00  0.00    -0.401 NA 
HETATM   12  C   UNL     1     -13.413   8.540  71.759  1.00  0.00    -0.371 C  
HETATM   13  C   UNL     1     -13.396  10.030  72.207  1.00  0.00    -0.289 C  
HETATM   14  N   UNL     1     -12.089   7.966  71.389  1.00  0.00    -0.302 NA 
HETATM   15  C   UNL     1     -11.424  10.352  70.755  1.00  0.00    -0.332 C  
HETATM   16  C   UNL     1     -11.516   8.863  70.348  1.00  0.00    -0.157 C  
BRANCH  14  17
HETATM   17  C   UNL     1     -11.160   7.848  72.537  1.00  0.00    -0.362 C  
BRANCH  17  18
HETATM   18  C   UNL     1      -9.722   7.396  72.190  1.00  0.00    -0.150 C  
BRANCH  18  19
HETATM   19  O   UNL     1      -9.710   6.264  71.269  1.00  0.00    -0.173 OA 
BRANCH  19  20
HETATM   20  C   UNL     1      -8.908   6.472  70.195  1.00  0.00    -0.144 C  
HETATM   21  O   UNL     1      -7.890   7.164  70.248  1.00  0.00    -0.100 OA 
BRANCH  20  22
HETATM   22  C   UNL     1      -9.295   5.780  68.919  1.00  0.00    -0.141 A  
HETATM   23  C   UNL     1      -9.240   4.368  69.035  1.00  0.00    -0.201 A  
HETATM   24  C   UNL     1      -9.533   3.529  67.968  1.00  0.00    -0.217 A  
HETATM   25  C   UNL     1      -9.907   4.087  66.754  1.00  0.00    -0.163 A  
HETATM   26  C   UNL     1      -9.982   5.477  66.617  1.00  0.00    -0.213 A  
HETATM   27  C   UNL     1      -9.676   6.358  67.678  1.00  0.00    -0.118 A  
BRANCH  27  28
HETATM   28  N   UNL     1      -9.683   7.749  67.439  1.00  0.00    -0.153 NA 
HETATM   29  H   UNL     1     -10.083   8.286  68.209  1.00  0.00     0.000 HD 
BRANCH  28  30
HETATM   30  C   UNL     1      -9.252   8.563  66.351  1.00  0.00    -0.199 A  
HETATM   31  C   UNL     1      -9.792   9.864  66.209  1.00  0.00    -0.308 A  
HETATM   32  C   UNL     1     -10.487  10.488  67.258  1.00  0.00    -0.300 A  
HETATM   33  C   UNL     1     -11.131  11.706  67.071  1.00  0.00    -0.359 A  
HETATM   34  C   UNL     1     -11.123  12.317  65.818  1.00  0.00    -0.362 A  
HETATM   35  C   UNL     1     -10.321  11.752  64.805  1.00  0.00    -0.333 A  
HETATM   36  C   UNL     1     -12.002  13.524  65.582  1.00  0.00    -0.397 C  
HETATM   37  C   UNL     1      -9.619  10.560  64.990  1.00  0.00    -0.276 A  
HETATM   38  F   UNL     1     -12.743  13.861  66.680  1.00  0.00    -0.414 F  
HETATM   39  F   UNL     1     -11.314  14.647  65.246  1.00  0.00    -0.312 F  
HETATM   40  F   UNL     1     -12.910  13.319  64.587  1.00  0.00    -0.384 F  
HETATM   41  N   UNL     1      -8.832  10.076  64.017  1.00  0.00    -0.203 NA 
HETATM   42  C   UNL     1      -8.206   8.891  64.232  1.00  0.00    -0.169 A  
HETATM   43  C   UNL     1      -8.400   8.097  65.359  1.00  0.00    -0.163 A  
ENDBRANCH  28  30
ENDBRANCH  27  28
ENDBRANCH  20  22
ENDBRANCH  19  20
ENDBRANCH  18  19
ENDBRANCH  17  18
ENDBRANCH  14  17
ENDBRANCH   7  11
TORSDOF 8
ENDMDL
MODEL       22
REMARK 921   NORMALIZED FREE ENERGY PREDICTED BY IDOCK:   -7.52 KCAL/MOL
REMARK 922        TOTAL FREE ENERGY PREDICTED BY IDOCK:  -14.43 KCAL/MOL
REMARK 923 INTER-LIGAND FREE ENERGY PREDICTED BY IDOCK:  -12.18 KCAL/MOL
REMARK 924 INTRA-LIGAND FREE ENERGY PREDICTED BY IDOCK:   -2.25 KCAL/MOL
REMARK 927      BINDING AFFINITY PREDICTED BY RF-SCORE:    0.00 PKD
ROOT
HETATM    1  F   UNL     1     -12.918  10.840  69.984  1.00  0.00    -0.334 F  
HETATM    2  C   UNL     1     -12.951  10.131  71.147  1.00  0.00    -0.395 C  
HETATM    3  C   UNL     1     -11.740   9.257  71.367  1.00  0.00    -0.431 A  
HETATM    4  F   UNL     1     -13.125  11.046  72.140  1.00  0.00    -0.564 F  
HETATM    5  F   UNL     1     -14.105   9.406  71.106  1.00  0.00    -0.388 F  
HETATM    6  C   UNL     1     -10.693   9.201  70.424  1.00  0.00    -0.282 A  
HETATM    7  C   UNL     1      -9.626   8.310  70.586  1.00  0.00    -0.171 A  
HETATM    8  C   UNL     1     -11.683   8.449  72.512  1.00  0.00    -0.429 A  
HETATM    9  C   UNL     1      -9.597   7.532  71.757  1.00  0.00    -0.178 A  
HETATM   10  C   UNL     1     -10.607   7.595  72.713  1.00  0.00    -0.381 A  
ENDROOT
BRANCH   7  11
HETATM   11  N   UNL     1      -8.616   8.106  69.640  1.00  0.00    -0.130 NA 
HETATM   12  C   UNL     1      -6.728   8.759  68.175  1.00  0.00    -0.065 C  
HETATM   13  C   UNL     1      -7.960   9.255  68.987  1.00  0.00    -0.097 C  
HETATM   14  N   UNL     1      -7.007   7.690  67.176  1.00  0.00    -0.078 NA 
HETATM   15  C   UNL     1      -8.944   7.008  68.701  1.00  0.00    -0.130 C  
HETATM   16  C   UNL     1      -7.680   6.585  67.915  1.00  0.00    -0.104 C  
BRANCH  14  17
HETATM   17  C   UNL     1      -7.853   8.147  66.049  1.00  0.00    -0.093 C  
BRANCH  17  18
HETATM   18  C   UNL     1      -7.399   9.456  65.360  1.00  0.00    -0.096 C  
BRANCH  18  19
HETATM   19  O   UNL     1      -8.521  10.196  64.792  1.00  0.00    -0.158 OA 
BRANCH  19  20
HETATM   20  C   UNL     1      -8.945  11.202  65.597  1.00  0.00    -0.184 C  
HETATM   21  O   UNL     1      -8.251  11.669  66.502  1.00  0.00    -0.164 OA 
BRANCH  20  22
HETATM   22  C   UNL     1     -10.309  11.766  65.312  1.00  0.00    -0.317 A  
HETATM   23  C   UNL     1     -10.770  11.427  64.016  1.00  0.00    -0.450 A  
HETATM   24  C   UNL     1     -11.996  11.865  63.533  1.00  0.00    -0.567 A  
HETATM   25  C   UNL     1     -12.803  12.644  64.348  1.00  0.00    -0.344 A  
HETATM   26  C   UNL     1     -12.377  12.982  65.637  1.00  0.00    -0.504 A  
HETATM   27  C   UNL     1     -11.129  12.566  66.153  1.00  0.00    -0.298 A  
BRANCH  27  28
HETATM   28  N   UNL     1     -10.726  13.022  67.426  1.00  0.00    -0.243 NA 
HETATM   29  H   UNL     1      -9.959  12.478  67.822  1.00  0.00     0.000 HD 
BRANCH  28  30
HETATM   30  C   UNL     1     -11.161  14.080  68.276  1.00  0.00    -0.268 A  
HETATM   31  C   UNL     1     -10.794  15.411  67.962  1.00  0.00    -0.292 A  
HETATM   32  C   UNL     1     -10.292  15.754  66.696  1.00  0.00    -0.292 A  
HETATM   33  C   UNL     1      -9.806  17.030  66.435  1.00  0.00    -0.312 A  
HETATM   34  C   UNL     1      -9.781  17.989  67.446  1.00  0.00    -0.296 A  
HETATM   35  C   UNL     1     -10.400  17.681  68.675  1.00  0.00    -0.359 A  
HETATM   36  C   UNL     1      -9.058  19.294  67.205  1.00  0.00    -0.299 C  
HETATM   37  C   UNL     1     -10.946  16.423  68.938  1.00  0.00    -0.332 A  
HETATM   38  F   UNL     1      -8.475  19.355  65.970  1.00  0.00    -0.321 F  
HETATM   39  F   UNL     1      -9.859  20.389  67.286  1.00  0.00    -0.506 F  
HETATM   40  F   UNL     1      -8.042  19.497  68.089  1.00  0.00    -0.318 F  
HETATM   41  N   UNL     1     -11.565  16.180  70.104  1.00  0.00    -0.300 NA 
HETATM   42  C   UNL     1     -12.040  14.928  70.326  1.00  0.00    -0.325 A  
HETATM   43  C   UNL     1     -11.845  13.853  69.463  1.00  0.00    -0.383 A  
ENDBRANCH  28  30
ENDBRANCH  27  28
ENDBRANCH  20  22
ENDBRANCH  19  20
ENDBRANCH  18  19
ENDBRANCH  17  18
ENDBRANCH  14  17
ENDBRANCH   7  11
TORSDOF 8
ENDMDL
MODEL       23
REMARK 921   NORMALIZED FREE ENERGY PREDICTED BY IDOCK:   -7.51 KCAL/MOL
REMARK 922        TOTAL FREE ENERGY PREDICTED BY IDOCK:  -14.42 KCAL/MOL
REMARK 923 INTER-LIGAND FREE ENERGY PREDICTED BY IDOCK:  -12.00 KCAL/MOL
REMARK 924 INTRA-LIGAND FREE ENERGY PREDICTED BY IDOCK:   -2.42 KCAL/MOL
REMARK 927      BINDING AFFINITY PREDICTED BY RF-SCORE:    0.00 PKD
ROOT
HETATM    1  F   UNL     1      -9.820   5.988  65.598  1.00  0.00    -0.015 F  
HETATM    2  C   UNL     1      -9.545   4.715  65.995  1.00  0.00    -0.185 C  
HETATM    3  C   UNL     1      -9.677   4.493  67.481  1.00  0.00    -0.213 A  
HETATM    4  F   UNL     1     -10.369   3.909  65.268  1.00  0.00    -0.186 F  
HETATM    5  F   UNL     1      -8.284   4.453  65.547  1.00  0.00    -0.105 F  
HETATM    6  C   UNL     1     -10.047   5.540  68.351  1.00  0.00    -0.234 A  
HETATM    7  C   UNL     1     -10.064   5.351  69.737  1.00  0.00    -0.249 A  
HETATM    8  C   UNL     1      -9.377   3.229  68.010  1.00  0.00    -0.245 A  
HETATM    9  C   UNL     1      -9.776   4.064  70.225  1.00  0.00    -0.263 A  
HETATM   10  C   UNL     1      -9.438   3.011  69.380  1.00  0.00    -0.176 A  
ENDROOT
BRANCH   7  11
HETATM   11  N   UNL     1     -10.299   6.366  70.670  1.00  0.00    -0.193 NA 
HETATM   12  C   UNL     1     -11.144   7.337  72.787  1.00  0.00    -0.319 C  
HETATM   13  C   UNL     1     -11.256   6.160  71.775  1.00  0.00    -0.284 C  
HETATM   14  N   UNL     1     -11.313   8.699  72.208  1.00  0.00    -0.363 NA 
HETATM   15  C   UNL     1     -10.423   7.696  70.030  1.00  0.00    -0.229 C  
HETATM   16  C   UNL     1     -10.326   8.812  71.098  1.00  0.00    -0.246 C  
BRANCH  14  17
HETATM   17  C   UNL     1     -12.683   8.958  71.708  1.00  0.00    -0.364 C  
BRANCH  17  18
HETATM   18  C   UNL     1     -13.280  10.336  72.079  1.00  0.00    -0.411 C  
BRANCH  18  19
HETATM   19  O   UNL     1     -12.846  11.386  71.163  1.00  0.00    -0.380 OA 
BRANCH  19  20
HETATM   20  C   UNL     1     -13.080  12.632  71.647  1.00  0.00    -0.323 C  
HETATM   21  O   UNL     1     -13.830  12.846  72.602  1.00  0.00    -0.596 OA 
BRANCH  20  22
HETATM   22  C   UNL     1     -12.344  13.763  70.986  1.00  0.00    -0.452 A  
HETATM   23  C   UNL     1     -12.213  14.888  71.836  1.00  0.00    -0.424 A  
HETATM   24  C   UNL     1     -11.589  16.057  71.420  1.00  0.00    -0.520 A  
HETATM   25  C   UNL     1     -11.064  16.122  70.138  1.00  0.00    -0.373 A  
HETATM   26  C   UNL     1     -11.169  15.020  69.283  1.00  0.00    -0.297 A  
HETATM   27  C   UNL     1     -11.811  13.822  69.670  1.00  0.00    -0.333 A  
BRANCH  27  28
HETATM   28  N   UNL     1     -11.961  12.787  68.723  1.00  0.00    -0.289 NA 
HETATM   29  H   UNL     1     -12.160  11.880  69.148  1.00  0.00     0.000 HD 
BRANCH  28  30
HETATM   30  C   UNL     1     -11.895  12.737  67.300  1.00  0.00    -0.350 A  
HETATM   31  C   UNL     1     -11.146  11.707  66.681  1.00  0.00    -0.364 A  
HETATM   32  C   UNL     1     -10.734  10.570  67.395  1.00  0.00    -0.334 A  
HETATM   33  C   UNL     1      -9.886   9.628  66.823  1.00  0.00    -0.270 A  
HETATM   34  C   UNL     1      -9.403   9.816  65.530  1.00  0.00    -0.299 A  
HETATM   35  C   UNL     1      -9.916  10.890  64.774  1.00  0.00    -0.366 A  
HETATM   36  C   UNL     1      -8.321   8.898  65.008  1.00  0.00    -0.165 C  
HETATM   37  C   UNL     1     -10.814  11.815  65.311  1.00  0.00    -0.290 A  
HETATM   38  F   UNL     1      -7.925   7.970  65.929  1.00  0.00    -0.090 F  
HETATM   39  F   UNL     1      -8.687   8.189  63.908  1.00  0.00    -0.033 F  
HETATM   40  F   UNL     1      -7.186   9.572  64.669  1.00  0.00    -0.098 F  
HETATM   41  N   UNL     1     -11.315  12.799  64.548  1.00  0.00    -0.318 NA 
HETATM   42  C   UNL     1     -12.150  13.697  65.130  1.00  0.00    -0.403 A  
HETATM   43  C   UNL     1     -12.447  13.721  66.490  1.00  0.00    -0.356 A  
ENDBRANCH  28  30
ENDBRANCH  27  28
ENDBRANCH  20  22
ENDBRANCH  19  20
ENDBRANCH  18  19
ENDBRANCH  17  18
ENDBRANCH  14  17
ENDBRANCH   7  11
TORSDOF 8
ENDMDL
MODEL       24
REMARK 921   NORMALIZED FREE ENERGY PREDICTED BY IDOCK:   -7.49 KCAL/MOL
REMARK 922        TOTAL FREE ENERGY PREDICTED BY IDOCK:  -14.39 KCAL/MOL
REMARK 923 INTER-LIGAND FREE ENERGY PREDICTED BY IDOCK:  -11.36 KCAL/MOL
REMARK 924 INTRA-LIGAND FREE ENERGY PREDICTED BY IDOCK:   -3.02 KCAL/MOL
REMARK 927      BINDING AFFINITY PREDICTED BY RF-SCORE:    0.00 PKD
ROOT
HETATM    1  F   UNL     1     -11.112  11.929  62.883  1.00  0.00    -0.288 F  
HETATM    2  C   UNL     1     -12.051  12.606  63.601  1.00  0.00    -0.547 C  
HETATM    3  C   UNL     1     -11.547  13.145  64.917  1.00  0.00    -0.356 A  
HETATM    4  F   UNL     1     -12.520  13.584  62.777  1.00  0.00    -0.445 F  
HETATM    5  F   UNL     1     -13.087  11.735  63.767  1.00  0.00    -0.577 F  
HETATM    6  C   UNL     1     -10.217  12.938  65.335  1.00  0.00    -0.301 A  
HETATM    7  C   UNL     1      -9.788  13.351  66.602  1.00  0.00    -0.278 A  
HETATM    8  C   UNL     1     -12.439  13.824  65.761  1.00  0.00    -0.527 A  
HETATM    9  C   UNL     1     -10.707  14.044  67.408  1.00  0.00    -0.285 A  
HETATM   10  C   UNL     1     -12.017  14.283  67.001  1.00  0.00    -0.463 A  
ENDROOT
BRANCH   7  11
HETATM   11  N   UNL     1      -8.526  13.076  67.137  1.00  0.00    -0.191 NA 
HETATM   12  C   UNL     1      -6.365  11.878  67.328  1.00  0.00    -0.143 C  
HETATM   13  C   UNL     1      -7.828  11.819  66.801  1.00  0.00    -0.103 C  
HETATM   14  N   UNL     1      -6.219  12.175  68.781  1.00  0.00    -0.066 NA 
HETATM   15  C   UNL     1      -8.440  13.425  68.575  1.00  0.00    -0.079 C  
HETATM   16  C   UNL     1      -6.962  13.441  69.031  1.00  0.00    -0.084 C  
BRANCH  14  17
HETATM   17  C   UNL     1      -6.732  11.094  69.655  1.00  0.00    -0.134 C  
BRANCH  17  18
HETATM   18  C   UNL     1      -5.989   9.741  69.551  1.00  0.00    -0.037 C  
BRANCH  18  19
HETATM   19  O   UNL     1      -6.691   8.794  68.692  1.00  0.00    -0.057 OA 
BRANCH  19  20
HETATM   20  C   UNL     1      -7.526   7.979  69.385  1.00  0.00    -0.096 C  
HETATM   21  O   UNL     1      -7.353   7.704  70.575  1.00  0.00    -0.071 OA 
BRANCH  20  22
HETATM   22  C   UNL     1      -8.717   7.443  68.643  1.00  0.00    -0.128 A  
HETATM   23  C   UNL     1      -8.393   7.048  67.321  1.00  0.00    -0.122 A  
HETATM   24  C   UNL     1      -9.349   6.547  66.447  1.00  0.00    -0.175 A  
HETATM   25  C   UNL     1     -10.658   6.414  66.884  1.00  0.00    -0.379 A  
HETATM   26  C   UNL     1     -11.002   6.785  68.188  1.00  0.00    -0.277 A  
HETATM   27  C   UNL     1     -10.057   7.312  69.097  1.00  0.00    -0.183 A  
BRANCH  27  28
HETATM   28  N   UNL     1     -10.495   7.750  70.364  1.00  0.00    -0.217 NA 
HETATM   29  H   UNL     1      -9.753   7.755  71.065  1.00  0.00     0.000 HD 
BRANCH  28  30
HETATM   30  C   UNL     1     -11.752   8.188  70.875  1.00  0.00    -0.244 A  
HETATM   31  C   UNL     1     -12.060   9.570  70.854  1.00  0.00    -0.357 A  
HETATM   32  C   UNL     1     -11.320  10.474  70.075  1.00  0.00    -0.392 A  
HETATM   33  C   UNL     1     -11.537  11.845  70.161  1.00  0.00    -0.252 A  
HETATM   34  C   UNL     1     -12.482  12.349  71.053  1.00  0.00    -0.353 A  
HETATM   35  C   UNL     1     -13.308  11.434  71.739  1.00  0.00    -0.368 A  
HETATM   36  C   UNL     1     -12.553  13.841  71.285  1.00  0.00    -0.362 C  
HETATM   37  C   UNL     1     -13.145  10.052  71.622  1.00  0.00    -0.445 A  
HETATM   38  F   UNL     1     -11.618  14.532  70.567  1.00  0.00    -0.299 F  
HETATM   39  F   UNL     1     -13.750  14.391  70.953  1.00  0.00    -0.390 F  
HETATM   40  F   UNL     1     -12.325  14.176  72.586  1.00  0.00    -0.296 F  
HETATM   41  N   UNL     1     -13.978   9.213  72.256  1.00  0.00    -0.451 NA 
HETATM   42  C   UNL     1     -13.749   7.880  72.144  1.00  0.00    -0.133 A  
HETATM   43  C   UNL     1     -12.649   7.327  71.492  1.00  0.00    -0.415 A  
ENDBRANCH  28  30
ENDBRANCH  27  28
ENDBRANCH  20  22
ENDBRANCH  19  20
ENDBRANCH  18  19
ENDBRANCH  17  18
ENDBRANCH  14  17
ENDBRANCH   7  11
TORSDOF 8
ENDMDL
MODEL       25
REMARK 921   NORMALIZED FREE ENERGY PREDICTED BY IDOCK:   -7.38 KCAL/MOL
REMARK 922        TOTAL FREE ENERGY PREDICTED BY IDOCK:  -14.23 KCAL/MOL
REMARK 923 INTER-LIGAND FREE ENERGY PREDICTED BY IDOCK:  -12.21 KCAL/MOL
REMARK 924 INTRA-LIGAND FREE ENERGY PREDICTED BY IDOCK:   -2.03 KCAL/MOL
REMARK 927      BINDING AFFINITY PREDICTED BY RF-SCORE:    0.00 PKD
ROOT
HETATM    1  F   UNL     1      -6.218   4.453  67.584  1.00  0.00    -0.031 F  
HETATM    2  C   UNL     1      -7.196   4.097  68.463  1.00  0.00    -0.055 C  
HETATM    3  C   UNL     1      -8.436   4.952  68.380  1.00  0.00    -0.095 A  
HETATM    4  F   UNL     1      -7.449   2.779  68.229  1.00  0.00    -0.051 F  
HETATM    5  F   UNL     1      -6.619   4.148  69.697  1.00  0.00    -0.030 F  
HETATM    6  C   UNL     1      -8.532   6.021  67.466  1.00  0.00    -0.107 A  
HETATM    7  C   UNL     1      -9.643   6.872  67.469  1.00  0.00    -0.128 A  
HETATM    8  C   UNL     1      -9.494   4.704  69.267  1.00  0.00    -0.231 A  
HETATM    9  C   UNL     1     -10.690   6.578  68.361  1.00  0.00    -0.339 A  
HETATM   10  C   UNL     1     -10.624   5.509  69.250  1.00  0.00    -0.325 A  
ENDROOT
BRANCH   7  11
HETATM   11  N   UNL     1      -9.759   8.023  66.682  1.00  0.00    -0.229 NA 
HETATM   12  C   UNL     1      -9.119   9.606  64.888  1.00  0.00    -0.232 C  
HETATM   13  C   UNL     1      -8.641   8.456  65.821  1.00  0.00    -0.159 C  
HETATM   14  N   UNL     1      -9.725  10.781  65.574  1.00  0.00    -0.223 NA 
HETATM   15  C   UNL     1     -10.400   9.139  67.416  1.00  0.00    -0.264 C  
HETATM   16  C   UNL     1     -10.825  10.251  66.427  1.00  0.00     0.045 C  
BRANCH  14  17
HETATM   17  C   UNL     1      -8.756  11.543  66.396  1.00  0.00    -0.179 C  
BRANCH  17  18
HETATM   18  C   UNL     1      -9.172  12.991  66.747  1.00  0.00    -0.228 C  
BRANCH  18  19
HETATM   19  O   UNL     1      -9.917  13.626  65.665  1.00  0.00    -0.288 OA 
BRANCH  19  20
HETATM   20  C   UNL     1     -10.957  14.372  66.114  1.00  0.00    -0.320 C  
HETATM   21  O   UNL     1     -12.123  14.165  65.772  1.00  0.00    -0.386 OA 
BRANCH  20  22
HETATM   22  C   UNL     1     -10.632  15.463  67.095  1.00  0.00    -0.305 A  
HETATM   23  C   UNL     1      -9.549  16.268  66.663  1.00  0.00    -0.264 A  
HETATM   24  C   UNL     1      -9.063  17.320  67.429  1.00  0.00    -0.227 A  
HETATM   25  C   UNL     1      -9.664  17.603  68.646  1.00  0.00    -0.332 A  
HETATM   26  C   UNL     1     -10.743  16.831  69.089  1.00  0.00    -0.329 A  
HETATM   27  C   UNL     1     -11.251  15.745  68.343  1.00  0.00    -0.362 A  
BRANCH  27  28
HETATM   28  N   UNL     1     -12.281  14.954  68.895  1.00  0.00    -0.578 NA 
HETATM   29  H   UNL     1     -12.884  14.530  68.189  1.00  0.00     0.000 HD 
BRANCH  28  30
HETATM   30  C   UNL     1     -12.657  14.620  70.229  1.00  0.00    -0.318 A  
HETATM   31  C   UNL     1     -12.525  13.280  70.667  1.00  0.00    -0.373 A  
HETATM   32  C   UNL     1     -11.756  12.347  69.952  1.00  0.00    -0.339 A  
HETATM   33  C   UNL     1     -11.739  11.004  70.307  1.00  0.00    -0.445 A  
HETATM   34  C   UNL     1     -12.517  10.551  71.372  1.00  0.00    -0.516 A  
HETATM   35  C   UNL     1     -13.187  11.508  72.163  1.00  0.00    -0.315 A  
HETATM   36  C   UNL     1     -12.650   9.064  71.607  1.00  0.00    -0.348 C  
HETATM   37  C   UNL     1     -13.170  12.870  71.857  1.00  0.00    -0.423 A  
HETATM   38  F   UNL     1     -11.971   8.320  70.683  1.00  0.00    -0.273 F  
HETATM   39  F   UNL     1     -12.186   8.657  72.818  1.00  0.00    -0.444 F  
HETATM   40  F   UNL     1     -13.942   8.639  71.528  1.00  0.00    -0.393 F  
HETATM   41  N   UNL     1     -13.784  13.755  72.657  1.00  0.00    -0.722 NA 
HETATM   42  C   UNL     1     -13.774  15.062  72.291  1.00  0.00    -0.468 A  
HETATM   43  C   UNL     1     -13.250  15.534  71.090  1.00  0.00    -0.576 A  
ENDBRANCH  28  30
ENDBRANCH  27  28
ENDBRANCH  20  22
ENDBRANCH  19  20
ENDBRANCH  18  19
ENDBRANCH  17  18
ENDBRANCH  14  17
ENDBRANCH   7  11
TORSDOF 8
ENDMDL
MODEL       26
REMARK 921   NORMALIZED FREE ENERGY PREDICTED BY IDOCK:   -7.37 KCAL/MOL
REMARK 922        TOTAL FREE ENERGY PREDICTED BY IDOCK:  -14.22 KCAL/MOL
REMARK 923 INTER-LIGAND FREE ENERGY PREDICTED BY IDOCK:  -11.31 KCAL/MOL
REMARK 924 INTRA-LIGAND FREE ENERGY PREDICTED BY IDOCK:   -2.91 KCAL/MOL
REMARK 927      BINDING AFFINITY PREDICTED BY RF-SCORE:    0.00 PKD
ROOT
HETATM    1  F   UNL     1     -13.030  14.909  73.788  1.00  0.00    -0.570 F  
HETATM    2  C   UNL     1     -12.812  15.254  72.488  1.00  0.00    -0.374 C  
HETATM    3  C   UNL     1     -12.632  14.077  71.562  1.00  0.00    -0.432 A  
HETATM    4  F   UNL     1     -13.859  16.049  72.131  1.00  0.00    -0.487 F  
HETATM    5  F   UNL     1     -11.718  16.068  72.501  1.00  0.00    -0.478 F  
HETATM    6  C   UNL     1     -12.683  12.751  72.040  1.00  0.00    -0.133 A  
HETATM    7  C   UNL     1     -12.412  11.670  71.193  1.00  0.00    -0.307 A  
HETATM    8  C   UNL     1     -12.360  14.313  70.206  1.00  0.00    -0.418 A  
HETATM    9  C   UNL     1     -12.162  11.949  69.838  1.00  0.00    -0.269 A  
HETATM   10  C   UNL     1     -12.136  13.250  69.343  1.00  0.00    -0.301 A  
ENDROOT
BRANCH   7  11
HETATM   11  N   UNL     1     -12.322  10.340  71.614  1.00  0.00    -0.384 NA 
HETATM   12  C   UNL     1     -11.165   8.224  72.181  1.00  0.00    -0.345 C  
HETATM   13  C   UNL     1     -11.075   9.575  71.414  1.00  0.00    -0.368 C  
HETATM   14  N   UNL     1     -12.346   7.377  71.854  1.00  0.00    -0.312 NA 
HETATM   15  C   UNL     1     -13.542   9.566  71.287  1.00  0.00    -0.232 C  
HETATM   16  C   UNL     1     -13.549   8.229  72.067  1.00  0.00    -0.324 C  
BRANCH  14  17
HETATM   17  C   UNL     1     -12.325   6.852  70.469  1.00  0.00    -0.123 C  
BRANCH  17  18
HETATM   18  C   UNL     1     -10.980   6.241  70.006  1.00  0.00    -0.358 C  
BRANCH  18  19
HETATM   19  O   UNL     1     -10.529   6.805  68.739  1.00  0.00    -0.185 OA 
BRANCH  19  20
HETATM   20  C   UNL     1      -9.281   7.333  68.816  1.00  0.00    -0.137 C  
HETATM   21  O   UNL     1      -8.696   7.505  69.887  1.00  0.00    -0.138 OA 
BRANCH  20  22
HETATM   22  C   UNL     1      -8.609   7.671  67.515  1.00  0.00    -0.119 A  
HETATM   23  C   UNL     1      -8.673   6.604  66.584  1.00  0.00    -0.126 A  
HETATM   24  C   UNL     1      -8.093   6.690  65.325  1.00  0.00    -0.130 A  
HETATM   25  C   UNL     1      -7.445   7.860  64.959  1.00  0.00    -0.088 A  
HETATM   26  C   UNL     1      -7.379   8.932  65.855  1.00  0.00    -0.093 A  
HETATM   27  C   UNL     1      -7.945   8.872  67.148  1.00  0.00    -0.096 A  
BRANCH  27  28
HETATM   28  N   UNL     1      -7.759   9.958  68.030  1.00  0.00    -0.086 NA 
HETATM   29  H   UNL     1      -7.420   9.674  68.950  1.00  0.00     0.000 HD 
BRANCH  28  30
HETATM   30  C   UNL     1      -7.944  11.366  67.910  1.00  0.00    -0.120 A  
HETATM   31  C   UNL     1      -9.111  11.856  67.276  1.00  0.00    -0.178 A  
HETATM   32  C   UNL     1     -10.222  11.029  67.046  1.00  0.00    -0.250 A  
HETATM   33  C   UNL     1     -11.310  11.474  66.304  1.00  0.00    -0.222 A  
HETATM   34  C   UNL     1     -11.301  12.751  65.745  1.00  0.00    -0.357 A  
HETATM   35  C   UNL     1     -10.243  13.620  66.082  1.00  0.00    -0.306 A  
HETATM   36  C   UNL     1     -12.390  13.136  64.770  1.00  0.00    -0.423 C  
HETATM   37  C   UNL     1      -9.168  13.211  66.875  1.00  0.00    -0.236 A  
HETATM   38  F   UNL     1     -13.275  12.120  64.538  1.00  0.00    -0.498 F  
HETATM   39  F   UNL     1     -13.143  14.191  65.178  1.00  0.00    -0.431 F  
HETATM   40  F   UNL     1     -11.898  13.468  63.544  1.00  0.00    -0.462 F  
HETATM   41  N   UNL     1      -8.201  14.079  67.210  1.00  0.00    -0.186 NA 
HETATM   42  C   UNL     1      -7.158  13.619  67.946  1.00  0.00    -0.149 A  
HETATM   43  C   UNL     1      -6.975  12.283  68.295  1.00  0.00    -0.082 A  
ENDBRANCH  28  30
ENDBRANCH  27  28
ENDBRANCH  20  22
ENDBRANCH  19  20
ENDBRANCH  18  19
ENDBRANCH  17  18
ENDBRANCH  14  17
ENDBRANCH   7  11
TORSDOF 8
ENDMDL
MODEL       27
REMARK 921   NORMALIZED FREE ENERGY PREDICTED BY IDOCK:   -7.30 KCAL/MOL
REMARK 922        TOTAL FREE ENERGY PREDICTED BY IDOCK:  -14.11 KCAL/MOL
REMARK 923 INTER-LIGAND FREE ENERGY PREDICTED BY IDOCK:  -11.32 KCAL/MOL
REMARK 924 INTRA-LIGAND FREE ENERGY PREDICTED BY IDOCK:   -2.79 KCAL/MOL
REMARK 927      BINDING AFFINITY PREDICTED BY RF-SCORE:    0.00 PKD
ROOT
HETATM    1  F   UNL     1      -8.027  19.668  69.190  1.00  0.00    -0.392 F  
HETATM    2  C   UNL     1      -9.249  19.321  68.699  1.00  0.00    -0.385 C  
HETATM    3  C   UNL     1      -9.389  17.853  68.382  1.00  0.00    -0.290 A  
HETATM    4  F   UNL     1     -10.158  19.749  69.620  1.00  0.00    -0.478 F  
HETATM    5  F   UNL     1      -9.442  20.104  67.600  1.00  0.00    -0.425 F  
HETATM    6  C   UNL     1      -8.322  16.953  68.581  1.00  0.00    -0.261 A  
HETATM    7  C   UNL     1      -8.427  15.614  68.186  1.00  0.00    -0.147 A  
HETATM    8  C   UNL     1     -10.592  17.387  67.831  1.00  0.00    -0.383 A  
HETATM    9  C   UNL     1      -9.656  15.184  67.657  1.00  0.00    -0.206 A  
HETATM   10  C   UNL     1     -10.730  16.052  67.479  1.00  0.00    -0.314 A  
ENDROOT
BRANCH   7  11
HETATM   11  N   UNL     1      -7.377  14.692  68.236  1.00  0.00    -0.108 NA 
HETATM   12  C   UNL     1      -6.195  12.584  67.690  1.00  0.00    -0.141 C  
HETATM   13  C   UNL     1      -7.569  13.313  67.742  1.00  0.00    -0.161 C  
HETATM   14  N   UNL     1      -5.427  12.570  68.966  1.00  0.00    -0.066 NA 
HETATM   15  C   UNL     1      -6.636  14.755  69.517  1.00  0.00    -0.153 C  
HETATM   16  C   UNL     1      -5.297  13.991  69.395  1.00  0.00    -0.082 C  
BRANCH  14  17
HETATM   17  C   UNL     1      -6.072  11.766  70.030  1.00  0.00    -0.158 C  
BRANCH  17  18
HETATM   18  C   UNL     1      -6.576  10.369  69.599  1.00  0.00    -0.085 C  
BRANCH  18  19
HETATM   19  O   UNL     1      -7.611   9.859  70.491  1.00  0.00    -0.251 OA 
BRANCH  19  20
HETATM   20  C   UNL     1      -7.744   8.511  70.423  1.00  0.00    -0.080 C  
HETATM   21  O   UNL     1      -7.266   7.751  71.267  1.00  0.00    -0.059 OA 
BRANCH  20  22
HETATM   22  C   UNL     1      -8.546   7.968  69.274  1.00  0.00    -0.137 A  
HETATM   23  C   UNL     1      -7.923   6.850  68.665  1.00  0.00    -0.120 A  
HETATM   24  C   UNL     1      -8.478   6.206  67.567  1.00  0.00    -0.108 A  
HETATM   25  C   UNL     1      -9.686   6.659  67.058  1.00  0.00    -0.197 A  
HETATM   26  C   UNL     1     -10.328   7.752  67.649  1.00  0.00    -0.305 A  
HETATM   27  C   UNL     1      -9.783   8.439  68.757  1.00  0.00    -0.164 A  
BRANCH  27  28
HETATM   28  N   UNL     1     -10.439   9.591  69.242  1.00  0.00    -0.205 NA 
HETATM   29  H   UNL     1     -10.075  10.457  68.844  1.00  0.00     0.000 HD 
BRANCH  28  30
HETATM   30  C   UNL     1     -11.502   9.801  70.168  1.00  0.00    -0.216 A  
HETATM   31  C   UNL     1     -11.996  11.113  70.363  1.00  0.00    -0.469 A  
HETATM   32  C   UNL     1     -11.698  12.150  69.464  1.00  0.00    -0.402 A  
HETATM   33  C   UNL     1     -12.069  13.463  69.729  1.00  0.00    -0.374 A  
HETATM   34  C   UNL     1     -12.723  13.778  70.919  1.00  0.00    -0.394 A  
HETATM   35  C   UNL     1     -13.131  12.721  71.758  1.00  0.00    -0.455 A  
HETATM   36  C   UNL     1     -12.927  15.231  71.284  1.00  0.00    -0.441 C  
HETATM   37  C   UNL     1     -12.818  11.388  71.480  1.00  0.00    -0.403 A  
HETATM   38  F   UNL     1     -12.396  16.087  70.361  1.00  0.00    -0.380 F  
HETATM   39  F   UNL     1     -14.233  15.588  71.406  1.00  0.00    -0.542 F  
HETATM   40  F   UNL     1     -12.328  15.560  72.462  1.00  0.00    -0.368 F  
HETATM   41  N   UNL     1     -13.261  10.405  72.279  1.00  0.00    -0.320 NA 
HETATM   42  C   UNL     1     -12.892   9.132  71.988  1.00  0.00    -0.408 A  
HETATM   43  C   UNL     1     -12.007   8.786  70.971  1.00  0.00    -0.291 A  
ENDBRANCH  28  30
ENDBRANCH  27  28
ENDBRANCH  20  22
ENDBRANCH  19  20
ENDBRANCH  18  19
ENDBRANCH  17  18
ENDBRANCH  14  17
ENDBRANCH   7  11
TORSDOF 8
ENDMDL
MODEL       28
REMARK 921   NORMALIZED FREE ENERGY PREDICTED BY IDOCK:   -7.27 KCAL/MOL
REMARK 922        TOTAL FREE ENERGY PREDICTED BY IDOCK:  -14.08 KCAL/MOL
REMARK 923 INTER-LIGAND FREE ENERGY PREDICTED BY IDOCK:  -12.08 KCAL/MOL
REMARK 924 INTRA-LIGAND FREE ENERGY PREDICTED BY IDOCK:   -2.00 KCAL/MOL
REMARK 927      BINDING AFFINITY PREDICTED BY RF-SCORE:    0.00 PKD
ROOT
HETATM    1  F   UNL     1      -9.686   5.505  65.944  1.00  0.00    -0.174 F  
HETATM    2  C   UNL     1      -9.237   4.360  66.527  1.00  0.00    -0.142 C  
HETATM    3  C   UNL     1      -9.487   4.290  68.014  1.00  0.00    -0.212 A  
HETATM    4  F   UNL     1      -9.825   3.337  65.847  1.00  0.00    -0.121 F  
HETATM    5  F   UNL     1      -7.909   4.288  66.227  1.00  0.00    -0.090 F  
HETATM    6  C   UNL     1     -10.124   5.342  68.703  1.00  0.00    -0.246 A  
HETATM    7  C   UNL     1     -10.257   5.314  70.096  1.00  0.00    -0.280 A  
HETATM    8  C   UNL     1      -9.029   3.173  68.729  1.00  0.00    -0.188 A  
HETATM    9  C   UNL     1      -9.803   4.168  70.772  1.00  0.00    -0.248 A  
HETATM   10  C   UNL     1      -9.197   3.107  70.105  1.00  0.00    -0.219 A  
ENDROOT
BRANCH   7  11
HETATM   11  N   UNL     1     -10.764   6.367  70.863  1.00  0.00    -0.239 NA 
HETATM   12  C   UNL     1     -12.465   8.012  71.597  1.00  0.00    -0.320 C  
HETATM   13  C   UNL     1     -12.003   7.061  70.456  1.00  0.00    -0.266 C  
HETATM   14  N   UNL     1     -11.450   9.000  72.060  1.00  0.00    -0.367 NA 
HETATM   15  C   UNL     1      -9.699   7.292  71.316  1.00  0.00    -0.166 C  
HETATM   16  C   UNL     1     -10.238   8.219  72.431  1.00  0.00    -0.327 C  
BRANCH  14  17
HETATM   17  C   UNL     1     -11.115  10.018  71.037  1.00  0.00    -0.271 C  
BRANCH  17  18
HETATM   18  C   UNL     1     -12.303  10.865  70.522  1.00  0.00    -0.374 C  
BRANCH  18  19
HETATM   19  O   UNL     1     -12.440  10.793  69.071  1.00  0.00    -0.379 OA 
BRANCH  19  20
HETATM   20  C   UNL     1     -11.720  11.748  68.430  1.00  0.00    -0.325 C  
HETATM   21  O   UNL     1     -11.797  12.945  68.714  1.00  0.00    -0.306 OA 
BRANCH  20  22
HETATM   22  C   UNL     1     -10.774  11.276  67.362  1.00  0.00    -0.285 A  
HETATM   23  C   UNL     1     -10.810   9.869  67.195  1.00  0.00    -0.227 A  
HETATM   24  C   UNL     1      -9.997   9.215  66.278  1.00  0.00    -0.352 A  
HETATM   25  C   UNL     1      -9.134   9.961  65.490  1.00  0.00    -0.232 A  
HETATM   26  C   UNL     1      -9.088  11.352  65.626  1.00  0.00    -0.173 A  
HETATM   27  C   UNL     1      -9.890  12.047  66.559  1.00  0.00    -0.209 A  
BRANCH  27  28
HETATM   28  N   UNL     1      -9.723  13.440  66.705  1.00  0.00    -0.268 NA 
HETATM   29  H   UNL     1      -9.206  13.696  67.546  1.00  0.00     0.000 HD 
BRANCH  28  30
HETATM   30  C   UNL     1     -10.123  14.566  65.928  1.00  0.00    -0.326 A  
HETATM   31  C   UNL     1      -9.772  15.866  66.366  1.00  0.00    -0.310 A  
HETATM   32  C   UNL     1      -8.793  16.067  67.352  1.00  0.00    -0.197 A  
HETATM   33  C   UNL     1      -8.548  17.330  67.877  1.00  0.00    -0.223 A  
HETATM   34  C   UNL     1      -9.300  18.423  67.451  1.00  0.00    -0.275 A  
HETATM   35  C   UNL     1     -10.192  18.241  66.374  1.00  0.00    -0.417 A  
HETATM   36  C   UNL     1      -9.166  19.740  68.182  1.00  0.00    -0.325 C  
HETATM   37  C   UNL     1     -10.411  16.990  65.793  1.00  0.00    -0.261 A  
HETATM   38  F   UNL     1      -8.295  19.674  69.233  1.00  0.00    -0.377 F  
HETATM   39  F   UNL     1      -8.721  20.758  67.400  1.00  0.00    -0.415 F  
HETATM   40  F   UNL     1     -10.345  20.158  68.720  1.00  0.00    -0.533 F  
HETATM   41  N   UNL     1     -11.235  16.863  64.742  1.00  0.00    -0.807 NA 
HETATM   42  C   UNL     1     -11.446  15.618  64.243  1.00  0.00    -0.193 A  
HETATM   43  C   UNL     1     -10.937  14.452  64.808  1.00  0.00    -0.409 A  
ENDBRANCH  28  30
ENDBRANCH  27  28
ENDBRANCH  20  22
ENDBRANCH  19  20
ENDBRANCH  18  19
ENDBRANCH  17  18
ENDBRANCH  14  17
ENDBRANCH   7  11
TORSDOF 8
ENDMDL
MODEL       29
REMARK 921   NORMALIZED FREE ENERGY PREDICTED BY IDOCK:   -7.26 KCAL/MOL
REMARK 922        TOTAL FREE ENERGY PREDICTED BY IDOCK:  -14.05 KCAL/MOL
REMARK 923 INTER-LIGAND FREE ENERGY PREDICTED BY IDOCK:  -11.93 KCAL/MOL
REMARK 924 INTRA-LIGAND FREE ENERGY PREDICTED BY IDOCK:   -2.12 KCAL/MOL
REMARK 927      BINDING AFFINITY PREDICTED BY RF-SCORE:    0.00 PKD
ROOT
HETATM    1  F   UNL     1      -5.726   9.108  64.105  1.00  0.00    -0.065 F  
HETATM    2  C   UNL     1      -6.769   9.777  63.540  1.00  0.00    -0.117 C  
HETATM    3  C   UNL     1      -7.954   9.953  64.457  1.00  0.00    -0.145 A  
HETATM    4  F   UNL     1      -6.261  10.963  63.104  1.00  0.00    -0.104 F  
HETATM    5  F   UNL     1      -7.091   9.077  62.415  1.00  0.00    -0.101 F  
HETATM    6  C   UNL     1      -7.947   9.447  65.773  1.00  0.00    -0.110 A  
HETATM    7  C   UNL     1      -9.088   9.524  66.580  1.00  0.00    -0.151 A  
HETATM    8  C   UNL     1      -9.104  10.592  63.969  1.00  0.00    -0.246 A  
HETATM    9  C   UNL     1     -10.212  10.189  66.059  1.00  0.00    -0.288 A  
HETATM   10  C   UNL     1     -10.228  10.720  64.773  1.00  0.00    -0.403 A  
ENDROOT
BRANCH   7  11
HETATM   11  N   UNL     1      -9.202   8.941  67.845  1.00  0.00    -0.138 NA 
HETATM   12  C   UNL     1     -10.316   7.660  69.650  1.00  0.00    -0.213 C  
HETATM   13  C   UNL     1     -10.513   8.475  68.340  1.00  0.00    -0.171 C  
HETATM   14  N   UNL     1      -9.576   8.361  70.737  1.00  0.00    -0.167 NA 
HETATM   15  C   UNL     1      -8.416   9.667  68.869  1.00  0.00    -0.125 C  
HETATM   16  C   UNL     1      -8.282   8.807  70.148  1.00  0.00    -0.117 C  
BRANCH  14  17
HETATM   17  C   UNL     1     -10.314   9.517  71.297  1.00  0.00    -0.217 C  
BRANCH  17  18
HETATM   18  C   UNL     1     -11.837   9.316  71.472  1.00  0.00    -0.374 C  
BRANCH  18  19
HETATM   19  O   UNL     1     -12.530  10.574  71.733  1.00  0.00    -0.373 OA 
BRANCH  19  20
HETATM   20  C   UNL     1     -12.401  11.463  70.717  1.00  0.00    -0.386 C  
HETATM   21  O   UNL     1     -12.269  11.117  69.541  1.00  0.00    -0.323 OA 
BRANCH  20  22
HETATM   22  C   UNL     1     -12.466  12.919  71.081  1.00  0.00    -0.344 A  
HETATM   23  C   UNL     1     -13.423  13.177  72.093  1.00  0.00    -0.653 A  
HETATM   24  C   UNL     1     -13.667  14.460  72.566  1.00  0.00    -0.589 A  
HETATM   25  C   UNL     1     -12.943  15.521  72.043  1.00  0.00    -0.517 A  
HETATM   26  C   UNL     1     -11.982  15.291  71.053  1.00  0.00    -0.395 A  
HETATM   27  C   UNL     1     -11.720  14.001  70.540  1.00  0.00    -0.192 A  
BRANCH  27  28
HETATM   28  N   UNL     1     -10.804  13.858  69.476  1.00  0.00    -0.447 NA 
HETATM   29  H   UNL     1      -9.961  13.346  69.739  1.00  0.00     0.000 HD 
BRANCH  28  30
HETATM   30  C   UNL     1     -10.805  14.276  68.113  1.00  0.00    -0.244 A  
HETATM   31  C   UNL     1     -10.254  15.536  67.779  1.00  0.00    -0.243 A  
HETATM   32  C   UNL     1      -9.437  16.241  68.678  1.00  0.00    -0.228 A  
HETATM   33  C   UNL     1      -9.011  17.535  68.402  1.00  0.00    -0.276 A  
HETATM   34  C   UNL     1      -9.416  18.170  67.230  1.00  0.00    -0.260 A  
HETATM   35  C   UNL     1     -10.130  17.417  66.275  1.00  0.00    -0.328 A  
HETATM   36  C   UNL     1      -9.120  19.642  67.049  1.00  0.00    -0.326 C  
HETATM   37  C   UNL     1     -10.519  16.097  66.508  1.00  0.00    -0.297 A  
HETATM   38  F   UNL     1      -8.478  20.187  68.125  1.00  0.00    -0.336 F  
HETATM   39  F   UNL     1      -8.332  19.915  65.976  1.00  0.00    -0.336 F  
HETATM   40  F   UNL     1     -10.251  20.385  66.894  1.00  0.00    -0.549 F  
HETATM   41  N   UNL     1     -11.159  15.398  65.558  1.00  0.00    -0.323 NA 
HETATM   42  C   UNL     1     -11.553  14.133  65.852  1.00  0.00    -0.348 A  
HETATM   43  C   UNL     1     -11.421  13.544  67.107  1.00  0.00    -0.368 A  
ENDBRANCH  28  30
ENDBRANCH  27  28
ENDBRANCH  20  22
ENDBRANCH  19  20
ENDBRANCH  18  19
ENDBRANCH  17  18
ENDBRANCH  14  17
ENDBRANCH   7  11
TORSDOF 8
ENDMDL
MODEL       30
REMARK 921   NORMALIZED FREE ENERGY PREDICTED BY IDOCK:   -7.24 KCAL/MOL
REMARK 922        TOTAL FREE ENERGY PREDICTED BY IDOCK:  -14.02 KCAL/MOL
REMARK 923 INTER-LIGAND FREE ENERGY PREDICTED BY IDOCK:  -10.88 KCAL/MOL
REMARK 924 INTRA-LIGAND FREE ENERGY PREDICTED BY IDOCK:   -3.15 KCAL/MOL
REMARK 927      BINDING AFFINITY PREDICTED BY RF-SCORE:    0.00 PKD
ROOT
HETATM    1  F   UNL     1     -12.638  12.726  63.812  1.00  0.00    -0.460 F  
HETATM    2  C   UNL     1     -12.215  13.607  64.761  1.00  0.00    -0.403 C  
HETATM    3  C   UNL     1     -10.982  13.161  65.506  1.00  0.00    -0.296 A  
HETATM    4  F   UNL     1     -12.040  14.795  64.120  1.00  0.00    -0.464 F  
HETATM    5  F   UNL     1     -13.279  13.790  65.595  1.00  0.00    -0.508 F  
HETATM    6  C   UNL     1     -10.355  11.930  65.221  1.00  0.00    -0.316 A  
HETATM    7  C   UNL     1      -9.275  11.478  65.988  1.00  0.00    -0.217 A  
HETATM    8  C   UNL     1     -10.479  13.969  66.537  1.00  0.00    -0.281 A  
HETATM    9  C   UNL     1      -8.790  12.327  66.998  1.00  0.00    -0.205 A  
HETATM   10  C   UNL     1      -9.378  13.558  67.275  1.00  0.00    -0.233 A  
ENDROOT
BRANCH   7  11
HETATM   11  N   UNL     1      -8.679  10.220  65.850  1.00  0.00    -0.151 NA 
HETATM   12  C   UNL     1      -7.993   8.165  64.647  1.00  0.00    -0.149 C  
HETATM   13  C   UNL     1      -8.958   9.387  64.663  1.00  0.00    -0.187 C  
HETATM   14  N   UNL     1      -7.999   7.326  65.878  1.00  0.00    -0.109 NA 
HETATM   15  C   UNL     1      -8.690   9.454  67.118  1.00  0.00    -0.128 C  
HETATM   16  C   UNL     1      -7.728   8.246  67.017  1.00  0.00    -0.096 C  
BRANCH  14  17
HETATM   17  C   UNL     1      -9.276   6.605  66.089  1.00  0.00    -0.087 C  
BRANCH  17  18
HETATM   18  C   UNL     1      -9.258   5.526  67.197  1.00  0.00    -0.111 C  
BRANCH  18  19
HETATM   19  O   UNL     1     -10.202   5.824  68.269  1.00  0.00    -0.157 OA 
BRANCH  19  20
HETATM   20  C   UNL     1      -9.768   5.398  69.482  1.00  0.00    -0.176 C  
HETATM   21  O   UNL     1     -10.002   4.267  69.913  1.00  0.00    -0.221 OA 
BRANCH  20  22
HETATM   22  C   UNL     1      -8.939   6.364  70.280  1.00  0.00    -0.154 A  
HETATM   23  C   UNL     1      -7.786   5.753  70.834  1.00  0.00    -0.105 A  
HETATM   24  C   UNL     1      -6.891   6.455  71.630  1.00  0.00    -0.067 A  
HETATM   25  C   UNL     1      -7.123   7.799  71.881  1.00  0.00    -0.067 A  
HETATM   26  C   UNL     1      -8.246   8.430  71.336  1.00  0.00    -0.172 A  
HETATM   27  C   UNL     1      -9.184   7.741  70.534  1.00  0.00    -0.162 A  
BRANCH  27  28
HETATM   28  N   UNL     1     -10.341   8.418  70.096  1.00  0.00    -0.206 NA 
HETATM   29  H   UNL     1     -10.287   8.716  69.121  1.00  0.00     0.000 HD 
BRANCH  28  30
HETATM   30  C   UNL     1     -11.571   8.773  70.724  1.00  0.00    -0.251 A  
HETATM   31  C   UNL     1     -11.981  10.128  70.716  1.00  0.00    -0.442 A  
HETATM   32  C   UNL     1     -11.391  11.068  69.856  1.00  0.00    -0.364 A  
HETATM   33  C   UNL     1     -11.699  12.421  69.945  1.00  0.00    -0.339 A  
HETATM   34  C   UNL     1     -12.585  12.873  70.921  1.00  0.00    -0.355 A  
HETATM   35  C   UNL     1     -13.270  11.915  71.697  1.00  0.00    -0.364 A  
HETATM   36  C   UNL     1     -12.743  14.361  71.140  1.00  0.00    -0.352 C  
HETATM   37  C   UNL     1     -13.017  10.547  71.583  1.00  0.00    -0.476 A  
HETATM   38  F   UNL     1     -11.938  15.103  70.323  1.00  0.00    -0.261 F  
HETATM   39  F   UNL     1     -14.005  14.816  70.922  1.00  0.00    -0.403 F  
HETATM   40  F   UNL     1     -12.413  14.738  72.406  1.00  0.00    -0.355 F  
HETATM   41  N   UNL     1     -13.719   9.662  72.308  1.00  0.00    -0.378 NA 
HETATM   42  C   UNL     1     -13.404   8.347  72.191  1.00  0.00    -0.315 A  
HETATM   43  C   UNL     1     -12.337   7.862  71.439  1.00  0.00    -0.334 A  
ENDBRANCH  28  30
ENDBRANCH  27  28
ENDBRANCH  20  22
ENDBRANCH  19  20
ENDBRANCH  18  19
ENDBRANCH  17  18
ENDBRANCH  14  17
ENDBRANCH   7  11
TORSDOF 8
ENDMDL
MODEL       31
REMARK 921   NORMALIZED FREE ENERGY PREDICTED BY IDOCK:   -7.23 KCAL/MOL
REMARK 922        TOTAL FREE ENERGY PREDICTED BY IDOCK:  -14.02 KCAL/MOL
REMARK 923 INTER-LIGAND FREE ENERGY PREDICTED BY IDOCK:  -10.35 KCAL/MOL
REMARK 924 INTRA-LIGAND FREE ENERGY PREDICTED BY IDOCK:   -3.67 KCAL/MOL
REMARK 927      BINDING AFFINITY PREDICTED BY RF-SCORE:    0.00 PKD
ROOT
HETATM    1  F   UNL     1      -9.693  20.026  68.642  1.00  0.00    -0.410 F  
HETATM    2  C   UNL     1     -10.318  19.512  67.546  1.00  0.00    -0.444 C  
HETATM    3  C   UNL     1      -9.832  18.140  67.149  1.00  0.00    -0.319 A  
HETATM    4  F   UNL     1     -11.650  19.537  67.827  1.00  0.00    -0.193 F  
HETATM    5  F   UNL     1     -10.133  20.427  66.552  1.00  0.00    -0.538 F  
HETATM    6  C   UNL     1      -8.813  17.483  67.871  1.00  0.00    -0.247 A  
HETATM    7  C   UNL     1      -8.298  16.257  67.434  1.00  0.00    -0.169 A  
HETATM    8  C   UNL     1     -10.376  17.528  66.010  1.00  0.00    -0.309 A  
HETATM    9  C   UNL     1      -8.883  15.670  66.298  1.00  0.00    -0.364 A  
HETATM   10  C   UNL     1      -9.910  16.290  65.591  1.00  0.00    -0.255 A  
ENDROOT
BRANCH   7  11
HETATM   11  N   UNL     1      -7.209  15.604  68.020  1.00  0.00    -0.121 NA 
HETATM   12  C   UNL     1      -5.390  13.928  68.162  1.00  0.00    -0.119 C  
HETATM   13  C   UNL     1      -6.744  14.306  67.493  1.00  0.00    -0.105 C  
HETATM   14  N   UNL     1      -5.395  13.907  69.651  1.00  0.00    -0.085 NA 
HETATM   15  C   UNL     1      -7.259  15.651  69.500  1.00  0.00    -0.198 C  
HETATM   16  C   UNL     1      -5.890  15.241  70.091  1.00  0.00    -0.140 C  
BRANCH  14  17
HETATM   17  C   UNL     1      -6.238  12.830  70.220  1.00  0.00     0.021 C  
BRANCH  17  18
HETATM   18  C   UNL     1      -6.058  11.433  69.581  1.00  0.00    -0.110 C  
BRANCH  18  19
HETATM   19  O   UNL     1      -7.337  10.810  69.255  1.00  0.00    -0.107 OA 
BRANCH  19  20
HETATM   20  C   UNL     1      -7.364  10.298  67.999  1.00  0.00    -0.086 C  
HETATM   21  O   UNL     1      -6.519  10.580  67.146  1.00  0.00    -0.068 OA 
BRANCH  20  22
HETATM   22  C   UNL     1      -8.464   9.323  67.690  1.00  0.00    -0.116 A  
HETATM   23  C   UNL     1      -8.435   8.193  68.545  1.00  0.00    -0.127 A  
HETATM   24  C   UNL     1      -9.346   7.152  68.421  1.00  0.00    -0.135 A  
HETATM   25  C   UNL     1     -10.324   7.225  67.440  1.00  0.00    -0.330 A  
HETATM   26  C   UNL     1     -10.382   8.336  66.592  1.00  0.00    -0.293 A  
HETATM   27  C   UNL     1      -9.462   9.404  66.682  1.00  0.00    -0.177 A  
BRANCH  27  28
HETATM   28  N   UNL     1      -9.524  10.446  65.732  1.00  0.00    -0.185 NA 
HETATM   29  H   UNL     1      -8.705  10.485  65.125  1.00  0.00     0.000 HD 
BRANCH  28  30
HETATM   30  C   UNL     1     -10.488  11.455  65.441  1.00  0.00    -0.280 A  
HETATM   31  C   UNL     1     -10.798  12.418  66.431  1.00  0.00    -0.291 A  
HETATM   32  C   UNL     1      -9.978  12.602  67.557  1.00  0.00    -0.205 A  
HETATM   33  C   UNL     1     -10.356  13.449  68.592  1.00  0.00    -0.213 A  
HETATM   34  C   UNL     1     -11.581  14.111  68.543  1.00  0.00    -0.351 A  
HETATM   35  C   UNL     1     -12.341  14.022  67.358  1.00  0.00    -0.150 A  
HETATM   36  C   UNL     1     -12.066  14.855  69.767  1.00  0.00    -0.314 C  
HETATM   37  C   UNL     1     -11.951  13.222  66.283  1.00  0.00    -0.417 A  
HETATM   38  F   UNL     1     -11.203  14.755  70.822  1.00  0.00    -0.294 F  
HETATM   39  F   UNL     1     -12.245  16.187  69.564  1.00  0.00    -0.280 F  
HETATM   40  F   UNL     1     -13.253  14.374  70.230  1.00  0.00    -0.339 F  
HETATM   41  N   UNL     1     -12.678  13.197  65.155  1.00  0.00    -0.659 NA 
HETATM   42  C   UNL     1     -12.279  12.370  64.156  1.00  0.00    -0.468 A  
HETATM   43  C   UNL     1     -11.217  11.474  64.259  1.00  0.00    -0.358 A  
ENDBRANCH  28  30
ENDBRANCH  27  28
ENDBRANCH  20  22
ENDBRANCH  19  20
ENDBRANCH  18  19
ENDBRANCH  17  18
ENDBRANCH  14  17
ENDBRANCH   7  11
TORSDOF 8
ENDMDL
MODEL       32
REMARK 921   NORMALIZED FREE ENERGY PREDICTED BY IDOCK:   -7.23 KCAL/MOL
REMARK 922        TOTAL FREE ENERGY PREDICTED BY IDOCK:  -14.01 KCAL/MOL
REMARK 923 INTER-LIGAND FREE ENERGY PREDICTED BY IDOCK:  -10.47 KCAL/MOL
REMARK 924 INTRA-LIGAND FREE ENERGY PREDICTED BY IDOCK:   -3.54 KCAL/MOL
REMARK 927      BINDING AFFINITY PREDICTED BY RF-SCORE:    0.00 PKD
ROOT
HETATM    1  F   UNL     1     -11.630  14.428  71.378  1.00  0.00    -0.350 F  
HETATM    2  C   UNL     1     -11.960  15.366  70.447  1.00  0.00    -0.354 C  
HETATM    3  C   UNL     1     -11.046  15.387  69.247  1.00  0.00    -0.280 A  
HETATM    4  F   UNL     1     -13.259  15.124  70.114  1.00  0.00    -0.253 F  
HETATM    5  F   UNL     1     -11.964  16.557  71.109  1.00  0.00    -0.377 F  
HETATM    6  C   UNL     1      -9.952  14.504  69.139  1.00  0.00    -0.114 A  
HETATM    7  C   UNL     1      -9.050  14.601  68.074  1.00  0.00    -0.189 A  
HETATM    8  C   UNL     1     -11.265  16.341  68.241  1.00  0.00    -0.324 A  
HETATM    9  C   UNL     1      -9.316  15.558  67.078  1.00  0.00    -0.239 A  
HETATM   10  C   UNL     1     -10.408  16.419  67.153  1.00  0.00    -0.290 A  
ENDROOT
BRANCH   7  11
HETATM   11  N   UNL     1      -7.878  13.848  67.959  1.00  0.00    -0.138 NA 
HETATM   12  C   UNL     1      -6.472  11.961  67.184  1.00  0.00    -0.146 C  
HETATM   13  C   UNL     1      -7.922  12.471  67.428  1.00  0.00    -0.180 C  
HETATM   14  N   UNL     1      -5.561  12.029  68.362  1.00  0.00    -0.052 NA 
HETATM   15  C   UNL     1      -7.005  13.988  69.148  1.00  0.00    -0.103 C  
HETATM   16  C   UNL     1      -5.592  13.440  68.838  1.00  0.00    -0.073 C  
BRANCH  14  17
HETATM   17  C   UNL     1      -5.947  11.106  69.455  1.00  0.00    -0.072 C  
BRANCH  17  18
HETATM   18  C   UNL     1      -6.756   9.861  69.024  1.00  0.00    -0.053 C  
BRANCH  18  19
HETATM   19  O   UNL     1      -7.513   9.287  70.132  1.00  0.00    -0.071 OA 
BRANCH  19  20
HETATM   20  C   UNL     1      -8.854   9.358  69.941  1.00  0.00    -0.199 C  
HETATM   21  O   UNL     1      -9.455  10.427  69.823  1.00  0.00    -0.154 OA 
BRANCH  20  22
HETATM   22  C   UNL     1      -9.591   8.052  69.837  1.00  0.00    -0.171 A  
HETATM   23  C   UNL     1      -9.271   7.169  70.899  1.00  0.00    -0.152 A  
HETATM   24  C   UNL     1      -9.818   5.896  70.988  1.00  0.00    -0.225 A  
HETATM   25  C   UNL     1     -10.717   5.479  70.018  1.00  0.00    -0.356 A  
HETATM   26  C   UNL     1     -11.060   6.336  68.967  1.00  0.00    -0.446 A  
HETATM   27  C   UNL     1     -10.510   7.631  68.839  1.00  0.00    -0.199 A  
BRANCH  27  28
HETATM   28  N   UNL     1     -10.831   8.404  67.703  1.00  0.00    -0.503 NA 
HETATM   29  H   UNL     1     -11.833   8.568  67.599  1.00  0.00     0.000 HD 
BRANCH  28  30
HETATM   30  C   UNL     1     -10.054   9.004  66.669  1.00  0.00    -0.285 A  
HETATM   31  C   UNL     1     -10.385  10.308  66.228  1.00  0.00    -0.256 A  
HETATM   32  C   UNL     1     -11.236  11.140  66.973  1.00  0.00    -0.291 A  
HETATM   33  C   UNL     1     -11.667  12.363  66.473  1.00  0.00    -0.443 A  
HETATM   34  C   UNL     1     -11.281  12.773  65.198  1.00  0.00    -0.327 A  
HETATM   35  C   UNL     1     -10.329  11.996  64.506  1.00  0.00    -0.334 A  
HETATM   36  C   UNL     1     -11.927  13.998  64.591  1.00  0.00    -0.430 C  
HETATM   37  C   UNL     1      -9.839  10.793  65.017  1.00  0.00    -0.288 A  
HETATM   38  F   UNL     1     -12.869  14.558  65.407  1.00  0.00    -0.410 F  
HETATM   39  F   UNL     1     -11.050  14.996  64.305  1.00  0.00    -0.280 F  
HETATM   40  F   UNL     1     -12.582  13.719  63.429  1.00  0.00    -0.459 F  
HETATM   41  N   UNL     1      -8.901  10.103  64.350  1.00  0.00    -0.193 NA 
HETATM   42  C   UNL     1      -8.490   8.917  64.869  1.00  0.00    -0.178 A  
HETATM   43  C   UNL     1      -9.047   8.323  65.999  1.00  0.00    -0.228 A  
ENDBRANCH  28  30
ENDBRANCH  27  28
ENDBRANCH  20  22
ENDBRANCH  19  20
ENDBRANCH  18  19
ENDBRANCH  17  18
ENDBRANCH  14  17
ENDBRANCH   7  11
TORSDOF 8
ENDMDL
MODEL       33
REMARK 921   NORMALIZED FREE ENERGY PREDICTED BY IDOCK:   -7.22 KCAL/MOL
REMARK 922        TOTAL FREE ENERGY PREDICTED BY IDOCK:  -13.99 KCAL/MOL
REMARK 923 INTER-LIGAND FREE ENERGY PREDICTED BY IDOCK:  -12.66 KCAL/MOL
REMARK 924 INTRA-LIGAND FREE ENERGY PREDICTED BY IDOCK:   -1.33 KCAL/MOL
REMARK 927      BINDING AFFINITY PREDICTED BY RF-SCORE:    0.00 PKD
ROOT
HETATM    1  F   UNL     1      -6.259  18.466  65.043  1.00  0.00    -0.287 F  
HETATM    2  C   UNL     1      -6.803  19.532  65.694  1.00  0.00    -0.290 C  
HETATM    3  C   UNL     1      -8.146  19.249  66.320  1.00  0.00    -0.322 A  
HETATM    4  F   UNL     1      -5.872  19.931  66.604  1.00  0.00    -0.172 F  
HETATM    5  F   UNL     1      -6.870  20.533  64.770  1.00  0.00    -0.327 F  
HETATM    6  C   UNL     1      -8.755  17.981  66.212  1.00  0.00    -0.194 A  
HETATM    7  C   UNL     1     -10.046  17.759  66.706  1.00  0.00    -0.349 A  
HETATM    8  C   UNL     1      -8.822  20.285  66.981  1.00  0.00    -0.427 A  
HETATM    9  C   UNL     1     -10.680  18.818  67.378  1.00  0.00    -0.487 A  
HETATM   10  C   UNL     1     -10.082  20.068  67.520  1.00  0.00    -0.565 A  
ENDROOT
BRANCH   7  11
HETATM   11  N   UNL     1     -10.765  16.572  66.531  1.00  0.00    -0.209 NA 
HETATM   12  C   UNL     1     -11.938  14.514  67.257  1.00  0.00    -0.344 C  
HETATM   13  C   UNL     1     -10.903  15.610  67.643  1.00  0.00    -0.307 C  
HETATM   14  N   UNL     1     -11.664  13.792  65.983  1.00  0.00    -0.347 NA 
HETATM   15  C   UNL     1     -10.470  15.925  65.231  1.00  0.00    -0.377 C  
HETATM   16  C   UNL     1     -11.524  14.835  64.928  1.00  0.00    -0.412 C  
BRANCH  14  17
HETATM   17  C   UNL     1     -10.448  12.948  66.037  1.00  0.00    -0.276 C  
BRANCH  17  18
HETATM   18  C   UNL     1     -10.629  11.558  66.692  1.00  0.00    -0.253 C  
BRANCH  18  19
HETATM   19  O   UNL     1     -10.328  11.579  68.119  1.00  0.00    -0.183 OA 
BRANCH  19  20
HETATM   20  C   UNL     1     -10.834  10.506  68.777  1.00  0.00    -0.231 C  
HETATM   21  O   UNL     1     -10.568   9.345  68.461  1.00  0.00    -0.213 OA 
BRANCH  20  22
HETATM   22  C   UNL     1     -11.721  10.793  69.956  1.00  0.00    -0.417 A  
HETATM   23  C   UNL     1     -11.953  12.180  70.128  1.00  0.00    -0.394 A  
HETATM   24  C   UNL     1     -12.724  12.673  71.172  1.00  0.00    -0.347 A  
HETATM   25  C   UNL     1     -13.299  11.782  72.066  1.00  0.00    -0.417 A  
HETATM   26  C   UNL     1     -13.096  10.407  71.910  1.00  0.00    -0.563 A  
HETATM   27  C   UNL     1     -12.305   9.874  70.868  1.00  0.00    -0.310 A  
BRANCH  27  28
HETATM   28  N   UNL     1     -12.068   8.483  70.828  1.00  0.00    -0.483 NA 
HETATM   29  H   UNL     1     -12.613   8.004  70.111  1.00  0.00     0.000 HD 
BRANCH  28  30
HETATM   30  C   UNL     1     -11.231   7.605  71.576  1.00  0.00    -0.246 A  
HETATM   31  C   UNL     1     -10.584   6.536  70.910  1.00  0.00    -0.275 A  
HETATM   32  C   UNL     1     -10.487   6.497  69.510  1.00  0.00    -0.265 A  
HETATM   33  C   UNL     1      -9.974   5.384  68.854  1.00  0.00    -0.247 A  
HETATM   34  C   UNL     1      -9.572   4.266  69.583  1.00  0.00    -0.275 A  
HETATM   35  C   UNL     1      -9.553   4.357  70.990  1.00  0.00    -0.249 A  
HETATM   36  C   UNL     1      -9.219   2.994  68.846  1.00  0.00    -0.163 C  
HETATM   37  C   UNL     1     -10.010   5.489  71.668  1.00  0.00    -0.182 A  
HETATM   38  F   UNL     1      -9.369   3.109  67.493  1.00  0.00    -0.182 F  
HETATM   39  F   UNL     1      -7.937   2.586  69.039  1.00  0.00    -0.049 F  
HETATM   40  F   UNL     1     -10.013   1.947  69.206  1.00  0.00    -0.088 F  
HETATM   41  N   UNL     1      -9.937   5.557  73.006  1.00  0.00    -0.172 NA 
HETATM   42  C   UNL     1     -10.435   6.661  73.618  1.00  0.00    -0.330 A  
HETATM   43  C   UNL     1     -11.104   7.688  72.957  1.00  0.00    -0.437 A  
ENDBRANCH  28  30
ENDBRANCH  27  28
ENDBRANCH  20  22
ENDBRANCH  19  20
ENDBRANCH  18  19
ENDBRANCH  17  18
ENDBRANCH  14  17
ENDBRANCH   7  11
TORSDOF 8
ENDMDL
MODEL       34
REMARK 921   NORMALIZED FREE ENERGY PREDICTED BY IDOCK:   -7.21 KCAL/MOL
REMARK 922        TOTAL FREE ENERGY PREDICTED BY IDOCK:  -13.99 KCAL/MOL
REMARK 923 INTER-LIGAND FREE ENERGY PREDICTED BY IDOCK:  -10.60 KCAL/MOL
REMARK 924 INTRA-LIGAND FREE ENERGY PREDICTED BY IDOCK:   -3.39 KCAL/MOL
REMARK 927      BINDING AFFINITY PREDICTED BY RF-SCORE:    0.00 PKD
ROOT
HETATM    1  F   UNL     1     -12.040   7.216  72.441  1.00  0.00    -0.289 F  
HETATM    2  C   UNL     1     -12.779   8.231  71.913  1.00  0.00    -0.342 C  
HETATM    3  C   UNL     1     -11.989   9.177  71.044  1.00  0.00    -0.344 A  
HETATM    4  F   UNL     1     -13.808   7.639  71.245  1.00  0.00    -0.391 F  
HETATM    5  F   UNL     1     -13.347   8.866  72.977  1.00  0.00    -0.445 F  
HETATM    6  C   UNL     1     -10.607   8.998  70.828  1.00  0.00    -0.300 A  
HETATM    7  C   UNL     1      -9.863   9.938  70.106  1.00  0.00    -0.219 A  
HETATM    8  C   UNL     1     -12.638  10.286  70.480  1.00  0.00    -0.338 A  
HETATM    9  C   UNL     1     -10.555  11.024  69.542  1.00  0.00    -0.182 A  
HETATM   10  C   UNL     1     -11.924  11.203  69.720  1.00  0.00    -0.428 A  
ENDROOT
BRANCH   7  11
HETATM   11  N   UNL     1      -8.474   9.897  69.953  1.00  0.00    -0.198 NA 
HETATM   12  C   UNL     1      -6.285  10.569  69.006  1.00  0.00    -0.044 C  
HETATM   13  C   UNL     1      -7.828  10.562  68.804  1.00  0.00    -0.116 C  
HETATM   14  N   UNL     1      -5.663   9.237  69.245  1.00  0.00    -0.035 NA 
HETATM   15  C   UNL     1      -7.919   8.554  70.238  1.00  0.00    -0.103 C  
HETATM   16  C   UNL     1      -6.383   8.636  70.403  1.00  0.00    -0.035 C  
BRANCH  14  17
HETATM   17  C   UNL     1      -5.735   8.337  68.070  1.00  0.00    -0.035 C  
BRANCH  17  18
HETATM   18  C   UNL     1      -5.614   9.028  66.692  1.00  0.00    -0.039 C  
BRANCH  18  19
HETATM   19  O   UNL     1      -5.929   8.120  65.593  1.00  0.00    -0.041 OA 
BRANCH  19  20
HETATM   20  C   UNL     1      -7.050   8.481  64.921  1.00  0.00    -0.080 C  
HETATM   21  O   UNL     1      -7.036   8.827  63.738  1.00  0.00    -0.087 OA 
BRANCH  20  22
HETATM   22  C   UNL     1      -8.345   8.406  65.679  1.00  0.00    -0.160 A  
HETATM   23  C   UNL     1      -8.478   7.191  66.396  1.00  0.00    -0.130 A  
HETATM   24  C   UNL     1      -9.610   6.898  67.146  1.00  0.00    -0.182 A  
HETATM   25  C   UNL     1     -10.636   7.829  67.209  1.00  0.00    -0.376 A  
HETATM   26  C   UNL     1     -10.525   9.041  66.521  1.00  0.00    -0.192 A  
HETATM   27  C   UNL     1      -9.394   9.363  65.737  1.00  0.00    -0.239 A  
BRANCH  27  28
HETATM   28  N   UNL     1      -9.391  10.564  64.996  1.00  0.00    -0.203 NA 
HETATM   29  H   UNL     1      -8.493  10.760  64.553  1.00  0.00     0.000 HD 
BRANCH  28  30
HETATM   30  C   UNL     1     -10.376  11.561  64.735  1.00  0.00    -0.289 A  
HETATM   31  C   UNL     1     -10.580  12.592  65.683  1.00  0.00    -0.299 A  
HETATM   32  C   UNL     1      -9.650  12.844  66.704  1.00  0.00    -0.257 A  
HETATM   33  C   UNL     1      -9.918  13.763  67.712  1.00  0.00    -0.242 A  
HETATM   34  C   UNL     1     -11.139  14.434  67.741  1.00  0.00    -0.299 A  
HETATM   35  C   UNL     1     -12.016  14.273  66.649  1.00  0.00    -0.454 A  
HETATM   36  C   UNL     1     -11.495  15.264  68.954  1.00  0.00    -0.332 C  
HETATM   37  C   UNL     1     -11.740  13.397  65.596  1.00  0.00    -0.346 A  
HETATM   38  F   UNL     1     -10.530  15.228  69.921  1.00  0.00    -0.238 F  
HETATM   39  F   UNL     1     -11.689  16.581  68.679  1.00  0.00    -0.320 F  
HETATM   40  F   UNL     1     -12.631  14.829  69.567  1.00  0.00    -0.289 F  
HETATM   41  N   UNL     1     -12.578  13.303  64.553  1.00  0.00    -0.646 NA 
HETATM   42  C   UNL     1     -12.285  12.405  63.577  1.00  0.00    -0.563 A  
HETATM   43  C   UNL     1     -11.221  11.508  63.634  1.00  0.00    -0.451 A  
ENDBRANCH  28  30
ENDBRANCH  27  28
ENDBRANCH  20  22
ENDBRANCH  19  20
ENDBRANCH  18  19
ENDBRANCH  17  18
ENDBRANCH  14  17
ENDBRANCH   7  11
TORSDOF 8
ENDMDL
MODEL       35
REMARK 921   NORMALIZED FREE ENERGY PREDICTED BY IDOCK:   -7.15 KCAL/MOL
REMARK 922        TOTAL FREE ENERGY PREDICTED BY IDOCK:  -13.90 KCAL/MOL
REMARK 923 INTER-LIGAND FREE ENERGY PREDICTED BY IDOCK:  -11.64 KCAL/MOL
REMARK 924 INTRA-LIGAND FREE ENERGY PREDICTED BY IDOCK:   -2.26 KCAL/MOL
REMARK 927      BINDING AFFINITY PREDICTED BY RF-SCORE:    0.00 PKD
ROOT
HETATM    1  F   UNL     1     -11.895  16.964  72.630  1.00  0.00    -0.566 F  
HETATM    2  C   UNL     1     -12.539  15.837  73.042  1.00  0.00    -0.483 C  
HETATM    3  C   UNL     1     -12.443  14.685  72.072  1.00  0.00    -0.407 A  
HETATM    4  F   UNL     1     -12.023  15.537  74.267  1.00  0.00    -0.577 F  
HETATM    5  F   UNL     1     -13.831  16.210  73.267  1.00  0.00    -0.673 F  
HETATM    6  C   UNL     1     -11.746  14.807  70.853  1.00  0.00    -0.360 A  
HETATM    7  C   UNL     1     -11.750  13.769  69.914  1.00  0.00    -0.284 A  
HETATM    8  C   UNL     1     -13.103  13.484  72.373  1.00  0.00    -0.494 A  
HETATM    9  C   UNL     1     -12.408  12.576  70.263  1.00  0.00    -0.265 A  
HETATM   10  C   UNL     1     -13.077  12.427  71.474  1.00  0.00    -0.362 A  
ENDROOT
BRANCH   7  11
HETATM   11  N   UNL     1     -11.190  13.857  68.636  1.00  0.00    -0.255 NA 
HETATM   12  C   UNL     1     -11.122  14.469  66.236  1.00  0.00    -0.332 C  
HETATM   13  C   UNL     1     -12.029  14.206  67.473  1.00  0.00    -0.384 C  
HETATM   14  N   UNL     1     -10.186  13.366  65.881  1.00  0.00    -0.294 NA 
HETATM   15  C   UNL     1     -10.244  12.749  68.362  1.00  0.00    -0.236 C  
HETATM   16  C   UNL     1      -9.396  13.071  67.109  1.00  0.00    -0.230 C  
BRANCH  14  17
HETATM   17  C   UNL     1     -10.874  12.144  65.404  1.00  0.00    -0.294 C  
BRANCH  17  18
HETATM   18  C   UNL     1      -9.949  11.007  64.909  1.00  0.00    -0.288 C  
BRANCH  18  19
HETATM   19  O   UNL     1     -10.098   9.793  65.704  1.00  0.00    -0.296 OA 
BRANCH  19  20
HETATM   20  C   UNL     1      -8.915   9.332  66.183  1.00  0.00    -0.165 C  
HETATM   21  O   UNL     1      -8.399   9.768  67.215  1.00  0.00    -0.120 OA 
BRANCH  20  22
HETATM   22  C   UNL     1      -8.262   8.219  65.414  1.00  0.00    -0.146 A  
HETATM   23  C   UNL     1      -7.176   8.676  64.627  1.00  0.00    -0.089 A  
HETATM   24  C   UNL     1      -6.444   7.820  63.815  1.00  0.00    -0.062 A  
HETATM   25  C   UNL     1      -6.775   6.473  63.783  1.00  0.00    -0.044 A  
HETATM   26  C   UNL     1      -7.835   5.995  64.560  1.00  0.00    -0.113 A  
HETATM   27  C   UNL     1      -8.608   6.841  65.385  1.00  0.00    -0.047 A  
BRANCH  27  28
HETATM   28  N   UNL     1      -9.720   6.305  66.069  1.00  0.00    -0.385 NA 
HETATM   29  H   UNL     1     -10.610   6.515  65.615  1.00  0.00     0.000 HD 
BRANCH  28  30
HETATM   30  C   UNL     1      -9.865   5.533  67.258  1.00  0.00    -0.150 A  
HETATM   31  C   UNL     1     -10.230   6.183  68.461  1.00  0.00    -0.221 A  
HETATM   32  C   UNL     1     -10.752   7.487  68.460  1.00  0.00    -0.115 A  
HETATM   33  C   UNL     1     -10.981   8.172  69.648  1.00  0.00    -0.094 A  
HETATM   34  C   UNL     1     -10.664   7.581  70.870  1.00  0.00    -0.244 A  
HETATM   35  C   UNL     1     -10.260   6.230  70.872  1.00  0.00    -0.236 A  
HETATM   36  C   UNL     1     -10.719   8.416  72.129  1.00  0.00    -0.337 C  
HETATM   37  C   UNL     1     -10.079   5.505  69.693  1.00  0.00    -0.239 A  
HETATM   38  F   UNL     1     -11.072   9.714  71.886  1.00  0.00    -0.422 F  
HETATM   39  F   UNL     1     -11.609   7.961  73.050  1.00  0.00    -0.430 F  
HETATM   40  F   UNL     1      -9.515   8.484  72.761  1.00  0.00    -0.319 F  
HETATM   41  N   UNL     1      -9.735   4.209  69.737  1.00  0.00    -0.215 NA 
HETATM   42  C   UNL     1      -9.530   3.562  68.561  1.00  0.00    -0.141 A  
HETATM   43  C   UNL     1      -9.560   4.179  67.313  1.00  0.00    -0.228 A  
ENDBRANCH  28  30
ENDBRANCH  27  28
ENDBRANCH  20  22
ENDBRANCH  19  20
ENDBRANCH  18  19
ENDBRANCH  17  18
ENDBRANCH  14  17
ENDBRANCH   7  11
TORSDOF 8
ENDMDL
MODEL       36
REMARK 921   NORMALIZED FREE ENERGY PREDICTED BY IDOCK:   -7.14 KCAL/MOL
REMARK 922        TOTAL FREE ENERGY PREDICTED BY IDOCK:  -13.87 KCAL/MOL
REMARK 923 INTER-LIGAND FREE ENERGY PREDICTED BY IDOCK:  -11.74 KCAL/MOL
REMARK 924 INTRA-LIGAND FREE ENERGY PREDICTED BY IDOCK:   -2.14 KCAL/MOL
REMARK 927      BINDING AFFINITY PREDICTED BY RF-SCORE:    0.00 PKD
ROOT
HETATM    1  F   UNL     1      -8.782  20.206  67.459  1.00  0.00    -0.353 F  
HETATM    2  C   UNL     1      -7.616  19.610  67.836  1.00  0.00    -0.296 C  
HETATM    3  C   UNL     1      -7.781  18.193  68.326  1.00  0.00    -0.291 A  
HETATM    4  F   UNL     1      -6.784  19.701  66.761  1.00  0.00    -0.192 F  
HETATM    5  F   UNL     1      -7.077  20.423  68.789  1.00  0.00    -0.293 F  
HETATM    6  C   UNL     1      -9.049  17.578  68.383  1.00  0.00    -0.276 A  
HETATM    7  C   UNL     1      -9.205  16.302  68.936  1.00  0.00    -0.249 A  
HETATM    8  C   UNL     1      -6.653  17.494  68.780  1.00  0.00    -0.216 A  
HETATM    9  C   UNL     1      -8.047  15.628  69.361  1.00  0.00    -0.227 A  
HETATM   10  C   UNL     1      -6.783  16.208  69.287  1.00  0.00    -0.198 A  
ENDROOT
BRANCH   7  11
HETATM   11  N   UNL     1     -10.438  15.675  69.141  1.00  0.00    -0.222 NA 
HETATM   12  C   UNL     1     -12.499  15.099  70.389  1.00  0.00    -0.368 C  
HETATM   13  C   UNL     1     -11.040  15.631  70.488  1.00  0.00    -0.355 C  
HETATM   14  N   UNL     1     -12.657  13.781  69.711  1.00  0.00    -0.151 NA 
HETATM   15  C   UNL     1     -10.540  14.389  68.413  1.00  0.00    -0.247 C  
HETATM   16  C   UNL     1     -12.011  13.913  68.376  1.00  0.00    -0.356 C  
BRANCH  14  17
HETATM   17  C   UNL     1     -12.056  12.658  70.467  1.00  0.00    -0.275 C  
BRANCH  17  18
HETATM   18  C   UNL     1     -11.789  11.371  69.652  1.00  0.00    -0.362 C  
BRANCH  18  19
HETATM   19  O   UNL     1     -11.050  10.376  70.422  1.00  0.00    -0.301 OA 
BRANCH  19  20
HETATM   20  C   UNL     1      -9.992   9.868  69.742  1.00  0.00    -0.243 C  
HETATM   21  O   UNL     1      -8.937  10.487  69.592  1.00  0.00    -0.103 OA 
BRANCH  20  22
HETATM   22  C   UNL     1     -10.144   8.475  69.199  1.00  0.00    -0.207 A  
HETATM   23  C   UNL     1     -11.057   7.700  69.957  1.00  0.00    -0.201 A  
HETATM   24  C   UNL     1     -11.331   6.374  69.648  1.00  0.00    -0.479 A  
HETATM   25  C   UNL     1     -10.703   5.792  68.556  1.00  0.00    -0.288 A  
HETATM   26  C   UNL     1      -9.808   6.539  67.784  1.00  0.00    -0.139 A  
HETATM   27  C   UNL     1      -9.496   7.885  68.080  1.00  0.00    -0.147 A  
BRANCH  27  28
HETATM   28  N   UNL     1      -8.514   8.547  67.314  1.00  0.00    -0.122 NA 
HETATM   29  H   UNL     1      -7.697   8.822  67.860  1.00  0.00     0.000 HD 
BRANCH  28  30
HETATM   30  C   UNL     1      -8.420   8.914  65.939  1.00  0.00    -0.136 A  
HETATM   31  C   UNL     1      -9.265   9.934  65.439  1.00  0.00    -0.264 A  
HETATM   32  C   UNL     1      -9.959  10.799  66.301  1.00  0.00    -0.272 A  
HETATM   33  C   UNL     1     -10.891  11.707  65.812  1.00  0.00    -0.334 A  
HETATM   34  C   UNL     1     -11.176  11.752  64.449  1.00  0.00    -0.383 A  
HETATM   35  C   UNL     1     -10.389  10.973  63.576  1.00  0.00    -0.402 A  
HETATM   36  C   UNL     1     -12.337  12.591  63.967  1.00  0.00    -0.469 C  
HETATM   37  C   UNL     1      -9.407  10.096  64.042  1.00  0.00    -0.287 A  
HETATM   38  F   UNL     1     -13.002  13.210  64.988  1.00  0.00    -0.488 F  
HETATM   39  F   UNL     1     -11.979  13.583  63.109  1.00  0.00    -0.500 F  
HETATM   40  F   UNL     1     -13.282  11.851  63.323  1.00  0.00    -0.595 F  
HETATM   41  N   UNL     1      -8.649   9.403  63.178  1.00  0.00    -0.210 NA 
HETATM   42  C   UNL     1      -7.739   8.532  63.684  1.00  0.00    -0.142 A  
HETATM   43  C   UNL     1      -7.605   8.240  65.039  1.00  0.00    -0.095 A  
ENDBRANCH  28  30
ENDBRANCH  27  28
ENDBRANCH  20  22
ENDBRANCH  19  20
ENDBRANCH  18  19
ENDBRANCH  17  18
ENDBRANCH  14  17
ENDBRANCH   7  11
TORSDOF 8
ENDMDL
MODEL       37
REMARK 921   NORMALIZED FREE ENERGY PREDICTED BY IDOCK:   -7.13 KCAL/MOL
REMARK 922        TOTAL FREE ENERGY PREDICTED BY IDOCK:  -13.86 KCAL/MOL
REMARK 923 INTER-LIGAND FREE ENERGY PREDICTED BY IDOCK:  -11.49 KCAL/MOL
REMARK 924 INTRA-LIGAND FREE ENERGY PREDICTED BY IDOCK:   -2.37 KCAL/MOL
REMARK 927      BINDING AFFINITY PREDICTED BY RF-SCORE:    0.00 PKD
ROOT
HETATM    1  F   UNL     1     -13.461   8.689  70.732  1.00  0.00    -0.052 F  
HETATM    2  C   UNL     1     -13.223   7.818  71.753  1.00  0.00    -0.318 C  
HETATM    3  C   UNL     1     -12.076   6.873  71.498  1.00  0.00    -0.401 A  
HETATM    4  F   UNL     1     -13.036   8.585  72.863  1.00  0.00    -0.327 F  
HETATM    5  F   UNL     1     -14.398   7.156  71.955  1.00  0.00    -0.471 F  
HETATM    6  C   UNL     1     -11.343   6.912  70.293  1.00  0.00    -0.373 A  
HETATM    7  C   UNL     1     -10.350   5.964  70.024  1.00  0.00    -0.244 A  
HETATM    8  C   UNL     1     -11.765   5.904  72.464  1.00  0.00    -0.288 A  
HETATM    9  C   UNL     1     -10.057   5.022  71.026  1.00  0.00    -0.297 A  
HETATM   10  C   UNL     1     -10.750   4.986  72.233  1.00  0.00    -0.246 A  
ENDROOT
BRANCH   7  11
HETATM   11  N   UNL     1      -9.667   5.859  68.808  1.00  0.00    -0.127 NA 
HETATM   12  C   UNL     1      -7.680   5.624  67.347  1.00  0.00    -0.100 C  
HETATM   13  C   UNL     1      -8.201   6.025  68.758  1.00  0.00    -0.104 C  
HETATM   14  N   UNL     1      -8.317   6.332  66.202  1.00  0.00    -0.124 NA 
HETATM   15  C   UNL     1     -10.372   6.557  67.708  1.00  0.00    -0.192 C  
HETATM   16  C   UNL     1      -9.786   6.127  66.343  1.00  0.00    -0.092 C  
BRANCH  14  17
HETATM   17  C   UNL     1      -8.000   7.779  66.159  1.00  0.00    -0.105 C  
BRANCH  17  18
HETATM   18  C   UNL     1      -8.699   8.583  65.037  1.00  0.00    -0.088 C  
BRANCH  18  19
HETATM   19  O   UNL     1      -9.828   9.359  65.540  1.00  0.00    -0.290 OA 
BRANCH  19  20
HETATM   20  C   UNL     1      -9.439  10.429  66.278  1.00  0.00    -0.171 C  
HETATM   21  O   UNL     1      -8.631  11.264  65.867  1.00  0.00    -0.167 OA 
BRANCH  20  22
HETATM   22  C   UNL     1     -10.074  10.582  67.631  1.00  0.00    -0.211 A  
HETATM   23  C   UNL     1      -9.333   9.931  68.649  1.00  0.00    -0.149 A  
HETATM   24  C   UNL     1      -9.751   9.922  69.973  1.00  0.00    -0.274 A  
HETATM   25  C   UNL     1     -10.920  10.583  70.316  1.00  0.00    -0.306 A  
HETATM   26  C   UNL     1     -11.663  11.245  69.333  1.00  0.00    -0.409 A  
HETATM   27  C   UNL     1     -11.274  11.260  67.975  1.00  0.00    -0.287 A  
BRANCH  27  28
HETATM   28  N   UNL     1     -12.122  11.869  67.024  1.00  0.00    -0.520 NA 
HETATM   29  H   UNL     1     -13.110  11.665  67.179  1.00  0.00     0.000 HD 
BRANCH  28  30
HETATM   30  C   UNL     1     -11.892  12.707  65.895  1.00  0.00    -0.444 A  
HETATM   31  C   UNL     1     -11.273  13.966  66.086  1.00  0.00    -0.303 A  
HETATM   32  C   UNL     1     -10.604  14.281  67.280  1.00  0.00    -0.278 A  
HETATM   33  C   UNL     1     -10.118  15.561  67.518  1.00  0.00    -0.241 A  
HETATM   34  C   UNL     1     -10.315  16.570  66.577  1.00  0.00    -0.307 A  
HETATM   35  C   UNL     1     -10.873  16.221  65.330  1.00  0.00    -0.310 A  
HETATM   36  C   UNL     1      -9.969  17.996  66.943  1.00  0.00    -0.340 C  
HETATM   37  C   UNL     1     -11.316  14.927  65.049  1.00  0.00    -0.398 A  
HETATM   38  F   UNL     1      -9.505  18.115  68.223  1.00  0.00    -0.266 F  
HETATM   39  F   UNL     1      -9.012  18.548  66.153  1.00  0.00    -0.295 F  
HETATM   40  F   UNL     1     -11.047  18.826  66.876  1.00  0.00    -0.404 F  
HETATM   41  N   UNL     1     -11.802  14.623  63.836  1.00  0.00    -0.242 NA 
HETATM   42  C   UNL     1     -12.259  13.362  63.629  1.00  0.00    -0.414 A  
HETATM   43  C   UNL     1     -12.345  12.388  64.621  1.00  0.00    -0.518 A  
ENDBRANCH  28  30
ENDBRANCH  27  28
ENDBRANCH  20  22
ENDBRANCH  19  20
ENDBRANCH  18  19
ENDBRANCH  17  18
ENDBRANCH  14  17
ENDBRANCH   7  11
TORSDOF 8
ENDMDL
MODEL       38
REMARK 921   NORMALIZED FREE ENERGY PREDICTED BY IDOCK:   -7.12 KCAL/MOL
REMARK 922        TOTAL FREE ENERGY PREDICTED BY IDOCK:  -13.85 KCAL/MOL
REMARK 923 INTER-LIGAND FREE ENERGY PREDICTED BY IDOCK:  -10.72 KCAL/MOL
REMARK 924 INTRA-LIGAND FREE ENERGY PREDICTED BY IDOCK:   -3.13 KCAL/MOL
REMARK 927      BINDING AFFINITY PREDICTED BY RF-SCORE:    0.00 PKD
ROOT
HETATM    1  F   UNL     1     -10.367   7.905  73.383  1.00  0.00    -0.375 F  
HETATM    2  C   UNL     1     -11.252   7.269  72.567  1.00  0.00    -0.301 C  
HETATM    3  C   UNL     1     -10.768   7.104  71.147  1.00  0.00    -0.252 A  
HETATM    4  F   UNL     1     -11.528   6.078  73.169  1.00  0.00    -0.257 F  
HETATM    5  F   UNL     1     -12.404   7.994  72.634  1.00  0.00    -0.333 F  
HETATM    6  C   UNL     1      -9.508   7.588  70.739  1.00  0.00    -0.163 A  
HETATM    7  C   UNL     1      -9.112   7.524  69.398  1.00  0.00    -0.142 A  
HETATM    8  C   UNL     1     -11.614   6.499  70.205  1.00  0.00    -0.473 A  
HETATM    9  C   UNL     1      -9.981   6.893  68.490  1.00  0.00    -0.149 A  
HETATM   10  C   UNL     1     -11.216   6.383  68.881  1.00  0.00    -0.385 A  
ENDROOT
BRANCH   7  11
HETATM   11  N   UNL     1      -7.938   8.089  68.893  1.00  0.00    -0.116 NA 
HETATM   12  C   UNL     1      -6.016   9.653  68.859  1.00  0.00    -0.042 C  
HETATM   13  C   UNL     1      -7.445   9.380  69.412  1.00  0.00    -0.080 C  
HETATM   14  N   UNL     1      -5.883   9.611  67.376  1.00  0.00    -0.044 NA 
HETATM   15  C   UNL     1      -7.855   7.984  67.417  1.00  0.00    -0.117 C  
HETATM   16  C   UNL     1      -6.415   8.290  66.941  1.00  0.00    -0.057 C  
BRANCH  14  17
HETATM   17  C   UNL     1      -6.605  10.709  66.692  1.00  0.00    -0.101 C  
BRANCH  17  18
HETATM   18  C   UNL     1      -6.278  12.137  67.190  1.00  0.00    -0.143 C  
BRANCH  18  19
HETATM   19  O   UNL     1      -7.484  12.919  67.445  1.00  0.00    -0.148 OA 
BRANCH  19  20
HETATM   20  C   UNL     1      -7.257  14.256  67.407  1.00  0.00    -0.112 C  
HETATM   21  O   UNL     1      -6.125  14.738  67.351  1.00  0.00    -0.338 OA 
BRANCH  20  22
HETATM   22  C   UNL     1      -8.468  15.145  67.397  1.00  0.00    -0.202 A  
HETATM   23  C   UNL     1      -8.391  16.169  68.373  1.00  0.00    -0.179 A  
HETATM   24  C   UNL     1      -9.413  17.091  68.557  1.00  0.00    -0.269 A  
HETATM   25  C   UNL     1     -10.539  17.019  67.751  1.00  0.00    -0.350 A  
HETATM   26  C   UNL     1     -10.635  16.026  66.770  1.00  0.00    -0.297 A  
HETATM   27  C   UNL     1      -9.620  15.064  66.568  1.00  0.00    -0.277 A  
BRANCH  27  28
HETATM   28  N   UNL     1      -9.826  14.036  65.624  1.00  0.00    -0.485 NA 
HETATM   29  H   UNL     1      -9.721  14.351  64.659  1.00  0.00     0.000 HD 
BRANCH  28  30
HETATM   30  C   UNL     1     -10.150  12.652  65.731  1.00  0.00    -0.271 A  
HETATM   31  C   UNL     1     -10.824  12.189  66.886  1.00  0.00    -0.291 A  
HETATM   32  C   UNL     1     -11.455  13.078  67.771  1.00  0.00    -0.359 A  
HETATM   33  C   UNL     1     -11.998  12.636  68.972  1.00  0.00    -0.282 A  
HETATM   34  C   UNL     1     -11.896  11.293  69.334  1.00  0.00    -0.424 A  
HETATM   35  C   UNL     1     -11.375  10.385  68.388  1.00  0.00    -0.292 A  
HETATM   36  C   UNL     1     -12.299  10.873  70.729  1.00  0.00    -0.390 C  
HETATM   37  C   UNL     1     -10.878  10.802  67.152  1.00  0.00    -0.277 A  
HETATM   38  F   UNL     1     -12.712  11.924  71.498  1.00  0.00    -0.449 F  
HETATM   39  F   UNL     1     -13.318   9.975  70.758  1.00  0.00    -0.431 F  
HETATM   40  F   UNL     1     -11.270  10.308  71.419  1.00  0.00    -0.376 F  
HETATM   41  N   UNL     1     -10.430   9.903  66.261  1.00  0.00    -0.154 NA 
HETATM   42  C   UNL     1      -9.918  10.364  65.092  1.00  0.00    -0.322 A  
HETATM   43  C   UNL     1      -9.737  11.712  64.795  1.00  0.00    -0.217 A  
ENDBRANCH  28  30
ENDBRANCH  27  28
ENDBRANCH  20  22
ENDBRANCH  19  20
ENDBRANCH  18  19
ENDBRANCH  17  18
ENDBRANCH  14  17
ENDBRANCH   7  11
TORSDOF 8
ENDMDL
MODEL       39
REMARK 921   NORMALIZED FREE ENERGY PREDICTED BY IDOCK:   -7.09 KCAL/MOL
REMARK 922        TOTAL FREE ENERGY PREDICTED BY IDOCK:  -13.80 KCAL/MOL
REMARK 923 INTER-LIGAND FREE ENERGY PREDICTED BY IDOCK:  -12.33 KCAL/MOL
REMARK 924 INTRA-LIGAND FREE ENERGY PREDICTED BY IDOCK:   -1.47 KCAL/MOL
REMARK 927      BINDING AFFINITY PREDICTED BY RF-SCORE:    0.00 PKD
ROOT
HETATM    1  F   UNL     1     -10.894  19.803  65.534  1.00  0.00    -0.588 F  
HETATM    2  C   UNL     1      -9.811  19.853  66.359  1.00  0.00    -0.459 C  
HETATM    3  C   UNL     1      -9.488  18.540  67.028  1.00  0.00    -0.292 A  
HETATM    4  F   UNL     1      -8.783  20.322  65.599  1.00  0.00    -0.280 F  
HETATM    5  F   UNL     1     -10.081  20.836  67.263  1.00  0.00    -0.583 F  
HETATM    6  C   UNL     1     -10.269  17.387  66.801  1.00  0.00    -0.318 A  
HETATM    7  C   UNL     1     -10.025  16.203  67.506  1.00  0.00    -0.243 A  
HETATM    8  C   UNL     1      -8.417  18.482  67.932  1.00  0.00    -0.292 A  
HETATM    9  C   UNL     1      -8.930  16.182  68.389  1.00  0.00    -0.196 A  
HETATM   10  C   UNL     1      -8.131  17.301  68.604  1.00  0.00    -0.261 A  
ENDROOT
BRANCH   7  11
HETATM   11  N   UNL     1     -10.825  15.059  67.430  1.00  0.00    -0.298 NA 
HETATM   12  C   UNL     1     -11.859  12.966  68.261  1.00  0.00    -0.330 C  
HETATM   13  C   UNL     1     -10.702  13.991  68.442  1.00  0.00    -0.251 C  
HETATM   14  N   UNL     1     -11.984  12.374  66.900  1.00  0.00    -0.575 NA 
HETATM   15  C   UNL     1     -10.933  14.543  66.045  1.00  0.00    -0.324 C  
HETATM   16  C   UNL     1     -12.086  13.516  65.949  1.00  0.00    -0.435 C  
BRANCH  14  17
HETATM   17  C   UNL     1     -10.846  11.498  66.535  1.00  0.00    -0.288 C  
BRANCH  17  18
HETATM   18  C   UNL     1     -10.090  10.856  67.721  1.00  0.00    -0.177 C  
BRANCH  18  19
HETATM   19  O   UNL     1     -10.772   9.671  68.230  1.00  0.00    -0.231 OA 
BRANCH  19  20
HETATM   20  C   UNL     1     -10.479   9.416  69.530  1.00  0.00    -0.218 C  
HETATM   21  O   UNL     1      -9.322   9.343  69.950  1.00  0.00    -0.183 OA 
BRANCH  20  22
HETATM   22  C   UNL     1     -11.643   9.260  70.467  1.00  0.00    -0.266 A  
HETATM   23  C   UNL     1     -12.019  10.488  71.065  1.00  0.00    -0.466 A  
HETATM   24  C   UNL     1     -13.056  10.572  71.985  1.00  0.00    -0.511 A  
HETATM   25  C   UNL     1     -13.756   9.422  72.319  1.00  0.00    -0.495 A  
HETATM   26  C   UNL     1     -13.413   8.199  71.733  1.00  0.00    -0.381 A  
HETATM   27  C   UNL     1     -12.354   8.077  70.806  1.00  0.00     0.044 A  
BRANCH  27  28
HETATM   28  N   UNL     1     -12.006   6.797  70.327  1.00  0.00    -0.609 NA 
HETATM   29  H   UNL     1     -12.798   6.283  69.941  1.00  0.00     0.000 HD 
BRANCH  28  30
HETATM   30  C   UNL     1     -10.782   6.068  70.267  1.00  0.00    -0.300 A  
HETATM   31  C   UNL     1     -10.317   5.604  69.012  1.00  0.00    -0.314 A  
HETATM   32  C   UNL     1     -10.844   6.097  67.808  1.00  0.00    -0.413 A  
HETATM   33  C   UNL     1     -10.484   5.544  66.584  1.00  0.00    -0.355 A  
HETATM   34  C   UNL     1      -9.609   4.461  66.536  1.00  0.00    -0.209 A  
HETATM   35  C   UNL     1      -8.987   4.051  67.734  1.00  0.00    -0.149 A  
HETATM   36  C   UNL     1      -9.398   3.742  65.223  1.00  0.00    -0.158 C  
HETATM   37  C   UNL     1      -9.291   4.633  68.966  1.00  0.00    -0.142 A  
HETATM   38  F   UNL     1     -10.149   4.265  64.208  1.00  0.00    -0.175 F  
HETATM   39  F   UNL     1      -8.113   3.773  64.781  1.00  0.00    -0.087 F  
HETATM   40  F   UNL     1      -9.750   2.427  65.287  1.00  0.00    -0.078 F  
HETATM   41  N   UNL     1      -8.646   4.246  70.078  1.00  0.00    -0.068 NA 
HETATM   42  C   UNL     1      -9.010   4.812  71.257  1.00  0.00    -0.129 A  
HETATM   43  C   UNL     1     -10.074   5.699  71.403  1.00  0.00    -0.254 A  
ENDBRANCH  28  30
ENDBRANCH  27  28
ENDBRANCH  20  22
ENDBRANCH  19  20
ENDBRANCH  18  19
ENDBRANCH  17  18
ENDBRANCH  14  17
ENDBRANCH   7  11
TORSDOF 8
ENDMDL
MODEL       40
REMARK 921   NORMALIZED FREE ENERGY PREDICTED BY IDOCK:   -7.03 KCAL/MOL
REMARK 922        TOTAL FREE ENERGY PREDICTED BY IDOCK:  -13.72 KCAL/MOL
REMARK 923 INTER-LIGAND FREE ENERGY PREDICTED BY IDOCK:  -10.18 KCAL/MOL
REMARK 924 INTRA-LIGAND FREE ENERGY PREDICTED BY IDOCK:   -3.54 KCAL/MOL
REMARK 927      BINDING AFFINITY PREDICTED BY RF-SCORE:    0.00 PKD
ROOT
HETATM    1  F   UNL     1     -12.555   9.001  70.587  1.00  0.00    -0.178 F  
HETATM    2  C   UNL     1     -12.955   9.793  71.621  1.00  0.00    -0.419 C  
HETATM    3  C   UNL     1     -12.887  11.270  71.323  1.00  0.00    -0.491 A  
HETATM    4  F   UNL     1     -14.211   9.379  71.946  1.00  0.00    -0.341 F  
HETATM    5  F   UNL     1     -12.167   9.446  72.678  1.00  0.00    -0.292 F  
HETATM    6  C   UNL     1     -12.436  11.750  70.076  1.00  0.00    -0.135 A  
HETATM    7  C   UNL     1     -12.277  13.121  69.847  1.00  0.00    -0.225 A  
HETATM    8  C   UNL     1     -13.236  12.184  72.330  1.00  0.00    -0.286 A  
HETATM    9  C   UNL     1     -12.656  14.003  70.875  1.00  0.00    -0.431 A  
HETATM   10  C   UNL     1     -13.131  13.549  72.102  1.00  0.00    -0.487 A  
ENDROOT
BRANCH   7  11
HETATM   11  N   UNL     1     -11.722  13.670  68.687  1.00  0.00    -0.332 NA 
HETATM   12  C   UNL     1     -11.637  14.253  66.281  1.00  0.00    -0.372 C  
HETATM   13  C   UNL     1     -12.274  13.331  67.360  1.00  0.00    -0.186 C  
HETATM   14  N   UNL     1     -10.148  14.251  66.233  1.00  0.00    -0.288 NA 
HETATM   15  C   UNL     1     -10.240  13.667  68.721  1.00  0.00    -0.149 C  
HETATM   16  C   UNL     1      -9.681  14.584  67.608  1.00  0.00    -0.215 C  
BRANCH  14  17
HETATM   17  C   UNL     1      -9.576  12.957  65.794  1.00  0.00    -0.074 C  
BRANCH  17  18
HETATM   18  C   UNL     1     -10.348  12.236  64.663  1.00  0.00    -0.301 C  
BRANCH  18  19
HETATM   19  O   UNL     1     -10.330  10.786  64.825  1.00  0.00    -0.321 OA 
BRANCH  19  20
HETATM   20  C   UNL     1      -9.403  10.183  64.038  1.00  0.00    -0.287 C  
HETATM   21  O   UNL     1      -9.573   9.995  62.832  1.00  0.00    -0.267 OA 
BRANCH  20  22
HETATM   22  C   UNL     1      -8.116   9.780  64.700  1.00  0.00    -0.148 A  
HETATM   23  C   UNL     1      -7.036   9.723  63.784  1.00  0.00    -0.119 A  
HETATM   24  C   UNL     1      -5.757   9.346  64.175  1.00  0.00    -0.072 A  
HETATM   25  C   UNL     1      -5.525   9.030  65.505  1.00  0.00    -0.038 A  
HETATM   26  C   UNL     1      -6.571   9.091  66.432  1.00  0.00    -0.067 A  
HETATM   27  C   UNL     1      -7.885   9.455  66.064  1.00  0.00    -0.099 A  
BRANCH  27  28
HETATM   28  N   UNL     1      -8.909   9.404  67.034  1.00  0.00    -0.127 NA 
HETATM   29  H   UNL     1      -9.123  10.316  67.440  1.00  0.00     0.000 HD 
BRANCH  28  30
HETATM   30  C   UNL     1      -9.707   8.351  67.568  1.00  0.00    -0.162 A  
HETATM   31  C   UNL     1      -9.778   8.184  68.972  1.00  0.00    -0.163 A  
HETATM   32  C   UNL     1      -9.352   9.192  69.852  1.00  0.00    -0.198 A  
HETATM   33  C   UNL     1      -9.295   8.974  71.224  1.00  0.00    -0.324 A  
HETATM   34  C   UNL     1      -9.634   7.728  71.749  1.00  0.00    -0.204 A  
HETATM   35  C   UNL     1     -10.180   6.762  70.879  1.00  0.00    -0.215 A  
HETATM   36  C   UNL     1      -9.364   7.446  73.210  1.00  0.00    -0.200 C  
HETATM   37  C   UNL     1     -10.300   6.982  69.505  1.00  0.00    -0.213 A  
HETATM   38  F   UNL     1      -8.771   8.498  73.850  1.00  0.00    -0.283 F  
HETATM   39  F   UNL     1     -10.481   7.161  73.929  1.00  0.00    -0.365 F  
HETATM   40  F   UNL     1      -8.515   6.396  73.388  1.00  0.00    -0.120 F  
HETATM   41  N   UNL     1     -10.864   6.056  68.714  1.00  0.00    -0.313 NA 
HETATM   42  C   UNL     1     -10.917   6.302  67.381  1.00  0.00    -0.356 A  
HETATM   43  C   UNL     1     -10.338   7.410  66.765  1.00  0.00    -0.321 A  
ENDBRANCH  28  30
ENDBRANCH  27  28
ENDBRANCH  20  22
ENDBRANCH  19  20
ENDBRANCH  18  19
ENDBRANCH  17  18
ENDBRANCH  14  17
ENDBRANCH   7  11
TORSDOF 8
ENDMDL
MODEL       41
REMARK 921   NORMALIZED FREE ENERGY PREDICTED BY IDOCK:   -7.01 KCAL/MOL
REMARK 922        TOTAL FREE ENERGY PREDICTED BY IDOCK:  -13.69 KCAL/MOL
REMARK 923 INTER-LIGAND FREE ENERGY PREDICTED BY IDOCK:  -10.62 KCAL/MOL
REMARK 924 INTRA-LIGAND FREE ENERGY PREDICTED BY IDOCK:   -3.07 KCAL/MOL
REMARK 927      BINDING AFFINITY PREDICTED BY RF-SCORE:    0.00 PKD
ROOT
HETATM    1  F   UNL     1     -12.911  14.640  74.136  1.00  0.00    -0.466 F  
HETATM    2  C   UNL     1     -12.868  15.554  73.127  1.00  0.00    -0.497 C  
HETATM    3  C   UNL     1     -12.701  14.947  71.756  1.00  0.00    -0.401 A  
HETATM    4  F   UNL     1     -14.008  16.291  73.239  1.00  0.00    -0.696 F  
HETATM    5  F   UNL     1     -11.848  16.402  73.439  1.00  0.00    -0.525 F  
HETATM    6  C   UNL     1     -12.593  13.552  71.577  1.00  0.00    -0.358 A  
HETATM    7  C   UNL     1     -12.334  13.007  70.315  1.00  0.00    -0.241 A  
HETATM    8  C   UNL     1     -12.602  15.796  70.643  1.00  0.00    -0.371 A  
HETATM    9  C   UNL     1     -12.261  13.890  69.223  1.00  0.00    -0.319 A  
HETATM   10  C   UNL     1     -12.394  15.267  69.376  1.00  0.00    -0.168 A  
ENDROOT
BRANCH   7  11
HETATM   11  N   UNL     1     -12.092  11.650  70.075  1.00  0.00    -0.324 NA 
HETATM   12  C   UNL     1     -11.724   9.278  70.689  1.00  0.00    -0.222 C  
HETATM   13  C   UNL     1     -11.691  10.755  71.179  1.00  0.00    -0.056 C  
HETATM   14  N   UNL     1     -10.916   8.988  69.472  1.00  0.00    -0.165 NA 
HETATM   15  C   UNL     1     -11.313  11.432  68.833  1.00  0.00    -0.270 C  
HETATM   16  C   UNL     1     -11.373   9.942  68.423  1.00  0.00     0.016 C  
BRANCH  14  17
HETATM   17  C   UNL     1      -9.457   9.122  69.692  1.00  0.00    -0.172 C  
BRANCH  17  18
HETATM   18  C   UNL     1      -8.603   9.303  68.415  1.00  0.00    -0.124 C  
BRANCH  18  19
HETATM   19  O   UNL     1      -8.332   8.032  67.751  1.00  0.00    -0.126 OA 
BRANCH  19  20
HETATM   20  C   UNL     1      -9.113   7.836  66.659  1.00  0.00    -0.161 C  
HETATM   21  O   UNL     1     -10.197   7.251  66.710  1.00  0.00    -0.249 OA 
BRANCH  20  22
HETATM   22  C   UNL     1      -8.613   8.405  65.361  1.00  0.00    -0.193 A  
HETATM   23  C   UNL     1      -7.507   7.683  64.848  1.00  0.00    -0.092 A  
HETATM   24  C   UNL     1      -6.870   8.051  63.670  1.00  0.00    -0.075 A  
HETATM   25  C   UNL     1      -7.337   9.149  62.965  1.00  0.00    -0.098 A  
HETATM   26  C   UNL     1      -8.436   9.872  63.443  1.00  0.00    -0.182 A  
HETATM   27  C   UNL     1      -9.097   9.533  64.644  1.00  0.00    -0.210 A  
BRANCH  27  28
HETATM   28  N   UNL     1     -10.138  10.362  65.112  1.00  0.00    -0.316 NA 
HETATM   29  H   UNL     1     -10.805   9.871  65.709  1.00  0.00     0.000 HD 
BRANCH  28  30
HETATM   30  C   UNL     1     -10.457  11.740  64.930  1.00  0.00    -0.287 A  
HETATM   31  C   UNL     1      -9.834  12.706  65.756  1.00  0.00    -0.236 A  
HETATM   32  C   UNL     1      -8.699  12.394  66.522  1.00  0.00    -0.059 A  
HETATM   33  C   UNL     1      -8.173  13.302  67.433  1.00  0.00    -0.185 A  
HETATM   34  C   UNL     1      -8.788  14.538  67.625  1.00  0.00    -0.189 A  
HETATM   35  C   UNL     1      -9.849  14.896  66.767  1.00  0.00    -0.254 A  
HETATM   36  C   UNL     1      -8.331  15.420  68.764  1.00  0.00    -0.182 C  
HETATM   37  C   UNL     1     -10.355  14.020  65.805  1.00  0.00    -0.319 A  
HETATM   38  F   UNL     1      -7.337  14.848  69.508  1.00  0.00    -0.152 F  
HETATM   39  F   UNL     1      -7.844  16.624  68.365  1.00  0.00    -0.170 F  
HETATM   40  F   UNL     1      -9.331  15.686  69.650  1.00  0.00    -0.252 F  
HETATM   41  N   UNL     1     -11.336  14.412  64.977  1.00  0.00    -0.355 NA 
HETATM   42  C   UNL     1     -11.822  13.508  64.090  1.00  0.00    -0.437 A  
HETATM   43  C   UNL     1     -11.436  12.170  64.044  1.00  0.00    -0.488 A  
ENDBRANCH  28  30
ENDBRANCH  27  28
ENDBRANCH  20  22
ENDBRANCH  19  20
ENDBRANCH  18  19
ENDBRANCH  17  18
ENDBRANCH  14  17
ENDBRANCH   7  11
TORSDOF 8
ENDMDL
MODEL       42
REMARK 921   NORMALIZED FREE ENERGY PREDICTED BY IDOCK:   -7.01 KCAL/MOL
REMARK 922        TOTAL FREE ENERGY PREDICTED BY IDOCK:  -13.69 KCAL/MOL
REMARK 923 INTER-LIGAND FREE ENERGY PREDICTED BY IDOCK:  -10.16 KCAL/MOL
REMARK 924 INTRA-LIGAND FREE ENERGY PREDICTED BY IDOCK:   -3.53 KCAL/MOL
REMARK 927      BINDING AFFINITY PREDICTED BY RF-SCORE:    0.00 PKD
ROOT
HETATM    1  F   UNL     1     -10.906  15.196  71.034  1.00  0.00    -0.329 F  
HETATM    2  C   UNL     1     -11.196  15.842  69.870  1.00  0.00    -0.348 C  
HETATM    3  C   UNL     1     -10.398  15.360  68.685  1.00  0.00    -0.234 A  
HETATM    4  F   UNL     1     -12.540  15.705  69.691  1.00  0.00    -0.334 F  
HETATM    5  F   UNL     1     -10.991  17.166  70.123  1.00  0.00    -0.236 F  
HETATM    6  C   UNL     1      -9.439  14.334  68.811  1.00  0.00    -0.131 A  
HETATM    7  C   UNL     1      -8.631  13.967  67.729  1.00  0.00    -0.183 A  
HETATM    8  C   UNL     1     -10.584  15.983  67.441  1.00  0.00    -0.316 A  
HETATM    9  C   UNL     1      -8.862  14.602  66.496  1.00  0.00    -0.190 A  
HETATM   10  C   UNL     1      -9.824  15.597  66.345  1.00  0.00    -0.295 A  
ENDROOT
BRANCH   7  11
HETATM   11  N   UNL     1      -7.578  13.050  67.805  1.00  0.00    -0.136 NA 
HETATM   12  C   UNL     1      -6.124  11.209  67.007  1.00  0.00    -0.092 C  
HETATM   13  C   UNL     1      -7.500  11.920  66.857  1.00  0.00    -0.079 C  
HETATM   14  N   UNL     1      -5.785  10.751  68.383  1.00  0.00    -0.043 NA 
HETATM   15  C   UNL     1      -7.273  12.663  69.202  1.00  0.00     0.078 C  
HETATM   16  C   UNL     1      -5.905  11.943  69.268  1.00  0.00    -0.072 C  
BRANCH  14  17
HETATM   17  C   UNL     1      -6.660   9.658  68.869  1.00  0.00    -0.046 C  
BRANCH  17  18
HETATM   18  C   UNL     1      -6.912   9.631  70.394  1.00  0.00    -0.128 C  
BRANCH  18  19
HETATM   19  O   UNL     1      -8.334   9.570  70.715  1.00  0.00    -0.243 OA 
BRANCH  19  20
HETATM   20  C   UNL     1      -8.591   8.816  71.813  1.00  0.00    -0.128 C  
HETATM   21  O   UNL     1      -7.881   8.842  72.820  1.00  0.00    -0.377 OA 
BRANCH  20  22
HETATM   22  C   UNL     1      -9.823   7.956  71.769  1.00  0.00    -0.223 A  
HETATM   23  C   UNL     1      -9.817   6.957  72.773  1.00  0.00    -0.188 A  
HETATM   24  C   UNL     1     -10.846   6.034  72.900  1.00  0.00    -0.291 A  
HETATM   25  C   UNL     1     -11.923   6.100  72.028  1.00  0.00    -0.310 A  
HETATM   26  C   UNL     1     -11.960   7.085  71.036  1.00  0.00    -0.406 A  
HETATM   27  C   UNL     1     -10.922   8.029  70.870  1.00  0.00    -0.243 A  
BRANCH  27  28
HETATM   28  N   UNL     1     -10.983   8.935  69.790  1.00  0.00    -0.367 NA 
HETATM   29  H   UNL     1     -11.585   9.738  69.974  1.00  0.00     0.000 HD 
BRANCH  28  30
HETATM   30  C   UNL     1     -10.383   8.967  68.497  1.00  0.00    -0.203 A  
HETATM   31  C   UNL     1     -10.692  10.035  67.621  1.00  0.00    -0.340 A  
HETATM   32  C   UNL     1     -11.310  11.208  68.084  1.00  0.00    -0.377 A  
HETATM   33  C   UNL     1     -11.735  12.195  67.202  1.00  0.00    -0.372 A  
HETATM   34  C   UNL     1     -11.581  12.020  65.828  1.00  0.00    -0.353 A  
HETATM   35  C   UNL     1     -10.849  10.902  65.376  1.00  0.00    -0.112 A  
HETATM   36  C   UNL     1     -12.237  13.000  64.883  1.00  0.00    -0.441 C  
HETATM   37  C   UNL     1     -10.363   9.928  66.250  1.00  0.00    -0.163 A  
HETATM   38  F   UNL     1     -12.950  13.966  65.534  1.00  0.00    -0.527 F  
HETATM   39  F   UNL     1     -11.359  13.666  64.087  1.00  0.00    -0.380 F  
HETATM   40  F   UNL     1     -13.130  12.398  64.048  1.00  0.00    -0.433 F  
HETATM   41  N   UNL     1      -9.634   8.901  65.786  1.00  0.00    -0.222 NA 
HETATM   42  C   UNL     1      -9.222   7.959  66.672  1.00  0.00    -0.177 A  
HETATM   43  C   UNL     1      -9.586   7.936  68.016  1.00  0.00    -0.168 A  
ENDBRANCH  28  30
ENDBRANCH  27  28
ENDBRANCH  20  22
ENDBRANCH  19  20
ENDBRANCH  18  19
ENDBRANCH  17  18
ENDBRANCH  14  17
ENDBRANCH   7  11
TORSDOF 8
ENDMDL
MODEL       43
REMARK 921   NORMALIZED FREE ENERGY PREDICTED BY IDOCK:   -7.00 KCAL/MOL
REMARK 922        TOTAL FREE ENERGY PREDICTED BY IDOCK:  -13.68 KCAL/MOL
REMARK 923 INTER-LIGAND FREE ENERGY PREDICTED BY IDOCK:  -11.04 KCAL/MOL
REMARK 924 INTRA-LIGAND FREE ENERGY PREDICTED BY IDOCK:   -2.64 KCAL/MOL
REMARK 927      BINDING AFFINITY PREDICTED BY RF-SCORE:    0.00 PKD
ROOT
HETATM    1  F   UNL     1     -10.368   6.981  70.609  1.00  0.00    -0.204 F  
HETATM    2  C   UNL     1      -9.893   6.209  69.592  1.00  0.00    -0.161 C  
HETATM    3  C   UNL     1      -8.842   6.886  68.747  1.00  0.00    -0.132 A  
HETATM    4  F   UNL     1      -9.443   5.062  70.171  1.00  0.00    -0.169 F  
HETATM    5  F   UNL     1     -10.986   5.850  68.860  1.00  0.00    -0.322 F  
HETATM    6  C   UNL     1      -8.422   8.205  69.014  1.00  0.00    -0.129 A  
HETATM    7  C   UNL     1      -7.524   8.860  68.163  1.00  0.00    -0.092 A  
HETATM    8  C   UNL     1      -8.310   6.201  67.645  1.00  0.00    -0.112 A  
HETATM    9  C   UNL     1      -7.000   8.132  67.080  1.00  0.00    -0.075 A  
HETATM   10  C   UNL     1      -7.382   6.819  66.818  1.00  0.00    -0.081 A  
ENDROOT
BRANCH   7  11
HETATM   11  N   UNL     1      -7.154  10.203  68.287  1.00  0.00    -0.075 NA 
HETATM   12  C   UNL     1      -6.600  12.290  69.502  1.00  0.00    -0.052 C  
HETATM   13  C   UNL     1      -7.303  10.904  69.578  1.00  0.00    -0.093 C  
HETATM   14  N   UNL     1      -7.040  13.172  68.384  1.00  0.00    -0.098 NA 
HETATM   15  C   UNL     1      -7.592  11.014  67.128  1.00  0.00    -0.117 C  
HETATM   16  C   UNL     1      -6.871  12.383  67.132  1.00  0.00    -0.075 C  
BRANCH  14  17
HETATM   17  C   UNL     1      -8.441  13.634  68.519  1.00  0.00    -0.106 C  
BRANCH  17  18
HETATM   18  C   UNL     1      -8.621  15.127  68.878  1.00  0.00    -0.200 C  
BRANCH  18  19
HETATM   19  O   UNL     1      -9.393  15.308  70.103  1.00  0.00    -0.013 OA 
BRANCH  19  20
HETATM   20  C   UNL     1     -10.607  15.869  69.878  1.00  0.00    -0.326 C  
HETATM   21  O   UNL     1     -10.853  16.548  68.879  1.00  0.00    -0.304 OA 
BRANCH  20  22
HETATM   22  C   UNL     1     -11.677  15.594  70.896  1.00  0.00    -0.423 A  
HETATM   23  C   UNL     1     -11.543  16.406  72.050  1.00  0.00    -0.339 A  
HETATM   24  C   UNL     1     -12.409  16.301  73.130  1.00  0.00    -0.598 A  
HETATM   25  C   UNL     1     -13.449  15.385  73.074  1.00  0.00    -0.604 A  
HETATM   26  C   UNL     1     -13.611  14.580  71.941  1.00  0.00    -0.484 A  
HETATM   27  C   UNL     1     -12.738  14.651  70.833  1.00  0.00    -0.348 A  
BRANCH  27  28
HETATM   28  N   UNL     1     -12.909  13.744  69.766  1.00  0.00    -0.124 NA 
HETATM   29  H   UNL     1     -13.805  13.849  69.289  1.00  0.00     0.000 HD 
BRANCH  28  30
HETATM   30  C   UNL     1     -12.096  12.713  69.211  1.00  0.00    -0.166 A  
HETATM   31  C   UNL     1     -11.857  12.699  67.816  1.00  0.00    -0.381 A  
HETATM   32  C   UNL     1     -12.126  13.820  67.015  1.00  0.00    -0.436 A  
HETATM   33  C   UNL     1     -12.021  13.759  65.630  1.00  0.00    -0.410 A  
HETATM   34  C   UNL     1     -11.672  12.562  65.007  1.00  0.00    -0.407 A  
HETATM   35  C   UNL     1     -11.281  11.476  65.818  1.00  0.00    -0.228 A  
HETATM   36  C   UNL     1     -11.769  12.459  63.502  1.00  0.00    -0.510 C  
HETATM   37  C   UNL     1     -11.325  11.536  67.213  1.00  0.00    -0.290 A  
HETATM   38  F   UNL     1     -12.231  13.608  62.923  1.00  0.00    -0.504 F  
HETATM   39  F   UNL     1     -10.584  12.193  62.893  1.00  0.00    -0.374 F  
HETATM   40  F   UNL     1     -12.633  11.485  63.103  1.00  0.00    -0.635 F  
HETATM   41  N   UNL     1     -10.904  10.497  67.951  1.00  0.00    -0.260 NA 
HETATM   42  C   UNL     1     -11.008  10.590  69.301  1.00  0.00    -0.244 A  
HETATM   43  C   UNL     1     -11.611  11.654  69.968  1.00  0.00    -0.338 A  
ENDBRANCH  28  30
ENDBRANCH  27  28
ENDBRANCH  20  22
ENDBRANCH  19  20
ENDBRANCH  18  19
ENDBRANCH  17  18
ENDBRANCH  14  17
ENDBRANCH   7  11
TORSDOF 8
ENDMDL
MODEL       44
REMARK 921   NORMALIZED FREE ENERGY PREDICTED BY IDOCK:   -6.99 KCAL/MOL
REMARK 922        TOTAL FREE ENERGY PREDICTED BY IDOCK:  -13.65 KCAL/MOL
REMARK 923 INTER-LIGAND FREE ENERGY PREDICTED BY IDOCK:  -11.73 KCAL/MOL
REMARK 924 INTRA-LIGAND FREE ENERGY PREDICTED BY IDOCK:   -1.93 KCAL/MOL
REMARK 927      BINDING AFFINITY PREDICTED BY RF-SCORE:    0.00 PKD
ROOT
HETATM    1  F   UNL     1      -6.668  16.092  68.842  1.00  0.00    -0.120 F  
HETATM    2  C   UNL     1      -6.986  17.379  68.529  1.00  0.00    -0.215 C  
HETATM    3  C   UNL     1      -8.268  17.522  67.748  1.00  0.00    -0.219 A  
HETATM    4  F   UNL     1      -7.011  18.057  69.710  1.00  0.00    -0.127 F  
HETATM    5  F   UNL     1      -5.912  17.868  67.846  1.00  0.00    -0.148 F  
HETATM    6  C   UNL     1      -9.038  16.397  67.385  1.00  0.00    -0.206 A  
HETATM    7  C   UNL     1     -10.169  16.531  66.572  1.00  0.00    -0.300 A  
HETATM    8  C   UNL     1      -8.674  18.800  67.333  1.00  0.00    -0.289 A  
HETATM    9  C   UNL     1     -10.552  17.830  66.195  1.00  0.00    -0.235 A  
HETATM   10  C   UNL     1      -9.821  18.955  66.567  1.00  0.00    -0.405 A  
ENDROOT
BRANCH   7  11
HETATM   11  N   UNL     1     -10.912  15.459  66.069  1.00  0.00    -0.314 NA 
HETATM   12  C   UNL     1     -12.685  13.728  66.098  1.00  0.00    -0.283 C  
HETATM   13  C   UNL     1     -11.813  14.693  66.953  1.00  0.00    -0.326 C  
HETATM   14  N   UNL     1     -11.932  12.804  65.205  1.00  0.00    -0.398 NA 
HETATM   15  C   UNL     1     -10.113  14.600  65.164  1.00  0.00    -0.324 C  
HETATM   16  C   UNL     1     -11.043  13.656  64.367  1.00  0.00    -0.364 C  
BRANCH  14  17
HETATM   17  C   UNL     1     -11.135  11.796  65.943  1.00  0.00    -0.302 C  
BRANCH  17  18
HETATM   18  C   UNL     1      -9.720  11.523  65.383  1.00  0.00    -0.233 C  
BRANCH  18  19
HETATM   19  O   UNL     1      -8.903  10.746  66.310  1.00  0.00    -0.161 OA 
BRANCH  19  20
HETATM   20  C   UNL     1      -8.469  11.478  67.366  1.00  0.00    -0.147 C  
HETATM   21  O   UNL     1      -8.418  12.710  67.346  1.00  0.00    -0.168 OA 
BRANCH  20  22
HETATM   22  C   UNL     1      -8.080  10.718  68.602  1.00  0.00    -0.136 A  
HETATM   23  C   UNL     1      -6.677  10.689  68.795  1.00  0.00    -0.055 A  
HETATM   24  C   UNL     1      -6.094  10.018  69.863  1.00  0.00    -0.052 A  
HETATM   25  C   UNL     1      -6.910   9.368  70.777  1.00  0.00    -0.109 A  
HETATM   26  C   UNL     1      -8.299   9.392  70.616  1.00  0.00    -0.217 A  
HETATM   27  C   UNL     1      -8.922  10.052  69.533  1.00  0.00    -0.205 A  
BRANCH  27  28
HETATM   28  N   UNL     1     -10.322   9.956  69.384  1.00  0.00    -0.206 NA 
HETATM   29  H   UNL     1     -10.615   9.832  68.415  1.00  0.00     0.000 HD 
BRANCH  28  30
HETATM   30  C   UNL     1     -11.414   9.995  70.300  1.00  0.00    -0.300 A  
HETATM   31  C   UNL     1     -11.959  11.248  70.670  1.00  0.00    -0.435 A  
HETATM   32  C   UNL     1     -11.675  12.414  69.941  1.00  0.00    -0.339 A  
HETATM   33  C   UNL     1     -12.099  13.662  70.385  1.00  0.00    -0.421 A  
HETATM   34  C   UNL     1     -12.793  13.778  71.588  1.00  0.00    -0.438 A  
HETATM   35  C   UNL     1     -13.184  12.596  72.250  1.00  0.00    -0.465 A  
HETATM   36  C   UNL     1     -13.056  15.154  72.156  1.00  0.00    -0.363 C  
HETATM   37  C   UNL     1     -12.818  11.330  71.790  1.00  0.00    -0.360 A  
HETATM   38  F   UNL     1     -12.533  16.153  71.384  1.00  0.00    -0.472 F  
HETATM   39  F   UNL     1     -14.376  15.448  72.290  1.00  0.00    -0.545 F  
HETATM   40  F   UNL     1     -12.498  15.324  73.387  1.00  0.00    -0.423 F  
HETATM   41  N   UNL     1     -13.245  10.227  72.423  1.00  0.00    -0.217 NA 
HETATM   42  C   UNL     1     -12.825   9.022  71.960  1.00  0.00    -0.401 A  
HETATM   43  C   UNL     1     -11.903   8.858  70.930  1.00  0.00    -0.283 A  
ENDBRANCH  28  30
ENDBRANCH  27  28
ENDBRANCH  20  22
ENDBRANCH  19  20
ENDBRANCH  18  19
ENDBRANCH  17  18
ENDBRANCH  14  17
ENDBRANCH   7  11
TORSDOF 8
ENDMDL
MODEL       45
REMARK 921   NORMALIZED FREE ENERGY PREDICTED BY IDOCK:   -6.97 KCAL/MOL
REMARK 922        TOTAL FREE ENERGY PREDICTED BY IDOCK:  -13.63 KCAL/MOL
REMARK 923 INTER-LIGAND FREE ENERGY PREDICTED BY IDOCK:  -10.42 KCAL/MOL
REMARK 924 INTRA-LIGAND FREE ENERGY PREDICTED BY IDOCK:   -3.21 KCAL/MOL
REMARK 927      BINDING AFFINITY PREDICTED BY RF-SCORE:    0.00 PKD
ROOT
HETATM    1  F   UNL     1      -8.720   3.554  65.770  1.00  0.00    -0.107 F  
HETATM    2  C   UNL     1      -9.607   4.585  65.701  1.00  0.00    -0.187 C  
HETATM    3  C   UNL     1      -9.955   5.185  67.041  1.00  0.00    -0.222 A  
HETATM    4  F   UNL     1      -9.062   5.493  64.844  1.00  0.00    -0.129 F  
HETATM    5  F   UNL     1     -10.704   4.087  65.063  1.00  0.00    -0.234 F  
HETATM    6  C   UNL     1      -9.396   4.688  68.237  1.00  0.00    -0.182 A  
HETATM    7  C   UNL     1      -9.804   5.182  69.481  1.00  0.00    -0.208 A  
HETATM    8  C   UNL     1     -10.892   6.228  67.097  1.00  0.00    -0.460 A  
HETATM    9  C   UNL     1     -10.731   6.240  69.493  1.00  0.00    -0.365 A  
HETATM   10  C   UNL     1     -11.272   6.762  68.321  1.00  0.00    -0.147 A  
ENDROOT
BRANCH   7  11
HETATM   11  N   UNL     1      -9.392   4.661  70.711  1.00  0.00    -0.140 NA 
HETATM   12  C   UNL     1      -9.690   3.579  72.920  1.00  0.00    -0.135 C  
HETATM   13  C   UNL     1     -10.381   4.363  71.767  1.00  0.00    -0.071 C  
HETATM   14  N   UNL     1      -8.489   4.233  73.511  1.00  0.00    -0.093 NA 
HETATM   15  C   UNL     1      -8.175   5.333  71.224  1.00  0.00    -0.119 C  
HETATM   16  C   UNL     1      -7.560   4.510  72.380  1.00  0.00    -0.084 C  
BRANCH  14  17
HETATM   17  C   UNL     1      -8.801   5.483  74.241  1.00  0.00    -0.118 C  
BRANCH  17  18
HETATM   18  C   UNL     1      -7.928   6.707  73.874  1.00  0.00    -0.106 C  
BRANCH  18  19
HETATM   19  O   UNL     1      -8.694   7.949  73.880  1.00  0.00    -0.249 OA 
BRANCH  19  20
HETATM   20  C   UNL     1      -8.811   8.496  72.644  1.00  0.00    -0.155 C  
HETATM   21  O   UNL     1      -7.836   8.792  71.951  1.00  0.00    -0.271 OA 
BRANCH  20  22
HETATM   22  C   UNL     1     -10.207   8.698  72.125  1.00  0.00    -0.394 A  
HETATM   23  C   UNL     1     -11.167   7.964  72.864  1.00  0.00    -0.429 A  
HETATM   24  C   UNL     1     -12.517   7.983  72.541  1.00  0.00    -0.193 A  
HETATM   25  C   UNL     1     -12.944   8.756  71.472  1.00  0.00    -0.359 A  
HETATM   26  C   UNL     1     -12.019   9.501  70.734  1.00  0.00    -0.326 A  
HETATM   27  C   UNL     1     -10.636   9.491  71.027  1.00  0.00    -0.322 A  
BRANCH  27  28
HETATM   28  N   UNL     1      -9.751  10.194  70.182  1.00  0.00    -0.407 NA 
HETATM   29  H   UNL     1      -9.306  10.990  70.640  1.00  0.00     0.000 HD 
BRANCH  28  30
HETATM   30  C   UNL     1      -9.345  10.028  68.825  1.00  0.00    -0.162 A  
HETATM   31  C   UNL     1      -9.971  10.803  67.820  1.00  0.00    -0.195 A  
HETATM   32  C   UNL     1     -10.741  11.933  68.138  1.00  0.00    -0.246 A  
HETATM   33  C   UNL     1     -11.465  12.610  67.163  1.00  0.00    -0.406 A  
HETATM   34  C   UNL     1     -11.461  12.154  65.846  1.00  0.00    -0.418 A  
HETATM   35  C   UNL     1     -10.590  11.098  65.507  1.00  0.00    -0.289 A  
HETATM   36  C   UNL     1     -12.416  12.772  64.850  1.00  0.00    -0.497 C  
HETATM   37  C   UNL     1      -9.811  10.442  66.462  1.00  0.00    -0.206 A  
HETATM   38  F   UNL     1     -13.213  13.732  65.408  1.00  0.00    -0.499 F  
HETATM   39  F   UNL     1     -11.799  13.374  63.800  1.00  0.00    -0.437 F  
HETATM   40  F   UNL     1     -13.275  11.859  64.319  1.00  0.00    -0.474 F  
HETATM   41  N   UNL     1      -8.962   9.470  66.095  1.00  0.00    -0.150 NA 
HETATM   42  C   UNL     1      -8.259   8.834  67.067  1.00  0.00    -0.103 A  
HETATM   43  C   UNL     1      -8.432   9.059  68.431  1.00  0.00    -0.129 A  
ENDBRANCH  28  30
ENDBRANCH  27  28
ENDBRANCH  20  22
ENDBRANCH  19  20
ENDBRANCH  18  19
ENDBRANCH  17  18
ENDBRANCH  14  17
ENDBRANCH   7  11
TORSDOF 8
ENDMDL
MODEL       46
REMARK 921   NORMALIZED FREE ENERGY PREDICTED BY IDOCK:   -6.89 KCAL/MOL
REMARK 922        TOTAL FREE ENERGY PREDICTED BY IDOCK:  -13.51 KCAL/MOL
REMARK 923 INTER-LIGAND FREE ENERGY PREDICTED BY IDOCK:   -9.87 KCAL/MOL
REMARK 924 INTRA-LIGAND FREE ENERGY PREDICTED BY IDOCK:   -3.64 KCAL/MOL
REMARK 927      BINDING AFFINITY PREDICTED BY RF-SCORE:    0.00 PKD
ROOT
HETATM    1  F   UNL     1     -11.145  15.182  70.279  1.00  0.00    -0.239 F  
HETATM    2  C   UNL     1     -10.937  16.110  69.304  1.00  0.00    -0.315 C  
HETATM    3  C   UNL     1      -9.749  15.817  68.422  1.00  0.00    -0.203 A  
HETATM    4  F   UNL     1     -12.104  16.187  68.605  1.00  0.00    -0.354 F  
HETATM    5  F   UNL     1     -10.814  17.304  69.950  1.00  0.00    -0.253 F  
HETATM    6  C   UNL     1      -8.943  14.677  68.628  1.00  0.00    -0.184 A  
HETATM    7  C   UNL     1      -7.784  14.470  67.872  1.00  0.00    -0.140 A  
HETATM    8  C   UNL     1      -9.413  16.726  67.408  1.00  0.00    -0.236 A  
HETATM    9  C   UNL     1      -7.494  15.395  66.853  1.00  0.00    -0.054 A  
HETATM   10  C   UNL     1      -8.293  16.510  66.617  1.00  0.00    -0.297 A  
ENDROOT
BRANCH   7  11
HETATM   11  N   UNL     1      -6.870  13.435  68.095  1.00  0.00    -0.100 NA 
HETATM   12  C   UNL     1      -5.505  11.458  67.491  1.00  0.00    -0.051 C  
HETATM   13  C   UNL     1      -6.744  12.327  67.128  1.00  0.00    -0.104 C  
HETATM   14  N   UNL     1      -5.477  10.931  68.884  1.00  0.00    -0.041 NA 
HETATM   15  C   UNL     1      -6.871  12.983  69.506  1.00  0.00     0.099 C  
HETATM   16  C   UNL     1      -5.625  12.108  69.785  1.00  0.00    -0.100 C  
BRANCH  14  17
HETATM   17  C   UNL     1      -6.540   9.936  69.156  1.00  0.00    -0.052 C  
BRANCH  17  18
HETATM   18  C   UNL     1      -6.633   9.438  70.618  1.00  0.00    -0.087 C  
BRANCH  18  19
HETATM   19  O   UNL     1      -7.947   9.688  71.201  1.00  0.00    -0.275 OA 
BRANCH  19  20
HETATM   20  C   UNL     1      -8.416   8.629  71.907  1.00  0.00    -0.143 C  
HETATM   21  O   UNL     1      -8.292   8.537  73.130  1.00  0.00    -0.369 OA 
BRANCH  20  22
HETATM   22  C   UNL     1      -9.141   7.567  71.130  1.00  0.00    -0.149 A  
HETATM   23  C   UNL     1      -9.050   6.294  71.746  1.00  0.00    -0.144 A  
HETATM   24  C   UNL     1      -9.627   5.162  71.186  1.00  0.00    -0.224 A  
HETATM   25  C   UNL     1     -10.327   5.281  69.995  1.00  0.00    -0.365 A  
HETATM   26  C   UNL     1     -10.442   6.528  69.373  1.00  0.00    -0.262 A  
HETATM   27  C   UNL     1      -9.855   7.696  69.908  1.00  0.00    -0.184 A  
BRANCH  27  28
HETATM   28  N   UNL     1      -9.934   8.901  69.178  1.00  0.00    -0.184 NA 
HETATM   29  H   UNL     1      -9.211   8.986  68.463  1.00  0.00     0.000 HD 
BRANCH  28  30
HETATM   30  C   UNL     1     -10.809  10.026  69.227  1.00  0.00    -0.230 A  
HETATM   31  C   UNL     1     -10.987  10.811  68.062  1.00  0.00    -0.336 A  
HETATM   32  C   UNL     1     -10.586  10.348  66.798  1.00  0.00    -0.270 A  
HETATM   33  C   UNL     1     -10.636  11.172  65.680  1.00  0.00    -0.286 A  
HETATM   34  C   UNL     1     -11.061  12.494  65.803  1.00  0.00    -0.343 A  
HETATM   35  C   UNL     1     -11.579  12.916  67.045  1.00  0.00    -0.419 A  
HETATM   36  C   UNL     1     -10.907  13.430  64.626  1.00  0.00    -0.392 C  
HETATM   37  C   UNL     1     -11.592  12.084  68.167  1.00  0.00    -0.340 A  
HETATM   38  F   UNL     1     -10.322  12.829  63.547  1.00  0.00    -0.395 F  
HETATM   39  F   UNL     1     -12.083  13.936  64.170  1.00  0.00    -0.429 F  
HETATM   40  F   UNL     1     -10.114  14.500  64.913  1.00  0.00    -0.411 F  
HETATM   41  N   UNL     1     -12.133  12.506  69.320  1.00  0.00    -0.218 NA 
HETATM   42  C   UNL     1     -12.080  11.675  70.392  1.00  0.00    -0.373 A  
HETATM   43  C   UNL     1     -11.417  10.451  70.401  1.00  0.00    -0.420 A  
ENDBRANCH  28  30
ENDBRANCH  27  28
ENDBRANCH  20  22
ENDBRANCH  19  20
ENDBRANCH  18  19
ENDBRANCH  17  18
ENDBRANCH  14  17
ENDBRANCH   7  11
TORSDOF 8
ENDMDL
MODEL       47
REMARK 921   NORMALIZED FREE ENERGY PREDICTED BY IDOCK:   -6.88 KCAL/MOL
REMARK 922        TOTAL FREE ENERGY PREDICTED BY IDOCK:  -13.49 KCAL/MOL
REMARK 923 INTER-LIGAND FREE ENERGY PREDICTED BY IDOCK:  -11.56 KCAL/MOL
REMARK 924 INTRA-LIGAND FREE ENERGY PREDICTED BY IDOCK:   -1.94 KCAL/MOL
REMARK 927      BINDING AFFINITY PREDICTED BY RF-SCORE:    0.00 PKD
ROOT
HETATM    1  F   UNL     1      -8.303   3.357  72.180  1.00  0.00    -0.072 F  
HETATM    2  C   UNL     1      -9.404   3.847  72.814  1.00  0.00    -0.112 C  
HETATM    3  C   UNL     1      -9.658   5.311  72.559  1.00  0.00    -0.171 A  
HETATM    4  F   UNL     1     -10.443   3.057  72.425  1.00  0.00    -0.232 F  
HETATM    5  F   UNL     1      -9.215   3.582  74.139  1.00  0.00    -0.089 F  
HETATM    6  C   UNL     1      -8.803   6.074  71.737  1.00  0.00    -0.138 A  
HETATM    7  C   UNL     1      -8.988   7.454  71.590  1.00  0.00    -0.123 A  
HETATM    8  C   UNL     1     -10.743   5.935  73.195  1.00  0.00    -0.288 A  
HETATM    9  C   UNL     1     -10.097   8.036  72.229  1.00  0.00    -0.311 A  
HETATM   10  C   UNL     1     -10.969   7.293  73.021  1.00  0.00    -0.388 A  
ENDROOT
BRANCH   7  11
HETATM   11  N   UNL     1      -8.116   8.298  70.896  1.00  0.00    -0.095 NA 
HETATM   12  C   UNL     1      -7.394  10.412  69.824  1.00  0.00    -0.154 C  
HETATM   13  C   UNL     1      -8.603   9.568  70.322  1.00  0.00    -0.226 C  
HETATM   14  N   UNL     1      -6.487   9.727  68.861  1.00  0.00    -0.045 NA 
HETATM   15  C   UNL     1      -7.221   7.549  69.982  1.00  0.00    -0.069 C  
HETATM   16  C   UNL     1      -6.060   8.457  69.512  1.00  0.00    -0.036 C  
BRANCH  14  17
HETATM   17  C   UNL     1      -7.124   9.448  67.553  1.00  0.00    -0.078 C  
BRANCH  17  18
HETATM   18  C   UNL     1      -7.706  10.678  66.818  1.00  0.00    -0.127 C  
BRANCH  18  19
HETATM   19  O   UNL     1      -9.035  10.415  66.276  1.00  0.00    -0.150 OA 
BRANCH  19  20
HETATM   20  C   UNL     1      -9.961  11.311  66.702  1.00  0.00    -0.209 C  
HETATM   21  O   UNL     1     -10.084  11.630  67.886  1.00  0.00    -0.180 OA 
BRANCH  20  22
HETATM   22  C   UNL     1     -10.825  11.942  65.647  1.00  0.00    -0.333 A  
HETATM   23  C   UNL     1     -10.571  11.413  64.357  1.00  0.00    -0.403 A  
HETATM   24  C   UNL     1     -11.239  11.871  63.229  1.00  0.00    -0.382 A  
HETATM   25  C   UNL     1     -12.194  12.866  63.368  1.00  0.00    -0.574 A  
HETATM   26  C   UNL     1     -12.473  13.396  64.632  1.00  0.00    -0.385 A  
HETATM   27  C   UNL     1     -11.801  12.963  65.797  1.00  0.00    -0.419 A  
BRANCH  27  28
HETATM   28  N   UNL     1     -12.068  13.609  67.023  1.00  0.00    -0.397 NA 
HETATM   29  H   UNL     1     -12.881  13.228  67.508  1.00  0.00     0.000 HD 
BRANCH  28  30
HETATM   30  C   UNL     1     -11.445  14.679  67.729  1.00  0.00    -0.340 A  
HETATM   31  C   UNL     1     -11.619  14.774  69.130  1.00  0.00    -0.330 A  
HETATM   32  C   UNL     1     -12.113  13.696  69.882  1.00  0.00    -0.406 A  
HETATM   33  C   UNL     1     -12.411  13.836  71.233  1.00  0.00    -0.428 A  
HETATM   34  C   UNL     1     -12.251  15.070  71.860  1.00  0.00    -0.427 A  
HETATM   35  C   UNL     1     -11.638  16.113  71.136  1.00  0.00    -0.453 A  
HETATM   36  C   UNL     1     -12.778  15.256  73.265  1.00  0.00    -0.511 C  
HETATM   37  C   UNL     1     -11.277  15.975  69.794  1.00  0.00    -0.344 A  
HETATM   38  F   UNL     1     -13.393  14.136  73.751  1.00  0.00     0.030 F  
HETATM   39  F   UNL     1     -11.818  15.570  74.174  1.00  0.00    -0.539 F  
HETATM   40  F   UNL     1     -13.716  16.241  73.342  1.00  0.00    -0.662 F  
HETATM   41  N   UNL     1     -10.656  16.975  69.150  1.00  0.00    -0.328 NA 
HETATM   42  C   UNL     1     -10.367  16.805  67.835  1.00  0.00    -0.319 A  
HETATM   43  C   UNL     1     -10.757  15.699  67.084  1.00  0.00    -0.314 A  
ENDBRANCH  28  30
ENDBRANCH  27  28
ENDBRANCH  20  22
ENDBRANCH  19  20
ENDBRANCH  18  19
ENDBRANCH  17  18
ENDBRANCH  14  17
ENDBRANCH   7  11
TORSDOF 8
ENDMDL
MODEL       48
REMARK 921   NORMALIZED FREE ENERGY PREDICTED BY IDOCK:   -6.83 KCAL/MOL
REMARK 922        TOTAL FREE ENERGY PREDICTED BY IDOCK:  -13.42 KCAL/MOL
REMARK 923 INTER-LIGAND FREE ENERGY PREDICTED BY IDOCK:  -11.14 KCAL/MOL
REMARK 924 INTRA-LIGAND FREE ENERGY PREDICTED BY IDOCK:   -2.29 KCAL/MOL
REMARK 927      BINDING AFFINITY PREDICTED BY RF-SCORE:    0.00 PKD
ROOT
HETATM    1  F   UNL     1      -6.079   8.810  72.199  1.00  0.00    -0.060 F  
HETATM    2  C   UNL     1      -6.721   8.030  73.113  1.00  0.00    -0.094 C  
HETATM    3  C   UNL     1      -8.213   7.945  72.907  1.00  0.00    -0.195 A  
HETATM    4  F   UNL     1      -6.113   6.812  73.060  1.00  0.00    -0.053 F  
HETATM    5  F   UNL     1      -6.401   8.550  74.332  1.00  0.00    -0.119 F  
HETATM    6  C   UNL     1      -8.851   8.633  71.855  1.00  0.00    -0.275 A  
HETATM    7  C   UNL     1     -10.245   8.632  71.735  1.00  0.00    -0.308 A  
HETATM    8  C   UNL     1      -8.984   7.202  73.814  1.00  0.00    -0.227 A  
HETATM    9  C   UNL     1     -10.979   7.860  72.653  1.00  0.00    -0.440 A  
HETATM   10  C   UNL     1     -10.365   7.151  73.681  1.00  0.00    -0.411 A  
ENDROOT
BRANCH   7  11
HETATM   11  N   UNL     1     -10.958   9.386  70.798  1.00  0.00    -0.277 NA 
HETATM   12  C   UNL     1     -11.275  10.678  68.707  1.00  0.00    -0.279 C  
HETATM   13  C   UNL     1     -10.247  10.134  69.742  1.00  0.00    -0.247 C  
HETATM   14  N   UNL     1     -12.376  11.507  69.272  1.00  0.00    -0.257 NA 
HETATM   15  C   UNL     1     -12.058  10.159  71.421  1.00  0.00    -0.382 C  
HETATM   16  C   UNL     1     -13.023  10.685  70.332  1.00  0.00    -0.145 C  
BRANCH  14  17
HETATM   17  C   UNL     1     -11.911  12.798  69.830  1.00  0.00    -0.298 C  
BRANCH  17  18
HETATM   18  C   UNL     1     -11.704  13.935  68.802  1.00  0.00    -0.357 C  
BRANCH  18  19
HETATM   19  O   UNL     1     -11.156  15.139  69.418  1.00  0.00    -0.247 OA 
BRANCH  19  20
HETATM   20  C   UNL     1     -10.024  15.570  68.808  1.00  0.00    -0.214 C  
HETATM   21  O   UNL     1      -8.924  15.047  68.997  1.00  0.00    -0.199 OA 
BRANCH  20  22
HETATM   22  C   UNL     1     -10.171  16.711  67.841  1.00  0.00    -0.284 A  
HETATM   23  C   UNL     1     -10.499  17.927  68.490  1.00  0.00    -0.312 A  
HETATM   24  C   UNL     1     -10.707  19.105  67.786  1.00  0.00    -0.463 A  
HETATM   25  C   UNL     1     -10.575  19.098  66.406  1.00  0.00    -0.522 A  
HETATM   26  C   UNL     1     -10.240  17.914  65.741  1.00  0.00    -0.135 A  
HETATM   27  C   UNL     1     -10.036  16.695  66.426  1.00  0.00    -0.315 A  
BRANCH  27  28
HETATM   28  N   UNL     1      -9.792  15.521  65.682  1.00  0.00    -0.346 NA 
HETATM   29  H   UNL     1      -8.811  15.407  65.423  1.00  0.00     0.000 HD 
BRANCH  28  30
HETATM   30  C   UNL     1     -10.622  14.461  65.216  1.00  0.00    -0.382 A  
HETATM   31  C   UNL     1     -10.215  13.122  65.429  1.00  0.00    -0.301 A  
HETATM   32  C   UNL     1      -9.198  12.802  66.344  1.00  0.00    -0.149 A  
HETATM   33  C   UNL     1      -8.708  11.506  66.451  1.00  0.00    -0.179 A  
HETATM   34  C   UNL     1      -9.201  10.500  65.623  1.00  0.00    -0.221 A  
HETATM   35  C   UNL     1     -10.305  10.796  64.797  1.00  0.00    -0.380 A  
HETATM   36  C   UNL     1      -8.511   9.155  65.606  1.00  0.00    -0.139 C  
HETATM   37  C   UNL     1     -10.851  12.079  64.717  1.00  0.00    -0.306 A  
HETATM   38  F   UNL     1      -7.425   9.108  66.434  1.00  0.00    -0.088 F  
HETATM   39  F   UNL     1      -9.309   8.124  65.991  1.00  0.00    -0.221 F  
HETATM   40  F   UNL     1      -8.034   8.830  64.372  1.00  0.00    -0.113 F  
HETATM   41  N   UNL     1     -11.929  12.313  63.953  1.00  0.00    -0.449 NA 
HETATM   42  C   UNL     1     -12.394  13.586  63.877  1.00  0.00    -0.334 A  
HETATM   43  C   UNL     1     -11.768  14.683  64.464  1.00  0.00    -0.410 A  
ENDBRANCH  28  30
ENDBRANCH  27  28
ENDBRANCH  20  22
ENDBRANCH  19  20
ENDBRANCH  18  19
ENDBRANCH  17  18
ENDBRANCH  14  17
ENDBRANCH   7  11
TORSDOF 8
ENDMDL
MODEL       49
REMARK 921   NORMALIZED FREE ENERGY PREDICTED BY IDOCK:   -6.77 KCAL/MOL
REMARK 922        TOTAL FREE ENERGY PREDICTED BY IDOCK:  -13.33 KCAL/MOL
REMARK 923 INTER-LIGAND FREE ENERGY PREDICTED BY IDOCK:  -10.78 KCAL/MOL
REMARK 924 INTRA-LIGAND FREE ENERGY PREDICTED BY IDOCK:   -2.56 KCAL/MOL
REMARK 927      BINDING AFFINITY PREDICTED BY RF-SCORE:    0.00 PKD
ROOT
HETATM    1  F   UNL     1     -10.241   4.508  69.244  1.00  0.00    -0.267 F  
HETATM    2  C   UNL     1      -9.686   4.672  70.477  1.00  0.00    -0.214 C  
HETATM    3  C   UNL     1      -9.936   6.029  71.087  1.00  0.00    -0.227 A  
HETATM    4  F   UNL     1     -10.167   3.654  71.243  1.00  0.00    -0.225 F  
HETATM    5  F   UNL     1      -8.355   4.419  70.320  1.00  0.00    -0.069 F  
HETATM    6  C   UNL     1     -10.677   7.016  70.406  1.00  0.00    -0.259 A  
HETATM    7  C   UNL     1     -10.815   8.305  70.934  1.00  0.00    -0.230 A  
HETATM    8  C   UNL     1      -9.377   6.326  72.339  1.00  0.00    -0.141 A  
HETATM    9  C   UNL     1     -10.256   8.556  72.199  1.00  0.00    -0.403 A  
HETATM   10  C   UNL     1      -9.545   7.585  72.900  1.00  0.00    -0.247 A  
ENDROOT
BRANCH   7  11
HETATM   11  N   UNL     1     -11.427   9.371  70.267  1.00  0.00    -0.221 NA 
HETATM   12  C   UNL     1     -11.862  10.890  68.358  1.00  0.00    -0.122 C  
HETATM   13  C   UNL     1     -10.865   9.882  69.000  1.00  0.00    -0.215 C  
HETATM   14  N   UNL     1     -12.279  12.024  69.230  1.00  0.00    -0.159 NA 
HETATM   15  C   UNL     1     -11.845  10.446  71.196  1.00  0.00    -0.337 C  
HETATM   16  C   UNL     1     -12.813  11.419  70.482  1.00  0.00    -0.042 C  
BRANCH  14  17
HETATM   17  C   UNL     1     -11.174  12.961  69.540  1.00  0.00    -0.074 C  
BRANCH  17  18
HETATM   18  C   UNL     1     -11.403  14.429  69.107  1.00  0.00    -0.277 C  
BRANCH  18  19
HETATM   19  O   UNL     1     -10.500  15.349  69.790  1.00  0.00    -0.260 OA 
BRANCH  19  20
HETATM   20  C   UNL     1      -9.484  15.771  68.996  1.00  0.00    -0.247 C  
HETATM   21  O   UNL     1      -8.369  15.245  69.004  1.00  0.00    -0.182 OA 
BRANCH  20  22
HETATM   22  C   UNL     1      -9.787  16.904  68.057  1.00  0.00    -0.264 A  
HETATM   23  C   UNL     1     -10.060  18.113  68.744  1.00  0.00    -0.392 A  
HETATM   24  C   UNL     1     -10.390  19.283  68.073  1.00  0.00    -0.506 A  
HETATM   25  C   UNL     1     -10.440  19.275  66.687  1.00  0.00    -0.541 A  
HETATM   26  C   UNL     1     -10.162  18.098  65.984  1.00  0.00    -0.325 A  
HETATM   27  C   UNL     1      -9.838  16.888  66.637  1.00  0.00    -0.287 A  
BRANCH  27  28
HETATM   28  N   UNL     1      -9.661  15.719  65.867  1.00  0.00    -0.340 NA 
HETATM   29  H   UNL     1      -8.685  15.543  65.622  1.00  0.00     0.000 HD 
BRANCH  28  30
HETATM   30  C   UNL     1     -10.553  14.731  65.357  1.00  0.00    -0.378 A  
HETATM   31  C   UNL     1     -10.233  13.362  65.524  1.00  0.00    -0.300 A  
HETATM   32  C   UNL     1      -9.246  12.945  66.432  1.00  0.00    -0.144 A  
HETATM   33  C   UNL     1      -8.839  11.617  66.494  1.00  0.00    -0.188 A  
HETATM   34  C   UNL     1      -9.389  10.675  65.627  1.00  0.00    -0.239 A  
HETATM   35  C   UNL     1     -10.467  11.071  64.807  1.00  0.00    -0.384 A  
HETATM   36  C   UNL     1      -8.786   9.290  65.565  1.00  0.00    -0.187 C  
HETATM   37  C   UNL     1     -10.929  12.388  64.771  1.00  0.00    -0.301 A  
HETATM   38  F   UNL     1      -7.711   9.145  66.396  1.00  0.00    -0.092 F  
HETATM   39  F   UNL     1      -9.651   8.299  65.908  1.00  0.00    -0.256 F  
HETATM   40  F   UNL     1      -8.322   8.981  64.322  1.00  0.00    -0.141 F  
HETATM   41  N   UNL     1     -11.984  12.717  64.010  1.00  0.00    -0.410 NA 
HETATM   42  C   UNL     1     -12.366  14.019  63.978  1.00  0.00    -0.298 A  
HETATM   43  C   UNL     1     -11.677  15.053  64.608  1.00  0.00    -0.383 A  
ENDBRANCH  28  30
ENDBRANCH  27  28
ENDBRANCH  20  22
ENDBRANCH  19  20
ENDBRANCH  18  19
ENDBRANCH  17  18
ENDBRANCH  14  17
ENDBRANCH   7  11
TORSDOF 8
ENDMDL
MODEL       50
REMARK 921   NORMALIZED FREE ENERGY PREDICTED BY IDOCK:   -6.75 KCAL/MOL
REMARK 922        TOTAL FREE ENERGY PREDICTED BY IDOCK:  -13.31 KCAL/MOL
REMARK 923 INTER-LIGAND FREE ENERGY PREDICTED BY IDOCK:  -10.96 KCAL/MOL
REMARK 924 INTRA-LIGAND FREE ENERGY PREDICTED BY IDOCK:   -2.35 KCAL/MOL
REMARK 927      BINDING AFFINITY PREDICTED BY RF-SCORE:    0.00 PKD
ROOT
HETATM    1  F   UNL     1     -11.132   6.087  70.768  1.00  0.00    -0.313 F  
HETATM    2  C   UNL     1     -12.045   6.967  71.267  1.00  0.00    -0.373 C  
HETATM    3  C   UNL     1     -11.797   8.400  70.867  1.00  0.00    -0.237 A  
HETATM    4  F   UNL     1     -13.264   6.512  70.863  1.00  0.00    -0.188 F  
HETATM    5  F   UNL     1     -12.017   6.800  72.619  1.00  0.00    -0.244 F  
HETATM    6  C   UNL     1     -10.702   8.758  70.054  1.00  0.00    -0.236 A  
HETATM    7  C   UNL     1     -10.421  10.101  69.776  1.00  0.00    -0.263 A  
HETATM    8  C   UNL     1     -12.650   9.400  71.357  1.00  0.00    -0.430 A  
HETATM    9  C   UNL     1     -11.312  11.070  70.270  1.00  0.00    -0.291 A  
HETATM   10  C   UNL     1     -12.414  10.733  71.049  1.00  0.00    -0.522 A  
ENDROOT
BRANCH   7  11
HETATM   11  N   UNL     1      -9.290  10.544  69.084  1.00  0.00    -0.199 NA 
HETATM   12  C   UNL     1      -6.866  10.882  68.700  1.00  0.00    -0.062 C  
HETATM   13  C   UNL     1      -7.973  10.586  69.752  1.00  0.00     0.002 C  
HETATM   14  N   UNL     1      -7.067  12.111  67.883  1.00  0.00    -0.091 NA 
HETATM   15  C   UNL     1      -9.570  11.749  68.268  1.00  0.00    -0.199 C  
HETATM   16  C   UNL     1      -8.417  11.991  67.265  1.00  0.00    -0.175 C  
BRANCH  14  17
HETATM   17  C   UNL     1      -6.971  13.362  68.673  1.00  0.00    -0.101 C  
BRANCH  17  18
HETATM   18  C   UNL     1      -6.044  14.452  68.086  1.00  0.00    -0.137 C  
BRANCH  18  19
HETATM   19  O   UNL     1      -6.788  15.460  67.338  1.00  0.00    -0.181 OA 
BRANCH  19  20
HETATM   20  C   UNL     1      -6.083  16.605  67.158  1.00  0.00    -0.167 C  
HETATM   21  O   UNL     1      -5.137  16.688  66.372  1.00  0.00    -0.342 OA 
BRANCH  20  22
HETATM   22  C   UNL     1      -6.532  17.805  67.942  1.00  0.00    -0.179 A  
HETATM   23  C   UNL     1      -5.453  18.465  68.580  1.00  0.00    -0.181 A  
HETATM   24  C   UNL     1      -5.643  19.585  69.379  1.00  0.00    -0.242 A  
HETATM   25  C   UNL     1      -6.925  20.084  69.546  1.00  0.00    -0.211 A  
HETATM   26  C   UNL     1      -8.007  19.460  68.917  1.00  0.00    -0.360 A  
HETATM   27  C   UNL     1      -7.850  18.310  68.110  1.00  0.00    -0.288 A  
BRANCH  27  28
HETATM   28  N   UNL     1      -8.997  17.679  67.583  1.00  0.00    -0.238 NA 
HETATM   29  H   UNL     1      -9.243  18.010  66.649  1.00  0.00     0.000 HD 
BRANCH  28  30
HETATM   30  C   UNL     1      -9.884  16.679  68.076  1.00  0.00    -0.245 A  
HETATM   31  C   UNL     1     -10.291  15.633  67.213  1.00  0.00    -0.277 A  
HETATM   32  C   UNL     1      -9.619  15.373  66.008  1.00  0.00    -0.382 A  
HETATM   33  C   UNL     1     -10.102  14.438  65.101  1.00  0.00    -0.359 A  
HETATM   34  C   UNL     1     -11.290  13.759  65.361  1.00  0.00    -0.314 A  
HETATM   35  C   UNL     1     -11.894  13.929  66.625  1.00  0.00    -0.447 A  
HETATM   36  C   UNL     1     -11.907  12.909  64.274  1.00  0.00    -0.395 C  
HETATM   37  C   UNL     1     -11.392  14.822  67.574  1.00  0.00    -0.344 A  
HETATM   38  F   UNL     1     -11.190  12.938  63.111  1.00  0.00    -0.457 F  
HETATM   39  F   UNL     1     -12.019  11.595  64.602  1.00  0.00    -0.315 F  
HETATM   40  F   UNL     1     -13.158  13.327  63.933  1.00  0.00    -0.032 F  
HETATM   41  N   UNL     1     -11.968  14.925  68.782  1.00  0.00    -0.283 NA 
HETATM   42  C   UNL     1     -11.467  15.838  69.652  1.00  0.00    -0.346 A  
HETATM   43  C   UNL     1     -10.455  16.743  69.341  1.00  0.00    -0.312 A  
ENDBRANCH  28  30
ENDBRANCH  27  28
ENDBRANCH  20  22
ENDBRANCH  19  20
ENDBRANCH  18  19
ENDBRANCH  17  18
ENDBRANCH  14  17
ENDBRANCH   7  11
TORSDOF 8
ENDMDL
MODEL       51
REMARK 921   NORMALIZED FREE ENERGY PREDICTED BY IDOCK:   -6.74 KCAL/MOL
REMARK 922        TOTAL FREE ENERGY PREDICTED BY IDOCK:  -13.29 KCAL/MOL
REMARK 923 INTER-LIGAND FREE ENERGY PREDICTED BY IDOCK:  -10.41 KCAL/MOL
REMARK 924 INTRA-LIGAND FREE ENERGY PREDICTED BY IDOCK:   -2.88 KCAL/MOL
REMARK 927      BINDING AFFINITY PREDICTED BY RF-SCORE:    0.00 PKD
ROOT
HETATM    1  F   UNL     1     -11.786  11.802  70.632  1.00  0.00    -0.415 F  
HETATM    2  C   UNL     1     -12.547  10.782  71.119  1.00  0.00    -0.428 C  
HETATM    3  C   UNL     1     -11.806   9.476  71.259  1.00  0.00    -0.450 A  
HETATM    4  F   UNL     1     -13.057  11.226  72.301  1.00  0.00    -0.579 F  
HETATM    5  F   UNL     1     -13.611  10.679  70.273  1.00  0.00    -0.163 F  
HETATM    6  C   UNL     1     -10.447   9.359  70.899  1.00  0.00    -0.381 A  
HETATM    7  C   UNL     1      -9.797   8.120  70.934  1.00  0.00    -0.176 A  
HETATM    8  C   UNL     1     -12.500   8.344  71.712  1.00  0.00    -0.375 A  
HETATM    9  C   UNL     1     -10.523   7.015  71.412  1.00  0.00    -0.225 A  
HETATM   10  C   UNL     1     -11.857   7.117  71.799  1.00  0.00    -0.338 A  
ENDROOT
BRANCH   7  11
HETATM   11  N   UNL     1      -8.494   7.898  70.478  1.00  0.00    -0.124 NA 
HETATM   12  C   UNL     1      -6.236   8.545  69.690  1.00  0.00    -0.039 C  
HETATM   13  C   UNL     1      -7.711   9.000  69.884  1.00  0.00    -0.076 C  
HETATM   14  N   UNL     1      -6.048   7.296  68.899  1.00  0.00    -0.026 NA 
HETATM   15  C   UNL     1      -8.372   6.625  69.730  1.00  0.00    -0.132 C  
HETATM   16  C   UNL     1      -6.881   6.251  69.557  1.00  0.00    -0.065 C  
BRANCH  14  17
HETATM   17  C   UNL     1      -6.431   7.441  67.475  1.00  0.00    -0.060 C  
BRANCH  17  18
HETATM   18  C   UNL     1      -5.995   8.761  66.797  1.00  0.00    -0.056 C  
BRANCH  18  19
HETATM   19  O   UNL     1      -7.104   9.420  66.114  1.00  0.00    -0.089 OA 
BRANCH  19  20
HETATM   20  C   UNL     1      -7.267  10.708  66.506  1.00  0.00    -0.134 C  
HETATM   21  O   UNL     1      -6.333  11.511  66.562  1.00  0.00    -0.131 OA 
BRANCH  20  22
HETATM   22  C   UNL     1      -8.667  11.140  66.840  1.00  0.00    -0.152 A  
HETATM   23  C   UNL     1      -9.553  10.041  66.964  1.00  0.00    -0.212 A  
HETATM   24  C   UNL     1     -10.903  10.212  67.244  1.00  0.00    -0.295 A  
HETATM   25  C   UNL     1     -11.398  11.494  67.423  1.00  0.00    -0.367 A  
HETATM   26  C   UNL     1     -10.541  12.596  67.319  1.00  0.00    -0.244 A  
HETATM   27  C   UNL     1      -9.167  12.458  67.020  1.00  0.00    -0.208 A  
BRANCH  27  28
HETATM   28  N   UNL     1      -8.385  13.618  66.839  1.00  0.00    -0.411 NA 
HETATM   29  H   UNL     1      -8.162  13.803  65.861  1.00  0.00     0.000 HD 
BRANCH  28  30
HETATM   30  C   UNL     1      -7.839  14.586  67.732  1.00  0.00    -0.161 A  
HETATM   31  C   UNL     1      -8.494  15.832  67.882  1.00  0.00    -0.161 A  
HETATM   32  C   UNL     1      -9.810  16.026  67.432  1.00  0.00    -0.236 A  
HETATM   33  C   UNL     1     -10.402  17.284  67.456  1.00  0.00    -0.346 A  
HETATM   34  C   UNL     1      -9.679  18.388  67.904  1.00  0.00    -0.325 A  
HETATM   35  C   UNL     1      -8.406  18.169  68.471  1.00  0.00    -0.314 A  
HETATM   36  C   UNL     1     -10.262  19.772  67.724  1.00  0.00    -0.437 C  
HETATM   37  C   UNL     1      -7.817  16.903  68.509  1.00  0.00    -0.240 A  
HETATM   38  F   UNL     1     -11.474  19.756  67.094  1.00  0.00    -0.418 F  
HETATM   39  F   UNL     1     -10.464  20.438  68.892  1.00  0.00    -0.518 F  
HETATM   40  F   UNL     1      -9.471  20.573  66.958  1.00  0.00    -0.492 F  
HETATM   41  N   UNL     1      -6.623  16.726  69.095  1.00  0.00    -0.202 NA 
HETATM   42  C   UNL     1      -6.076  15.485  69.066  1.00  0.00    -0.106 A  
HETATM   43  C   UNL     1      -6.627  14.402  68.386  1.00  0.00    -0.104 A  
ENDBRANCH  28  30
ENDBRANCH  27  28
ENDBRANCH  20  22
ENDBRANCH  19  20
ENDBRANCH  18  19
ENDBRANCH  17  18
ENDBRANCH  14  17
ENDBRANCH   7  11
TORSDOF 8
ENDMDL
MODEL       52
REMARK 921   NORMALIZED FREE ENERGY PREDICTED BY IDOCK:   -6.72 KCAL/MOL
REMARK 922        TOTAL FREE ENERGY PREDICTED BY IDOCK:  -13.26 KCAL/MOL
REMARK 923 INTER-LIGAND FREE ENERGY PREDICTED BY IDOCK:  -10.49 KCAL/MOL
REMARK 924 INTRA-LIGAND FREE ENERGY PREDICTED BY IDOCK:   -2.77 KCAL/MOL
REMARK 927      BINDING AFFINITY PREDICTED BY RF-SCORE:    0.00 PKD
ROOT
HETATM    1  F   UNL     1     -13.155  14.581  73.642  1.00  0.00    -0.559 F  
HETATM    2  C   UNL     1     -12.738  15.095  72.452  1.00  0.00    -0.348 C  
HETATM    3  C   UNL     1     -12.537  14.060  71.373  1.00  0.00    -0.451 A  
HETATM    4  F   UNL     1     -13.657  16.040  72.109  1.00  0.00    -0.511 F  
HETATM    5  F   UNL     1     -11.591  15.778  72.726  1.00  0.00    -0.499 F  
HETATM    6  C   UNL     1     -12.764  12.689  71.617  1.00  0.00    -0.292 A  
HETATM    7  C   UNL     1     -12.475  11.728  70.643  1.00  0.00    -0.274 A  
HETATM    8  C   UNL     1     -12.069  14.469  70.115  1.00  0.00    -0.394 A  
HETATM    9  C   UNL     1     -12.025  12.181  69.390  1.00  0.00    -0.329 A  
HETATM   10  C   UNL     1     -11.823  13.532  69.121  1.00  0.00    -0.386 A  
ENDROOT
BRANCH   7  11
HETATM   11  N   UNL     1     -12.554  10.347  70.848  1.00  0.00    -0.355 NA 
HETATM   12  C   UNL     1     -13.360   8.265  71.923  1.00  0.00    -0.342 C  
HETATM   13  C   UNL     1     -13.194   9.806  72.064  1.00  0.00    -0.460 C  
HETATM   14  N   UNL     1     -12.113   7.510  71.619  1.00  0.00    -0.297 NA 
HETATM   15  C   UNL     1     -11.293   9.655  70.494  1.00  0.00    -0.296 C  
HETATM   16  C   UNL     1     -11.531   8.130  70.396  1.00  0.00    -0.125 C  
BRANCH  14  17
HETATM   17  C   UNL     1     -11.129   7.532  72.727  1.00  0.00    -0.366 C  
BRANCH  17  18
HETATM   18  C   UNL     1      -9.986   6.495  72.626  1.00  0.00    -0.171 C  
BRANCH  18  19
HETATM   19  O   UNL     1      -9.035   6.827  71.571  1.00  0.00    -0.138 OA 
BRANCH  19  20
HETATM   20  C   UNL     1      -8.914   5.842  70.646  1.00  0.00    -0.140 C  
HETATM   21  O   UNL     1      -9.695   4.890  70.581  1.00  0.00    -0.171 OA 
BRANCH  20  22
HETATM   22  C   UNL     1      -7.790   5.976  69.658  1.00  0.00    -0.102 A  
HETATM   23  C   UNL     1      -6.818   4.957  69.809  1.00  0.00    -0.052 A  
HETATM   24  C   UNL     1      -5.679   4.903  69.016  1.00  0.00    -0.016 A  
HETATM   25  C   UNL     1      -5.493   5.866  68.036  1.00  0.00    -0.004 A  
HETATM   26  C   UNL     1      -6.445   6.875  67.858  1.00  0.00    -0.050 A  
HETATM   27  C   UNL     1      -7.606   6.968  68.657  1.00  0.00    -0.108 A  
BRANCH  27  28
HETATM   28  N   UNL     1      -8.474   8.066  68.482  1.00  0.00    -0.127 NA 
HETATM   29  H   UNL     1      -9.429   7.790  68.250  1.00  0.00     0.000 HD 
BRANCH  28  30
HETATM   30  C   UNL     1      -8.302   9.479  68.561  1.00  0.00    -0.118 A  
HETATM   31  C   UNL     1      -9.080  10.315  67.724  1.00  0.00    -0.138 A  
HETATM   32  C   UNL     1     -10.217   9.831  67.058  1.00  0.00    -0.292 A  
HETATM   33  C   UNL     1     -10.898  10.614  66.133  1.00  0.00    -0.069 A  
HETATM   34  C   UNL     1     -10.439  11.894  65.827  1.00  0.00    -0.295 A  
HETATM   35  C   UNL     1      -9.376  12.422  66.588  1.00  0.00    -0.227 A  
HETATM   36  C   UNL     1     -11.063  12.644  64.672  1.00  0.00    -0.313 C  
HETATM   37  C   UNL     1      -8.715  11.672  67.563  1.00  0.00    -0.156 A  
HETATM   38  F   UNL     1     -12.030  11.920  64.033  1.00  0.00    -0.441 F  
HETATM   39  F   UNL     1     -11.657  13.812  65.032  1.00  0.00    -0.314 F  
HETATM   40  F   UNL     1     -10.155  12.958  63.706  1.00  0.00    -0.414 F  
HETATM   41  N   UNL     1      -7.735  12.222  68.297  1.00  0.00    -0.135 NA 
HETATM   42  C   UNL     1      -7.096  11.437  69.201  1.00  0.00    -0.115 A  
HETATM   43  C   UNL     1      -7.326  10.071  69.351  1.00  0.00    -0.100 A  
ENDBRANCH  28  30
ENDBRANCH  27  28
ENDBRANCH  20  22
ENDBRANCH  19  20
ENDBRANCH  18  19
ENDBRANCH  17  18
ENDBRANCH  14  17
ENDBRANCH   7  11
TORSDOF 8
ENDMDL
MODEL       53
REMARK 921   NORMALIZED FREE ENERGY PREDICTED BY IDOCK:   -6.69 KCAL/MOL
REMARK 922        TOTAL FREE ENERGY PREDICTED BY IDOCK:  -13.23 KCAL/MOL
REMARK 923 INTER-LIGAND FREE ENERGY PREDICTED BY IDOCK:   -9.51 KCAL/MOL
REMARK 924 INTRA-LIGAND FREE ENERGY PREDICTED BY IDOCK:   -3.71 KCAL/MOL
REMARK 927      BINDING AFFINITY PREDICTED BY RF-SCORE:    0.00 PKD
ROOT
HETATM    1  F   UNL     1     -11.985  10.937  68.343  1.00  0.00    -0.368 F  
HETATM    2  C   UNL     1     -11.653  10.820  69.659  1.00  0.00    -0.316 C  
HETATM    3  C   UNL     1     -11.045   9.488  70.022  1.00  0.00    -0.268 A  
HETATM    4  F   UNL     1     -10.825  11.867  69.931  1.00  0.00    -0.106 F  
HETATM    5  F   UNL     1     -12.800  11.067  70.353  1.00  0.00    -0.356 F  
HETATM    6  C   UNL     1     -10.862   8.475  69.058  1.00  0.00    -0.026 A  
HETATM    7  C   UNL     1     -10.396   7.208  69.425  1.00  0.00    -0.198 A  
HETATM    8  C   UNL     1     -10.702   9.238  71.360  1.00  0.00    -0.432 A  
HETATM    9  C   UNL     1     -10.045   7.005  70.772  1.00  0.00    -0.205 A  
HETATM   10  C   UNL     1     -10.192   8.002  71.732  1.00  0.00    -0.260 A  
ENDROOT
BRANCH   7  11
HETATM   11  N   UNL     1     -10.303   6.117  68.555  1.00  0.00    -0.184 NA 
HETATM   12  C   UNL     1      -9.507   3.900  67.789  1.00  0.00    -0.179 C  
HETATM   13  C   UNL     1      -9.234   5.113  68.724  1.00  0.00    -0.119 C  
HETATM   14  N   UNL     1      -9.681   4.228  66.346  1.00  0.00    -0.201 NA 
HETATM   15  C   UNL     1     -10.519   6.509  67.142  1.00  0.00    -0.287 C  
HETATM   16  C   UNL     1     -10.760   5.252  66.273  1.00  0.00    -0.196 C  
BRANCH  14  17
HETATM   17  C   UNL     1      -8.444   4.734  65.707  1.00  0.00    -0.119 C  
BRANCH  17  18
HETATM   18  C   UNL     1      -8.634   5.911  64.722  1.00  0.00     0.003 C  
BRANCH  18  19
HETATM   19  O   UNL     1      -7.521   6.854  64.770  1.00  0.00    -0.082 OA 
BRANCH  19  20
HETATM   20  C   UNL     1      -7.932   8.145  64.829  1.00  0.00    -0.147 C  
HETATM   21  O   UNL     1      -8.458   8.722  63.875  1.00  0.00    -0.168 OA 
BRANCH  20  22
HETATM   22  C   UNL     1      -7.752   8.852  66.143  1.00  0.00    -0.098 A  
HETATM   23  C   UNL     1      -7.296   7.980  67.163  1.00  0.00    -0.091 A  
HETATM   24  C   UNL     1      -7.086   8.416  68.465  1.00  0.00    -0.076 A  
HETATM   25  C   UNL     1      -7.315   9.749  68.775  1.00  0.00    -0.074 A  
HETATM   26  C   UNL     1      -7.753  10.632  67.783  1.00  0.00    -0.100 A  
HETATM   27  C   UNL     1      -7.990  10.218  66.454  1.00  0.00    -0.121 A  
BRANCH  27  28
HETATM   28  N   UNL     1      -8.520  11.143  65.530  1.00  0.00    -0.366 NA 
HETATM   29  H   UNL     1      -7.844  11.437  64.824  1.00  0.00     0.000 HD 
BRANCH  28  30
HETATM   30  C   UNL     1      -9.798  11.756  65.372  1.00  0.00    -0.233 A  
HETATM   31  C   UNL     1     -10.209  12.740  66.302  1.00  0.00    -0.264 A  
HETATM   32  C   UNL     1      -9.295  13.352  67.175  1.00  0.00    -0.240 A  
HETATM   33  C   UNL     1      -9.722  14.215  68.177  1.00  0.00    -0.225 A  
HETATM   34  C   UNL     1     -11.082  14.466  68.352  1.00  0.00    -0.272 A  
HETATM   35  C   UNL     1     -11.984  13.952  67.398  1.00  0.00    -0.436 A  
HETATM   36  C   UNL     1     -11.538  15.234  69.572  1.00  0.00    -0.322 C  
HETATM   37  C   UNL     1     -11.568  13.129  66.349  1.00  0.00    -0.349 A  
HETATM   38  F   UNL     1     -10.504  15.580  70.395  1.00  0.00    -0.299 F  
HETATM   39  F   UNL     1     -12.179  16.396  69.280  1.00  0.00    -0.158 F  
HETATM   40  F   UNL     1     -12.390  14.512  70.352  1.00  0.00    -0.316 F  
HETATM   41  N   UNL     1     -12.450  12.693  65.436  1.00  0.00    -0.655 NA 
HETATM   42  C   UNL     1     -12.001  11.861  64.462  1.00  0.00    -0.196 A  
HETATM   43  C   UNL     1     -10.706  11.352  64.403  1.00  0.00    -0.405 A  
ENDBRANCH  28  30
ENDBRANCH  27  28
ENDBRANCH  20  22
ENDBRANCH  19  20
ENDBRANCH  18  19
ENDBRANCH  17  18
ENDBRANCH  14  17
ENDBRANCH   7  11
TORSDOF 8
ENDMDL
MODEL       54
REMARK 921   NORMALIZED FREE ENERGY PREDICTED BY IDOCK:   -6.69 KCAL/MOL
REMARK 922        TOTAL FREE ENERGY PREDICTED BY IDOCK:  -13.22 KCAL/MOL
REMARK 923 INTER-LIGAND FREE ENERGY PREDICTED BY IDOCK:  -10.19 KCAL/MOL
REMARK 924 INTRA-LIGAND FREE ENERGY PREDICTED BY IDOCK:   -3.03 KCAL/MOL
REMARK 927      BINDING AFFINITY PREDICTED BY RF-SCORE:    0.00 PKD
ROOT
HETATM    1  F   UNL     1     -12.082  12.101  66.643  1.00  0.00    -0.400 F  
HETATM    2  C   UNL     1     -11.803  12.411  65.346  1.00  0.00    -0.406 C  
HETATM    3  C   UNL     1     -10.810  11.483  64.693  1.00  0.00    -0.372 A  
HETATM    4  F   UNL     1     -13.002  12.436  64.700  1.00  0.00    -0.557 F  
HETATM    5  F   UNL     1     -11.365  13.702  65.362  1.00  0.00    -0.299 F  
HETATM    6  C   UNL     1     -10.235  10.405  65.399  1.00  0.00    -0.329 A  
HETATM    7  C   UNL     1      -9.238   9.615  64.817  1.00  0.00    -0.238 A  
HETATM    8  C   UNL     1     -10.415  11.731  63.369  1.00  0.00    -0.485 A  
HETATM    9  C   UNL     1      -8.885   9.884  63.483  1.00  0.00    -0.251 A  
HETATM   10  C   UNL     1      -9.462  10.926  62.761  1.00  0.00    -0.359 A  
ENDROOT
BRANCH   7  11
HETATM   11  N   UNL     1      -8.534   8.610  65.489  1.00  0.00    -0.156 NA 
HETATM   12  C   UNL     1      -7.808   6.288  65.958  1.00  0.00    -0.106 C  
HETATM   13  C   UNL     1      -8.888   7.190  65.294  1.00  0.00     0.187 C  
HETATM   14  N   UNL     1      -7.544   6.559  67.399  1.00  0.00    -0.098 NA 
HETATM   15  C   UNL     1      -8.277   8.959  66.906  1.00  0.00    -0.112 C  
HETATM   16  C   UNL     1      -7.214   8.008  67.504  1.00  0.00    -0.088 C  
BRANCH  14  17
HETATM   17  C   UNL     1      -8.690   6.226  68.278  1.00  0.00    -0.115 C  
BRANCH  17  18
HETATM   18  C   UNL     1      -8.634   6.822  69.704  1.00  0.00    -0.133 C  
BRANCH  18  19
HETATM   19  O   UNL     1      -9.817   7.617  70.014  1.00  0.00    -0.179 OA 
BRANCH  19  20
HETATM   20  C   UNL     1      -9.514   8.894  70.356  1.00  0.00    -0.195 C  
HETATM   21  O   UNL     1      -8.355   9.285  70.514  1.00  0.00    -0.172 OA 
BRANCH  20  22
HETATM   22  C   UNL     1     -10.667   9.846  70.502  1.00  0.00    -0.382 A  
HETATM   23  C   UNL     1     -11.564   9.451  71.525  1.00  0.00    -0.467 A  
HETATM   24  C   UNL     1     -12.715  10.173  71.815  1.00  0.00    -0.534 A  
HETATM   25  C   UNL     1     -12.989  11.324  71.092  1.00  0.00    -0.369 A  
HETATM   26  C   UNL     1     -12.113  11.743  70.086  1.00  0.00    -0.398 A  
HETATM   27  C   UNL     1     -10.942  11.024  69.756  1.00  0.00    -0.193 A  
BRANCH  27  28
HETATM   28  N   UNL     1     -10.155  11.456  68.667  1.00  0.00    -0.209 NA 
HETATM   29  H   UNL     1     -10.467  11.079  67.772  1.00  0.00     0.000 HD 
BRANCH  28  30
HETATM   30  C   UNL     1      -9.017  12.306  68.552  1.00  0.00    -0.070 A  
HETATM   31  C   UNL     1      -9.211  13.696  68.365  1.00  0.00    -0.169 A  
HETATM   32  C   UNL     1     -10.457  14.300  68.600  1.00  0.00    -0.249 A  
HETATM   33  C   UNL     1     -10.681  15.635  68.286  1.00  0.00    -0.283 A  
HETATM   34  C   UNL     1      -9.671  16.395  67.698  1.00  0.00    -0.238 A  
HETATM   35  C   UNL     1      -8.387  15.823  67.580  1.00  0.00    -0.170 A  
HETATM   36  C   UNL     1      -9.998  17.774  67.171  1.00  0.00    -0.322 C  
HETATM   37  C   UNL     1      -8.127  14.500  67.944  1.00  0.00    -0.148 A  
HETATM   38  F   UNL     1     -11.315  18.101  67.331  1.00  0.00    -0.211 F  
HETATM   39  F   UNL     1      -9.297  18.771  67.773  1.00  0.00    -0.287 F  
HETATM   40  F   UNL     1      -9.760  17.890  65.835  1.00  0.00    -0.264 F  
HETATM   41  N   UNL     1      -6.883  14.004  67.858  1.00  0.00    -0.147 NA 
HETATM   42  C   UNL     1      -6.692  12.700  68.183  1.00  0.00    -0.082 A  
HETATM   43  C   UNL     1      -7.718  11.816  68.509  1.00  0.00    -0.137 A  
ENDBRANCH  28  30
ENDBRANCH  27  28
ENDBRANCH  20  22
ENDBRANCH  19  20
ENDBRANCH  18  19
ENDBRANCH  17  18
ENDBRANCH  14  17
ENDBRANCH   7  11
TORSDOF 8
ENDMDL
MODEL       55
REMARK 921   NORMALIZED FREE ENERGY PREDICTED BY IDOCK:   -6.65 KCAL/MOL
REMARK 922        TOTAL FREE ENERGY PREDICTED BY IDOCK:  -13.17 KCAL/MOL
REMARK 923 INTER-LIGAND FREE ENERGY PREDICTED BY IDOCK:  -11.71 KCAL/MOL
REMARK 924 INTRA-LIGAND FREE ENERGY PREDICTED BY IDOCK:   -1.46 KCAL/MOL
REMARK 927      BINDING AFFINITY PREDICTED BY RF-SCORE:    0.00 PKD
ROOT
HETATM    1  F   UNL     1     -10.010   3.512  70.117  1.00  0.00    -0.248 F  
HETATM    2  C   UNL     1      -9.678   3.569  71.437  1.00  0.00    -0.166 C  
HETATM    3  C   UNL     1     -10.112   4.840  72.125  1.00  0.00    -0.252 A  
HETATM    4  F   UNL     1     -10.213   2.454  72.007  1.00  0.00    -0.225 F  
HETATM    5  F   UNL     1      -8.326   3.397  71.485  1.00  0.00    -0.061 F  
HETATM    6  C   UNL     1     -10.792   5.859  71.426  1.00  0.00    -0.332 A  
HETATM    7  C   UNL     1     -11.098   7.075  72.046  1.00  0.00    -0.243 A  
HETATM    8  C   UNL     1      -9.787   5.027  73.477  1.00  0.00    -0.168 A  
HETATM    9  C   UNL     1     -10.772   7.216  73.407  1.00  0.00    -0.410 A  
HETATM   10  C   UNL     1     -10.126   6.210  74.120  1.00  0.00    -0.304 A  
ENDROOT
BRANCH   7  11
HETATM   11  N   UNL     1     -11.658   8.177  71.392  1.00  0.00    -0.270 NA 
HETATM   12  C   UNL     1     -11.630  10.319  70.146  1.00  0.00    -0.299 C  
HETATM   13  C   UNL     1     -10.832   9.359  71.076  1.00  0.00    -0.336 C  
HETATM   14  N   UNL     1     -12.963  10.745  70.657  1.00  0.00    -0.289 NA 
HETATM   15  C   UNL     1     -12.995   8.525  71.926  1.00  0.00    -0.362 C  
HETATM   16  C   UNL     1     -13.717   9.497  70.963  1.00  0.00    -0.024 C  
BRANCH  14  17
HETATM   17  C   UNL     1     -12.882  11.607  71.859  1.00  0.00    -0.248 C  
BRANCH  17  18
HETATM   18  C   UNL     1     -12.939  13.130  71.593  1.00  0.00    -0.335 C  
BRANCH  18  19
HETATM   19  O   UNL     1     -11.725  13.620  70.949  1.00  0.00    -0.128 OA 
BRANCH  19  20
HETATM   20  C   UNL     1     -11.966  14.185  69.740  1.00  0.00    -0.339 C  
HETATM   21  O   UNL     1     -12.760  15.115  69.585  1.00  0.00    -0.109 OA 
BRANCH  20  22
HETATM   22  C   UNL     1     -11.182  13.648  68.575  1.00  0.00    -0.310 A  
HETATM   23  C   UNL     1     -12.014  13.037  67.604  1.00  0.00    -0.353 A  
HETATM   24  C   UNL     1     -11.497  12.451  66.456  1.00  0.00    -0.427 A  
HETATM   25  C   UNL     1     -10.127  12.476  66.244  1.00  0.00    -0.264 A  
HETATM   26  C   UNL     1      -9.285  13.084  67.181  1.00  0.00    -0.226 A  
HETATM   27  C   UNL     1      -9.777  13.676  68.366  1.00  0.00    -0.217 A  
BRANCH  27  28
HETATM   28  N   UNL     1      -8.861  14.188  69.309  1.00  0.00    -0.339 NA 
HETATM   29  H   UNL     1      -8.796  13.620  70.154  1.00  0.00     0.000 HD 
BRANCH  28  30
HETATM   30  C   UNL     1      -8.007  15.330  69.333  1.00  0.00    -0.223 A  
HETATM   31  C   UNL     1      -8.506  16.572  68.871  1.00  0.00    -0.235 A  
HETATM   32  C   UNL     1      -9.881  16.788  68.689  1.00  0.00    -0.261 A  
HETATM   33  C   UNL     1     -10.356  17.958  68.108  1.00  0.00    -0.395 A  
HETATM   34  C   UNL     1      -9.463  18.932  67.665  1.00  0.00    -0.340 A  
HETATM   35  C   UNL     1      -8.094  18.768  67.963  1.00  0.00    -0.308 A  
HETATM   36  C   UNL     1      -9.984  20.093  66.849  1.00  0.00    -0.462 C  
HETATM   37  C   UNL     1      -7.603  17.625  68.598  1.00  0.00    -0.276 A  
HETATM   38  F   UNL     1     -11.330  20.018  66.624  1.00  0.00    -0.357 F  
HETATM   39  F   UNL     1      -9.776  21.306  67.425  1.00  0.00    -0.611 F  
HETATM   40  F   UNL     1      -9.418  20.154  65.611  1.00  0.00    -0.405 F  
HETATM   41  N   UNL     1      -6.300  17.524  68.903  1.00  0.00    -0.200 NA 
HETATM   42  C   UNL     1      -5.867  16.375  69.481  1.00  0.00    -0.170 A  
HETATM   43  C   UNL     1      -6.668  15.255  69.691  1.00  0.00    -0.181 A  
ENDBRANCH  28  30
ENDBRANCH  27  28
ENDBRANCH  20  22
ENDBRANCH  19  20
ENDBRANCH  18  19
ENDBRANCH  17  18
ENDBRANCH  14  17
ENDBRANCH   7  11
TORSDOF 8
ENDMDL
MODEL       56
REMARK 921   NORMALIZED FREE ENERGY PREDICTED BY IDOCK:   -6.65 KCAL/MOL
REMARK 922        TOTAL FREE ENERGY PREDICTED BY IDOCK:  -13.16 KCAL/MOL
REMARK 923 INTER-LIGAND FREE ENERGY PREDICTED BY IDOCK:   -9.77 KCAL/MOL
REMARK 924 INTRA-LIGAND FREE ENERGY PREDICTED BY IDOCK:   -3.39 KCAL/MOL
REMARK 927      BINDING AFFINITY PREDICTED BY RF-SCORE:    0.00 PKD
ROOT
HETATM    1  F   UNL     1     -10.650  10.477  64.255  1.00  0.00    -0.431 F  
HETATM    2  C   UNL     1     -11.123  11.754  64.243  1.00  0.00    -0.355 C  
HETATM    3  C   UNL     1     -11.357  12.335  65.616  1.00  0.00    -0.394 A  
HETATM    4  F   UNL     1     -10.230  12.478  63.512  1.00  0.00    -0.405 F  
HETATM    5  F   UNL     1     -12.266  11.718  63.501  1.00  0.00    -0.550 F  
HETATM    6  C   UNL     1     -11.104  11.586  66.784  1.00  0.00    -0.361 A  
HETATM    7  C   UNL     1     -11.423  12.095  68.048  1.00  0.00    -0.319 A  
HETATM    8  C   UNL     1     -11.883  13.631  65.726  1.00  0.00    -0.397 A  
HETATM    9  C   UNL     1     -11.930  13.405  68.116  1.00  0.00    -0.356 A  
HETATM   10  C   UNL     1     -12.159  14.170  66.975  1.00  0.00    -0.449 A  
ENDROOT
BRANCH   7  11
HETATM   11  N   UNL     1     -11.319  11.373  69.240  1.00  0.00    -0.264 NA 
HETATM   12  C   UNL     1     -10.350   9.699  70.790  1.00  0.00    -0.286 C  
HETATM   13  C   UNL     1     -10.479  10.160  69.309  1.00  0.00    -0.225 C  
HETATM   14  N   UNL     1     -11.637   9.475  71.506  1.00  0.00    -0.381 NA 
HETATM   15  C   UNL     1     -12.628  11.216  69.916  1.00  0.00    -0.105 C  
HETATM   16  C   UNL     1     -12.421  10.734  71.371  1.00  0.00    -0.373 C  
BRANCH  14  17
HETATM   17  C   UNL     1     -12.410   8.327  70.976  1.00  0.00    -0.133 C  
BRANCH  17  18
HETATM   18  C   UNL     1     -12.416   7.059  71.863  1.00  0.00    -0.311 C  
BRANCH  18  19
HETATM   19  O   UNL     1     -11.192   6.932  72.647  1.00  0.00    -0.261 OA 
BRANCH  19  20
HETATM   20  C   UNL     1     -10.878   5.641  72.921  1.00  0.00    -0.264 C  
HETATM   21  O   UNL     1     -11.728   4.797  73.212  1.00  0.00    -0.312 OA 
BRANCH  20  22
HETATM   22  C   UNL     1      -9.428   5.261  72.818  1.00  0.00    -0.157 A  
HETATM   23  C   UNL     1      -9.029   4.378  73.852  1.00  0.00    -0.102 A  
HETATM   24  C   UNL     1      -7.724   3.918  73.964  1.00  0.00    -0.079 A  
HETATM   25  C   UNL     1      -6.783   4.322  73.028  1.00  0.00    -0.051 A  
HETATM   26  C   UNL     1      -7.155   5.183  71.990  1.00  0.00    -0.083 A  
HETATM   27  C   UNL     1      -8.470   5.681  71.856  1.00  0.00    -0.127 A  
BRANCH  27  28
HETATM   28  N   UNL     1      -8.749   6.618  70.839  1.00  0.00    -0.138 NA 
HETATM   29  H   UNL     1      -8.562   7.581  71.119  1.00  0.00     0.000 HD 
BRANCH  28  30
HETATM   30  C   UNL     1      -9.236   6.506  69.504  1.00  0.00    -0.142 A  
HETATM   31  C   UNL     1      -8.650   7.298  68.488  1.00  0.00    -0.124 A  
HETATM   32  C   UNL     1      -7.420   7.947  68.682  1.00  0.00    -0.099 A  
HETATM   33  C   UNL     1      -6.914   8.832  67.737  1.00  0.00    -0.075 A  
HETATM   34  C   UNL     1      -7.644   9.115  66.583  1.00  0.00    -0.089 A  
HETATM   35  C   UNL     1      -8.814   8.369  66.333  1.00  0.00    -0.181 A  
HETATM   36  C   UNL     1      -7.182  10.233  65.676  1.00  0.00    -0.148 C  
HETATM   37  C   UNL     1      -9.308   7.433  67.244  1.00  0.00    -0.133 A  
HETATM   38  F   UNL     1      -6.064  10.864  66.143  1.00  0.00    -0.094 F  
HETATM   39  F   UNL     1      -6.873   9.825  64.417  1.00  0.00    -0.096 F  
HETATM   40  F   UNL     1      -8.117  11.214  65.543  1.00  0.00    -0.126 F  
HETATM   41  N   UNL     1     -10.401   6.712  66.951  1.00  0.00    -0.242 NA 
HETATM   42  C   UNL     1     -10.865   5.847  67.889  1.00  0.00    -0.233 A  
HETATM   43  C   UNL     1     -10.337   5.727  69.172  1.00  0.00    -0.316 A  
ENDBRANCH  28  30
ENDBRANCH  27  28
ENDBRANCH  20  22
ENDBRANCH  19  20
ENDBRANCH  18  19
ENDBRANCH  17  18
ENDBRANCH  14  17
ENDBRANCH   7  11
TORSDOF 8
ENDMDL
MODEL       57
REMARK 921   NORMALIZED FREE ENERGY PREDICTED BY IDOCK:   -6.62 KCAL/MOL
REMARK 922        TOTAL FREE ENERGY PREDICTED BY IDOCK:  -13.11 KCAL/MOL
REMARK 923 INTER-LIGAND FREE ENERGY PREDICTED BY IDOCK:   -9.32 KCAL/MOL
REMARK 924 INTRA-LIGAND FREE ENERGY PREDICTED BY IDOCK:   -3.80 KCAL/MOL
REMARK 927      BINDING AFFINITY PREDICTED BY RF-SCORE:    0.00 PKD
ROOT
HETATM    1  F   UNL     1     -11.595  11.003  65.302  1.00  0.00    -0.011 F  
HETATM    2  C   UNL     1     -11.767  12.330  65.558  1.00  0.00    -0.377 C  
HETATM    3  C   UNL     1     -11.761  12.677  67.026  1.00  0.00    -0.438 A  
HETATM    4  F   UNL     1     -10.792  12.976  64.862  1.00  0.00    -0.291 F  
HETATM    5  F   UNL     1     -12.941  12.673  64.956  1.00  0.00    -0.564 F  
HETATM    6  C   UNL     1     -11.597  11.686  68.016  1.00  0.00    -0.383 A  
HETATM    7  C   UNL     1     -11.697  12.002  69.376  1.00  0.00    -0.340 A  
HETATM    8  C   UNL     1     -11.971  14.009  67.412  1.00  0.00    -0.439 A  
HETATM    9  C   UNL     1     -11.890  13.352  69.719  1.00  0.00    -0.393 A  
HETATM   10  C   UNL     1     -12.025  14.349  68.757  1.00  0.00    -0.331 A  
ENDROOT
BRANCH   7  11
HETATM   11  N   UNL     1     -11.670  11.062  70.410  1.00  0.00    -0.335 NA 
HETATM   12  C   UNL     1     -10.735   9.191  71.738  1.00  0.00    -0.335 C  
HETATM   13  C   UNL     1     -10.721   9.932  70.370  1.00  0.00    -0.318 C  
HETATM   14  N   UNL     1     -12.072   8.723  72.200  1.00  0.00    -0.367 NA 
HETATM   15  C   UNL     1     -13.031  10.667  70.843  1.00  0.00    -0.340 C  
HETATM   16  C   UNL     1     -12.963   9.917  72.194  1.00  0.00    -0.379 C  
BRANCH  14  17
HETATM   17  C   UNL     1     -12.642   7.649  71.353  1.00  0.00    -0.333 C  
BRANCH  17  18
HETATM   18  C   UNL     1     -12.240   6.207  71.742  1.00  0.00    -0.031 C  
BRANCH  18  19
HETATM   19  O   UNL     1     -10.848   5.918  71.414  1.00  0.00    -0.256 OA 
BRANCH  19  20
HETATM   20  C   UNL     1     -10.615   5.917  70.077  1.00  0.00    -0.295 C  
HETATM   21  O   UNL     1     -11.521   5.979  69.243  1.00  0.00    -0.345 OA 
BRANCH  20  22
HETATM   22  C   UNL     1      -9.178   5.874  69.642  1.00  0.00    -0.151 A  
HETATM   23  C   UNL     1      -8.439   4.876  70.325  1.00  0.00    -0.099 A  
HETATM   24  C   UNL     1      -7.084   4.677  70.097  1.00  0.00    -0.049 A  
HETATM   25  C   UNL     1      -6.434   5.470  69.163  1.00  0.00    -0.039 A  
HETATM   26  C   UNL     1      -7.142   6.454  68.467  1.00  0.00    -0.083 A  
HETATM   27  C   UNL     1      -8.518   6.692  68.685  1.00  0.00    -0.122 A  
BRANCH  27  28
HETATM   28  N   UNL     1      -9.145   7.762  68.014  1.00  0.00    -0.129 NA 
HETATM   29  H   UNL     1     -10.058   7.999  68.402  1.00  0.00     0.000 HD 
BRANCH  28  30
HETATM   30  C   UNL     1      -8.774   8.584  66.909  1.00  0.00    -0.128 A  
HETATM   31  C   UNL     1      -8.377   9.921  67.148  1.00  0.00    -0.121 A  
HETATM   32  C   UNL     1      -8.038  10.366  68.437  1.00  0.00    -0.112 A  
HETATM   33  C   UNL     1      -7.781  11.708  68.691  1.00  0.00    -0.134 A  
HETATM   34  C   UNL     1      -7.887  12.648  67.667  1.00  0.00    -0.162 A  
HETATM   35  C   UNL     1      -8.104  12.182  66.353  1.00  0.00     0.207 A  
HETATM   36  C   UNL     1      -7.814  14.119  68.006  1.00  0.00    -0.146 C  
HETATM   37  C   UNL     1      -8.307  10.830  66.067  1.00  0.00    -0.163 A  
HETATM   38  F   UNL     1      -7.667  14.345  69.346  1.00  0.00    -0.129 F  
HETATM   39  F   UNL     1      -6.781  14.769  67.409  1.00  0.00    -0.185 F  
HETATM   40  F   UNL     1      -8.945  14.791  67.652  1.00  0.00    -0.167 F  
HETATM   41  N   UNL     1      -8.467  10.420  64.800  1.00  0.00    -0.175 NA 
HETATM   42  C   UNL     1      -8.704   9.102  64.581  1.00  0.00    -0.166 A  
HETATM   43  C   UNL     1      -8.887   8.161  65.591  1.00  0.00    -0.160 A  
ENDBRANCH  28  30
ENDBRANCH  27  28
ENDBRANCH  20  22
ENDBRANCH  19  20
ENDBRANCH  18  19
ENDBRANCH  17  18
ENDBRANCH  14  17
ENDBRANCH   7  11
TORSDOF 8
ENDMDL
MODEL       58
REMARK 921   NORMALIZED FREE ENERGY PREDICTED BY IDOCK:   -6.60 KCAL/MOL
REMARK 922        TOTAL FREE ENERGY PREDICTED BY IDOCK:  -13.09 KCAL/MOL
REMARK 923 INTER-LIGAND FREE ENERGY PREDICTED BY IDOCK:  -10.45 KCAL/MOL
REMARK 924 INTRA-LIGAND FREE ENERGY PREDICTED BY IDOCK:   -2.64 KCAL/MOL
REMARK 927      BINDING AFFINITY PREDICTED BY RF-SCORE:    0.00 PKD
ROOT
HETATM    1  F   UNL     1      -7.915  19.386  67.806  1.00  0.00    -0.286 F  
HETATM    2  C   UNL     1      -8.988  19.056  67.034  1.00  0.00    -0.294 C  
HETATM    3  C   UNL     1      -9.171  17.571  66.841  1.00  0.00    -0.273 A  
HETATM    4  F   UNL     1     -10.067  19.646  67.620  1.00  0.00    -0.417 F  
HETATM    5  F   UNL     1      -8.807  19.708  65.851  1.00  0.00    -0.357 F  
HETATM    6  C   UNL     1      -8.282  16.639  67.418  1.00  0.00    -0.189 A  
HETATM    7  C   UNL     1      -8.399  15.271  67.148  1.00  0.00    -0.216 A  
HETATM    8  C   UNL     1     -10.220  17.113  66.030  1.00  0.00    -0.332 A  
HETATM    9  C   UNL     1      -9.475  14.853  66.345  1.00  0.00    -0.327 A  
HETATM   10  C   UNL     1     -10.379  15.755  65.791  1.00  0.00    -0.390 A  
ENDROOT
BRANCH   7  11
HETATM   11  N   UNL     1      -7.489  14.300  67.579  1.00  0.00    -0.179 NA 
HETATM   12  C   UNL     1      -6.223  12.175  67.448  1.00  0.00    -0.142 C  
HETATM   13  C   UNL     1      -7.472  12.962  66.955  1.00  0.00     0.110 C  
HETATM   14  N   UNL     1      -6.082  12.055  68.926  1.00  0.00    -0.063 NA 
HETATM   15  C   UNL     1      -7.373  14.259  69.055  1.00  0.00    -0.117 C  
HETATM   16  C   UNL     1      -6.126  13.442  69.468  1.00  0.00    -0.110 C  
BRANCH  14  17
HETATM   17  C   UNL     1      -7.137  11.223  69.550  1.00  0.00    -0.058 C  
BRANCH  17  18
HETATM   18  C   UNL     1      -6.636  10.122  70.514  1.00  0.00    -0.110 C  
BRANCH  18  19
HETATM   19  O   UNL     1      -7.140   8.802  70.149  1.00  0.00    -0.041 OA 
BRANCH  19  20
HETATM   20  C   UNL     1      -8.453   8.642  70.451  1.00  0.00    -0.140 C  
HETATM   21  O   UNL     1      -8.968   9.125  71.461  1.00  0.00    -0.319 OA 
BRANCH  20  22
HETATM   22  C   UNL     1      -9.283   7.870  69.465  1.00  0.00    -0.152 A  
HETATM   23  C   UNL     1     -10.215   7.013  70.102  1.00  0.00    -0.206 A  
HETATM   24  C   UNL     1     -11.068   6.187  69.382  1.00  0.00    -0.479 A  
HETATM   25  C   UNL     1     -11.019   6.209  67.997  1.00  0.00    -0.399 A  
HETATM   26  C   UNL     1     -10.117   7.055  67.343  1.00  0.00    -0.252 A  
HETATM   27  C   UNL     1      -9.226   7.897  68.045  1.00  0.00    -0.131 A  
BRANCH  27  28
HETATM   28  N   UNL     1      -8.280   8.654  67.321  1.00  0.00    -0.105 NA 
HETATM   29  H   UNL     1      -7.503   8.982  67.896  1.00  0.00     0.000 HD 
BRANCH  28  30
HETATM   30  C   UNL     1      -8.180   9.058  65.957  1.00  0.00    -0.113 A  
HETATM   31  C   UNL     1      -9.101  10.005  65.450  1.00  0.00    -0.235 A  
HETATM   32  C   UNL     1      -9.898  10.784  66.305  1.00  0.00    -0.262 A  
HETATM   33  C   UNL     1     -10.895  11.612  65.804  1.00  0.00    -0.334 A  
HETATM   34  C   UNL     1     -11.142  11.661  64.433  1.00  0.00    -0.382 A  
HETATM   35  C   UNL     1     -10.260  10.976  63.571  1.00  0.00    -0.424 A  
HETATM   36  C   UNL     1     -12.362  12.399  63.930  1.00  0.00    -0.508 C  
HETATM   37  C   UNL     1      -9.216  10.184  64.052  1.00  0.00    -0.272 A  
HETATM   38  F   UNL     1     -13.111  12.931  64.942  1.00  0.00    -0.490 F  
HETATM   39  F   UNL     1     -12.072  13.438  63.104  1.00  0.00    -0.577 F  
HETATM   40  F   UNL     1     -13.213  11.588  63.243  1.00  0.00    -0.527 F  
HETATM   41  N   UNL     1      -8.371   9.583  63.200  1.00  0.00    -0.166 NA 
HETATM   42  C   UNL     1      -7.399   8.790  63.718  1.00  0.00    -0.099 A  
HETATM   43  C   UNL     1      -7.279   8.481  65.071  1.00  0.00    -0.084 A  
ENDBRANCH  28  30
ENDBRANCH  27  28
ENDBRANCH  20  22
ENDBRANCH  19  20
ENDBRANCH  18  19
ENDBRANCH  17  18
ENDBRANCH  14  17
ENDBRANCH   7  11
TORSDOF 8
ENDMDL
MODEL       59
REMARK 921   NORMALIZED FREE ENERGY PREDICTED BY IDOCK:   -6.57 KCAL/MOL
REMARK 922        TOTAL FREE ENERGY PREDICTED BY IDOCK:  -13.04 KCAL/MOL
REMARK 923 INTER-LIGAND FREE ENERGY PREDICTED BY IDOCK:   -9.84 KCAL/MOL
REMARK 924 INTRA-LIGAND FREE ENERGY PREDICTED BY IDOCK:   -3.20 KCAL/MOL
REMARK 927      BINDING AFFINITY PREDICTED BY RF-SCORE:    0.00 PKD
ROOT
HETATM    1  F   UNL     1      -8.337   6.820  70.353  1.00  0.00    -0.121 F  
HETATM    2  C   UNL     1      -8.405   6.521  69.025  1.00  0.00    -0.116 C  
HETATM    3  C   UNL     1      -7.866   7.603  68.124  1.00  0.00    -0.121 A  
HETATM    4  F   UNL     1      -7.750   5.336  68.874  1.00  0.00    -0.077 F  
HETATM    5  F   UNL     1      -9.718   6.252  68.775  1.00  0.00    -0.127 F  
HETATM    6  C   UNL     1      -7.353   8.809  68.647  1.00  0.00    -0.080 A  
HETATM    7  C   UNL     1      -6.952   9.848  67.800  1.00  0.00    -0.085 A  
HETATM    8  C   UNL     1      -7.923   7.423  66.734  1.00  0.00    -0.115 A  
HETATM    9  C   UNL     1      -7.008   9.619  66.414  1.00  0.00    -0.088 A  
HETATM   10  C   UNL     1      -7.485   8.425  65.879  1.00  0.00    -0.081 A  
ENDROOT
BRANCH   7  11
HETATM   11  N   UNL     1      -6.550  11.113  68.237  1.00  0.00    -0.057 NA 
HETATM   12  C   UNL     1      -6.437  13.032  69.801  1.00  0.00    -0.005 C  
HETATM   13  C   UNL     1      -7.229  11.762  69.377  1.00  0.00     0.076 C  
HETATM   14  N   UNL     1      -6.188  14.025  68.718  1.00  0.00    -0.083 NA 
HETATM   15  C   UNL     1      -6.288  12.038  67.110  1.00  0.00    -0.149 C  
HETATM   16  C   UNL     1      -5.520  13.284  67.611  1.00  0.00    -0.052 C  
BRANCH  14  17
HETATM   17  C   UNL     1      -7.424  14.680  68.228  1.00  0.00    -0.117 C  
BRANCH  17  18
HETATM   18  C   UNL     1      -8.206  15.501  69.280  1.00  0.00    -0.255 C  
BRANCH  18  19
HETATM   19  O   UNL     1      -9.586  15.046  69.415  1.00  0.00    -0.202 OA 
BRANCH  19  20
HETATM   20  C   UNL     1     -10.428  16.038  69.799  1.00  0.00    -0.300 C  
HETATM   21  O   UNL     1     -10.323  17.197  69.391  1.00  0.00    -0.290 OA 
BRANCH  20  22
HETATM   22  C   UNL     1     -11.544  15.655  70.730  1.00  0.00    -0.412 A  
HETATM   23  C   UNL     1     -11.431  16.288  71.992  1.00  0.00    -0.268 A  
HETATM   24  C   UNL     1     -12.340  16.058  73.016  1.00  0.00    -0.625 A  
HETATM   25  C   UNL     1     -13.402  15.193  72.793  1.00  0.00    -0.596 A  
HETATM   26  C   UNL     1     -13.544  14.566  71.551  1.00  0.00    -0.465 A  
HETATM   27  C   UNL     1     -12.627  14.766  70.495  1.00  0.00    -0.359 A  
BRANCH  27  28
HETATM   28  N   UNL     1     -12.782  14.028  69.302  1.00  0.00    -0.259 NA 
HETATM   29  H   UNL     1     -13.608  14.299  68.767  1.00  0.00     0.000 HD 
BRANCH  28  30
HETATM   30  C   UNL     1     -12.031  12.985  68.686  1.00  0.00    -0.263 A  
HETATM   31  C   UNL     1     -11.861  11.760  69.374  1.00  0.00    -0.398 A  
HETATM   32  C   UNL     1     -12.653  11.426  70.484  1.00  0.00    -0.309 A  
HETATM   33  C   UNL     1     -12.394  10.288  71.239  1.00  0.00    -0.506 A  
HETATM   34  C   UNL     1     -11.313   9.469  70.921  1.00  0.00    -0.410 A  
HETATM   35  C   UNL     1     -10.598   9.737  69.735  1.00  0.00    -0.285 A  
HETATM   36  C   UNL     1     -10.921   8.362  71.874  1.00  0.00    -0.305 C  
HETATM   37  C   UNL     1     -10.880  10.843  68.930  1.00  0.00    -0.219 A  
HETATM   38  F   UNL     1     -11.708   8.324  72.990  1.00  0.00    -0.451 F  
HETATM   39  F   UNL     1     -10.995   7.119  71.330  1.00  0.00    -0.239 F  
HETATM   40  F   UNL     1      -9.648   8.502  72.338  1.00  0.00    -0.293 F  
HETATM   41  N   UNL     1     -10.207  11.041  67.787  1.00  0.00    -0.179 NA 
HETATM   42  C   UNL     1     -10.490  12.155  67.064  1.00  0.00    -0.220 A  
HETATM   43  C   UNL     1     -11.366  13.155  67.479  1.00  0.00    -0.336 A  
ENDBRANCH  28  30
ENDBRANCH  27  28
ENDBRANCH  20  22
ENDBRANCH  19  20
ENDBRANCH  18  19
ENDBRANCH  17  18
ENDBRANCH  14  17
ENDBRANCH   7  11
TORSDOF 8
ENDMDL
MODEL       60
REMARK 921   NORMALIZED FREE ENERGY PREDICTED BY IDOCK:   -6.55 KCAL/MOL
REMARK 922        TOTAL FREE ENERGY PREDICTED BY IDOCK:  -13.02 KCAL/MOL
REMARK 923 INTER-LIGAND FREE ENERGY PREDICTED BY IDOCK:  -10.21 KCAL/MOL
REMARK 924 INTRA-LIGAND FREE ENERGY PREDICTED BY IDOCK:   -2.82 KCAL/MOL
REMARK 927      BINDING AFFINITY PREDICTED BY RF-SCORE:    0.00 PKD
ROOT
HETATM    1  F   UNL     1     -14.025  14.136  71.283  1.00  0.00    -0.385 F  
HETATM    2  C   UNL     1     -12.922  14.904  71.502  1.00  0.00    -0.342 C  
HETATM    3  C   UNL     1     -12.135  15.218  70.254  1.00  0.00    -0.388 A  
HETATM    4  F   UNL     1     -13.365  16.024  72.139  1.00  0.00    -0.505 F  
HETATM    5  F   UNL     1     -12.176  14.227  72.421  1.00  0.00    -0.328 F  
HETATM    6  C   UNL     1     -12.534  14.733  68.991  1.00  0.00     0.045 A  
HETATM    7  C   UNL     1     -11.741  14.942  67.857  1.00  0.00    -0.321 A  
HETATM    8  C   UNL     1     -10.954  15.969  70.364  1.00  0.00    -0.347 A  
HETATM    9  C   UNL     1     -10.576  15.715  68.007  1.00  0.00    -0.271 A  
HETATM   10  C   UNL     1     -10.182  16.227  69.240  1.00  0.00    -0.269 A  
ENDROOT
BRANCH   7  11
HETATM   11  N   UNL     1     -12.002  14.391  66.598  1.00  0.00    -0.410 NA 
HETATM   12  C   UNL     1     -12.658  12.613  65.002  1.00  0.00    -0.430 C  
HETATM   13  C   UNL     1     -12.135  12.930  66.434  1.00  0.00    -0.329 C  
HETATM   14  N   UNL     1     -11.856  13.185  63.885  1.00  0.00    -0.447 NA 
HETATM   15  C   UNL     1     -11.196  15.029  65.531  1.00  0.00    -0.344 C  
HETATM   16  C   UNL     1     -11.760  14.650  64.141  1.00  0.00    -0.177 C  
BRANCH  14  17
HETATM   17  C   UNL     1     -10.503  12.592  63.770  1.00  0.00    -0.419 C  
BRANCH  17  18
HETATM   18  C   UNL     1     -10.462  11.071  63.491  1.00  0.00    -0.300 C  
BRANCH  18  19
HETATM   19  O   UNL     1      -9.131  10.510  63.699  1.00  0.00    -0.199 OA 
BRANCH  19  20
HETATM   20  C   UNL     1      -9.098   9.601  64.705  1.00  0.00    -0.235 C  
HETATM   21  O   UNL     1     -10.024   9.459  65.506  1.00  0.00    -0.281 OA 
BRANCH  20  22
HETATM   22  C   UNL     1      -7.879   8.726  64.784  1.00  0.00    -0.124 A  
HETATM   23  C   UNL     1      -7.634   8.035  63.571  1.00  0.00    -0.133 A  
HETATM   24  C   UNL     1      -6.573   7.150  63.429  1.00  0.00    -0.052 A  
HETATM   25  C   UNL     1      -5.716   6.947  64.501  1.00  0.00    -0.032 A  
HETATM   26  C   UNL     1      -5.928   7.627  65.705  1.00  0.00    -0.038 A  
HETATM   27  C   UNL     1      -7.007   8.521  65.887  1.00  0.00    -0.071 A  
BRANCH  27  28
HETATM   28  N   UNL     1      -7.212   9.099  67.157  1.00  0.00    -0.086 NA 
HETATM   29  H   UNL     1      -6.935   8.488  67.926  1.00  0.00     0.000 HD 
BRANCH  28  30
HETATM   30  C   UNL     1      -7.724  10.355  67.596  1.00  0.00    -0.093 A  
HETATM   31  C   UNL     1      -8.798  10.377  68.518  1.00  0.00    -0.142 A  
HETATM   32  C   UNL     1      -9.164   9.232  69.245  1.00  0.00    -0.152 A  
HETATM   33  C   UNL     1     -10.301   9.219  70.045  1.00  0.00    -0.245 A  
HETATM   34  C   UNL     1     -11.120  10.344  70.114  1.00  0.00    -0.383 A  
HETATM   35  C   UNL     1     -10.683  11.529  69.486  1.00  0.00    -0.054 A  
HETATM   36  C   UNL     1     -12.456  10.241  70.815  1.00  0.00    -0.346 C  
HETATM   37  C   UNL     1      -9.514  11.579  68.724  1.00  0.00    -0.089 A  
HETATM   38  F   UNL     1     -12.704   8.985  71.294  1.00  0.00    -0.327 F  
HETATM   39  F   UNL     1     -12.581  11.071  71.883  1.00  0.00    -0.441 F  
HETATM   40  F   UNL     1     -13.500  10.521  69.987  1.00  0.00    -0.187 F  
HETATM   41  N   UNL     1      -9.108  12.735  68.177  1.00  0.00    -0.202 NA 
HETATM   42  C   UNL     1      -7.988  12.720  67.411  1.00  0.00    -0.179 A  
HETATM   43  C   UNL     1      -7.284  11.565  67.076  1.00  0.00    -0.146 A  
ENDBRANCH  28  30
ENDBRANCH  27  28
ENDBRANCH  20  22
ENDBRANCH  19  20
ENDBRANCH  18  19
ENDBRANCH  17  18
ENDBRANCH  14  17
ENDBRANCH   7  11
TORSDOF 8
ENDMDL
MODEL       61
REMARK 921   NORMALIZED FREE ENERGY PREDICTED BY IDOCK:   -6.55 KCAL/MOL
REMARK 922        TOTAL FREE ENERGY PREDICTED BY IDOCK:  -13.02 KCAL/MOL
REMARK 923 INTER-LIGAND FREE ENERGY PREDICTED BY IDOCK:  -10.39 KCAL/MOL
REMARK 924 INTRA-LIGAND FREE ENERGY PREDICTED BY IDOCK:   -2.62 KCAL/MOL
REMARK 927      BINDING AFFINITY PREDICTED BY RF-SCORE:    0.00 PKD
ROOT
HETATM    1  F   UNL     1      -9.609   6.125  72.289  1.00  0.00    -0.154 F  
HETATM    2  C   UNL     1     -10.802   6.714  72.578  1.00  0.00    -0.238 C  
HETATM    3  C   UNL     1     -11.070   7.974  71.794  1.00  0.00    -0.313 A  
HETATM    4  F   UNL     1     -11.751   5.758  72.376  1.00  0.00    -0.329 F  
HETATM    5  F   UNL     1     -10.787   6.941  73.922  1.00  0.00    -0.355 F  
HETATM    6  C   UNL     1     -10.138   8.471  70.859  1.00  0.00    -0.246 A  
HETATM    7  C   UNL     1     -10.349   9.695  70.214  1.00  0.00    -0.280 A  
HETATM    8  C   UNL     1     -12.252   8.690  72.038  1.00  0.00    -0.439 A  
HETATM    9  C   UNL     1     -11.554  10.371  70.473  1.00  0.00    -0.433 A  
HETATM   10  C   UNL     1     -12.499   9.882  71.370  1.00  0.00    -0.495 A  
ENDROOT
BRANCH   7  11
HETATM   11  N   UNL     1      -9.420  10.314  69.371  1.00  0.00    -0.215 NA 
HETATM   12  C   UNL     1      -7.161  10.856  68.510  1.00  0.00    -0.090 C  
HETATM   13  C   UNL     1      -7.985  10.325  69.718  1.00  0.00    -0.126 C  
HETATM   14  N   UNL     1      -7.574  12.188  67.987  1.00  0.00    -0.113 NA 
HETATM   15  C   UNL     1      -9.909  11.617  68.862  1.00  0.00    -0.040 C  
HETATM   16  C   UNL     1      -9.029  12.090  67.680  1.00  0.00    -0.172 C  
BRANCH  14  17
HETATM   17  C   UNL     1      -7.321  13.295  68.938  1.00  0.00    -0.023 C  
BRANCH  17  18
HETATM   18  C   UNL     1      -5.834  13.656  69.163  1.00  0.00    -0.084 C  
BRANCH  18  19
HETATM   19  O   UNL     1      -5.349  14.623  68.184  1.00  0.00    -0.108 OA 
BRANCH  19  20
HETATM   20  C   UNL     1      -5.531  15.907  68.582  1.00  0.00    -0.102 C  
HETATM   21  O   UNL     1      -5.242  16.301  69.714  1.00  0.00    -0.119 OA 
BRANCH  20  22
HETATM   22  C   UNL     1      -6.074  16.862  67.557  1.00  0.00    -0.171 A  
HETATM   23  C   UNL     1      -5.325  18.063  67.492  1.00  0.00    -0.142 A  
HETATM   24  C   UNL     1      -5.665  19.098  66.630  1.00  0.00    -0.167 A  
HETATM   25  C   UNL     1      -6.762  18.947  65.795  1.00  0.00    -0.303 A  
HETATM   26  C   UNL     1      -7.510  17.765  65.830  1.00  0.00    -0.200 A  
HETATM   27  C   UNL     1      -7.200  16.701  66.705  1.00  0.00    -0.237 A  
BRANCH  27  28
HETATM   28  N   UNL     1      -8.054  15.578  66.751  1.00  0.00    -0.249 NA 
HETATM   29  H   UNL     1      -7.558  14.703  66.924  1.00  0.00     0.000 HD 
BRANCH  28  30
HETATM   30  C   UNL     1      -9.462  15.406  66.607  1.00  0.00    -0.259 A  
HETATM   31  C   UNL     1     -10.272  15.355  67.767  1.00  0.00    -0.241 A  
HETATM   32  C   UNL     1      -9.789  15.775  69.017  1.00  0.00    -0.240 A  
HETATM   33  C   UNL     1     -10.536  15.597  70.176  1.00  0.00    -0.348 A  
HETATM   34  C   UNL     1     -11.777  14.964  70.117  1.00  0.00    -0.340 A  
HETATM   35  C   UNL     1     -12.312  14.658  68.849  1.00  0.00    -0.069 A  
HETATM   36  C   UNL     1     -12.474  14.590  71.405  1.00  0.00    -0.353 C  
HETATM   37  C   UNL     1     -11.601  14.882  67.668  1.00  0.00    -0.339 A  
HETATM   38  F   UNL     1     -11.748  14.921  72.515  1.00  0.00    -0.423 F  
HETATM   39  F   UNL     1     -13.684  15.188  71.568  1.00  0.00    -0.402 F  
HETATM   40  F   UNL     1     -12.693  13.249  71.508  1.00  0.00    -0.410 F  
HETATM   41  N   UNL     1     -12.160  14.619  66.477  1.00  0.00    -0.289 NA 
HETATM   42  C   UNL     1     -11.410  14.814  65.363  1.00  0.00    -0.356 A  
HETATM   43  C   UNL     1     -10.066  15.179  65.378  1.00  0.00    -0.384 A  
ENDBRANCH  28  30
ENDBRANCH  27  28
ENDBRANCH  20  22
ENDBRANCH  19  20
ENDBRANCH  18  19
ENDBRANCH  17  18
ENDBRANCH  14  17
ENDBRANCH   7  11
TORSDOF 8
ENDMDL
MODEL       62
REMARK 921   NORMALIZED FREE ENERGY PREDICTED BY IDOCK:   -6.55 KCAL/MOL
REMARK 922        TOTAL FREE ENERGY PREDICTED BY IDOCK:  -13.01 KCAL/MOL
REMARK 923 INTER-LIGAND FREE ENERGY PREDICTED BY IDOCK:  -10.42 KCAL/MOL
REMARK 924 INTRA-LIGAND FREE ENERGY PREDICTED BY IDOCK:   -2.59 KCAL/MOL
REMARK 927      BINDING AFFINITY PREDICTED BY RF-SCORE:    0.00 PKD
ROOT
HETATM    1  F   UNL     1     -13.251  13.679  71.004  1.00  0.00    -0.365 F  
HETATM    2  C   UNL     1     -12.548  14.845  71.054  1.00  0.00    -0.336 C  
HETATM    3  C   UNL     1     -11.932  15.248  69.737  1.00  0.00    -0.374 A  
HETATM    4  F   UNL     1     -13.409  15.782  71.540  1.00  0.00    -0.499 F  
HETATM    5  F   UNL     1     -11.608  14.667  72.026  1.00  0.00    -0.390 F  
HETATM    6  C   UNL     1     -12.087  14.456  68.580  1.00  0.00    -0.274 A  
HETATM    7  C   UNL     1     -11.426  14.784  67.391  1.00  0.00    -0.363 A  
HETATM    8  C   UNL     1     -11.150  16.411  69.679  1.00  0.00    -0.306 A  
HETATM    9  C   UNL     1     -10.667  15.967  67.370  1.00  0.00    -0.306 A  
HETATM   10  C   UNL     1     -10.527  16.776  68.494  1.00  0.00    -0.335 A  
ENDROOT
BRANCH   7  11
HETATM   11  N   UNL     1     -11.429  13.988  66.241  1.00  0.00    -0.339 NA 
HETATM   12  C   UNL     1     -12.282  12.243  64.703  1.00  0.00    -0.377 C  
HETATM   13  C   UNL     1     -12.294  12.795  66.158  1.00  0.00    -0.120 C  
HETATM   14  N   UNL     1     -10.935  11.941  64.143  1.00  0.00    -0.340 NA 
HETATM   15  C   UNL     1     -10.062  13.756  65.718  1.00  0.00    -0.307 C  
HETATM   16  C   UNL     1     -10.131  13.187  64.281  1.00  0.00    -0.140 C  
BRANCH  14  17
HETATM   17  C   UNL     1     -10.258  10.811  64.820  1.00  0.00    -0.334 C  
BRANCH  17  18
HETATM   18  C   UNL     1      -8.960  10.309  64.146  1.00  0.00    -0.237 C  
BRANCH  18  19
HETATM   19  O   UNL     1      -8.790   8.866  64.288  1.00  0.00    -0.127 OA 
BRANCH  19  20
HETATM   20  C   UNL     1      -7.849   8.538  65.207  1.00  0.00    -0.106 C  
HETATM   21  O   UNL     1      -6.822   9.200  65.375  1.00  0.00    -0.072 OA 
BRANCH  20  22
HETATM   22  C   UNL     1      -8.128   7.333  66.060  1.00  0.00    -0.121 A  
HETATM   23  C   UNL     1      -8.449   6.190  65.285  1.00  0.00    -0.121 A  
HETATM   24  C   UNL     1      -8.767   4.971  65.869  1.00  0.00    -0.131 A  
HETATM   25  C   UNL     1      -8.757   4.862  67.251  1.00  0.00    -0.103 A  
HETATM   26  C   UNL     1      -8.431   5.971  68.038  1.00  0.00    -0.115 A  
HETATM   27  C   UNL     1      -8.117   7.229  67.477  1.00  0.00    -0.114 A  
BRANCH  27  28
HETATM   28  N   UNL     1      -7.889   8.326  68.334  1.00  0.00    -0.116 NA 
HETATM   29  H   UNL     1      -6.965   8.312  68.768  1.00  0.00     0.000 HD 
BRANCH  28  30
HETATM   30  C   UNL     1      -8.674   9.450  68.725  1.00  0.00    -0.131 A  
HETATM   31  C   UNL     1      -9.739   9.263  69.639  1.00  0.00    -0.192 A  
HETATM   32  C   UNL     1      -9.850   8.090  70.404  1.00  0.00    -0.183 A  
HETATM   33  C   UNL     1     -10.966   7.851  71.197  1.00  0.00    -0.262 A  
HETATM   34  C   UNL     1     -12.017   8.767  71.221  1.00  0.00    -0.353 A  
HETATM   35  C   UNL     1     -11.846   9.997  70.553  1.00  0.00    -0.387 A  
HETATM   36  C   UNL     1     -13.305   8.391  71.918  1.00  0.00    -0.357 C  
HETATM   37  C   UNL     1     -10.707  10.281  69.797  1.00  0.00    -0.285 A  
HETATM   38  F   UNL     1     -13.275   7.129  72.440  1.00  0.00    -0.103 F  
HETATM   39  F   UNL     1     -13.627   9.209  72.954  1.00  0.00    -0.480 F  
HETATM   40  F   UNL     1     -14.375   8.403  71.074  1.00  0.00    -0.365 F  
HETATM   41  N   UNL     1     -10.561  11.479  69.211  1.00  0.00    -0.138 NA 
HETATM   42  C   UNL     1      -9.456  11.688  68.452  1.00  0.00    -0.193 A  
HETATM   43  C   UNL     1      -8.508  10.710  68.164  1.00  0.00    -0.122 A  
ENDBRANCH  28  30
ENDBRANCH  27  28
ENDBRANCH  20  22
ENDBRANCH  19  20
ENDBRANCH  18  19
ENDBRANCH  17  18
ENDBRANCH  14  17
ENDBRANCH   7  11
TORSDOF 8
ENDMDL
MODEL       63
REMARK 921   NORMALIZED FREE ENERGY PREDICTED BY IDOCK:   -6.51 KCAL/MOL
REMARK 922        TOTAL FREE ENERGY PREDICTED BY IDOCK:  -12.95 KCAL/MOL
REMARK 923 INTER-LIGAND FREE ENERGY PREDICTED BY IDOCK:   -9.90 KCAL/MOL
REMARK 924 INTRA-LIGAND FREE ENERGY PREDICTED BY IDOCK:   -3.05 KCAL/MOL
REMARK 927      BINDING AFFINITY PREDICTED BY RF-SCORE:    0.00 PKD
ROOT
HETATM    1  F   UNL     1     -11.276  13.407  63.780  1.00  0.00    -0.385 F  
HETATM    2  C   UNL     1     -12.132  13.819  64.756  1.00  0.00    -0.410 C  
HETATM    3  C   UNL     1     -11.467  14.078  66.085  1.00  0.00    -0.350 A  
HETATM    4  F   UNL     1     -12.764  14.920  64.262  1.00  0.00    -0.471 F  
HETATM    5  F   UNL     1     -13.088  12.851  64.842  1.00  0.00    -0.490 F  
HETATM    6  C   UNL     1     -10.080  13.890  66.263  1.00  0.00    -0.306 A  
HETATM    7  C   UNL     1      -9.491  14.031  67.525  1.00  0.00    -0.221 A  
HETATM    8  C   UNL     1     -12.256  14.467  67.178  1.00  0.00    -0.257 A  
HETATM    9  C   UNL     1     -10.314  14.440  68.588  1.00  0.00    -0.245 A  
HETATM   10  C   UNL     1     -11.679  14.659  68.426  1.00  0.00    -0.352 A  
ENDROOT
BRANCH   7  11
HETATM   11  N   UNL     1      -8.152  13.744  67.808  1.00  0.00    -0.160 NA 
HETATM   12  C   UNL     1      -6.071  12.399  67.761  1.00  0.00    -0.111 C  
HETATM   13  C   UNL     1      -7.620  12.382  67.604  1.00  0.00    -0.141 C  
HETATM   14  N   UNL     1      -5.562  12.964  69.042  1.00  0.00    -0.068 NA 
HETATM   15  C   UNL     1      -7.703  14.363  69.076  1.00  0.00    -0.093 C  
HETATM   16  C   UNL     1      -6.159  14.323  69.171  1.00  0.00    -0.095 C  
BRANCH  14  17
HETATM   17  C   UNL     1      -5.902  12.137  70.224  1.00  0.00    -0.161 C  
BRANCH  17  18
HETATM   18  C   UNL     1      -5.918  10.608  69.986  1.00  0.00    -0.087 C  
BRANCH  18  19
HETATM   19  O   UNL     1      -7.253  10.042  70.145  1.00  0.00    -0.137 OA 
BRANCH  19  20
HETATM   20  C   UNL     1      -7.289   9.035  71.053  1.00  0.00    -0.112 C  
HETATM   21  O   UNL     1      -7.094   9.215  72.257  1.00  0.00    -0.322 OA 
BRANCH  20  22
HETATM   22  C   UNL     1      -7.622   7.666  70.530  1.00  0.00    -0.081 A  
HETATM   23  C   UNL     1      -6.480   6.986  70.039  1.00  0.00    -0.036 A  
HETATM   24  C   UNL     1      -6.560   5.715  69.485  1.00  0.00    -0.050 A  
HETATM   25  C   UNL     1      -7.793   5.084  69.423  1.00  0.00    -0.075 A  
HETATM   26  C   UNL     1      -8.934   5.727  69.913  1.00  0.00    -0.139 A  
HETATM   27  C   UNL     1      -8.889   7.025  70.469  1.00  0.00    -0.154 A  
BRANCH  27  28
HETATM   28  N   UNL     1     -10.094   7.648  70.857  1.00  0.00    -0.191 NA 
HETATM   29  H   UNL     1     -10.550   7.184  71.643  1.00  0.00     0.000 HD 
BRANCH  28  30
HETATM   30  C   UNL     1     -10.809   8.788  70.386  1.00  0.00    -0.228 A  
HETATM   31  C   UNL     1     -10.749   9.119  69.011  1.00  0.00    -0.176 A  
HETATM   32  C   UNL     1     -10.276   8.204  68.057  1.00  0.00    -0.263 A  
HETATM   33  C   UNL     1     -10.090   8.577  66.731  1.00  0.00    -0.369 A  
HETATM   34  C   UNL     1     -10.343   9.888  66.331  1.00  0.00    -0.246 A  
HETATM   35  C   UNL     1     -10.936  10.767  67.260  1.00  0.00    -0.359 A  
HETATM   36  C   UNL     1      -9.935  10.326  64.943  1.00  0.00    -0.323 C  
HETATM   37  C   UNL     1     -11.185  10.394  68.583  1.00  0.00    -0.248 A  
HETATM   38  F   UNL     1      -9.319   9.332  64.235  1.00  0.00    -0.246 F  
HETATM   39  F   UNL     1     -10.974  10.737  64.169  1.00  0.00    -0.400 F  
HETATM   40  F   UNL     1      -9.042  11.355  64.964  1.00  0.00    -0.205 F  
HETATM   41  N   UNL     1     -11.789  11.244  69.427  1.00  0.00    -0.327 NA 
HETATM   42  C   UNL     1     -11.969  10.848  70.712  1.00  0.00    -0.346 A  
HETATM   43  C   UNL     1     -11.482   9.654  71.238  1.00  0.00    -0.463 A  
ENDBRANCH  28  30
ENDBRANCH  27  28
ENDBRANCH  20  22
ENDBRANCH  19  20
ENDBRANCH  18  19
ENDBRANCH  17  18
ENDBRANCH  14  17
ENDBRANCH   7  11
TORSDOF 8
ENDMDL
MODEL       64
REMARK 921   NORMALIZED FREE ENERGY PREDICTED BY IDOCK:   -6.50 KCAL/MOL
REMARK 922        TOTAL FREE ENERGY PREDICTED BY IDOCK:  -12.94 KCAL/MOL
REMARK 923 INTER-LIGAND FREE ENERGY PREDICTED BY IDOCK:  -11.17 KCAL/MOL
REMARK 924 INTRA-LIGAND FREE ENERGY PREDICTED BY IDOCK:   -1.78 KCAL/MOL
REMARK 927      BINDING AFFINITY PREDICTED BY RF-SCORE:    0.00 PKD
ROOT
HETATM    1  F   UNL     1      -7.250   1.734  65.645  1.00  0.00    -0.047 F  
HETATM    2  C   UNL     1      -7.134   2.709  64.701  1.00  0.00    -0.050 C  
HETATM    3  C   UNL     1      -7.605   4.067  65.160  1.00  0.00    -0.081 A  
HETATM    4  F   UNL     1      -5.827   2.709  64.319  1.00  0.00    -0.012 F  
HETATM    5  F   UNL     1      -7.835   2.262  63.620  1.00  0.00    -0.062 F  
HETATM    6  C   UNL     1      -8.122   4.266  66.457  1.00  0.00    -0.102 A  
HETATM    7  C   UNL     1      -8.653   5.504  66.838  1.00  0.00    -0.110 A  
HETATM    8  C   UNL     1      -7.572   5.141  64.257  1.00  0.00    -0.069 A  
HETATM    9  C   UNL     1      -8.583   6.558  65.910  1.00  0.00    -0.153 A  
HETATM   10  C   UNL     1      -8.050   6.388  64.635  1.00  0.00    -0.100 A  
ENDROOT
BRANCH   7  11
HETATM   11  N   UNL     1      -9.292   5.748  68.057  1.00  0.00    -0.109 NA 
HETATM   12  C   UNL     1     -11.128   6.525  69.529  1.00  0.00    -0.365 C  
HETATM   13  C   UNL     1     -10.483   6.620  68.116  1.00  0.00    -0.214 C  
HETATM   14  N   UNL     1     -10.217   6.819  70.672  1.00  0.00    -0.195 NA 
HETATM   15  C   UNL     1      -8.329   5.999  69.154  1.00  0.00    -0.114 C  
HETATM   16  C   UNL     1      -9.046   5.911  70.522  1.00  0.00    -0.148 C  
BRANCH  14  17
HETATM   17  C   UNL     1      -9.773   8.231  70.719  1.00  0.00    -0.172 C  
BRANCH  17  18
HETATM   18  C   UNL     1     -10.825   9.277  70.280  1.00  0.00    -0.246 C  
BRANCH  18  19
HETATM   19  O   UNL     1     -10.328  10.144  69.217  1.00  0.00    -0.195 OA 
BRANCH  19  20
HETATM   20  C   UNL     1     -11.318  10.607  68.413  1.00  0.00    -0.283 C  
HETATM   21  O   UNL     1     -12.476  10.762  68.805  1.00  0.00    -0.366 OA 
BRANCH  20  22
HETATM   22  C   UNL     1     -10.932  10.968  67.007  1.00  0.00    -0.333 A  
HETATM   23  C   UNL     1     -10.207   9.933  66.366  1.00  0.00    -0.292 A  
HETATM   24  C   UNL     1      -9.728  10.063  65.069  1.00  0.00    -0.386 A  
HETATM   25  C   UNL     1      -9.979  11.235  64.372  1.00  0.00    -0.338 A  
HETATM   26  C   UNL     1     -10.704  12.267  64.977  1.00  0.00    -0.336 A  
HETATM   27  C   UNL     1     -11.191  12.173  66.299  1.00  0.00    -0.334 A  
BRANCH  27  28
HETATM   28  N   UNL     1     -11.833  13.289  66.876  1.00  0.00    -0.385 NA 
HETATM   29  H   UNL     1     -12.851  13.217  66.865  1.00  0.00     0.000 HD 
BRANCH  28  30
HETATM   30  C   UNL     1     -11.363  14.497  67.471  1.00  0.00    -0.340 A  
HETATM   31  C   UNL     1     -11.539  14.693  68.861  1.00  0.00    -0.340 A  
HETATM   32  C   UNL     1     -11.871  13.630  69.716  1.00  0.00    -0.392 A  
HETATM   33  C   UNL     1     -12.177  13.849  71.054  1.00  0.00    -0.421 A  
HETATM   34  C   UNL     1     -12.189  15.145  71.566  1.00  0.00    -0.404 A  
HETATM   35  C   UNL     1     -11.735  16.194  70.740  1.00  0.00    -0.333 A  
HETATM   36  C   UNL     1     -12.728  15.382  72.958  1.00  0.00    -0.451 C  
HETATM   37  C   UNL     1     -11.367  15.986  69.409  1.00  0.00    -0.355 A  
HETATM   38  F   UNL     1     -13.175  14.236  73.554  1.00  0.00    -0.515 F  
HETATM   39  F   UNL     1     -11.816  15.910  73.817  1.00  0.00    -0.487 F  
HETATM   40  F   UNL     1     -13.795  16.228  72.966  1.00  0.00    -0.632 F  
HETATM   41  N   UNL     1     -10.899  17.001  68.666  1.00  0.00    -0.321 NA 
HETATM   42  C   UNL     1     -10.597  16.754  67.366  1.00  0.00    -0.291 A  
HETATM   43  C   UNL     1     -10.831  15.540  66.725  1.00  0.00    -0.291 A  
ENDBRANCH  28  30
ENDBRANCH  27  28
ENDBRANCH  20  22
ENDBRANCH  19  20
ENDBRANCH  18  19
ENDBRANCH  17  18
ENDBRANCH  14  17
ENDBRANCH   7  11
TORSDOF 8
ENDMDL
MODEL       65
REMARK 921   NORMALIZED FREE ENERGY PREDICTED BY IDOCK:   -6.48 KCAL/MOL
REMARK 922        TOTAL FREE ENERGY PREDICTED BY IDOCK:  -12.91 KCAL/MOL
REMARK 923 INTER-LIGAND FREE ENERGY PREDICTED BY IDOCK:  -11.25 KCAL/MOL
REMARK 924 INTRA-LIGAND FREE ENERGY PREDICTED BY IDOCK:   -1.65 KCAL/MOL
REMARK 927      BINDING AFFINITY PREDICTED BY RF-SCORE:    0.00 PKD
ROOT
HETATM    1  F   UNL     1     -12.059  16.860  72.524  1.00  0.00    -0.423 F  
HETATM    2  C   UNL     1     -12.685  15.742  72.984  1.00  0.00    -0.491 C  
HETATM    3  C   UNL     1     -12.572  14.552  72.063  1.00  0.00    -0.400 A  
HETATM    4  F   UNL     1     -12.164  15.501  74.219  1.00  0.00    -0.586 F  
HETATM    5  F   UNL     1     -13.982  16.105  73.195  1.00  0.00    -0.679 F  
HETATM    6  C   UNL     1     -11.877  14.634  70.838  1.00  0.00    -0.372 A  
HETATM    7  C   UNL     1     -11.867  13.558  69.944  1.00  0.00    -0.316 A  
HETATM    8  C   UNL     1     -13.214  13.355  72.415  1.00  0.00    -0.564 A  
HETATM    9  C   UNL     1     -12.506  12.371  70.343  1.00  0.00    -0.214 A  
HETATM   10  C   UNL     1     -13.172  12.262  71.561  1.00  0.00    -0.268 A  
ENDROOT
BRANCH   7  11
HETATM   11  N   UNL     1     -11.309  13.601  68.662  1.00  0.00    -0.266 NA 
HETATM   12  C   UNL     1     -11.341  13.708  66.187  1.00  0.00    -0.312 C  
HETATM   13  C   UNL     1     -12.150  13.366  67.472  1.00  0.00    -0.279 C  
HETATM   14  N   UNL     1     -10.037  13.002  66.043  1.00  0.00    -0.280 NA 
HETATM   15  C   UNL     1     -10.000  12.910  68.599  1.00  0.00    -0.092 C  
HETATM   16  C   UNL     1      -9.266  13.279  67.288  1.00  0.00    -0.222 C  
BRANCH  14  17
HETATM   17  C   UNL     1     -10.180  11.541  65.840  1.00  0.00    -0.244 C  
BRANCH  17  18
HETATM   18  C   UNL     1      -8.857  10.754  65.693  1.00  0.00    -0.190 C  
BRANCH  18  19
HETATM   19  O   UNL     1      -9.076   9.401  65.191  1.00  0.00    -0.210 OA 
BRANCH  19  20
HETATM   20  C   UNL     1      -8.435   8.459  65.927  1.00  0.00    -0.148 C  
HETATM   21  O   UNL     1      -7.441   8.711  66.611  1.00  0.00    -0.087 OA 
BRANCH  20  22
HETATM   22  C   UNL     1      -9.019   7.075  65.909  1.00  0.00    -0.092 A  
HETATM   23  C   UNL     1      -8.400   6.244  64.943  1.00  0.00    -0.076 A  
HETATM   24  C   UNL     1      -8.800   4.930  64.736  1.00  0.00    -0.147 A  
HETATM   25  C   UNL     1      -9.826   4.408  65.509  1.00  0.00    -0.225 A  
HETATM   26  C   UNL     1     -10.446   5.204  66.479  1.00  0.00    -0.346 A  
HETATM   27  C   UNL     1     -10.073   6.548  66.703  1.00  0.00    -0.137 A  
BRANCH  27  28
HETATM   28  N   UNL     1     -10.804   7.317  67.633  1.00  0.00    -0.475 NA 
HETATM   29  H   UNL     1     -11.738   7.564  67.304  1.00  0.00     0.000 HD 
BRANCH  28  30
HETATM   30  C   UNL     1     -10.517   7.822  68.935  1.00  0.00    -0.194 A  
HETATM   31  C   UNL     1     -10.427   6.918  70.020  1.00  0.00    -0.231 A  
HETATM   32  C   UNL     1     -10.301   5.535  69.814  1.00  0.00    -0.366 A  
HETATM   33  C   UNL     1     -10.351   4.640  70.877  1.00  0.00    -0.137 A  
HETATM   34  C   UNL     1     -10.559   5.105  72.174  1.00  0.00    -0.273 A  
HETATM   35  C   UNL     1     -10.559   6.499  72.392  1.00  0.00    -0.242 A  
HETATM   36  C   UNL     1     -10.821   4.109  73.280  1.00  0.00    -0.228 C  
HETATM   37  C   UNL     1     -10.452   7.416  71.344  1.00  0.00    -0.202 A  
HETATM   38  F   UNL     1     -10.842   2.818  72.834  1.00  0.00    -0.237 F  
HETATM   39  F   UNL     1      -9.896   4.139  74.275  1.00  0.00    -0.122 F  
HETATM   40  F   UNL     1     -12.031   4.301  73.876  1.00  0.00    -0.072 F  
HETATM   41  N   UNL     1     -10.412   8.733  71.595  1.00  0.00    -0.289 NA 
HETATM   42  C   UNL     1     -10.352   9.583  70.538  1.00  0.00    -0.288 A  
HETATM   43  C   UNL     1     -10.424   9.181  69.206  1.00  0.00    -0.231 A  
ENDBRANCH  28  30
ENDBRANCH  27  28
ENDBRANCH  20  22
ENDBRANCH  19  20
ENDBRANCH  18  19
ENDBRANCH  17  18
ENDBRANCH  14  17
ENDBRANCH   7  11
TORSDOF 8
ENDMDL
MODEL       66
REMARK 921   NORMALIZED FREE ENERGY PREDICTED BY IDOCK:   -6.46 KCAL/MOL
REMARK 922        TOTAL FREE ENERGY PREDICTED BY IDOCK:  -12.88 KCAL/MOL
REMARK 923 INTER-LIGAND FREE ENERGY PREDICTED BY IDOCK:  -11.27 KCAL/MOL
REMARK 924 INTRA-LIGAND FREE ENERGY PREDICTED BY IDOCK:   -1.61 KCAL/MOL
REMARK 927      BINDING AFFINITY PREDICTED BY RF-SCORE:    0.00 PKD
ROOT
HETATM    1  F   UNL     1     -10.121  20.223  65.644  1.00  0.00    -0.537 F  
HETATM    2  C   UNL     1      -9.446  19.966  66.798  1.00  0.00    -0.395 C  
HETATM    3  C   UNL     1      -9.471  18.517  67.214  1.00  0.00    -0.296 A  
HETATM    4  F   UNL     1      -8.182  20.436  66.606  1.00  0.00    -0.326 F  
HETATM    5  F   UNL     1     -10.002  20.780  67.740  1.00  0.00    -0.550 F  
HETATM    6  C   UNL     1     -10.152  17.545  66.452  1.00  0.00    -0.346 A  
HETATM    7  C   UNL     1     -10.257  16.223  66.901  1.00  0.00    -0.288 A  
HETATM    8  C   UNL     1      -8.843  18.141  68.411  1.00  0.00    -0.305 A  
HETATM    9  C   UNL     1      -9.598  15.884  68.095  1.00  0.00    -0.208 A  
HETATM   10  C   UNL     1      -8.896  16.824  68.846  1.00  0.00    -0.228 A  
ENDROOT
BRANCH   7  11
HETATM   11  N   UNL     1     -11.016  15.233  66.269  1.00  0.00    -0.320 NA 
HETATM   12  C   UNL     1     -11.959  12.963  65.961  1.00  0.00    -0.446 C  
HETATM   13  C   UNL     1     -10.839  13.812  66.629  1.00  0.00    -0.288 C  
HETATM   14  N   UNL     1     -12.080  13.108  64.484  1.00  0.00    -0.384 NA 
HETATM   15  C   UNL     1     -11.123  15.457  64.808  1.00  0.00    -0.403 C  
HETATM   16  C   UNL     1     -12.238  14.564  64.214  1.00  0.00    -0.415 C  
BRANCH  14  17
HETATM   17  C   UNL     1     -10.915  12.568  63.744  1.00  0.00    -0.447 C  
BRANCH  17  18
HETATM   18  C   UNL     1     -10.608  11.071  63.982  1.00  0.00    -0.324 C  
BRANCH  18  19
HETATM   19  O   UNL     1      -9.402  10.878  64.781  1.00  0.00    -0.210 OA 
BRANCH  19  20
HETATM   20  C   UNL     1      -9.443   9.743  65.523  1.00  0.00    -0.262 C  
HETATM   21  O   UNL     1     -10.326   9.521  66.354  1.00  0.00    -0.240 OA 
BRANCH  20  22
HETATM   22  C   UNL     1      -8.368   8.726  65.261  1.00  0.00    -0.168 A  
HETATM   23  C   UNL     1      -7.213   9.304  64.677  1.00  0.00    -0.100 A  
HETATM   24  C   UNL     1      -6.106   8.543  64.327  1.00  0.00    -0.066 A  
HETATM   25  C   UNL     1      -6.122   7.178  64.570  1.00  0.00    -0.037 A  
HETATM   26  C   UNL     1      -7.244   6.585  65.158  1.00  0.00    -0.070 A  
HETATM   27  C   UNL     1      -8.392   7.328  65.511  1.00  0.00    -0.133 A  
BRANCH  27  28
HETATM   28  N   UNL     1      -9.522   6.648  66.014  1.00  0.00    -0.386 NA 
HETATM   29  H   UNL     1     -10.404   7.018  65.658  1.00  0.00     0.000 HD 
BRANCH  28  30
HETATM   30  C   UNL     1      -9.694   5.555  66.913  1.00  0.00    -0.150 A  
HETATM   31  C   UNL     1     -10.074   5.817  68.251  1.00  0.00    -0.208 A  
HETATM   32  C   UNL     1     -10.585   7.067  68.637  1.00  0.00    -0.238 A  
HETATM   33  C   UNL     1     -10.828   7.365  69.973  1.00  0.00    -0.266 A  
HETATM   34  C   UNL     1     -10.537   6.428  70.963  1.00  0.00    -0.282 A  
HETATM   35  C   UNL     1     -10.144   5.134  70.563  1.00  0.00    -0.326 A  
HETATM   36  C   UNL     1     -10.607   6.845  72.414  1.00  0.00    -0.211 C  
HETATM   37  C   UNL     1      -9.949   4.796  69.222  1.00  0.00    -0.184 A  
HETATM   38  F   UNL     1     -10.944   8.160  72.570  1.00  0.00    -0.329 F  
HETATM   39  F   UNL     1     -11.516   6.145  73.143  1.00  0.00    -0.241 F  
HETATM   40  F   UNL     1      -9.413   6.704  73.054  1.00  0.00    -0.142 F  
HETATM   41  N   UNL     1      -9.617   3.543  68.878  1.00  0.00    -0.135 NA 
HETATM   42  C   UNL     1      -9.397   3.279  67.565  1.00  0.00    -0.206 A  
HETATM   43  C   UNL     1      -9.401   4.244  66.561  1.00  0.00    -0.174 A  
ENDBRANCH  28  30
ENDBRANCH  27  28
ENDBRANCH  20  22
ENDBRANCH  19  20
ENDBRANCH  18  19
ENDBRANCH  17  18
ENDBRANCH  14  17
ENDBRANCH   7  11
TORSDOF 8
ENDMDL
MODEL       67
REMARK 921   NORMALIZED FREE ENERGY PREDICTED BY IDOCK:   -6.44 KCAL/MOL
REMARK 922        TOTAL FREE ENERGY PREDICTED BY IDOCK:  -12.85 KCAL/MOL
REMARK 923 INTER-LIGAND FREE ENERGY PREDICTED BY IDOCK:   -9.55 KCAL/MOL
REMARK 924 INTRA-LIGAND FREE ENERGY PREDICTED BY IDOCK:   -3.30 KCAL/MOL
REMARK 927      BINDING AFFINITY PREDICTED BY RF-SCORE:    0.00 PKD
ROOT
HETATM    1  F   UNL     1     -10.187  15.419  64.964  1.00  0.00    -0.382 F  
HETATM    2  C   UNL     1     -10.227  16.123  66.130  1.00  0.00    -0.336 C  
HETATM    3  C   UNL     1      -9.284  15.610  67.189  1.00  0.00    -0.226 A  
HETATM    4  F   UNL     1      -9.984  17.420  65.793  1.00  0.00    -0.268 F  
HETATM    5  F   UNL     1     -11.527  16.085  66.539  1.00  0.00    -0.052 F  
HETATM    6  C   UNL     1      -8.456  14.492  66.958  1.00  0.00    -0.222 A  
HETATM    7  C   UNL     1      -7.662  13.960  67.981  1.00  0.00    -0.151 A  
HETATM    8  C   UNL     1      -9.270  16.232  68.447  1.00  0.00    -0.203 A  
HETATM    9  C   UNL     1      -7.662  14.625  69.220  1.00  0.00    -0.091 A  
HETATM   10  C   UNL     1      -8.451  15.747  69.458  1.00  0.00    -0.138 A  
ENDROOT
BRANCH   7  11
HETATM   11  N   UNL     1      -6.911  12.786  67.868  1.00  0.00    -0.098 NA 
HETATM   12  C   UNL     1      -5.977  10.804  66.712  1.00  0.00    -0.077 C  
HETATM   13  C   UNL     1      -7.091  11.891  66.708  1.00  0.00    -0.003 C  
HETATM   14  N   UNL     1      -5.863  10.006  67.965  1.00  0.00    -0.039 NA 
HETATM   15  C   UNL     1      -6.810  12.061  69.157  1.00  0.00    -0.090 C  
HETATM   16  C   UNL     1      -5.702  10.985  69.076  1.00  0.00    -0.040 C  
BRANCH  14  17
HETATM   17  C   UNL     1      -7.033   9.133  68.212  1.00  0.00    -0.076 C  
BRANCH  17  18
HETATM   18  C   UNL     1      -6.884   8.129  69.379  1.00  0.00    -0.043 C  
BRANCH  18  19
HETATM   19  O   UNL     1      -8.171   7.773  69.967  1.00  0.00    -0.117 OA 
BRANCH  19  20
HETATM   20  C   UNL     1      -8.563   8.641  70.933  1.00  0.00    -0.172 C  
HETATM   21  O   UNL     1      -7.763   9.290  71.610  1.00  0.00    -0.336 OA 
BRANCH  20  22
HETATM   22  C   UNL     1     -10.043   8.814  71.126  1.00  0.00    -0.317 A  
HETATM   23  C   UNL     1     -10.603   7.790  71.929  1.00  0.00    -0.270 A  
HETATM   24  C   UNL     1     -11.961   7.738  72.216  1.00  0.00    -0.356 A  
HETATM   25  C   UNL     1     -12.794   8.727  71.714  1.00  0.00    -0.406 A  
HETATM   26  C   UNL     1     -12.264   9.757  70.930  1.00  0.00    -0.390 A  
HETATM   27  C   UNL     1     -10.890   9.830  70.607  1.00  0.00    -0.329 A  
BRANCH  27  28
HETATM   28  N   UNL     1     -10.443  10.844  69.734  1.00  0.00    -0.448 NA 
HETATM   29  H   UNL     1      -9.506  11.182  69.959  1.00  0.00     0.000 HD 
BRANCH  28  30
HETATM   30  C   UNL     1     -11.020  11.497  68.607  1.00  0.00    -0.223 A  
HETATM   31  C   UNL     1     -10.700  11.038  67.306  1.00  0.00    -0.312 A  
HETATM   32  C   UNL     1     -10.095   9.788  67.099  1.00  0.00    -0.267 A  
HETATM   33  C   UNL     1      -9.659   9.399  65.837  1.00  0.00    -0.338 A  
HETATM   34  C   UNL     1      -9.788  10.266  64.754  1.00  0.00    -0.403 A  
HETATM   35  C   UNL     1     -10.507  11.465  64.940  1.00  0.00    -0.363 A  
HETATM   36  C   UNL     1      -9.120   9.914  63.445  1.00  0.00    -0.261 C  
HETATM   37  C   UNL     1     -11.005  11.848  66.188  1.00  0.00    -0.308 A  
HETATM   38  F   UNL     1      -8.422   8.741  63.507  1.00  0.00    -0.177 F  
HETATM   39  F   UNL     1      -9.986   9.771  62.407  1.00  0.00    -0.097 F  
HETATM   40  F   UNL     1      -8.210  10.851  63.057  1.00  0.00    -0.154 F  
HETATM   41  N   UNL     1     -11.722  12.975  66.317  1.00  0.00    -0.367 NA 
HETATM   42  C   UNL     1     -12.145  13.323  67.559  1.00  0.00    -0.264 A  
HETATM   43  C   UNL     1     -11.804  12.638  68.723  1.00  0.00    -0.341 A  
ENDBRANCH  28  30
ENDBRANCH  27  28
ENDBRANCH  20  22
ENDBRANCH  19  20
ENDBRANCH  18  19
ENDBRANCH  17  18
ENDBRANCH  14  17
ENDBRANCH   7  11
TORSDOF 8
ENDMDL
MODEL       68
REMARK 921   NORMALIZED FREE ENERGY PREDICTED BY IDOCK:   -6.42 KCAL/MOL
REMARK 922        TOTAL FREE ENERGY PREDICTED BY IDOCK:  -12.82 KCAL/MOL
REMARK 923 INTER-LIGAND FREE ENERGY PREDICTED BY IDOCK:   -9.48 KCAL/MOL
REMARK 924 INTRA-LIGAND FREE ENERGY PREDICTED BY IDOCK:   -3.34 KCAL/MOL
REMARK 927      BINDING AFFINITY PREDICTED BY RF-SCORE:    0.00 PKD
ROOT
HETATM    1  F   UNL     1     -13.437  14.313  71.620  1.00  0.00    -0.371 F  
HETATM    2  C   UNL     1     -12.454  15.254  71.684  1.00  0.00    -0.363 C  
HETATM    3  C   UNL     1     -11.845  15.597  70.347  1.00  0.00    -0.395 A  
HETATM    4  F   UNL     1     -13.007  16.334  72.303  1.00  0.00    -0.479 F  
HETATM    5  F   UNL     1     -11.529  14.761  72.557  1.00  0.00    -0.378 F  
HETATM    6  C   UNL     1     -12.277  14.972  69.160  1.00  0.00    -0.186 A  
HETATM    7  C   UNL     1     -11.636  15.221  67.941  1.00  0.00    -0.289 A  
HETATM    8  C   UNL     1     -10.792  16.524  70.296  1.00  0.00    -0.156 A  
HETATM    9  C   UNL     1     -10.599  16.170  67.930  1.00  0.00    -0.309 A  
HETATM   10  C   UNL     1     -10.177  16.818  69.088  1.00  0.00    -0.306 A  
ENDROOT
BRANCH   7  11
HETATM   11  N   UNL     1     -11.922  14.552  66.747  1.00  0.00    -0.382 NA 
HETATM   12  C   UNL     1     -12.489  12.600  65.330  1.00  0.00    -0.355 C  
HETATM   13  C   UNL     1     -11.906  13.077  66.692  1.00  0.00    -0.393 C  
HETATM   14  N   UNL     1     -11.835  13.167  64.118  1.00  0.00    -0.403 NA 
HETATM   15  C   UNL     1     -11.268  15.188  65.579  1.00  0.00    -0.320 C  
HETATM   16  C   UNL     1     -11.882  14.648  64.266  1.00  0.00    -0.337 C  
BRANCH  14  17
HETATM   17  C   UNL     1     -10.436  12.711  63.939  1.00  0.00    -0.411 C  
BRANCH  17  18
HETATM   18  C   UNL     1     -10.222  11.179  63.983  1.00  0.00    -0.361 C  
BRANCH  18  19
HETATM   19  O   UNL     1      -8.950  10.821  64.601  1.00  0.00    -0.195 OA 
BRANCH  19  20
HETATM   20  C   UNL     1      -9.103  10.031  65.694  1.00  0.00    -0.183 C  
HETATM   21  O   UNL     1     -10.178   9.914  66.285  1.00  0.00    -0.243 OA 
BRANCH  20  22
HETATM   22  C   UNL     1      -7.896   9.258  66.143  1.00  0.00    -0.099 A  
HETATM   23  C   UNL     1      -7.428   8.366  65.146  1.00  0.00    -0.084 A  
HETATM   24  C   UNL     1      -6.337   7.533  65.357  1.00  0.00    -0.038 A  
HETATM   25  C   UNL     1      -5.674   7.584  66.574  1.00  0.00    -0.032 A  
HETATM   26  C   UNL     1      -6.108   8.465  67.570  1.00  0.00    -0.052 A  
HETATM   27  C   UNL     1      -7.223   9.315  67.393  1.00  0.00    -0.080 A  
BRANCH  27  28
HETATM   28  N   UNL     1      -7.659  10.109  68.475  1.00  0.00    -0.086 NA 
HETATM   29  H   UNL     1      -8.614   9.898  68.768  1.00  0.00     0.000 HD 
BRANCH  28  30
HETATM   30  C   UNL     1      -7.051  11.143  69.245  1.00  0.00    -0.123 A  
HETATM   31  C   UNL     1      -7.169  12.485  68.811  1.00  0.00    -0.089 A  
HETATM   32  C   UNL     1      -8.111  12.862  67.840  1.00  0.00    -0.161 A  
HETATM   33  C   UNL     1      -8.132  14.150  67.319  1.00  0.00    -0.188 A  
HETATM   34  C   UNL     1      -7.189  15.089  67.733  1.00  0.00    -0.186 A  
HETATM   35  C   UNL     1      -6.328  14.746  68.796  1.00  0.00    -0.086 A  
HETATM   36  C   UNL     1      -7.094  16.409  67.004  1.00  0.00    -0.224 C  
HETATM   37  C   UNL     1      -6.330  13.474  69.374  1.00  0.00    -0.110 A  
HETATM   38  F   UNL     1      -7.979  16.504  65.966  1.00  0.00    -0.331 F  
HETATM   39  F   UNL     1      -7.337  17.490  67.792  1.00  0.00    -0.174 F  
HETATM   40  F   UNL     1      -5.867  16.609  66.447  1.00  0.00    -0.163 F  
HETATM   41  N   UNL     1      -5.526  13.198  70.412  1.00  0.00    -0.131 NA 
HETATM   42  C   UNL     1      -5.535  11.935  70.909  1.00  0.00    -0.112 A  
HETATM   43  C   UNL     1      -6.254  10.881  70.352  1.00  0.00    -0.118 A  
ENDBRANCH  28  30
ENDBRANCH  27  28
ENDBRANCH  20  22
ENDBRANCH  19  20
ENDBRANCH  18  19
ENDBRANCH  17  18
ENDBRANCH  14  17
ENDBRANCH   7  11
TORSDOF 8
ENDMDL
MODEL       69
REMARK 921   NORMALIZED FREE ENERGY PREDICTED BY IDOCK:   -6.41 KCAL/MOL
REMARK 922        TOTAL FREE ENERGY PREDICTED BY IDOCK:  -12.81 KCAL/MOL
REMARK 923 INTER-LIGAND FREE ENERGY PREDICTED BY IDOCK:  -11.45 KCAL/MOL
REMARK 924 INTRA-LIGAND FREE ENERGY PREDICTED BY IDOCK:   -1.36 KCAL/MOL
REMARK 927      BINDING AFFINITY PREDICTED BY RF-SCORE:    0.00 PKD
ROOT
HETATM    1  F   UNL     1      -8.855  20.187  65.387  1.00  0.00    -0.189 F  
HETATM    2  C   UNL     1      -8.364  19.893  66.622  1.00  0.00    -0.330 C  
HETATM    3  C   UNL     1      -8.783  18.541  67.144  1.00  0.00    -0.274 A  
HETATM    4  F   UNL     1      -7.011  20.023  66.529  1.00  0.00    -0.208 F  
HETATM    5  F   UNL     1      -8.777  20.906  67.435  1.00  0.00    -0.422 F  
HETATM    6  C   UNL     1      -9.619  17.690  66.392  1.00  0.00    -0.285 A  
HETATM    7  C   UNL     1     -10.087  16.484  66.927  1.00  0.00    -0.281 A  
HETATM    8  C   UNL     1      -8.370  18.147  68.426  1.00  0.00    -0.311 A  
HETATM    9  C   UNL     1      -9.634  16.118  68.207  1.00  0.00    -0.216 A  
HETATM   10  C   UNL     1      -8.786  16.932  68.952  1.00  0.00    -0.216 A  
ENDROOT
BRANCH   7  11
HETATM   11  N   UNL     1     -11.013  15.647  66.297  1.00  0.00    -0.257 NA 
HETATM   12  C   UNL     1     -12.391  13.606  66.022  1.00  0.00    -0.445 C  
HETATM   13  C   UNL     1     -11.141  14.233  66.704  1.00  0.00    -0.321 C  
HETATM   14  N   UNL     1     -12.437  13.720  64.537  1.00  0.00    -0.623 NA 
HETATM   15  C   UNL     1     -11.029  15.836  64.828  1.00  0.00    -0.393 C  
HETATM   16  C   UNL     1     -12.285  15.168  64.219  1.00  0.00    -0.240 C  
BRANCH  14  17
HETATM   17  C   UNL     1     -11.385  12.929  63.856  1.00  0.00    -0.436 C  
BRANCH  17  18
HETATM   18  C   UNL     1     -11.244  11.462  64.325  1.00  0.00    -0.232 C  
BRANCH  18  19
HETATM   19  O   UNL     1      -9.868  11.129  64.680  1.00  0.00    -0.244 OA 
BRANCH  19  20
HETATM   20  C   UNL     1      -9.775  10.504  65.881  1.00  0.00    -0.217 C  
HETATM   21  O   UNL     1     -10.031  11.068  66.947  1.00  0.00    -0.187 OA 
BRANCH  20  22
HETATM   22  C   UNL     1      -9.376   9.056  65.859  1.00  0.00    -0.306 A  
HETATM   23  C   UNL     1      -8.442   8.771  64.831  1.00  0.00    -0.189 A  
HETATM   24  C   UNL     1      -7.956   7.489  64.612  1.00  0.00    -0.133 A  
HETATM   25  C   UNL     1      -8.385   6.456  65.432  1.00  0.00    -0.141 A  
HETATM   26  C   UNL     1      -9.296   6.713  66.462  1.00  0.00    -0.191 A  
HETATM   27  C   UNL     1      -9.821   8.002  66.702  1.00  0.00    -0.252 A  
BRANCH  27  28
HETATM   28  N   UNL     1     -10.806   8.168  67.699  1.00  0.00    -0.507 NA 
HETATM   29  H   UNL     1     -11.752   7.986  67.362  1.00  0.00     0.000 HD 
BRANCH  28  30
HETATM   30  C   UNL     1     -10.761   8.535  69.075  1.00  0.00    -0.092 A  
HETATM   31  C   UNL     1     -10.609   7.523  70.053  1.00  0.00    -0.242 A  
HETATM   32  C   UNL     1     -10.193   6.227  69.709  1.00  0.00    -0.234 A  
HETATM   33  C   UNL     1     -10.176   5.202  70.647  1.00  0.00    -0.326 A  
HETATM   34  C   UNL     1     -10.606   5.440  71.952  1.00  0.00    -0.288 A  
HETATM   35  C   UNL     1     -10.903   6.768  72.325  1.00  0.00    -0.263 A  
HETATM   36  C   UNL     1     -10.782   4.272  72.894  1.00  0.00    -0.167 C  
HETATM   37  C   UNL     1     -10.870   7.823  71.411  1.00  0.00    -0.228 A  
HETATM   38  F   UNL     1     -10.501   3.071  72.305  1.00  0.00    -0.230 F  
HETATM   39  F   UNL     1      -9.990   4.333  73.997  1.00  0.00    -0.131 F  
HETATM   40  F   UNL     1     -12.062   4.157  73.347  1.00  0.00    -0.277 F  
HETATM   41  N   UNL     1     -11.117   9.079  71.813  1.00  0.00    -0.357 NA 
HETATM   42  C   UNL     1     -11.114  10.061  70.876  1.00  0.00    -0.314 A  
HETATM   43  C   UNL     1     -10.967   9.838  69.509  1.00  0.00    -0.256 A  
ENDBRANCH  28  30
ENDBRANCH  27  28
ENDBRANCH  20  22
ENDBRANCH  19  20
ENDBRANCH  18  19
ENDBRANCH  17  18
ENDBRANCH  14  17
ENDBRANCH   7  11
TORSDOF 8
ENDMDL
MODEL       70
REMARK 921   NORMALIZED FREE ENERGY PREDICTED BY IDOCK:   -6.38 KCAL/MOL
REMARK 922        TOTAL FREE ENERGY PREDICTED BY IDOCK:  -12.77 KCAL/MOL
REMARK 923 INTER-LIGAND FREE ENERGY PREDICTED BY IDOCK:  -11.32 KCAL/MOL
REMARK 924 INTRA-LIGAND FREE ENERGY PREDICTED BY IDOCK:   -1.45 KCAL/MOL
REMARK 927      BINDING AFFINITY PREDICTED BY RF-SCORE:    0.00 PKD
ROOT
HETATM    1  F   UNL     1      -8.757   3.398  68.772  1.00  0.00    -0.096 F  
HETATM    2  C   UNL     1      -8.932   2.590  69.855  1.00  0.00    -0.098 C  
HETATM    3  C   UNL     1      -9.620   3.263  71.017  1.00  0.00    -0.234 A  
HETATM    4  F   UNL     1      -9.611   1.499  69.403  1.00  0.00    -0.161 F  
HETATM    5  F   UNL     1      -7.688   2.141  70.185  1.00  0.00    -0.042 F  
HETATM    6  C   UNL     1     -10.022   4.613  70.952  1.00  0.00    -0.273 A  
HETATM    7  C   UNL     1     -10.564   5.257  72.070  1.00  0.00    -0.216 A  
HETATM    8  C   UNL     1      -9.817   2.540  72.203  1.00  0.00    -0.226 A  
HETATM    9  C   UNL     1     -10.762   4.492  73.233  1.00  0.00    -0.312 A  
HETATM   10  C   UNL     1     -10.397   3.150  73.306  1.00  0.00    -0.240 A  
ENDROOT
BRANCH   7  11
HETATM   11  N   UNL     1     -10.872   6.620  72.125  1.00  0.00    -0.222 NA 
HETATM   12  C   UNL     1     -12.343   8.610  71.995  1.00  0.00    -0.371 C  
HETATM   13  C   UNL     1     -12.157   7.118  71.593  1.00  0.00    -0.336 C  
HETATM   14  N   UNL     1     -11.234   9.524  71.602  1.00  0.00    -0.366 NA 
HETATM   15  C   UNL     1      -9.717   7.471  71.754  1.00  0.00    -0.160 C  
HETATM   16  C   UNL     1      -9.985   8.939  72.163  1.00  0.00    -0.204 C  
BRANCH  14  17
HETATM   17  C   UNL     1     -11.110   9.697  70.135  1.00  0.00    -0.269 C  
BRANCH  17  18
HETATM   18  C   UNL     1     -11.366  11.129  69.608  1.00  0.00    -0.294 C  
BRANCH  18  19
HETATM   19  O   UNL     1     -12.187  11.130  68.401  1.00  0.00    -0.610 OA 
BRANCH  19  20
HETATM   20  C   UNL     1     -11.609  11.806  67.377  1.00  0.00    -0.280 C  
HETATM   21  O   UNL     1     -11.984  12.925  67.021  1.00  0.00    -0.381 OA 
BRANCH  20  22
HETATM   22  C   UNL     1     -10.443  11.140  66.701  1.00  0.00    -0.298 A  
HETATM   23  C   UNL     1     -10.561   9.728  66.694  1.00  0.00    -0.178 A  
HETATM   24  C   UNL     1      -9.583   8.910  66.143  1.00  0.00    -0.335 A  
HETATM   25  C   UNL     1      -8.463   9.491  65.569  1.00  0.00    -0.150 A  
HETATM   26  C   UNL     1      -8.328  10.883  65.551  1.00  0.00    -0.079 A  
HETATM   27  C   UNL     1      -9.297  11.743  66.116  1.00  0.00    -0.225 A  
BRANCH  27  28
HETATM   28  N   UNL     1      -9.050  13.132  66.144  1.00  0.00    -0.458 NA 
HETATM   29  H   UNL     1      -9.088  13.565  65.221  1.00  0.00     0.000 HD 
BRANCH  28  30
HETATM   30  C   UNL     1      -8.759  14.059  67.187  1.00  0.00    -0.221 A  
HETATM   31  C   UNL     1      -9.211  15.394  67.068  1.00  0.00    -0.242 A  
HETATM   32  C   UNL     1     -10.189  15.756  66.127  1.00  0.00    -0.332 A  
HETATM   33  C   UNL     1     -10.531  17.087  65.918  1.00  0.00    -0.282 A  
HETATM   34  C   UNL     1      -9.881  18.096  66.627  1.00  0.00    -0.350 A  
HETATM   35  C   UNL     1      -8.994  17.723  67.657  1.00  0.00    -0.249 A  
HETATM   36  C   UNL     1     -10.114  19.538  66.236  1.00  0.00    -0.468 C  
HETATM   37  C   UNL     1      -8.679  16.388  67.922  1.00  0.00    -0.179 A  
HETATM   38  F   UNL     1     -10.960  19.666  65.170  1.00  0.00    -0.525 F  
HETATM   39  F   UNL     1     -10.657  20.293  67.227  1.00  0.00    -0.500 F  
HETATM   40  F   UNL     1      -8.966  20.166  65.859  1.00  0.00    -0.376 F  
HETATM   41  N   UNL     1      -7.864  16.071  68.939  1.00  0.00    -0.189 NA 
HETATM   42  C   UNL     1      -7.556  14.762  69.125  1.00  0.00    -0.151 A  
HETATM   43  C   UNL     1      -7.955  13.735  68.273  1.00  0.00    -0.146 A  
ENDBRANCH  28  30
ENDBRANCH  27  28
ENDBRANCH  20  22
ENDBRANCH  19  20
ENDBRANCH  18  19
ENDBRANCH  17  18
ENDBRANCH  14  17
ENDBRANCH   7  11
TORSDOF 8
ENDMDL
MODEL       71
REMARK 921   NORMALIZED FREE ENERGY PREDICTED BY IDOCK:   -6.37 KCAL/MOL
REMARK 922        TOTAL FREE ENERGY PREDICTED BY IDOCK:  -12.75 KCAL/MOL
REMARK 923 INTER-LIGAND FREE ENERGY PREDICTED BY IDOCK:  -10.40 KCAL/MOL
REMARK 924 INTRA-LIGAND FREE ENERGY PREDICTED BY IDOCK:   -2.35 KCAL/MOL
REMARK 927      BINDING AFFINITY PREDICTED BY RF-SCORE:    0.00 PKD
ROOT
HETATM    1  F   UNL     1     -10.595  14.485  68.702  1.00  0.00    -0.226 F  
HETATM    2  C   UNL     1     -11.377  15.150  69.598  1.00  0.00    -0.283 C  
HETATM    3  C   UNL     1     -12.120  14.248  70.552  1.00  0.00    -0.413 A  
HETATM    4  F   UNL     1     -10.552  16.026  70.237  1.00  0.00    -0.281 F  
HETATM    5  F   UNL     1     -12.223  15.916  68.853  1.00  0.00    -0.371 F  
HETATM    6  C   UNL     1     -11.997  12.845  70.484  1.00  0.00    -0.282 A  
HETATM    7  C   UNL     1     -12.769  12.014  71.304  1.00  0.00    -0.279 A  
HETATM    8  C   UNL     1     -12.988  14.821  71.493  1.00  0.00    -0.410 A  
HETATM    9  C   UNL     1     -13.613  12.628  72.246  1.00  0.00    -0.508 A  
HETATM   10  C   UNL     1     -13.726  14.012  72.347  1.00  0.00    -0.669 A  
ENDROOT
BRANCH   7  11
HETATM   11  N   UNL     1     -12.797  10.619  71.213  1.00  0.00    -0.402 NA 
HETATM   12  C   UNL     1     -13.673   8.344  71.654  1.00  0.00    -0.364 C  
HETATM   13  C   UNL     1     -13.646   9.827  72.124  1.00  0.00    -0.344 C  
HETATM   14  N   UNL     1     -12.340   7.696  71.499  1.00  0.00    -0.319 NA 
HETATM   15  C   UNL     1     -11.444  10.044  71.027  1.00  0.00    -0.383 C  
HETATM   16  C   UNL     1     -11.551   8.566  70.584  1.00  0.00    -0.194 C  
BRANCH  14  17
HETATM   17  C   UNL     1     -11.625   7.514  72.784  1.00  0.00    -0.248 C  
BRANCH  17  18
HETATM   18  C   UNL     1     -10.142   7.954  72.790  1.00  0.00    -0.300 C  
BRANCH  18  19
HETATM   19  O   UNL     1      -9.269   6.935  73.365  1.00  0.00    -0.131 OA 
BRANCH  19  20
HETATM   20  C   UNL     1      -8.561   6.262  72.424  1.00  0.00    -0.121 C  
HETATM   21  O   UNL     1      -7.563   6.736  71.876  1.00  0.00    -0.093 OA 
BRANCH  20  22
HETATM   22  C   UNL     1      -9.024   4.871  72.096  1.00  0.00    -0.144 A  
HETATM   23  C   UNL     1      -9.497   4.179  73.239  1.00  0.00    -0.130 A  
HETATM   24  C   UNL     1      -9.951   2.869  73.170  1.00  0.00    -0.185 A  
HETATM   25  C   UNL     1      -9.957   2.220  71.944  1.00  0.00    -0.219 A  
HETATM   26  C   UNL     1      -9.508   2.885  70.799  1.00  0.00    -0.223 A  
HETATM   27  C   UNL     1      -9.026   4.213  70.837  1.00  0.00    -0.095 A  
BRANCH  27  28
HETATM   28  N   UNL     1      -8.502   4.787  69.659  1.00  0.00    -0.081 NA 
HETATM   29  H   UNL     1      -7.507   5.003  69.726  1.00  0.00     0.000 HD 
BRANCH  28  30
HETATM   30  C   UNL     1      -9.067   5.130  68.396  1.00  0.00    -0.112 A  
HETATM   31  C   UNL     1      -9.230   6.496  68.062  1.00  0.00    -0.111 A  
HETATM   32  C   UNL     1      -8.579   7.510  68.784  1.00  0.00    -0.129 A  
HETATM   33  C   UNL     1      -8.848   8.852  68.542  1.00  0.00    -0.134 A  
HETATM   34  C   UNL     1      -9.799   9.215  67.591  1.00  0.00    -0.217 A  
HETATM   35  C   UNL     1     -10.357   8.202  66.783  1.00  0.00    -0.361 A  
HETATM   36  C   UNL     1     -10.229  10.661  67.494  1.00  0.00    -0.199 C  
HETATM   37  C   UNL     1     -10.057   6.852  66.971  1.00  0.00    -0.221 A  
HETATM   38  F   UNL     1      -9.609  11.459  68.414  1.00  0.00    -0.169 F  
HETATM   39  F   UNL     1      -9.973  11.229  66.286  1.00  0.00    -0.223 F  
HETATM   40  F   UNL     1     -11.562  10.824  67.719  1.00  0.00    -0.369 F  
HETATM   41  N   UNL     1     -10.573   5.920  66.155  1.00  0.00     0.026 NA 
HETATM   42  C   UNL     1     -10.284   4.618  66.408  1.00  0.00    -0.260 A  
HETATM   43  C   UNL     1      -9.564   4.178  67.516  1.00  0.00    -0.219 A  
ENDBRANCH  28  30
ENDBRANCH  27  28
ENDBRANCH  20  22
ENDBRANCH  19  20
ENDBRANCH  18  19
ENDBRANCH  17  18
ENDBRANCH  14  17
ENDBRANCH   7  11
TORSDOF 8
ENDMDL
MODEL       72
REMARK 921   NORMALIZED FREE ENERGY PREDICTED BY IDOCK:   -6.34 KCAL/MOL
REMARK 922        TOTAL FREE ENERGY PREDICTED BY IDOCK:  -12.71 KCAL/MOL
REMARK 923 INTER-LIGAND FREE ENERGY PREDICTED BY IDOCK:   -9.87 KCAL/MOL
REMARK 924 INTRA-LIGAND FREE ENERGY PREDICTED BY IDOCK:   -2.83 KCAL/MOL
REMARK 927      BINDING AFFINITY PREDICTED BY RF-SCORE:    0.00 PKD
ROOT
HETATM    1  F   UNL     1     -12.543  16.341  71.974  1.00  0.00    -0.492 F  
HETATM    2  C   UNL     1     -13.000  15.171  72.501  1.00  0.00    -0.379 C  
HETATM    3  C   UNL     1     -12.715  13.960  71.649  1.00  0.00    -0.416 A  
HETATM    4  F   UNL     1     -12.451  15.080  73.744  1.00  0.00    -0.519 F  
HETATM    5  F   UNL     1     -14.337  15.354  72.701  1.00  0.00    -0.556 F  
HETATM    6  C   UNL     1     -12.039  14.071  70.416  1.00  0.00    -0.426 A  
HETATM    7  C   UNL     1     -11.871  12.958  69.584  1.00  0.00    -0.320 A  
HETATM    8  C   UNL     1     -13.177  12.705  72.072  1.00  0.00    -0.531 A  
HETATM    9  C   UNL     1     -12.331  11.716  70.055  1.00  0.00    -0.261 A  
HETATM   10  C   UNL     1     -12.976  11.582  71.281  1.00  0.00    -0.397 A  
ENDROOT
BRANCH   7  11
HETATM   11  N   UNL     1     -11.324  13.008  68.298  1.00  0.00    -0.268 NA 
HETATM   12  C   UNL     1     -11.310  12.726  65.837  1.00  0.00    -0.324 C  
HETATM   13  C   UNL     1     -11.983  12.310  67.177  1.00  0.00    -0.137 C  
HETATM   14  N   UNL     1      -9.835  12.526  65.771  1.00  0.00    -0.256 NA 
HETATM   15  C   UNL     1      -9.852  12.836  68.309  1.00  0.00    -0.224 C  
HETATM   16  C   UNL     1      -9.258  13.245  66.941  1.00  0.00    -0.241 C  
BRANCH  14  17
HETATM   17  C   UNL     1      -9.435  11.099  65.794  1.00  0.00    -0.221 C  
BRANCH  17  18
HETATM   18  C   UNL     1      -7.917  10.828  65.677  1.00  0.00    -0.095 C  
BRANCH  18  19
HETATM   19  O   UNL     1      -7.322  10.473  66.962  1.00  0.00    -0.093 OA 
BRANCH  19  20
HETATM   20  C   UNL     1      -6.106  11.044  67.151  1.00  0.00    -0.074 C  
HETATM   21  O   UNL     1      -5.202  10.978  66.316  1.00  0.00    -0.091 OA 
BRANCH  20  22
HETATM   22  C   UNL     1      -5.912  11.811  68.428  1.00  0.00    -0.049 A  
HETATM   23  C   UNL     1      -5.739  13.199  68.201  1.00  0.00    -0.097 A  
HETATM   24  C   UNL     1      -5.518  14.093  69.240  1.00  0.00    -0.081 A  
HETATM   25  C   UNL     1      -5.480  13.619  70.542  1.00  0.00    -0.140 A  
HETATM   26  C   UNL     1      -5.661  12.255  70.795  1.00  0.00    -0.139 A  
HETATM   27  C   UNL     1      -5.872  11.317  69.760  1.00  0.00    -0.091 A  
BRANCH  27  28
HETATM   28  N   UNL     1      -5.953   9.945  70.083  1.00  0.00    -0.051 NA 
HETATM   29  H   UNL     1      -5.697   9.335  69.306  1.00  0.00     0.000 HD 
BRANCH  28  30
HETATM   30  C   UNL     1      -6.317   9.231  71.261  1.00  0.00    -0.072 A  
HETATM   31  C   UNL     1      -7.640   8.746  71.392  1.00  0.00    -0.131 A  
HETATM   32  C   UNL     1      -8.505   8.669  70.288  1.00  0.00    -0.133 A  
HETATM   33  C   UNL     1      -9.842   8.322  70.443  1.00  0.00    -0.194 A  
HETATM   34  C   UNL     1     -10.358   8.072  71.714  1.00  0.00    -0.275 A  
HETATM   35  C   UNL     1      -9.461   8.028  72.802  1.00  0.00    -0.336 A  
HETATM   36  C   UNL     1     -11.851   7.907  71.884  1.00  0.00    -0.301 C  
HETATM   37  C   UNL     1      -8.102   8.316  72.658  1.00  0.00    -0.152 A  
HETATM   38  F   UNL     1     -12.535   8.053  70.710  1.00  0.00    -0.226 F  
HETATM   39  F   UNL     1     -12.216   6.693  72.372  1.00  0.00    -0.291 F  
HETATM   40  F   UNL     1     -12.384   8.836  72.726  1.00  0.00    -0.434 F  
HETATM   41  N   UNL     1      -7.272   8.221  73.708  1.00  0.00    -0.184 NA 
HETATM   42  C   UNL     1      -5.969   8.555  73.523  1.00  0.00    -0.107 A  
HETATM   43  C   UNL     1      -5.456   9.080  72.340  1.00  0.00    -0.068 A  
ENDBRANCH  28  30
ENDBRANCH  27  28
ENDBRANCH  20  22
ENDBRANCH  19  20
ENDBRANCH  18  19
ENDBRANCH  17  18
ENDBRANCH  14  17
ENDBRANCH   7  11
TORSDOF 8
ENDMDL
MODEL       73
REMARK 921   NORMALIZED FREE ENERGY PREDICTED BY IDOCK:   -6.31 KCAL/MOL
REMARK 922        TOTAL FREE ENERGY PREDICTED BY IDOCK:  -12.66 KCAL/MOL
REMARK 923 INTER-LIGAND FREE ENERGY PREDICTED BY IDOCK:  -10.92 KCAL/MOL
REMARK 924 INTRA-LIGAND FREE ENERGY PREDICTED BY IDOCK:   -1.73 KCAL/MOL
REMARK 927      BINDING AFFINITY PREDICTED BY RF-SCORE:    0.00 PKD
ROOT
HETATM    1  F   UNL     1      -9.469   3.184  74.459  1.00  0.00    -0.100 F  
HETATM    2  C   UNL     1      -9.422   2.347  73.385  1.00  0.00    -0.083 C  
HETATM    3  C   UNL     1      -9.440   3.056  72.053  1.00  0.00    -0.204 A  
HETATM    4  F   UNL     1      -8.311   1.579  73.557  1.00  0.00    -0.046 F  
HETATM    5  F   UNL     1     -10.482   1.502  73.530  1.00  0.00    -0.121 F  
HETATM    6  C   UNL     1      -9.509   4.462  71.969  1.00  0.00    -0.196 A  
HETATM    7  C   UNL     1      -9.630   5.103  70.731  1.00  0.00    -0.179 A  
HETATM    8  C   UNL     1      -9.438   2.292  70.876  1.00  0.00    -0.212 A  
HETATM    9  C   UNL     1      -9.605   4.303  69.575  1.00  0.00    -0.274 A  
HETATM   10  C   UNL     1      -9.509   2.916  69.638  1.00  0.00    -0.164 A  
ENDROOT
BRANCH   7  11
HETATM   11  N   UNL     1      -9.827   6.478  70.570  1.00  0.00    -0.179 NA 
HETATM   12  C   UNL     1     -11.115   8.531  70.056  1.00  0.00    -0.151 C  
HETATM   13  C   UNL     1     -11.031   6.987  69.884  1.00  0.00    -0.263 C  
HETATM   14  N   UNL     1      -9.912   9.292  69.616  1.00  0.00    -0.182 NA 
HETATM   15  C   UNL     1      -8.584   7.177  70.165  1.00  0.00    -0.140 C  
HETATM   16  C   UNL     1      -8.752   8.705  70.341  1.00  0.00    -0.155 C  
BRANCH  14  17
HETATM   17  C   UNL     1      -9.688   9.238  68.152  1.00  0.00    -0.150 C  
BRANCH  17  18
HETATM   18  C   UNL     1     -10.151  10.483  67.359  1.00  0.00    -0.197 C  
BRANCH  18  19
HETATM   19  O   UNL     1      -9.068  11.069  66.575  1.00  0.00    -0.164 OA 
BRANCH  19  20
HETATM   20  C   UNL     1      -9.386  11.203  65.263  1.00  0.00    -0.219 C  
HETATM   21  O   UNL     1      -8.952  10.446  64.392  1.00  0.00    -0.193 OA 
BRANCH  20  22
HETATM   22  C   UNL     1     -10.338  12.310  64.908  1.00  0.00    -0.319 A  
HETATM   23  C   UNL     1     -11.316  11.897  63.970  1.00  0.00    -0.475 A  
HETATM   24  C   UNL     1     -12.282  12.767  63.482  1.00  0.00    -0.613 A  
HETATM   25  C   UNL     1     -12.302  14.077  63.937  1.00  0.00    -0.280 A  
HETATM   26  C   UNL     1     -11.356  14.506  64.873  1.00  0.00    -0.394 A  
HETATM   27  C   UNL     1     -10.351  13.651  65.378  1.00  0.00    -0.332 A  
BRANCH  27  28
HETATM   28  N   UNL     1      -9.374  14.178  66.249  1.00  0.00    -0.463 NA 
HETATM   29  H   UNL     1      -8.468  13.718  66.162  1.00  0.00     0.000 HD 
BRANCH  28  30
HETATM   30  C   UNL     1      -9.384  15.217  67.225  1.00  0.00    -0.205 A  
HETATM   31  C   UNL     1     -10.204  15.079  68.371  1.00  0.00    -0.228 A  
HETATM   32  C   UNL     1     -10.758  13.839  68.730  1.00  0.00    -0.267 A  
HETATM   33  C   UNL     1     -11.671  13.733  69.773  1.00  0.00    -0.367 A  
HETATM   34  C   UNL     1     -12.077  14.872  70.466  1.00  0.00    -0.378 A  
HETATM   35  C   UNL     1     -11.426  16.092  70.187  1.00  0.00    -0.350 A  
HETATM   36  C   UNL     1     -13.221  14.767  71.448  1.00  0.00    -0.371 C  
HETATM   37  C   UNL     1     -10.464  16.208  69.181  1.00  0.00    -0.265 A  
HETATM   38  F   UNL     1     -13.747  13.508  71.514  1.00  0.00    -0.393 F  
HETATM   39  F   UNL     1     -12.881  15.089  72.724  1.00  0.00    -0.357 F  
HETATM   40  F   UNL     1     -14.267  15.575  71.116  1.00  0.00    -0.551 F  
HETATM   41  N   UNL     1      -9.835  17.375  68.974  1.00  0.00    -0.265 NA 
HETATM   42  C   UNL     1      -8.940  17.445  67.955  1.00  0.00    -0.255 A  
HETATM   43  C   UNL     1      -8.701  16.414  67.051  1.00  0.00    -0.224 A  
ENDBRANCH  28  30
ENDBRANCH  27  28
ENDBRANCH  20  22
ENDBRANCH  19  20
ENDBRANCH  18  19
ENDBRANCH  17  18
ENDBRANCH  14  17
ENDBRANCH   7  11
TORSDOF 8
ENDMDL
MODEL       74
REMARK 921   NORMALIZED FREE ENERGY PREDICTED BY IDOCK:   -6.28 KCAL/MOL
REMARK 922        TOTAL FREE ENERGY PREDICTED BY IDOCK:  -12.62 KCAL/MOL
REMARK 923 INTER-LIGAND FREE ENERGY PREDICTED BY IDOCK:  -11.14 KCAL/MOL
REMARK 924 INTRA-LIGAND FREE ENERGY PREDICTED BY IDOCK:   -1.48 KCAL/MOL
REMARK 927      BINDING AFFINITY PREDICTED BY RF-SCORE:    0.00 PKD
ROOT
HETATM    1  F   UNL     1      -8.183   1.875  72.450  1.00  0.00    -0.050 F  
HETATM    2  C   UNL     1      -7.388   2.467  73.385  1.00  0.00    -0.040 C  
HETATM    3  C   UNL     1      -7.591   3.957  73.508  1.00  0.00    -0.071 A  
HETATM    4  F   UNL     1      -7.627   1.806  74.552  1.00  0.00    -0.030 F  
HETATM    5  F   UNL     1      -6.109   2.150  73.037  1.00  0.00    -0.007 F  
HETATM    6  C   UNL     1      -8.523   4.641  72.702  1.00  0.00    -0.115 A  
HETATM    7  C   UNL     1      -8.629   6.036  72.749  1.00  0.00    -0.124 A  
HETATM    8  C   UNL     1      -6.797   4.679  74.411  1.00  0.00    -0.067 A  
HETATM    9  C   UNL     1      -7.829   6.720  73.681  1.00  0.00    -0.101 A  
HETATM   10  C   UNL     1      -6.923   6.058  74.506  1.00  0.00    -0.090 A  
ENDROOT
BRANCH   7  11
HETATM   11  N   UNL     1      -9.437   6.797  71.899  1.00  0.00    -0.147 NA 
HETATM   12  C   UNL     1     -10.326   8.879  70.891  1.00  0.00    -0.240 C  
HETATM   13  C   UNL     1      -9.577   8.252  72.104  1.00  0.00    -0.268 C  
HETATM   14  N   UNL     1     -11.649   8.274  70.572  1.00  0.00    -0.195 NA 
HETATM   15  C   UNL     1     -10.722   6.123  71.597  1.00  0.00    -0.245 C  
HETATM   16  C   UNL     1     -11.417   6.813  70.400  1.00  0.00    -0.365 C  
BRANCH  14  17
HETATM   17  C   UNL     1     -12.671   8.514  71.619  1.00  0.00    -0.332 C  
BRANCH  17  18
HETATM   18  C   UNL     1     -12.681   9.936  72.229  1.00  0.00    -0.199 C  
BRANCH  18  19
HETATM   19  O   UNL     1     -13.505  10.859  71.455  1.00  0.00    -0.243 OA 
BRANCH  19  20
HETATM   20  C   UNL     1     -12.768  11.707  70.696  1.00  0.00    -0.138 C  
HETATM   21  O   UNL     1     -12.259  11.371  69.624  1.00  0.00    -0.296 OA 
BRANCH  20  22
HETATM   22  C   UNL     1     -12.623  13.115  71.202  1.00  0.00    -0.403 A  
HETATM   23  C   UNL     1     -13.572  13.424  72.208  1.00  0.00    -0.703 A  
HETATM   24  C   UNL     1     -13.636  14.679  72.799  1.00  0.00    -0.538 A  
HETATM   25  C   UNL     1     -12.736  15.657  72.405  1.00  0.00    -0.509 A  
HETATM   26  C   UNL     1     -11.781  15.373  71.423  1.00  0.00    -0.453 A  
HETATM   27  C   UNL     1     -11.698  14.112  70.791  1.00  0.00    -0.163 A  
BRANCH  27  28
HETATM   28  N   UNL     1     -10.771  13.928  69.744  1.00  0.00    -0.430 NA 
HETATM   29  H   UNL     1      -9.906  13.479  70.048  1.00  0.00     0.000 HD 
BRANCH  28  30
HETATM   30  C   UNL     1     -10.784  14.235  68.352  1.00  0.00    -0.251 A  
HETATM   31  C   UNL     1     -10.329  15.504  67.922  1.00  0.00    -0.250 A  
HETATM   32  C   UNL     1      -9.585  16.342  68.769  1.00  0.00    -0.242 A  
HETATM   33  C   UNL     1      -9.258  17.640  68.393  1.00  0.00    -0.288 A  
HETATM   34  C   UNL     1      -9.694  18.145  67.170  1.00  0.00    -0.301 A  
HETATM   35  C   UNL     1     -10.331  17.264  66.272  1.00  0.00    -0.323 A  
HETATM   36  C   UNL     1      -9.513  19.616  66.874  1.00  0.00    -0.358 C  
HETATM   37  C   UNL     1     -10.618  15.939  66.608  1.00  0.00    -0.305 A  
HETATM   38  F   UNL     1      -8.932  20.295  67.908  1.00  0.00    -0.377 F  
HETATM   39  F   UNL     1      -8.733  19.865  65.789  1.00  0.00    -0.366 F  
HETATM   40  F   UNL     1     -10.696  20.252  66.649  1.00  0.00    -0.509 F  
HETATM   41  N   UNL     1     -11.186  15.118  65.711  1.00  0.00    -0.321 NA 
HETATM   42  C   UNL     1     -11.483  13.853  66.103  1.00  0.00    -0.345 A  
HETATM   43  C   UNL     1     -11.324  13.378  67.402  1.00  0.00    -0.338 A  
ENDBRANCH  28  30
ENDBRANCH  27  28
ENDBRANCH  20  22
ENDBRANCH  19  20
ENDBRANCH  18  19
ENDBRANCH  17  18
ENDBRANCH  14  17
ENDBRANCH   7  11
TORSDOF 8
ENDMDL
MODEL       75
REMARK 921   NORMALIZED FREE ENERGY PREDICTED BY IDOCK:   -6.26 KCAL/MOL
REMARK 922        TOTAL FREE ENERGY PREDICTED BY IDOCK:  -12.59 KCAL/MOL
REMARK 923 INTER-LIGAND FREE ENERGY PREDICTED BY IDOCK:  -10.05 KCAL/MOL
REMARK 924 INTRA-LIGAND FREE ENERGY PREDICTED BY IDOCK:   -2.55 KCAL/MOL
REMARK 927      BINDING AFFINITY PREDICTED BY RF-SCORE:    0.00 PKD
ROOT
HETATM    1  F   UNL     1     -11.070  10.811  65.196  1.00  0.00    -0.201 F  
HETATM    2  C   UNL     1     -11.413  12.117  65.379  1.00  0.00    -0.336 C  
HETATM    3  C   UNL     1     -11.565  12.514  66.826  1.00  0.00    -0.446 A  
HETATM    4  F   UNL     1     -10.465  12.848  64.730  1.00  0.00    -0.293 F  
HETATM    5  F   UNL     1     -12.566  12.298  64.674  1.00  0.00    -0.506 F  
HETATM    6  C   UNL     1     -11.369  11.585  67.869  1.00  0.00    -0.372 A  
HETATM    7  C   UNL     1     -11.613  11.936  69.201  1.00  0.00    -0.312 A  
HETATM    8  C   UNL     1     -11.957  13.826  67.135  1.00  0.00    -0.442 A  
HETATM    9  C   UNL     1     -11.986  13.265  69.469  1.00  0.00    -0.366 A  
HETATM   10  C   UNL     1     -12.157  14.204  68.455  1.00  0.00    -0.308 A  
ENDROOT
BRANCH   7  11
HETATM   11  N   UNL     1     -11.562  11.043  70.276  1.00  0.00    -0.324 NA 
HETATM   12  C   UNL     1     -10.614   9.208  71.644  1.00  0.00    -0.357 C  
HETATM   13  C   UNL     1     -10.645   9.886  70.244  1.00  0.00    -0.301 C  
HETATM   14  N   UNL     1     -11.939   8.799  72.188  1.00  0.00    -0.366 NA 
HETATM   15  C   UNL     1     -12.911  10.705  70.788  1.00  0.00    -0.352 C  
HETATM   16  C   UNL     1     -12.798  10.015  72.168  1.00  0.00    -0.322 C  
BRANCH  14  17
HETATM   17  C   UNL     1     -12.576   7.704  71.419  1.00  0.00    -0.333 C  
BRANCH  17  18
HETATM   18  C   UNL     1     -11.972   6.297  71.635  1.00  0.00    -0.212 C  
BRANCH  18  19
HETATM   19  O   UNL     1     -10.646   6.171  71.039  1.00  0.00    -0.225 OA 
BRANCH  19  20
HETATM   20  C   UNL     1     -10.686   5.698  69.768  1.00  0.00    -0.331 C  
HETATM   21  O   UNL     1     -11.245   6.301  68.850  1.00  0.00    -0.370 OA 
BRANCH  20  22
HETATM   22  C   UNL     1      -9.974   4.401  69.508  1.00  0.00    -0.187 A  
HETATM   23  C   UNL     1      -9.612   3.737  70.706  1.00  0.00    -0.249 A  
HETATM   24  C   UNL     1      -8.921   2.532  70.701  1.00  0.00    -0.161 A  
HETATM   25  C   UNL     1      -8.588   1.951  69.486  1.00  0.00    -0.098 A  
HETATM   26  C   UNL     1      -8.945   2.579  68.289  1.00  0.00    -0.188 A  
HETATM   27  C   UNL     1      -9.634   3.812  68.260  1.00  0.00    -0.106 A  
BRANCH  27  28
HETATM   28  N   UNL     1      -9.879   4.433  67.016  1.00  0.00    -0.207 NA 
HETATM   29  H   UNL     1     -10.832   4.786  66.925  1.00  0.00     0.000 HD 
BRANCH  28  30
HETATM   30  C   UNL     1      -9.079   4.671  65.860  1.00  0.00    -0.135 A  
HETATM   31  C   UNL     1      -8.624   5.985  65.597  1.00  0.00    -0.154 A  
HETATM   32  C   UNL     1      -8.666   6.987  66.580  1.00  0.00    -0.131 A  
HETATM   33  C   UNL     1      -8.347   8.306  66.280  1.00  0.00    -0.124 A  
HETATM   34  C   UNL     1      -8.007   8.664  64.976  1.00  0.00    -0.131 A  
HETATM   35  C   UNL     1      -7.844   7.638  64.022  1.00  0.00    -0.127 A  
HETATM   36  C   UNL     1      -7.873  10.128  64.626  1.00  0.00    -0.144 C  
HETATM   37  C   UNL     1      -8.103   6.298  64.320  1.00  0.00    -0.080 A  
HETATM   38  F   UNL     1      -8.137  10.951  65.685  1.00  0.00    -0.159 F  
HETATM   39  F   UNL     1      -6.633  10.477  64.192  1.00  0.00    -0.124 F  
HETATM   40  F   UNL     1      -8.742  10.511  63.650  1.00  0.00    -0.165 F  
HETATM   41  N   UNL     1      -7.896   5.345  63.399  1.00  0.00    -0.086 NA 
HETATM   42  C   UNL     1      -8.205   4.064  63.725  1.00  0.00    -0.092 A  
HETATM   43  C   UNL     1      -8.813   3.685  64.919  1.00  0.00    -0.121 A  
ENDBRANCH  28  30
ENDBRANCH  27  28
ENDBRANCH  20  22
ENDBRANCH  19  20
ENDBRANCH  18  19
ENDBRANCH  17  18
ENDBRANCH  14  17
ENDBRANCH   7  11
TORSDOF 8
ENDMDL
MODEL       76
REMARK 921   NORMALIZED FREE ENERGY PREDICTED BY IDOCK:   -6.26 KCAL/MOL
REMARK 922        TOTAL FREE ENERGY PREDICTED BY IDOCK:  -12.59 KCAL/MOL
REMARK 923 INTER-LIGAND FREE ENERGY PREDICTED BY IDOCK:  -10.10 KCAL/MOL
REMARK 924 INTRA-LIGAND FREE ENERGY PREDICTED BY IDOCK:   -2.48 KCAL/MOL
REMARK 927      BINDING AFFINITY PREDICTED BY RF-SCORE:    0.00 PKD
ROOT
HETATM    1  F   UNL     1     -11.765  10.968  69.328  1.00  0.00    -0.270 F  
HETATM    2  C   UNL     1     -12.343  10.544  70.486  1.00  0.00    -0.343 C  
HETATM    3  C   UNL     1     -11.641   9.374  71.130  1.00  0.00    -0.415 A  
HETATM    4  F   UNL     1     -12.398  11.636  71.299  1.00  0.00    -0.428 F  
HETATM    5  F   UNL     1     -13.637  10.254  70.168  1.00  0.00    -0.205 F  
HETATM    6  C   UNL     1     -10.496   8.792  70.548  1.00  0.00    -0.246 A  
HETATM    7  C   UNL     1      -9.914   7.644  71.097  1.00  0.00    -0.177 A  
HETATM    8  C   UNL     1     -12.172   8.826  72.307  1.00  0.00    -0.429 A  
HETATM    9  C   UNL     1     -10.466   7.137  72.287  1.00  0.00    -0.236 A  
HETATM   10  C   UNL     1     -11.579   7.715  72.891  1.00  0.00    -0.280 A  
ENDROOT
BRANCH   7  11
HETATM   11  N   UNL     1      -8.857   6.938  70.514  1.00  0.00    -0.153 NA 
HETATM   12  C   UNL     1      -6.771   6.668  69.205  1.00  0.00    -0.052 C  
HETATM   13  C   UNL     1      -7.996   7.581  69.502  1.00  0.00    -0.126 C  
HETATM   14  N   UNL     1      -7.095   5.273  68.794  1.00  0.00    -0.060 NA 
HETATM   15  C   UNL     1      -9.238   5.550  70.162  1.00  0.00    -0.141 C  
HETATM   16  C   UNL     1      -7.973   4.712  69.858  1.00  0.00    -0.068 C  
BRANCH  14  17
HETATM   17  C   UNL     1      -7.765   5.191  67.475  1.00  0.00    -0.092 C  
BRANCH  17  18
HETATM   18  C   UNL     1      -7.153   6.070  66.359  1.00  0.00    -0.068 C  
BRANCH  18  19
HETATM   19  O   UNL     1      -8.134   6.422  65.338  1.00  0.00    -0.116 OA 
BRANCH  19  20
HETATM   20  C   UNL     1      -8.608   7.685  65.480  1.00  0.00    -0.092 C  
HETATM   21  O   UNL     1      -9.327   8.025  66.422  1.00  0.00    -0.185 OA 
BRANCH  20  22
HETATM   22  C   UNL     1      -8.183   8.687  64.445  1.00  0.00    -0.163 A  
HETATM   23  C   UNL     1      -6.939   8.353  63.853  1.00  0.00    -0.079 A  
HETATM   24  C   UNL     1      -6.343   9.155  62.888  1.00  0.00    -0.094 A  
HETATM   25  C   UNL     1      -6.991  10.311  62.478  1.00  0.00    -0.141 A  
HETATM   26  C   UNL     1      -8.225  10.656  63.037  1.00  0.00    -0.103 A  
HETATM   27  C   UNL     1      -8.851   9.871  64.031  1.00  0.00    -0.228 A  
BRANCH  27  28
HETATM   28  N   UNL     1     -10.050  10.330  64.615  1.00  0.00    -0.321 NA 
HETATM   29  H   UNL     1     -10.469   9.655  65.255  1.00  0.00     0.000 HD 
BRANCH  28  30
HETATM   30  C   UNL     1     -10.801  11.537  64.503  1.00  0.00    -0.327 A  
HETATM   31  C   UNL     1     -10.905  12.391  65.627  1.00  0.00    -0.312 A  
HETATM   32  C   UNL     1     -10.052  12.253  66.734  1.00  0.00    -0.224 A  
HETATM   33  C   UNL     1     -10.244  13.001  67.890  1.00  0.00    -0.234 A  
HETATM   34  C   UNL     1     -11.316  13.887  67.980  1.00  0.00    -0.317 A  
HETATM   35  C   UNL     1     -12.093  14.114  66.825  1.00  0.00    -0.474 A  
HETATM   36  C   UNL     1     -11.632  14.528  69.312  1.00  0.00    -0.302 C  
HETATM   37  C   UNL     1     -11.880  13.415  65.635  1.00  0.00    -0.370 A  
HETATM   38  F   UNL     1     -10.792  14.117  70.308  1.00  0.00    -0.073 F  
HETATM   39  F   UNL     1     -11.549  15.885  69.300  1.00  0.00    -0.305 F  
HETATM   40  F   UNL     1     -12.884  14.224  69.752  1.00  0.00    -0.334 F  
HETATM   41  N   UNL     1     -12.612  13.690  64.545  1.00  0.00    -0.643 NA 
HETATM   42  C   UNL     1     -12.394  12.951  63.427  1.00  0.00    -0.410 A  
HETATM   43  C   UNL     1     -11.527  11.863  63.365  1.00  0.00    -0.470 A  
ENDBRANCH  28  30
ENDBRANCH  27  28
ENDBRANCH  20  22
ENDBRANCH  19  20
ENDBRANCH  18  19
ENDBRANCH  17  18
ENDBRANCH  14  17
ENDBRANCH   7  11
TORSDOF 8
ENDMDL
MODEL       77
REMARK 921   NORMALIZED FREE ENERGY PREDICTED BY IDOCK:   -6.25 KCAL/MOL
REMARK 922        TOTAL FREE ENERGY PREDICTED BY IDOCK:  -12.58 KCAL/MOL
REMARK 923 INTER-LIGAND FREE ENERGY PREDICTED BY IDOCK:   -8.45 KCAL/MOL
REMARK 924 INTRA-LIGAND FREE ENERGY PREDICTED BY IDOCK:   -4.12 KCAL/MOL
REMARK 927      BINDING AFFINITY PREDICTED BY RF-SCORE:    0.00 PKD
ROOT
HETATM    1  F   UNL     1     -10.172  10.984  69.556  1.00  0.00    -0.228 F  
HETATM    2  C   UNL     1     -11.227  10.261  70.024  1.00  0.00    -0.311 C  
HETATM    3  C   UNL     1     -10.880   8.842  70.400  1.00  0.00    -0.256 A  
HETATM    4  F   UNL     1     -11.735  10.972  71.069  1.00  0.00    -0.393 F  
HETATM    5  F   UNL     1     -12.175  10.315  69.046  1.00  0.00    -0.150 F  
HETATM    6  C   UNL     1      -9.569   8.342  70.257  1.00  0.00    -0.170 A  
HETATM    7  C   UNL     1      -9.280   6.996  70.509  1.00  0.00    -0.159 A  
HETATM    8  C   UNL     1     -11.898   7.990  70.856  1.00  0.00    -0.236 A  
HETATM    9  C   UNL     1     -10.324   6.182  70.983  1.00  0.00    -0.260 A  
HETATM   10  C   UNL     1     -11.618   6.664  71.158  1.00  0.00    -0.384 A  
ENDROOT
BRANCH   7  11
HETATM   11  N   UNL     1      -8.039   6.397  70.274  1.00  0.00    -0.118 NA 
HETATM   12  C   UNL     1      -5.755   6.229  69.330  1.00  0.00    -0.020 C  
HETATM   13  C   UNL     1      -7.148   6.912  69.216  1.00  0.00    -0.084 C  
HETATM   14  N   UNL     1      -5.767   4.739  69.312  1.00  0.00    -0.015 NA 
HETATM   15  C   UNL     1      -8.118   4.918  70.303  1.00  0.00    -0.077 C  
HETATM   16  C   UNL     1      -6.697   4.311  70.394  1.00  0.00    -0.033 C  
BRANCH  14  17
HETATM   17  C   UNL     1      -6.192   4.172  68.011  1.00  0.00    -0.036 C  
BRANCH  17  18
HETATM   18  C   UNL     1      -5.762   4.974  66.760  1.00  0.00    -0.018 C  
BRANCH  18  19
HETATM   19  O   UNL     1      -6.690   4.797  65.648  1.00  0.00    -0.053 OA 
BRANCH  19  20
HETATM   20  C   UNL     1      -7.313   5.950  65.298  1.00  0.00    -0.076 C  
HETATM   21  O   UNL     1      -6.870   6.712  64.436  1.00  0.00    -0.043 OA 
BRANCH  20  22
HETATM   22  C   UNL     1      -8.614   6.251  65.988  1.00  0.00    -0.146 A  
HETATM   23  C   UNL     1      -9.280   5.076  66.416  1.00  0.00    -0.139 A  
HETATM   24  C   UNL     1     -10.512   5.119  67.054  1.00  0.00    -0.256 A  
HETATM   25  C   UNL     1     -11.104   6.349  67.296  1.00  0.00    -0.416 A  
HETATM   26  C   UNL     1     -10.461   7.525  66.896  1.00  0.00    -0.385 A  
HETATM   27  C   UNL     1      -9.215   7.516  66.230  1.00  0.00    -0.146 A  
BRANCH  27  28
HETATM   28  N   UNL     1      -8.671   8.735  65.774  1.00  0.00    -0.168 NA 
HETATM   29  H   UNL     1      -8.552   8.767  64.761  1.00  0.00     0.000 HD 
BRANCH  28  30
HETATM   30  C   UNL     1      -8.252   9.931  66.426  1.00  0.00    -0.117 A  
HETATM   31  C   UNL     1      -9.154  11.019  66.515  1.00  0.00    -0.186 A  
HETATM   32  C   UNL     1     -10.527  10.855  66.268  1.00  0.00    -0.304 A  
HETATM   33  C   UNL     1     -11.386  11.946  66.222  1.00  0.00    -0.394 A  
HETATM   34  C   UNL     1     -10.888  13.237  66.392  1.00  0.00    -0.296 A  
HETATM   35  C   UNL     1      -9.536  13.387  66.764  1.00  0.00    -0.263 A  
HETATM   36  C   UNL     1     -11.795  14.417  66.129  1.00  0.00    -0.382 C  
HETATM   37  C   UNL     1      -8.669  12.298  66.872  1.00  0.00    -0.197 A  
HETATM   38  F   UNL     1     -13.043  14.042  65.717  1.00  0.00    -0.543 F  
HETATM   39  F   UNL     1     -11.991  15.212  67.214  1.00  0.00    -0.322 F  
HETATM   40  F   UNL     1     -11.321  15.227  65.141  1.00  0.00    -0.342 F  
HETATM   41  N   UNL     1      -7.400  12.476  67.270  1.00  0.00    -0.138 NA 
HETATM   42  C   UNL     1      -6.587  11.390  67.316  1.00  0.00    -0.104 A  
HETATM   43  C   UNL     1      -6.956  10.118  66.888  1.00  0.00    -0.089 A  
ENDBRANCH  28  30
ENDBRANCH  27  28
ENDBRANCH  20  22
ENDBRANCH  19  20
ENDBRANCH  18  19
ENDBRANCH  17  18
ENDBRANCH  14  17
ENDBRANCH   7  11
TORSDOF 8
ENDMDL
MODEL       78
REMARK 921   NORMALIZED FREE ENERGY PREDICTED BY IDOCK:   -6.25 KCAL/MOL
REMARK 922        TOTAL FREE ENERGY PREDICTED BY IDOCK:  -12.58 KCAL/MOL
REMARK 923 INTER-LIGAND FREE ENERGY PREDICTED BY IDOCK:  -10.36 KCAL/MOL
REMARK 924 INTRA-LIGAND FREE ENERGY PREDICTED BY IDOCK:   -2.22 KCAL/MOL
REMARK 927      BINDING AFFINITY PREDICTED BY RF-SCORE:    0.00 PKD
ROOT
HETATM    1  F   UNL     1     -10.608   5.434  69.451  1.00  0.00    -0.310 F  
HETATM    2  C   UNL     1      -9.407   4.792  69.424  1.00  0.00    -0.134 C  
HETATM    3  C   UNL     1      -8.348   5.505  68.622  1.00  0.00    -0.101 A  
HETATM    4  F   UNL     1      -9.049   4.611  70.725  1.00  0.00    -0.136 F  
HETATM    5  F   UNL     1      -9.667   3.545  68.936  1.00  0.00    -0.236 F  
HETATM    6  C   UNL     1      -8.618   6.724  67.965  1.00  0.00    -0.122 A  
HETATM    7  C   UNL     1      -7.661   7.324  67.139  1.00  0.00    -0.103 A  
HETATM    8  C   UNL     1      -7.082   4.915  68.489  1.00  0.00    -0.057 A  
HETATM    9  C   UNL     1      -6.399   6.710  67.049  1.00  0.00    -0.041 A  
HETATM   10  C   UNL     1      -6.105   5.522  67.712  1.00  0.00    -0.026 A  
ENDROOT
BRANCH   7  11
HETATM   11  N   UNL     1      -7.891   8.462  66.360  1.00  0.00    -0.097 NA 
HETATM   12  C   UNL     1      -8.120  10.889  65.919  1.00  0.00    -0.120 C  
HETATM   13  C   UNL     1      -8.136   9.770  67.000  1.00  0.00    -0.113 C  
HETATM   14  N   UNL     1      -9.055  10.692  64.777  1.00  0.00    -0.201 NA 
HETATM   15  C   UNL     1      -8.802   8.187  65.224  1.00  0.00     0.008 C  
HETATM   16  C   UNL     1      -8.749   9.351  64.206  1.00  0.00    -0.197 C  
BRANCH  14  17
HETATM   17  C   UNL     1     -10.482  10.774  65.167  1.00  0.00    -0.229 C  
BRANCH  17  18
HETATM   18  C   UNL     1     -10.804  11.747  66.325  1.00  0.00    -0.281 C  
BRANCH  18  19
HETATM   19  O   UNL     1     -11.440  11.070  67.451  1.00  0.00    -0.475 OA 
BRANCH  19  20
HETATM   20  C   UNL     1     -10.810  11.309  68.628  1.00  0.00    -0.204 C  
HETATM   21  O   UNL     1      -9.869  12.099  68.733  1.00  0.00    -0.145 OA 
BRANCH  20  22
HETATM   22  C   UNL     1     -11.339  10.587  69.835  1.00  0.00    -0.380 A  
HETATM   23  C   UNL     1     -10.755   9.305  69.993  1.00  0.00    -0.259 A  
HETATM   24  C   UNL     1     -11.117   8.454  71.029  1.00  0.00    -0.298 A  
HETATM   25  C   UNL     1     -12.067   8.874  71.947  1.00  0.00    -0.443 A  
HETATM   26  C   UNL     1     -12.648  10.140  71.822  1.00  0.00    -0.500 A  
HETATM   27  C   UNL     1     -12.314  11.024  70.772  1.00  0.00    -0.398 A  
BRANCH  27  28
HETATM   28  N   UNL     1     -13.009  12.247  70.656  1.00  0.00     0.087 NA 
HETATM   29  H   UNL     1     -13.783  12.207  69.992  1.00  0.00     0.000 HD 
BRANCH  28  30
HETATM   30  C   UNL     1     -12.860  13.525  71.268  1.00  0.00    -0.338 A  
HETATM   31  C   UNL     1     -12.261  14.576  70.532  1.00  0.00    -0.399 A  
HETATM   32  C   UNL     1     -12.096  14.494  69.140  1.00  0.00    -0.299 A  
HETATM   33  C   UNL     1     -11.386  15.464  68.441  1.00  0.00    -0.345 A  
HETATM   34  C   UNL     1     -10.795  16.526  69.122  1.00  0.00    -0.334 A  
HETATM   35  C   UNL     1     -11.068  16.672  70.498  1.00  0.00     0.028 A  
HETATM   36  C   UNL     1      -9.855  17.446  68.378  1.00  0.00    -0.316 C  
HETATM   37  C   UNL     1     -11.827  15.740  71.208  1.00  0.00    -0.437 A  
HETATM   38  F   UNL     1      -9.684  17.083  67.071  1.00  0.00    -0.240 F  
HETATM   39  F   UNL     1     -10.265  18.742  68.347  1.00  0.00    -0.359 F  
HETATM   40  F   UNL     1      -8.602  17.454  68.913  1.00  0.00    -0.270 F  
HETATM   41  N   UNL     1     -12.102  15.934  72.507  1.00  0.00    -0.462 NA 
HETATM   42  C   UNL     1     -12.807  14.977  73.161  1.00  0.00    -0.506 A  
HETATM   43  C   UNL     1     -13.183  13.760  72.598  1.00  0.00    -0.571 A  
ENDBRANCH  28  30
ENDBRANCH  27  28
ENDBRANCH  20  22
ENDBRANCH  19  20
ENDBRANCH  18  19
ENDBRANCH  17  18
ENDBRANCH  14  17
ENDBRANCH   7  11
TORSDOF 8
ENDMDL
MODEL       79
REMARK 921   NORMALIZED FREE ENERGY PREDICTED BY IDOCK:   -6.20 KCAL/MOL
REMARK 922        TOTAL FREE ENERGY PREDICTED BY IDOCK:  -12.50 KCAL/MOL
REMARK 923 INTER-LIGAND FREE ENERGY PREDICTED BY IDOCK:  -10.70 KCAL/MOL
REMARK 924 INTRA-LIGAND FREE ENERGY PREDICTED BY IDOCK:   -1.79 KCAL/MOL
REMARK 927      BINDING AFFINITY PREDICTED BY RF-SCORE:    0.00 PKD
ROOT
HETATM    1  F   UNL     1      -9.844  20.147  65.495  1.00  0.00    -0.448 F  
HETATM    2  C   UNL     1      -9.567  20.020  66.823  1.00  0.00    -0.417 C  
HETATM    3  C   UNL     1      -9.797  18.633  67.368  1.00  0.00    -0.347 A  
HETATM    4  F   UNL     1      -8.280  20.439  66.979  1.00  0.00    -0.335 F  
HETATM    5  F   UNL     1     -10.337  20.953  67.452  1.00  0.00    -0.420 F  
HETATM    6  C   UNL     1     -10.268  17.588  66.546  1.00  0.00    -0.342 A  
HETATM    7  C   UNL     1     -10.578  16.334  67.083  1.00  0.00    -0.291 A  
HETATM    8  C   UNL     1      -9.584  18.394  68.734  1.00  0.00    -0.345 A  
HETATM    9  C   UNL     1     -10.331  16.130  68.452  1.00  0.00    -0.257 A  
HETATM   10  C   UNL     1      -9.840  17.141  69.274  1.00  0.00    -0.100 A  
ENDROOT
BRANCH   7  11
HETATM   11  N   UNL     1     -11.162  15.288  66.361  1.00  0.00    -0.279 NA 
HETATM   12  C   UNL     1     -11.772  12.933  65.891  1.00  0.00    -0.399 C  
HETATM   13  C   UNL     1     -10.812  13.885  66.661  1.00  0.00    -0.289 C  
HETATM   14  N   UNL     1     -11.839  13.143  64.417  1.00  0.00    -0.367 NA 
HETATM   15  C   UNL     1     -11.226  15.577  64.910  1.00  0.00    -0.389 C  
HETATM   16  C   UNL     1     -12.179  14.579  64.210  1.00  0.00    -0.415 C  
BRANCH  14  17
HETATM   17  C   UNL     1     -10.576  12.806  63.720  1.00  0.00    -0.336 C  
BRANCH  17  18
HETATM   18  C   UNL     1     -10.326  11.298  63.483  1.00  0.00    -0.408 C  
BRANCH  18  19
HETATM   19  O   UNL     1      -9.097  10.839  64.122  1.00  0.00    -0.199 OA 
BRANCH  19  20
HETATM   20  C   UNL     1      -9.311   9.832  65.005  1.00  0.00    -0.263 C  
HETATM   21  O   UNL     1     -10.252   9.833  65.802  1.00  0.00    -0.264 OA 
BRANCH  20  22
HETATM   22  C   UNL     1      -8.360   8.670  64.948  1.00  0.00    -0.174 A  
HETATM   23  C   UNL     1      -7.677   8.595  63.709  1.00  0.00    -0.136 A  
HETATM   24  C   UNL     1      -6.768   7.583  63.429  1.00  0.00    -0.058 A  
HETATM   25  C   UNL     1      -6.508   6.624  64.396  1.00  0.00    -0.038 A  
HETATM   26  C   UNL     1      -7.159   6.682  65.633  1.00  0.00    -0.061 A  
HETATM   27  C   UNL     1      -8.100   7.689  65.944  1.00  0.00    -0.122 A  
BRANCH  27  28
HETATM   28  N   UNL     1      -8.786   7.632  67.175  1.00  0.00    -0.123 NA 
HETATM   29  H   UNL     1      -9.709   7.202  67.101  1.00  0.00     0.000 HD 
BRANCH  28  30
HETATM   30  C   UNL     1      -8.464   8.045  68.501  1.00  0.00    -0.128 A  
HETATM   31  C   UNL     1      -9.505   8.180  69.452  1.00  0.00    -0.162 A  
HETATM   32  C   UNL     1     -10.777   7.628  69.229  1.00  0.00    -0.169 A  
HETATM   33  C   UNL     1     -11.833   7.878  70.099  1.00  0.00     0.254 A  
HETATM   34  C   UNL     1     -11.650   8.713  71.200  1.00  0.00    -0.330 A  
HETATM   35  C   UNL     1     -10.344   9.161  71.489  1.00  0.00    -0.414 A  
HETATM   36  C   UNL     1     -12.854   9.141  72.008  1.00  0.00    -0.408 C  
HETATM   37  C   UNL     1      -9.258   8.874  70.659  1.00  0.00    -0.213 A  
HETATM   38  F   UNL     1     -14.026   8.642  71.512  1.00  0.00    -0.393 F  
HETATM   39  F   UNL     1     -12.810   8.748  73.308  1.00  0.00    -0.180 F  
HETATM   40  F   UNL     1     -13.018  10.493  72.021  1.00  0.00    -0.502 F  
HETATM   41  N   UNL     1      -8.023   9.281  70.990  1.00  0.00    -0.309 NA 
HETATM   42  C   UNL     1      -7.010   9.013  70.127  1.00  0.00    -0.047 A  
HETATM   43  C   UNL     1      -7.183   8.425  68.876  1.00  0.00    -0.078 A  
ENDBRANCH  28  30
ENDBRANCH  27  28
ENDBRANCH  20  22
ENDBRANCH  19  20
ENDBRANCH  18  19
ENDBRANCH  17  18
ENDBRANCH  14  17
ENDBRANCH   7  11
TORSDOF 8
ENDMDL
MODEL       80
REMARK 921   NORMALIZED FREE ENERGY PREDICTED BY IDOCK:   -6.15 KCAL/MOL
REMARK 922        TOTAL FREE ENERGY PREDICTED BY IDOCK:  -12.43 KCAL/MOL
REMARK 923 INTER-LIGAND FREE ENERGY PREDICTED BY IDOCK:  -10.52 KCAL/MOL
REMARK 924 INTRA-LIGAND FREE ENERGY PREDICTED BY IDOCK:   -1.91 KCAL/MOL
REMARK 927      BINDING AFFINITY PREDICTED BY RF-SCORE:    0.00 PKD
ROOT
HETATM    1  F   UNL     1     -10.298  18.602  69.246  1.00  0.00    -0.365 F  
HETATM    2  C   UNL     1     -10.122  18.558  67.896  1.00  0.00    -0.369 C  
HETATM    3  C   UNL     1     -10.523  17.247  67.267  1.00  0.00    -0.319 A  
HETATM    4  F   UNL     1     -10.816  19.616  67.392  1.00  0.00    -0.536 F  
HETATM    5  F   UNL     1      -8.806  18.846  67.685  1.00  0.00    -0.287 F  
HETATM    6  C   UNL     1     -11.024  16.182  68.044  1.00  0.00    -0.338 A  
HETATM    7  C   UNL     1     -11.295  14.936  67.467  1.00  0.00    -0.342 A  
HETATM    8  C   UNL     1     -10.347  17.071  65.886  1.00  0.00    -0.310 A  
HETATM    9  C   UNL     1     -11.123  14.808  66.077  1.00  0.00    -0.330 A  
HETATM   10  C   UNL     1     -10.656  15.857  65.290  1.00  0.00    -0.441 A  
ENDROOT
BRANCH   7  11
HETATM   11  N   UNL     1     -11.675  13.798  68.186  1.00  0.00    -0.338 NA 
HETATM   12  C   UNL     1     -12.162  12.469  70.219  1.00  0.00    -0.267 C  
HETATM   13  C   UNL     1     -11.434  13.717  69.640  1.00  0.00    -0.221 C  
HETATM   14  N   UNL     1     -11.827  11.171  69.569  1.00  0.00    -0.323 NA 
HETATM   15  C   UNL     1     -11.342  12.545  67.468  1.00  0.00    -0.312 C  
HETATM   16  C   UNL     1     -12.082  11.350  68.113  1.00  0.00     0.041 C  
BRANCH  14  17
HETATM   17  C   UNL     1     -10.426  10.745  69.800  1.00  0.00    -0.083 C  
BRANCH  17  18
HETATM   18  C   UNL     1     -10.242   9.546  70.758  1.00  0.00    -0.293 C  
BRANCH  18  19
HETATM   19  O   UNL     1     -10.428   8.267  70.080  1.00  0.00    -0.221 OA 
BRANCH  19  20
HETATM   20  C   UNL     1     -11.211   7.411  70.783  1.00  0.00    -0.271 C  
HETATM   21  O   UNL     1     -12.315   7.730  71.229  1.00  0.00    -0.310 OA 
BRANCH  20  22
HETATM   22  C   UNL     1     -10.686   6.015  70.971  1.00  0.00    -0.325 A  
HETATM   23  C   UNL     1     -10.853   5.553  72.300  1.00  0.00    -0.297 A  
HETATM   24  C   UNL     1     -10.415   4.298  72.704  1.00  0.00    -0.241 A  
HETATM   25  C   UNL     1      -9.810   3.465  71.776  1.00  0.00    -0.229 A  
HETATM   26  C   UNL     1      -9.644   3.892  70.454  1.00  0.00    -0.266 A  
HETATM   27  C   UNL     1     -10.064   5.167  70.015  1.00  0.00    -0.275 A  
BRANCH  27  28
HETATM   28  N   UNL     1      -9.781   5.565  68.691  1.00  0.00    -0.134 NA 
HETATM   29  H   UNL     1     -10.585   5.485  68.068  1.00  0.00     0.000 HD 
BRANCH  28  30
HETATM   30  C   UNL     1      -8.612   6.056  68.040  1.00  0.00    -0.114 A  
HETATM   31  C   UNL     1      -8.723   7.171  67.174  1.00  0.00    -0.121 A  
HETATM   32  C   UNL     1      -9.862   7.992  67.178  1.00  0.00    -0.274 A  
HETATM   33  C   UNL     1     -10.027   9.000  66.236  1.00  0.00    -0.352 A  
HETATM   34  C   UNL     1      -9.067   9.195  65.244  1.00  0.00    -0.252 A  
HETATM   35  C   UNL     1      -7.869   8.454  65.319  1.00  0.00    -0.111 A  
HETATM   36  C   UNL     1      -9.363  10.149  64.109  1.00  0.00    -0.287 C  
HETATM   37  C   UNL     1      -7.659   7.476  66.293  1.00  0.00    -0.088 A  
HETATM   38  F   UNL     1     -10.607  10.708  64.201  1.00  0.00    -0.434 F  
HETATM   39  F   UNL     1      -8.498  11.193  64.031  1.00  0.00    -0.037 F  
HETATM   40  F   UNL     1      -9.336   9.535  62.894  1.00  0.00    -0.287 F  
HETATM   41  N   UNL     1      -6.490   6.822  66.359  1.00  0.00    -0.045 NA 
HETATM   42  C   UNL     1      -6.353   5.850  67.297  1.00  0.00    -0.042 A  
HETATM   43  C   UNL     1      -7.381   5.421  68.134  1.00  0.00    -0.072 A  
ENDBRANCH  28  30
ENDBRANCH  27  28
ENDBRANCH  20  22
ENDBRANCH  19  20
ENDBRANCH  18  19
ENDBRANCH  17  18
ENDBRANCH  14  17
ENDBRANCH   7  11
TORSDOF 8
ENDMDL
MODEL       81
REMARK 921   NORMALIZED FREE ENERGY PREDICTED BY IDOCK:   -6.15 KCAL/MOL
REMARK 922        TOTAL FREE ENERGY PREDICTED BY IDOCK:  -12.42 KCAL/MOL
REMARK 923 INTER-LIGAND FREE ENERGY PREDICTED BY IDOCK:  -11.37 KCAL/MOL
REMARK 924 INTRA-LIGAND FREE ENERGY PREDICTED BY IDOCK:   -1.06 KCAL/MOL
REMARK 927      BINDING AFFINITY PREDICTED BY RF-SCORE:    0.00 PKD
ROOT
HETATM    1  F   UNL     1      -7.787   1.619  71.737  1.00  0.00    -0.038 F  
HETATM    2  C   UNL     1      -6.990   2.302  72.605  1.00  0.00    -0.023 C  
HETATM    3  C   UNL     1      -7.470   3.700  72.907  1.00  0.00    -0.060 A  
HETATM    4  F   UNL     1      -6.898   1.526  73.720  1.00  0.00    -0.018 F  
HETATM    5  F   UNL     1      -5.747   2.297  72.047  1.00  0.00    -0.007 F  
HETATM    6  C   UNL     1      -8.640   4.221  72.316  1.00  0.00    -0.114 A  
HETATM    7  C   UNL     1      -9.019   5.552  72.521  1.00  0.00    -0.133 A  
HETATM    8  C   UNL     1      -6.705   4.514  73.757  1.00  0.00    -0.063 A  
HETATM    9  C   UNL     1      -8.236   6.327  73.395  1.00  0.00    -0.114 A  
HETATM   10  C   UNL     1      -7.094   5.822  74.010  1.00  0.00    -0.082 A  
ENDROOT
BRANCH   7  11
HETATM   11  N   UNL     1     -10.091   6.176  71.877  1.00  0.00    -0.188 NA 
HETATM   12  C   UNL     1     -11.183   7.856  70.418  1.00  0.00    -0.234 C  
HETATM   13  C   UNL     1      -9.923   7.509  71.264  1.00  0.00    -0.186 C  
HETATM   14  N   UNL     1     -12.482   7.784  71.143  1.00  0.00    -0.266 NA 
HETATM   15  C   UNL     1     -11.357   6.037  72.634  1.00  0.00    -0.277 C  
HETATM   16  C   UNL     1     -12.559   6.420  71.738  1.00  0.00    -0.071 C  
BRANCH  14  17
HETATM   17  C   UNL     1     -12.624   8.816  72.197  1.00  0.00    -0.399 C  
BRANCH  17  18
HETATM   18  C   UNL     1     -12.045  10.207  71.851  1.00  0.00    -0.018 C  
BRANCH  18  19
HETATM   19  O   UNL     1     -13.086  11.224  71.744  1.00  0.00    -0.472 OA 
BRANCH  19  20
HETATM   20  C   UNL     1     -12.758  12.219  70.881  1.00  0.00    -0.187 C  
HETATM   21  O   UNL     1     -12.642  12.037  69.668  1.00  0.00     0.047 OA 
BRANCH  20  22
HETATM   22  C   UNL     1     -12.576  13.590  71.469  1.00  0.00    -0.358 A  
HETATM   23  C   UNL     1     -13.373  13.789  72.624  1.00  0.00    -0.618 A  
HETATM   24  C   UNL     1     -13.381  14.994  73.314  1.00  0.00    -0.429 A  
HETATM   25  C   UNL     1     -12.574  16.031  72.870  1.00  0.00    -0.577 A  
HETATM   26  C   UNL     1     -11.767  15.855  71.741  1.00  0.00    -0.575 A  
HETATM   27  C   UNL     1     -11.747  14.648  71.008  1.00  0.00    -0.277 A  
BRANCH  27  28
HETATM   28  N   UNL     1     -10.980  14.575  69.826  1.00  0.00    -0.404 NA 
HETATM   29  H   UNL     1     -10.361  13.764  69.799  1.00  0.00     0.000 HD 
BRANCH  28  30
HETATM   30  C   UNL     1     -10.885  15.392  68.662  1.00  0.00    -0.259 A  
HETATM   31  C   UNL     1     -11.162  14.823  67.396  1.00  0.00    -0.346 A  
HETATM   32  C   UNL     1     -11.820  13.588  67.276  1.00  0.00    -0.427 A  
HETATM   33  C   UNL     1     -11.969  12.968  66.040  1.00  0.00    -0.498 A  
HETATM   34  C   UNL     1     -11.434  13.553  64.894  1.00  0.00    -0.350 A  
HETATM   35  C   UNL     1     -10.886  14.849  65.000  1.00  0.00    -0.439 A  
HETATM   36  C   UNL     1     -11.418  12.767  63.604  1.00  0.00    -0.481 C  
HETATM   37  C   UNL     1     -10.780  15.514  66.223  1.00  0.00    -0.307 A  
HETATM   38  F   UNL     1     -11.940  11.511  63.744  1.00  0.00    -0.476 F  
HETATM   39  F   UNL     1     -12.127  13.347  62.599  1.00  0.00    -0.325 F  
HETATM   40  F   UNL     1     -10.157  12.578  63.124  1.00  0.00    -0.341 F  
HETATM   41  N   UNL     1     -10.293  16.763  66.278  1.00  0.00    -0.319 NA 
HETATM   42  C   UNL     1     -10.170  17.348  67.496  1.00  0.00    -0.332 A  
HETATM   43  C   UNL     1     -10.428  16.703  68.703  1.00  0.00    -0.323 A  
ENDBRANCH  28  30
ENDBRANCH  27  28
ENDBRANCH  20  22
ENDBRANCH  19  20
ENDBRANCH  18  19
ENDBRANCH  17  18
ENDBRANCH  14  17
ENDBRANCH   7  11
TORSDOF 8
ENDMDL
MODEL       82
REMARK 921   NORMALIZED FREE ENERGY PREDICTED BY IDOCK:   -6.13 KCAL/MOL
REMARK 922        TOTAL FREE ENERGY PREDICTED BY IDOCK:  -12.40 KCAL/MOL
REMARK 923 INTER-LIGAND FREE ENERGY PREDICTED BY IDOCK:  -10.38 KCAL/MOL
REMARK 924 INTRA-LIGAND FREE ENERGY PREDICTED BY IDOCK:   -2.02 KCAL/MOL
REMARK 927      BINDING AFFINITY PREDICTED BY RF-SCORE:    0.00 PKD
ROOT
HETATM    1  F   UNL     1     -10.574   6.948  74.327  1.00  0.00    -0.391 F  
HETATM    2  C   UNL     1     -10.557   6.125  73.241  1.00  0.00    -0.258 C  
HETATM    3  C   UNL     1     -10.632   6.850  71.921  1.00  0.00    -0.236 A  
HETATM    4  F   UNL     1      -9.430   5.369  73.362  1.00  0.00    -0.134 F  
HETATM    5  F   UNL     1     -11.600   5.265  73.414  1.00  0.00    -0.339 F  
HETATM    6  C   UNL     1     -10.720   8.256  71.857  1.00  0.00    -0.350 A  
HETATM    7  C   UNL     1     -10.895   8.912  70.633  1.00  0.00    -0.239 A  
HETATM    8  C   UNL     1     -10.663   6.102  70.734  1.00  0.00    -0.326 A  
HETATM    9  C   UNL     1     -10.902   8.126  69.467  1.00  0.00    -0.128 A  
HETATM   10  C   UNL     1     -10.787   6.740  69.508  1.00  0.00    -0.315 A  
ENDROOT
BRANCH   7  11
HETATM   11  N   UNL     1     -11.114  10.286  70.497  1.00  0.00    -0.315 NA 
HETATM   12  C   UNL     1     -12.337  12.419  70.798  1.00  0.00    -0.286 C  
HETATM   13  C   UNL     1     -12.437  10.866  70.798  1.00  0.00    -0.394 C  
HETATM   14  N   UNL     1     -11.779  13.027  69.558  1.00  0.00    -0.312 NA 
HETATM   15  C   UNL     1     -10.504  10.830  69.261  1.00  0.00    -0.217 C  
HETATM   16  C   UNL     1     -10.460  12.375  69.324  1.00  0.00     0.219 C  
BRANCH  14  17
HETATM   17  C   UNL     1     -12.656  12.856  68.376  1.00  0.00     0.875 C  
BRANCH  17  18
HETATM   18  C   UNL     1     -12.107  13.430  67.048  1.00  0.00    -0.339 C  
BRANCH  18  19
HETATM   19  O   UNL     1     -12.341  12.531  65.923  1.00  0.00    -0.626 OA 
BRANCH  19  20
HETATM   20  C   UNL     1     -11.262  12.423  65.107  1.00  0.00    -0.315 C  
HETATM   21  O   UNL     1     -11.210  12.956  63.997  1.00  0.00    -0.367 OA 
BRANCH  20  22
HETATM   22  C   UNL     1     -10.091  11.643  65.635  1.00  0.00    -0.278 A  
HETATM   23  C   UNL     1     -10.296  10.244  65.552  1.00  0.00    -0.239 A  
HETATM   24  C   UNL     1      -9.352   9.333  66.007  1.00  0.00    -0.283 A  
HETATM   25  C   UNL     1      -8.165   9.804  66.547  1.00  0.00    -0.120 A  
HETATM   26  C   UNL     1      -7.932  11.181  66.629  1.00  0.00    -0.159 A  
HETATM   27  C   UNL     1      -8.878  12.134  66.189  1.00  0.00     0.029 A  
BRANCH  27  28
HETATM   28  N   UNL     1      -8.614  13.506  66.389  1.00  0.00    -0.371 NA 
HETATM   29  H   UNL     1      -8.700  14.059  65.535  1.00  0.00     0.000 HD 
BRANCH  28  30
HETATM   30  C   UNL     1      -8.253  14.283  67.528  1.00  0.00    -0.189 A  
HETATM   31  C   UNL     1      -8.807  15.577  67.682  1.00  0.00    -0.185 A  
HETATM   32  C   UNL     1      -9.920  15.992  66.933  1.00  0.00    -0.255 A  
HETATM   33  C   UNL     1     -10.375  17.305  66.986  1.00  0.00    -0.318 A  
HETATM   34  C   UNL     1      -9.708  18.246  67.768  1.00  0.00    -0.305 A  
HETATM   35  C   UNL     1      -8.672  17.798  68.613  1.00  0.00    -0.260 A  
HETATM   36  C   UNL     1     -10.086  19.705  67.648  1.00  0.00    -0.417 C  
HETATM   37  C   UNL     1      -8.237  16.471  68.618  1.00  0.00    -0.234 A  
HETATM   38  F   UNL     1     -11.069  19.921  66.724  1.00  0.00    -0.559 F  
HETATM   39  F   UNL     1     -10.545  20.249  68.806  1.00  0.00    -0.519 F  
HETATM   40  F   UNL     1      -9.041  20.481  67.247  1.00  0.00    -0.439 F  
HETATM   41  N   UNL     1      -7.277  16.073  69.467  1.00  0.00    -0.203 NA 
HETATM   42  C   UNL     1      -6.861  14.782  69.400  1.00  0.00    -0.162 A  
HETATM   43  C   UNL     1      -7.296  13.868  68.444  1.00  0.00    -0.115 A  
ENDBRANCH  28  30
ENDBRANCH  27  28
ENDBRANCH  20  22
ENDBRANCH  19  20
ENDBRANCH  18  19
ENDBRANCH  17  18
ENDBRANCH  14  17
ENDBRANCH   7  11
TORSDOF 8
ENDMDL
MODEL       83
REMARK 921   NORMALIZED FREE ENERGY PREDICTED BY IDOCK:   -6.11 KCAL/MOL
REMARK 922        TOTAL FREE ENERGY PREDICTED BY IDOCK:  -12.37 KCAL/MOL
REMARK 923 INTER-LIGAND FREE ENERGY PREDICTED BY IDOCK:  -10.23 KCAL/MOL
REMARK 924 INTRA-LIGAND FREE ENERGY PREDICTED BY IDOCK:   -2.14 KCAL/MOL
REMARK 927      BINDING AFFINITY PREDICTED BY RF-SCORE:    0.00 PKD
ROOT
HETATM    1  F   UNL     1      -9.206  17.769  66.993  1.00  0.00    -0.236 F  
HETATM    2  C   UNL     1     -10.168  17.658  67.951  1.00  0.00    -0.357 C  
HETATM    3  C   UNL     1     -10.547  16.235  68.278  1.00  0.00    -0.300 A  
HETATM    4  F   UNL     1      -9.700  18.340  69.033  1.00  0.00    -0.324 F  
HETATM    5  F   UNL     1     -11.230  18.379  67.492  1.00  0.00    -0.368 F  
HETATM    6  C   UNL     1      -9.941  15.143  67.622  1.00  0.00    -0.229 A  
HETATM    7  C   UNL     1     -10.373  13.833  67.857  1.00  0.00    -0.244 A  
HETATM    8  C   UNL     1     -11.558  15.999  69.221  1.00  0.00    -0.331 A  
HETATM    9  C   UNL     1     -11.376  13.639  68.824  1.00  0.00    -0.326 A  
HETATM   10  C   UNL     1     -11.965  14.702  69.502  1.00  0.00    -0.361 A  
ENDROOT
BRANCH   7  11
HETATM   11  N   UNL     1      -9.911  12.712  67.161  1.00  0.00    -0.215 NA 
HETATM   12  C   UNL     1     -10.123  10.576  65.923  1.00  0.00    -0.260 C  
HETATM   13  C   UNL     1     -10.806  11.564  66.913  1.00  0.00    -0.284 C  
HETATM   14  N   UNL     1      -8.771  10.097  66.325  1.00  0.00    -0.139 NA 
HETATM   15  C   UNL     1      -8.550  12.311  67.586  1.00  0.00    -0.169 C  
HETATM   16  C   UNL     1      -7.947  11.313  66.568  1.00  0.00    -0.145 C  
BRANCH  14  17
HETATM   17  C   UNL     1      -8.789   9.235  67.530  1.00  0.00    -0.118 C  
BRANCH  17  18
HETATM   18  C   UNL     1      -9.692   7.983  67.444  1.00  0.00    -0.166 C  
BRANCH  18  19
HETATM   19  O   UNL     1      -9.185   6.883  68.257  1.00  0.00    -0.126 OA 
BRANCH  19  20
HETATM   20  C   UNL     1     -10.119   5.925  68.483  1.00  0.00    -0.167 C  
HETATM   21  O   UNL     1     -11.328   6.133  68.362  1.00  0.00    -0.271 OA 
BRANCH  20  22
HETATM   22  C   UNL     1      -9.612   4.561  68.856  1.00  0.00    -0.235 A  
HETATM   23  C   UNL     1      -9.570   3.682  67.745  1.00  0.00    -0.189 A  
HETATM   24  C   UNL     1      -9.157   2.361  67.867  1.00  0.00    -0.226 A  
HETATM   25  C   UNL     1      -8.758   1.891  69.109  1.00  0.00    -0.113 A  
HETATM   26  C   UNL     1      -8.777   2.743  70.218  1.00  0.00    -0.132 A  
HETATM   27  C   UNL     1      -9.206   4.086  70.132  1.00  0.00    -0.142 A  
BRANCH  27  28
HETATM   28  N   UNL     1      -9.288   4.858  71.310  1.00  0.00    -0.144 NA 
HETATM   29  H   UNL     1      -9.721   4.359  72.088  1.00  0.00     0.000 HD 
BRANCH  28  30
HETATM   30  C   UNL     1      -8.893   6.186  71.646  1.00  0.00    -0.138 A  
HETATM   31  C   UNL     1      -9.872   7.208  71.678  1.00  0.00    -0.170 A  
HETATM   32  C   UNL     1     -11.244   6.909  71.700  1.00  0.00    -0.280 A  
HETATM   33  C   UNL     1     -12.202   7.910  71.594  1.00  0.00    -0.339 A  
HETATM   34  C   UNL     1     -11.810   9.238  71.432  1.00  0.00    -0.428 A  
HETATM   35  C   UNL     1     -10.439   9.548  71.537  1.00  0.00    -0.168 A  
HETATM   36  C   UNL     1     -12.857  10.280  71.107  1.00  0.00    -0.408 C  
HETATM   37  C   UNL     1      -9.464   8.562  71.702  1.00  0.00    -0.246 A  
HETATM   38  F   UNL     1     -14.111   9.749  70.988  1.00  0.00    -0.293 F  
HETATM   39  F   UNL     1     -12.962  11.262  72.040  1.00  0.00    -0.543 F  
HETATM   40  F   UNL     1     -12.618  10.903  69.920  1.00  0.00    -0.364 F  
HETATM   41  N   UNL     1      -8.172   8.899  71.840  1.00  0.00    -0.367 NA 
HETATM   42  C   UNL     1      -7.261   7.900  71.954  1.00  0.00    -0.074 A  
HETATM   43  C   UNL     1      -7.566   6.545  71.840  1.00  0.00    -0.094 A  
ENDBRANCH  28  30
ENDBRANCH  27  28
ENDBRANCH  20  22
ENDBRANCH  19  20
ENDBRANCH  18  19
ENDBRANCH  17  18
ENDBRANCH  14  17
ENDBRANCH   7  11
TORSDOF 8
ENDMDL
MODEL       84
REMARK 921   NORMALIZED FREE ENERGY PREDICTED BY IDOCK:   -6.10 KCAL/MOL
REMARK 922        TOTAL FREE ENERGY PREDICTED BY IDOCK:  -12.35 KCAL/MOL
REMARK 923 INTER-LIGAND FREE ENERGY PREDICTED BY IDOCK:  -10.98 KCAL/MOL
REMARK 924 INTRA-LIGAND FREE ENERGY PREDICTED BY IDOCK:   -1.37 KCAL/MOL
REMARK 927      BINDING AFFINITY PREDICTED BY RF-SCORE:    0.00 PKD
ROOT
HETATM    1  F   UNL     1     -11.612   6.059  68.246  1.00  0.00    -0.276 F  
HETATM    2  C   UNL     1     -10.417   6.383  68.816  1.00  0.00    -0.221 C  
HETATM    3  C   UNL     1      -9.803   7.650  68.274  1.00  0.00    -0.181 A  
HETATM    4  F   UNL     1     -10.645   6.441  70.157  1.00  0.00    -0.222 F  
HETATM    5  F   UNL     1      -9.611   5.300  68.624  1.00  0.00    -0.132 F  
HETATM    6  C   UNL     1     -10.435   8.400  67.262  1.00  0.00    -0.373 A  
HETATM    7  C   UNL     1      -9.808   9.515  66.694  1.00  0.00    -0.231 A  
HETATM    8  C   UNL     1      -8.551   8.060  68.758  1.00  0.00    -0.128 A  
HETATM    9  C   UNL     1      -8.564   9.903  67.220  1.00  0.00    -0.125 A  
HETATM   10  C   UNL     1      -7.937   9.191  68.239  1.00  0.00    -0.103 A  
ENDROOT
BRANCH   7  11
HETATM   11  N   UNL     1     -10.312  10.236  65.607  1.00  0.00    -0.211 NA 
HETATM   12  C   UNL     1     -10.257  11.240  63.342  1.00  0.00    -0.403 C  
HETATM   13  C   UNL     1      -9.412  10.683  64.525  1.00  0.00    -0.264 C  
HETATM   14  N   UNL     1     -11.217  12.324  63.694  1.00  0.00    -0.433 NA 
HETATM   15  C   UNL     1     -11.284  11.272  66.025  1.00  0.00    -0.041 C  
HETATM   16  C   UNL     1     -12.067  11.793  64.796  1.00  0.00     0.034 C  
BRANCH  14  17
HETATM   17  C   UNL     1     -10.555  13.581  64.113  1.00  0.00    -0.158 C  
BRANCH  17  18
HETATM   18  C   UNL     1     -11.498  14.778  64.376  1.00  0.00    -0.253 C  
BRANCH  18  19
HETATM   19  O   UNL     1     -10.801  15.902  64.993  1.00  0.00    -0.428 OA 
BRANCH  19  20
HETATM   20  C   UNL     1     -10.260  15.585  66.196  1.00  0.00    -0.306 C  
HETATM   21  O   UNL     1      -9.737  14.492  66.424  1.00  0.00    -0.269 OA 
BRANCH  20  22
HETATM   22  C   UNL     1     -10.289  16.653  67.252  1.00  0.00    -0.298 A  
HETATM   23  C   UNL     1      -9.802  17.895  66.773  1.00  0.00    -0.333 A  
HETATM   24  C   UNL     1      -9.715  19.016  67.588  1.00  0.00    -0.373 A  
HETATM   25  C   UNL     1     -10.131  18.924  68.908  1.00  0.00    -0.372 A  
HETATM   26  C   UNL     1     -10.629  17.713  69.402  1.00  0.00     0.191 A  
HETATM   27  C   UNL     1     -10.716  16.551  68.603  1.00  0.00    -0.334 A  
BRANCH  27  28
HETATM   28  N   UNL     1     -11.140  15.342  69.195  1.00  0.00    -0.249 NA 
HETATM   29  H   UNL     1     -10.866  14.517  68.661  1.00  0.00     0.000 HD 
BRANCH  28  30
HETATM   30  C   UNL     1     -11.870  15.028  70.378  1.00  0.00    -0.297 A  
HETATM   31  C   UNL     1     -12.064  13.670  70.728  1.00  0.00    -0.374 A  
HETATM   32  C   UNL     1     -11.309  12.646  70.135  1.00  0.00     0.180 A  
HETATM   33  C   UNL     1     -11.594  11.307  70.378  1.00  0.00    -0.319 A  
HETATM   34  C   UNL     1     -12.664  10.958  71.200  1.00  0.00    -0.530 A  
HETATM   35  C   UNL     1     -13.338  11.986  71.892  1.00  0.00    -0.408 A  
HETATM   36  C   UNL     1     -13.088   9.509  71.282  1.00  0.00    -0.327 C  
HETATM   37  C   UNL     1     -13.029  13.335  71.705  1.00  0.00    -0.335 A  
HETATM   38  F   UNL     1     -12.339   8.694  70.481  1.00  0.00    -0.131 F  
HETATM   39  F   UNL     1     -12.995   8.980  72.531  1.00  0.00    -0.434 F  
HETATM   40  F   UNL     1     -14.376   9.320  70.880  1.00  0.00    -0.300 F  
HETATM   41  N   UNL     1     -13.663  14.282  72.413  1.00  0.00    -0.478 NA 
HETATM   42  C   UNL     1     -13.356  15.580  72.163  1.00  0.00    -0.467 A  
HETATM   43  C   UNL     1     -12.494  15.998  71.152  1.00  0.00    -0.270 A  
ENDBRANCH  28  30
ENDBRANCH  27  28
ENDBRANCH  20  22
ENDBRANCH  19  20
ENDBRANCH  18  19
ENDBRANCH  17  18
ENDBRANCH  14  17
ENDBRANCH   7  11
TORSDOF 8
ENDMDL
MODEL       85
REMARK 921   NORMALIZED FREE ENERGY PREDICTED BY IDOCK:   -6.09 KCAL/MOL
REMARK 922        TOTAL FREE ENERGY PREDICTED BY IDOCK:  -12.34 KCAL/MOL
REMARK 923 INTER-LIGAND FREE ENERGY PREDICTED BY IDOCK:   -9.87 KCAL/MOL
REMARK 924 INTRA-LIGAND FREE ENERGY PREDICTED BY IDOCK:   -2.47 KCAL/MOL
REMARK 927      BINDING AFFINITY PREDICTED BY RF-SCORE:    0.00 PKD
ROOT
HETATM    1  F   UNL     1      -8.792   5.067  66.025  1.00  0.00    -0.118 F  
HETATM    2  C   UNL     1      -8.920   4.111  66.986  1.00  0.00    -0.127 C  
HETATM    3  C   UNL     1      -9.396   4.639  68.317  1.00  0.00    -0.182 A  
HETATM    4  F   UNL     1      -9.753   3.166  66.467  1.00  0.00    -0.156 F  
HETATM    5  F   UNL     1      -7.698   3.514  67.079  1.00  0.00    -0.076 F  
HETATM    6  C   UNL     1      -9.666   6.009  68.511  1.00  0.00    -0.142 A  
HETATM    7  C   UNL     1     -10.006   6.504  69.775  1.00  0.00    -0.166 A  
HETATM    8  C   UNL     1      -9.526   3.750  69.395  1.00  0.00    -0.257 A  
HETATM    9  C   UNL     1     -10.144   5.578  70.824  1.00  0.00    -0.277 A  
HETATM   10  C   UNL     1      -9.910   4.217  70.645  1.00  0.00    -0.249 A  
ENDROOT
BRANCH   7  11
HETATM   11  N   UNL     1     -10.168   7.860  70.075  1.00  0.00    -0.203 NA 
HETATM   12  C   UNL     1     -11.274   9.834  71.085  1.00  0.00    -0.374 C  
HETATM   13  C   UNL     1     -11.446   8.358  70.621  1.00  0.00    -0.219 C  
HETATM   14  N   UNL     1     -10.753  10.774  70.054  1.00  0.00    -0.167 NA 
HETATM   15  C   UNL     1      -9.598   8.737  69.026  1.00  0.00    -0.162 C  
HETATM   16  C   UNL     1      -9.480  10.187  69.552  1.00  0.00    -0.214 C  
BRANCH  14  17
HETATM   17  C   UNL     1     -11.697  10.997  68.934  1.00  0.00    -0.330 C  
BRANCH  17  18
HETATM   18  C   UNL     1     -11.843  12.464  68.465  1.00  0.00    -0.304 C  
BRANCH  18  19
HETATM   19  O   UNL     1     -10.611  13.224  68.650  1.00  0.00    -0.253 OA 
BRANCH  19  20
HETATM   20  C   UNL     1     -10.838  14.490  69.082  1.00  0.00    -0.263 C  
HETATM   21  O   UNL     1     -11.331  14.740  70.184  1.00  0.00    -0.254 OA 
BRANCH  20  22
HETATM   22  C   UNL     1     -10.421  15.603  68.162  1.00  0.00    -0.259 A  
HETATM   23  C   UNL     1     -10.770  16.879  68.669  1.00  0.00    -0.345 A  
HETATM   24  C   UNL     1     -10.503  18.048  67.970  1.00  0.00    -0.388 A  
HETATM   25  C   UNL     1      -9.860  17.968  66.744  1.00  0.00    -0.335 A  
HETATM   26  C   UNL     1      -9.492  16.722  66.226  1.00  0.00    -0.314 A  
HETATM   27  C   UNL     1      -9.764  15.513  66.905  1.00  0.00    -0.233 A  
BRANCH  27  28
HETATM   28  N   UNL     1      -9.447  14.288  66.280  1.00  0.00    -0.409 NA 
HETATM   29  H   UNL     1      -8.503  13.963  66.489  1.00  0.00     0.000 HD 
BRANCH  28  30
HETATM   30  C   UNL     1     -10.166  13.408  65.419  1.00  0.00    -0.298 A  
HETATM   31  C   UNL     1      -9.693  12.087  65.234  1.00  0.00    -0.183 A  
HETATM   32  C   UNL     1      -8.738  11.523  66.096  1.00  0.00    -0.131 A  
HETATM   33  C   UNL     1      -8.176  10.279  65.834  1.00  0.00    -0.148 A  
HETATM   34  C   UNL     1      -8.533   9.579  64.683  1.00  0.00    -0.177 A  
HETATM   35  C   UNL     1      -9.580  10.089  63.888  1.00  0.00    -0.217 A  
HETATM   36  C   UNL     1      -7.759   8.335  64.307  1.00  0.00    -0.134 C  
HETATM   37  C   UNL     1     -10.199  11.309  64.167  1.00  0.00    -0.335 A  
HETATM   38  F   UNL     1      -6.745   8.060  65.182  1.00  0.00    -0.050 F  
HETATM   39  F   UNL     1      -8.518   7.209  64.262  1.00  0.00    -0.059 F  
HETATM   40  F   UNL     1      -7.160   8.444  63.089  1.00  0.00    -0.087 F  
HETATM   41  N   UNL     1     -11.221  11.741  63.413  1.00  0.00    -0.386 NA 
HETATM   42  C   UNL     1     -11.758  12.954  63.700  1.00  0.00    -0.508 A  
HETATM   43  C   UNL     1     -11.256  13.823  64.666  1.00  0.00    -0.383 A  
ENDBRANCH  28  30
ENDBRANCH  27  28
ENDBRANCH  20  22
ENDBRANCH  19  20
ENDBRANCH  18  19
ENDBRANCH  17  18
ENDBRANCH  14  17
ENDBRANCH   7  11
TORSDOF 8
ENDMDL
MODEL       86
REMARK 921   NORMALIZED FREE ENERGY PREDICTED BY IDOCK:   -6.09 KCAL/MOL
REMARK 922        TOTAL FREE ENERGY PREDICTED BY IDOCK:  -12.33 KCAL/MOL
REMARK 923 INTER-LIGAND FREE ENERGY PREDICTED BY IDOCK:   -9.57 KCAL/MOL
REMARK 924 INTRA-LIGAND FREE ENERGY PREDICTED BY IDOCK:   -2.77 KCAL/MOL
REMARK 927      BINDING AFFINITY PREDICTED BY RF-SCORE:    0.00 PKD
ROOT
HETATM    1  F   UNL     1     -11.537  11.728  65.324  1.00  0.00    -0.364 F  
HETATM    2  C   UNL     1     -11.625  12.927  65.963  1.00  0.00    -0.375 C  
HETATM    3  C   UNL     1     -11.754  12.817  67.462  1.00  0.00    -0.422 A  
HETATM    4  F   UNL     1     -10.528  13.637  65.581  1.00  0.00    -0.271 F  
HETATM    5  F   UNL     1     -12.692  13.566  65.403  1.00  0.00    -0.465 F  
HETATM    6  C   UNL     1     -11.785  11.563  68.107  1.00  0.00    -0.357 A  
HETATM    7  C   UNL     1     -12.009  11.468  69.485  1.00  0.00    -0.335 A  
HETATM    8  C   UNL     1     -11.894  13.988  68.222  1.00  0.00    -0.406 A  
HETATM    9  C   UNL     1     -12.125  12.666  70.212  1.00  0.00    -0.372 A  
HETATM   10  C   UNL     1     -12.068  13.913  69.597  1.00  0.00    -0.404 A  
ENDROOT
BRANCH   7  11
HETATM   11  N   UNL     1     -12.176  10.265  70.177  1.00  0.00    -0.219 NA 
HETATM   12  C   UNL     1     -13.055   8.789  71.963  1.00  0.00    -0.392 C  
HETATM   13  C   UNL     1     -12.764  10.256  71.531  1.00  0.00    -0.452 C  
HETATM   14  N   UNL     1     -11.892   7.860  71.902  1.00  0.00    -0.287 NA 
HETATM   15  C   UNL     1     -10.997   9.376  70.046  1.00  0.00    -0.239 C  
HETATM   16  C   UNL     1     -11.355   7.945  70.515  1.00  0.00    -0.234 C  
BRANCH  14  17
HETATM   17  C   UNL     1     -10.832   8.181  72.886  1.00  0.00    -0.240 C  
BRANCH  17  18
HETATM   18  C   UNL     1      -9.436   7.590  72.581  1.00  0.00    -0.163 C  
BRANCH  18  19
HETATM   19  O   UNL     1      -9.072   6.531  73.517  1.00  0.00    -0.124 OA 
BRANCH  19  20
HETATM   20  C   UNL     1      -8.413   5.508  72.918  1.00  0.00    -0.119 C  
HETATM   21  O   UNL     1      -7.245   5.600  72.534  1.00  0.00    -0.086 OA 
BRANCH  20  22
HETATM   22  C   UNL     1      -9.165   4.215  72.770  1.00  0.00    -0.137 A  
HETATM   23  C   UNL     1      -9.955   3.920  73.908  1.00  0.00    -0.172 A  
HETATM   24  C   UNL     1     -10.714   2.761  73.998  1.00  0.00    -0.268 A  
HETATM   25  C   UNL     1     -10.712   1.870  72.935  1.00  0.00    -0.240 A  
HETATM   26  C   UNL     1      -9.951   2.144  71.794  1.00  0.00    -0.209 A  
HETATM   27  C   UNL     1      -9.157   3.306  71.677  1.00  0.00    -0.106 A  
BRANCH  27  28
HETATM   28  N   UNL     1      -8.343   3.470  70.536  1.00  0.00    -0.059 NA 
HETATM   29  H   UNL     1      -7.355   3.592  70.762  1.00  0.00     0.000 HD 
BRANCH  28  30
HETATM   30  C   UNL     1      -8.607   3.503  69.136  1.00  0.00    -0.074 A  
HETATM   31  C   UNL     1      -8.668   4.753  68.475  1.00  0.00    -0.109 A  
HETATM   32  C   UNL     1      -8.175   5.924  69.075  1.00  0.00    -0.103 A  
HETATM   33  C   UNL     1      -8.359   7.168  68.484  1.00  0.00    -0.125 A  
HETATM   34  C   UNL     1      -9.069   7.278  67.289  1.00  0.00    -0.133 A  
HETATM   35  C   UNL     1      -9.451   6.092  66.628  1.00  0.00    -0.167 A  
HETATM   36  C   UNL     1      -9.440   8.651  66.776  1.00  0.00    -0.191 C  
HETATM   37  C   UNL     1      -9.225   4.828  67.178  1.00  0.00    -0.127 A  
HETATM   38  F   UNL     1      -9.027   9.654  67.606  1.00  0.00    -0.124 F  
HETATM   39  F   UNL     1      -8.913   8.942  65.558  1.00  0.00    -0.187 F  
HETATM   40  F   UNL     1     -10.787   8.815  66.660  1.00  0.00    -0.285 F  
HETATM   41  N   UNL     1      -9.564   3.721  66.499  1.00  0.00    -0.194 NA 
HETATM   42  C   UNL     1      -9.361   2.519  67.096  1.00  0.00    -0.054 A  
HETATM   43  C   UNL     1      -8.913   2.362  68.406  1.00  0.00    -0.179 A  
ENDBRANCH  28  30
ENDBRANCH  27  28
ENDBRANCH  20  22
ENDBRANCH  19  20
ENDBRANCH  18  19
ENDBRANCH  17  18
ENDBRANCH  14  17
ENDBRANCH   7  11
TORSDOF 8
ENDMDL
MODEL       87
REMARK 921   NORMALIZED FREE ENERGY PREDICTED BY IDOCK:   -6.06 KCAL/MOL
REMARK 922        TOTAL FREE ENERGY PREDICTED BY IDOCK:  -12.29 KCAL/MOL
REMARK 923 INTER-LIGAND FREE ENERGY PREDICTED BY IDOCK:  -10.33 KCAL/MOL
REMARK 924 INTRA-LIGAND FREE ENERGY PREDICTED BY IDOCK:   -1.96 KCAL/MOL
REMARK 927      BINDING AFFINITY PREDICTED BY RF-SCORE:    0.00 PKD
ROOT
HETATM    1  F   UNL     1     -12.761  14.122  71.300  1.00  0.00    -0.359 F  
HETATM    2  C   UNL     1     -12.043  15.278  71.231  1.00  0.00    -0.349 C  
HETATM    3  C   UNL     1     -11.546  15.609  69.846  1.00  0.00    -0.354 A  
HETATM    4  F   UNL     1     -12.846  16.249  71.748  1.00  0.00    -0.475 F  
HETATM    5  F   UNL     1     -11.020  15.131  72.121  1.00  0.00    -0.467 F  
HETATM    6  C   UNL     1     -11.815  14.767  68.747  1.00  0.00    -0.330 A  
HETATM    7  C   UNL     1     -11.262  15.029  67.488  1.00  0.00    -0.330 A  
HETATM    8  C   UNL     1     -10.760  16.756  69.661  1.00  0.00    -0.229 A  
HETATM    9  C   UNL     1     -10.496  16.198  67.341  1.00  0.00    -0.310 A  
HETATM   10  C   UNL     1     -10.244  17.057  68.408  1.00  0.00    -0.331 A  
ENDROOT
BRANCH   7  11
HETATM   11  N   UNL     1     -11.379  14.181  66.382  1.00  0.00    -0.328 NA 
HETATM   12  C   UNL     1     -12.470  12.488  64.939  1.00  0.00    -0.450 C  
HETATM   13  C   UNL     1     -12.400  13.114  66.362  1.00  0.00    -0.231 C  
HETATM   14  N   UNL     1     -11.180  11.976  64.398  1.00  0.00    -0.328 NA 
HETATM   15  C   UNL     1     -10.059  13.736  65.876  1.00  0.00    -0.313 C  
HETATM   16  C   UNL     1     -10.212  13.106  64.472  1.00  0.00    -0.311 C  
BRANCH  14  17
HETATM   17  C   UNL     1     -10.660  10.802  65.137  1.00  0.00    -0.169 C  
BRANCH  17  18
HETATM   18  C   UNL     1      -9.209  10.387  64.797  1.00  0.00    -0.230 C  
BRANCH  18  19
HETATM   19  O   UNL     1      -8.547   9.733  65.921  1.00  0.00    -0.131 OA 
BRANCH  19  20
HETATM   20  C   UNL     1      -7.354  10.300  66.228  1.00  0.00    -0.118 C  
HETATM   21  O   UNL     1      -6.578  10.727  65.370  1.00  0.00    -0.071 OA 
BRANCH  20  22
HETATM   22  C   UNL     1      -7.022  10.427  67.688  1.00  0.00    -0.083 A  
HETATM   23  C   UNL     1      -6.593  11.733  68.030  1.00  0.00    -0.060 A  
HETATM   24  C   UNL     1      -6.210  12.069  69.322  1.00  0.00    -0.096 A  
HETATM   25  C   UNL     1      -6.264  11.101  70.314  1.00  0.00    -0.134 A  
HETATM   26  C   UNL     1      -6.697   9.807  70.005  1.00  0.00    -0.089 A  
HETATM   27  C   UNL     1      -7.078   9.429  68.698  1.00  0.00    -0.070 A  
BRANCH  27  28
HETATM   28  N   UNL     1      -7.415   8.083  68.443  1.00  0.00    -0.101 NA 
HETATM   29  H   UNL     1      -6.695   7.582  67.921  1.00  0.00     0.000 HD 
BRANCH  28  30
HETATM   30  C   UNL     1      -8.545   7.274  68.759  1.00  0.00    -0.129 A  
HETATM   31  C   UNL     1      -9.698   7.886  69.307  1.00  0.00    -0.159 A  
HETATM   32  C   UNL     1      -9.883   9.277  69.259  1.00  0.00    -0.172 A  
HETATM   33  C   UNL     1     -10.946   9.886  69.916  1.00  0.00    -0.321 A  
HETATM   34  C   UNL     1     -11.837   9.120  70.665  1.00  0.00    -0.222 A  
HETATM   35  C   UNL     1     -11.722   7.715  70.608  1.00  0.00    -0.214 A  
HETATM   36  C   UNL     1     -12.853   9.818  71.540  1.00  0.00    -0.405 C  
HETATM   37  C   UNL     1     -10.695   7.081  69.906  1.00  0.00    -0.240 A  
HETATM   38  F   UNL     1     -12.744  11.179  71.493  1.00  0.00    -0.451 F  
HETATM   39  F   UNL     1     -14.142   9.542  71.210  1.00  0.00    -0.353 F  
HETATM   40  F   UNL     1     -12.717   9.493  72.856  1.00  0.00    -0.276 F  
HETATM   41  N   UNL     1     -10.643   5.742  69.838  1.00  0.00    -0.290 NA 
HETATM   42  C   UNL     1      -9.600   5.176  69.180  1.00  0.00    -0.146 A  
HETATM   43  C   UNL     1      -8.528   5.890  68.651  1.00  0.00    -0.111 A  
ENDBRANCH  28  30
ENDBRANCH  27  28
ENDBRANCH  20  22
ENDBRANCH  19  20
ENDBRANCH  18  19
ENDBRANCH  17  18
ENDBRANCH  14  17
ENDBRANCH   7  11
TORSDOF 8
ENDMDL
MODEL       88
REMARK 921   NORMALIZED FREE ENERGY PREDICTED BY IDOCK:   -6.05 KCAL/MOL
REMARK 922        TOTAL FREE ENERGY PREDICTED BY IDOCK:  -12.28 KCAL/MOL
REMARK 923 INTER-LIGAND FREE ENERGY PREDICTED BY IDOCK:   -9.51 KCAL/MOL
REMARK 924 INTRA-LIGAND FREE ENERGY PREDICTED BY IDOCK:   -2.77 KCAL/MOL
REMARK 927      BINDING AFFINITY PREDICTED BY RF-SCORE:    0.00 PKD
ROOT
HETATM    1  F   UNL     1     -11.483  13.885  64.403  1.00  0.00    -0.357 F  
HETATM    2  C   UNL     1     -11.940  13.973  65.683  1.00  0.00    -0.397 C  
HETATM    3  C   UNL     1     -11.572  12.794  66.548  1.00  0.00    -0.435 A  
HETATM    4  F   UNL     1     -11.463  15.152  66.171  1.00  0.00    -0.344 F  
HETATM    5  F   UNL     1     -13.290  14.134  65.582  1.00  0.00    -0.541 F  
HETATM    6  C   UNL     1     -10.827  11.711  66.038  1.00  0.00    -0.339 A  
HETATM    7  C   UNL     1     -10.581  10.575  66.818  1.00  0.00    -0.222 A  
HETATM    8  C   UNL     1     -12.026  12.755  67.875  1.00  0.00    -0.320 A  
HETATM    9  C   UNL     1     -11.036  10.585  68.148  1.00  0.00    -0.346 A  
HETATM   10  C   UNL     1     -11.749  11.657  68.678  1.00  0.00    -0.386 A  
ENDROOT
BRANCH   7  11
HETATM   11  N   UNL     1      -9.960   9.414  66.348  1.00  0.00    -0.265 NA 
HETATM   12  C   UNL     1      -9.224   7.050  66.443  1.00  0.00    -0.149 C  
HETATM   13  C   UNL     1      -9.692   8.287  67.263  1.00  0.00    -0.177 C  
HETATM   14  N   UNL     1      -8.052   7.278  65.551  1.00  0.00    -0.126 NA 
HETATM   15  C   UNL     1      -8.827   9.713  65.442  1.00  0.00    -0.171 C  
HETATM   16  C   UNL     1      -8.403   8.434  64.680  1.00  0.00    -0.127 C  
BRANCH  14  17
HETATM   17  C   UNL     1      -6.797   7.549  66.289  1.00  0.00    -0.061 C  
BRANCH  17  18
HETATM   18  C   UNL     1      -5.668   6.510  66.093  1.00  0.00    -0.021 C  
BRANCH  18  19
HETATM   19  O   UNL     1      -6.135   5.145  66.310  1.00  0.00    -0.028 OA 
BRANCH  19  20
HETATM   20  C   UNL     1      -6.254   4.835  67.625  1.00  0.00    -0.035 C  
HETATM   21  O   UNL     1      -5.512   5.306  68.490  1.00  0.00    -0.009 OA 
BRANCH  20  22
HETATM   22  C   UNL     1      -7.372   3.906  68.002  1.00  0.00    -0.062 A  
HETATM   23  C   UNL     1      -7.289   2.663  67.327  1.00  0.00    -0.057 A  
HETATM   24  C   UNL     1      -8.235   1.662  67.505  1.00  0.00    -0.072 A  
HETATM   25  C   UNL     1      -9.287   1.878  68.383  1.00  0.00    -0.248 A  
HETATM   26  C   UNL     1      -9.386   3.091  69.072  1.00  0.00    -0.226 A  
HETATM   27  C   UNL     1      -8.449   4.134  68.901  1.00  0.00    -0.082 A  
BRANCH  27  28
HETATM   28  N   UNL     1      -8.664   5.364  69.558  1.00  0.00    -0.102 NA 
HETATM   29  H   UNL     1      -8.673   6.163  68.923  1.00  0.00     0.000 HD 
BRANCH  28  30
HETATM   30  C   UNL     1      -8.871   5.730  70.921  1.00  0.00    -0.141 A  
HETATM   31  C   UNL     1      -9.992   6.526  71.258  1.00  0.00    -0.200 A  
HETATM   32  C   UNL     1     -11.060   6.703  70.364  1.00  0.00    -0.374 A  
HETATM   33  C   UNL     1     -12.092   7.592  70.642  1.00  0.00    -0.116 A  
HETATM   34  C   UNL     1     -12.066   8.351  71.810  1.00  0.00    -0.379 A  
HETATM   35  C   UNL     1     -11.061   8.080  72.761  1.00  0.00    -0.448 A  
HETATM   36  C   UNL     1     -13.079   9.459  71.991  1.00  0.00    -0.433 C  
HETATM   37  C   UNL     1     -10.047   7.149  72.526  1.00  0.00    -0.182 A  
HETATM   38  F   UNL     1     -13.917   9.589  70.919  1.00  0.00    -0.363 F  
HETATM   39  F   UNL     1     -13.888   9.291  73.070  1.00  0.00    -0.412 F  
HETATM   40  F   UNL     1     -12.494  10.680  72.137  1.00  0.00    -0.387 F  
HETATM   41  N   UNL     1      -9.132   6.886  73.472  1.00  0.00    -0.138 NA 
HETATM   42  C   UNL     1      -8.143   6.005  73.177  1.00  0.00    -0.115 A  
HETATM   43  C   UNL     1      -7.959   5.426  71.923  1.00  0.00    -0.113 A  
ENDBRANCH  28  30
ENDBRANCH  27  28
ENDBRANCH  20  22
ENDBRANCH  19  20
ENDBRANCH  18  19
ENDBRANCH  17  18
ENDBRANCH  14  17
ENDBRANCH   7  11
TORSDOF 8
ENDMDL
MODEL       89
REMARK 921   NORMALIZED FREE ENERGY PREDICTED BY IDOCK:   -6.05 KCAL/MOL
REMARK 922        TOTAL FREE ENERGY PREDICTED BY IDOCK:  -12.27 KCAL/MOL
REMARK 923 INTER-LIGAND FREE ENERGY PREDICTED BY IDOCK:   -9.65 KCAL/MOL
REMARK 924 INTRA-LIGAND FREE ENERGY PREDICTED BY IDOCK:   -2.62 KCAL/MOL
REMARK 927      BINDING AFFINITY PREDICTED BY RF-SCORE:    0.00 PKD
ROOT
HETATM    1  F   UNL     1     -12.724   6.659  71.814  1.00  0.00    -0.378 F  
HETATM    2  C   UNL     1     -12.211   7.915  71.941  1.00  0.00    -0.314 C  
HETATM    3  C   UNL     1     -11.168   8.259  70.908  1.00  0.00    -0.292 A  
HETATM    4  F   UNL     1     -13.279   8.760  71.912  1.00  0.00    -0.309 F  
HETATM    5  F   UNL     1     -11.719   7.986  73.211  1.00  0.00    -0.378 F  
HETATM    6  C   UNL     1     -10.778   7.332  69.919  1.00  0.00    -0.257 A  
HETATM    7  C   UNL     1      -9.736   7.623  69.031  1.00  0.00    -0.160 A  
HETATM    8  C   UNL     1     -10.540   9.512  70.966  1.00  0.00    -0.392 A  
HETATM    9  C   UNL     1      -9.147   8.897  69.110  1.00  0.00    -0.141 A  
HETATM   10  C   UNL     1      -9.538   9.835  70.061  1.00  0.00    -0.282 A  
ENDROOT
BRANCH   7  11
HETATM   11  N   UNL     1      -9.210   6.715  68.107  1.00  0.00    -0.118 NA 
HETATM   12  C   UNL     1      -7.550   5.106  67.215  1.00  0.00    -0.091 C  
HETATM   13  C   UNL     1      -7.801   6.283  68.202  1.00  0.00    -0.104 C  
HETATM   14  N   UNL     1      -7.912   5.372  65.794  1.00  0.00    -0.104 NA 
HETATM   15  C   UNL     1      -9.636   7.018  66.720  1.00  0.00    -0.171 C  
HETATM   16  C   UNL     1      -9.334   5.815  65.796  1.00  0.00    -0.026 C  
BRANCH  14  17
HETATM   17  C   UNL     1      -7.053   6.394  65.152  1.00  0.00    -0.060 C  
BRANCH  17  18
HETATM   18  C   UNL     1      -7.774   7.356  64.178  1.00  0.00    -0.121 C  
BRANCH  18  19
HETATM   19  O   UNL     1      -7.206   8.699  64.212  1.00  0.00    -0.090 OA 
BRANCH  19  20
HETATM   20  C   UNL     1      -8.009   9.591  64.845  1.00  0.00    -0.121 C  
HETATM   21  O   UNL     1      -9.185   9.774  64.524  1.00  0.00    -0.243 OA 
BRANCH  20  22
HETATM   22  C   UNL     1      -7.408  10.335  66.004  1.00  0.00    -0.129 A  
HETATM   23  C   UNL     1      -6.274   9.675  66.537  1.00  0.00    -0.064 A  
HETATM   24  C   UNL     1      -5.577  10.174  67.630  1.00  0.00    -0.041 A  
HETATM   25  C   UNL     1      -5.993  11.363  68.210  1.00  0.00    -0.045 A  
HETATM   26  C   UNL     1      -7.103  12.041  67.695  1.00  0.00    -0.118 A  
HETATM   27  C   UNL     1      -7.842  11.553  66.594  1.00  0.00    -0.112 A  
BRANCH  27  28
HETATM   28  N   UNL     1      -9.005  12.242  66.188  1.00  0.00    -0.415 NA 
HETATM   29  H   UNL     1      -9.088  12.326  65.174  1.00  0.00     0.000 HD 
BRANCH  28  30
HETATM   30  C   UNL     1     -10.087  12.846  66.892  1.00  0.00    -0.241 A  
HETATM   31  C   UNL     1     -10.206  14.257  66.893  1.00  0.00    -0.266 A  
HETATM   32  C   UNL     1      -9.493  15.053  65.982  1.00  0.00    -0.337 A  
HETATM   33  C   UNL     1      -9.506  16.440  66.074  1.00  0.00    -0.345 A  
HETATM   34  C   UNL     1     -10.210  17.067  67.100  1.00  0.00    -0.306 A  
HETATM   35  C   UNL     1     -11.025  16.273  67.934  1.00  0.00    -0.310 A  
HETATM   36  C   UNL     1     -10.040  18.555  67.309  1.00  0.00    -0.352 C  
HETATM   37  C   UNL     1     -11.071  14.882  67.821  1.00  0.00    -0.309 A  
HETATM   38  F   UNL     1      -9.155  19.113  66.430  1.00  0.00    -0.304 F  
HETATM   39  F   UNL     1     -11.191  19.264  67.169  1.00  0.00    -0.540 F  
HETATM   40  F   UNL     1      -9.553  18.854  68.545  1.00  0.00    -0.329 F  
HETATM   41  N   UNL     1     -11.891  14.163  68.604  1.00  0.00    -0.339 NA 
HETATM   42  C   UNL     1     -11.865  12.811  68.484  1.00  0.00    -0.306 A  
HETATM   43  C   UNL     1     -10.976  12.115  67.669  1.00  0.00    -0.289 A  
ENDBRANCH  28  30
ENDBRANCH  27  28
ENDBRANCH  20  22
ENDBRANCH  19  20
ENDBRANCH  18  19
ENDBRANCH  17  18
ENDBRANCH  14  17
ENDBRANCH   7  11
TORSDOF 8
ENDMDL
MODEL       90
REMARK 921   NORMALIZED FREE ENERGY PREDICTED BY IDOCK:   -6.04 KCAL/MOL
REMARK 922        TOTAL FREE ENERGY PREDICTED BY IDOCK:  -12.26 KCAL/MOL
REMARK 923 INTER-LIGAND FREE ENERGY PREDICTED BY IDOCK:  -10.31 KCAL/MOL
REMARK 924 INTRA-LIGAND FREE ENERGY PREDICTED BY IDOCK:   -1.95 KCAL/MOL
REMARK 927      BINDING AFFINITY PREDICTED BY RF-SCORE:    0.00 PKD
ROOT
HETATM    1  F   UNL     1      -9.525  18.232  68.479  1.00  0.00    -0.287 F  
HETATM    2  C   UNL     1      -9.899  18.246  67.169  1.00  0.00    -0.324 C  
HETATM    3  C   UNL     1     -10.322  16.899  66.638  1.00  0.00    -0.299 A  
HETATM    4  F   UNL     1     -10.882  19.183  67.069  1.00  0.00    -0.485 F  
HETATM    5  F   UNL     1      -8.833  18.755  66.487  1.00  0.00    -0.277 F  
HETATM    6  C   UNL     1     -10.309  15.749  67.454  1.00  0.00    -0.282 A  
HETATM    7  C   UNL     1     -10.603  14.488  66.925  1.00  0.00    -0.279 A  
HETATM    8  C   UNL     1     -10.688  16.784  65.288  1.00  0.00    -0.183 A  
HETATM    9  C   UNL     1     -10.983  14.419  65.573  1.00  0.00    -0.330 A  
HETATM   10  C   UNL     1     -11.029  15.547  64.759  1.00  0.00    -0.416 A  
ENDROOT
BRANCH   7  11
HETATM   11  N   UNL     1     -10.494  13.288  67.635  1.00  0.00    -0.227 NA 
HETATM   12  C   UNL     1      -9.325  11.308  68.558  1.00  0.00    -0.182 C  
HETATM   13  C   UNL     1      -9.294  12.439  67.490  1.00  0.00    -0.181 C  
HETATM   14  N   UNL     1     -10.553  10.465  68.565  1.00  0.00    -0.196 NA 
HETATM   15  C   UNL     1     -11.759  12.517  67.629  1.00  0.00    -0.361 C  
HETATM   16  C   UNL     1     -11.706  11.399  68.697  1.00  0.00    -0.329 C  
BRANCH  14  17
HETATM   17  C   UNL     1     -10.700   9.633  67.348  1.00  0.00    -0.241 C  
BRANCH  17  18
HETATM   18  C   UNL     1     -10.659   8.104  67.575  1.00  0.00    -0.221 C  
BRANCH  18  19
HETATM   19  O   UNL     1      -9.962   7.407  66.498  1.00  0.00    -0.198 OA 
BRANCH  19  20
HETATM   20  C   UNL     1      -9.854   6.074  66.721  1.00  0.00    -0.163 C  
HETATM   21  O   UNL     1     -10.830   5.321  66.750  1.00  0.00    -0.232 OA 
BRANCH  20  22
HETATM   22  C   UNL     1      -8.465   5.529  66.898  1.00  0.00    -0.110 A  
HETATM   23  C   UNL     1      -7.812   5.310  65.660  1.00  0.00    -0.100 A  
HETATM   24  C   UNL     1      -6.529   4.785  65.586  1.00  0.00    -0.040 A  
HETATM   25  C   UNL     1      -5.856   4.481  66.760  1.00  0.00    -0.026 A  
HETATM   26  C   UNL     1      -6.473   4.700  67.996  1.00  0.00    -0.041 A  
HETATM   27  C   UNL     1      -7.783   5.218  68.105  1.00  0.00    -0.084 A  
BRANCH  27  28
HETATM   28  N   UNL     1      -8.375   5.325  69.382  1.00  0.00    -0.094 NA 
HETATM   29  H   UNL     1      -8.935   4.510  69.634  1.00  0.00     0.000 HD 
BRANCH  28  30
HETATM   30  C   UNL     1      -8.357   6.329  70.394  1.00  0.00    -0.126 A  
HETATM   31  C   UNL     1      -9.584   6.868  70.851  1.00  0.00    -0.166 A  
HETATM   32  C   UNL     1     -10.809   6.239  70.576  1.00  0.00    -0.348 A  
HETATM   33  C   UNL     1     -12.018   6.840  70.907  1.00  0.00    -0.437 A  
HETATM   34  C   UNL     1     -12.033   8.103  71.495  1.00  0.00    -0.334 A  
HETATM   35  C   UNL     1     -10.803   8.675  71.883  1.00  0.00    -0.419 A  
HETATM   36  C   UNL     1     -13.351   8.827  71.651  1.00  0.00    -0.359 C  
HETATM   37  C   UNL     1      -9.579   8.060  71.612  1.00  0.00    -0.167 A  
HETATM   38  F   UNL     1     -14.406   8.118  71.149  1.00  0.00    -0.406 F  
HETATM   39  F   UNL     1     -13.676   9.102  72.942  1.00  0.00    -0.477 F  
HETATM   40  F   UNL     1     -13.372  10.017  70.989  1.00  0.00    -0.419 F  
HETATM   41  N   UNL     1      -8.432   8.613  72.035  1.00  0.00    -0.318 NA 
HETATM   42  C   UNL     1      -7.268   7.997  71.707  1.00  0.00    -0.077 A  
HETATM   43  C   UNL     1      -7.179   6.881  70.879  1.00  0.00    -0.072 A  
ENDBRANCH  28  30
ENDBRANCH  27  28
ENDBRANCH  20  22
ENDBRANCH  19  20
ENDBRANCH  18  19
ENDBRANCH  17  18
ENDBRANCH  14  17
ENDBRANCH   7  11
TORSDOF 8
ENDMDL
MODEL       91
REMARK 921   NORMALIZED FREE ENERGY PREDICTED BY IDOCK:   -6.04 KCAL/MOL
REMARK 922        TOTAL FREE ENERGY PREDICTED BY IDOCK:  -12.26 KCAL/MOL
REMARK 923 INTER-LIGAND FREE ENERGY PREDICTED BY IDOCK:  -10.30 KCAL/MOL
REMARK 924 INTRA-LIGAND FREE ENERGY PREDICTED BY IDOCK:   -1.96 KCAL/MOL
REMARK 927      BINDING AFFINITY PREDICTED BY RF-SCORE:    0.00 PKD
ROOT
HETATM    1  F   UNL     1      -8.380   3.943  69.072  1.00  0.00    -0.071 F  
HETATM    2  C   UNL     1      -8.599   3.354  67.864  1.00  0.00    -0.100 C  
HETATM    3  C   UNL     1      -8.382   4.270  66.686  1.00  0.00    -0.101 A  
HETATM    4  F   UNL     1      -7.793   2.256  67.831  1.00  0.00    -0.058 F  
HETATM    5  F   UNL     1      -9.875   2.875  67.912  1.00  0.00    -0.233 F  
HETATM    6  C   UNL     1      -7.995   5.615  66.862  1.00  0.00    -0.102 A  
HETATM    7  C   UNL     1      -7.897   6.485  65.770  1.00  0.00    -0.104 A  
HETATM    8  C   UNL     1      -8.618   3.783  65.391  1.00  0.00    -0.114 A  
HETATM    9  C   UNL     1      -8.124   5.952  64.488  1.00  0.00    -0.132 A  
HETATM   10  C   UNL     1      -8.478   4.620  64.293  1.00  0.00    -0.131 A  
ENDROOT
BRANCH   7  11
HETATM   11  N   UNL     1      -7.641   7.856  65.872  1.00  0.00    -0.081 NA 
HETATM   12  C   UNL     1      -6.922   9.942  66.999  1.00  0.00    -0.088 C  
HETATM   13  C   UNL     1      -7.418   8.479  67.191  1.00  0.00    -0.085 C  
HETATM   14  N   UNL     1      -7.796  10.810  66.160  1.00  0.00    -0.155 NA 
HETATM   15  C   UNL     1      -8.521   8.656  64.988  1.00  0.00    -0.173 C  
HETATM   16  C   UNL     1      -7.978  10.100  64.864  1.00  0.00    -0.150 C  
BRANCH  14  17
HETATM   17  C   UNL     1      -9.109  11.096  66.783  1.00  0.00    -0.166 C  
BRANCH  17  18
HETATM   18  C   UNL     1      -9.076  11.423  68.294  1.00  0.00    -0.179 C  
BRANCH  18  19
HETATM   19  O   UNL     1     -10.288  10.984  68.978  1.00  0.00    -0.208 OA 
BRANCH  19  20
HETATM   20  C   UNL     1     -10.030  10.146  70.014  1.00  0.00    -0.161 C  
HETATM   21  O   UNL     1      -8.890   9.776  70.303  1.00  0.00    -0.225 OA 
BRANCH  20  22
HETATM   22  C   UNL     1     -11.207   9.707  70.837  1.00  0.00    -0.422 A  
HETATM   23  C   UNL     1     -11.033   8.408  71.374  1.00  0.00    -0.311 A  
HETATM   24  C   UNL     1     -12.009   7.792  72.146  1.00  0.00    -0.362 A  
HETATM   25  C   UNL     1     -13.186   8.475  72.414  1.00  0.00    -0.319 A  
HETATM   26  C   UNL     1     -13.378   9.764  71.907  1.00  0.00    -0.530 A  
HETATM   27  C   UNL     1     -12.412  10.412  71.106  1.00  0.00    -0.404 A  
BRANCH  27  28
HETATM   28  N   UNL     1     -12.713  11.674  70.552  1.00  0.00    -0.137 NA 
HETATM   29  H   UNL     1     -12.905  11.638  69.550  1.00  0.00     0.000 HD 
BRANCH  28  30
HETATM   30  C   UNL     1     -12.807  12.990  71.094  1.00  0.00    -0.245 A  
HETATM   31  C   UNL     1     -12.255  14.074  70.370  1.00  0.00    -0.433 A  
HETATM   32  C   UNL     1     -11.904  13.948  69.016  1.00  0.00    -0.397 A  
HETATM   33  C   UNL     1     -11.238  14.968  68.346  1.00  0.00    -0.303 A  
HETATM   34  C   UNL     1     -10.878  16.131  69.024  1.00  0.00    -0.299 A  
HETATM   35  C   UNL     1     -11.341  16.306  70.344  1.00  0.00    -0.313 A  
HETATM   36  C   UNL     1      -9.973  17.131  68.341  1.00  0.00    -0.310 C  
HETATM   37  C   UNL     1     -12.062  15.316  71.016  1.00  0.00    -0.342 A  
HETATM   38  F   UNL     1      -9.591  16.731  67.091  1.00  0.00    -0.224 F  
HETATM   39  F   UNL     1     -10.536  18.357  68.177  1.00  0.00    -0.376 F  
HETATM   40  F   UNL     1      -8.811  17.332  69.023  1.00  0.00    -0.262 F  
HETATM   41  N   UNL     1     -12.524  15.536  72.257  1.00  0.00    -0.357 NA 
HETATM   42  C   UNL     1     -13.181  14.525  72.881  1.00  0.00    -0.515 A  
HETATM   43  C   UNL     1     -13.325  13.243  72.357  1.00  0.00    -0.616 A  
ENDBRANCH  28  30
ENDBRANCH  27  28
ENDBRANCH  20  22
ENDBRANCH  19  20
ENDBRANCH  18  19
ENDBRANCH  17  18
ENDBRANCH  14  17
ENDBRANCH   7  11
TORSDOF 8
ENDMDL
MODEL       92
REMARK 921   NORMALIZED FREE ENERGY PREDICTED BY IDOCK:   -6.03 KCAL/MOL
REMARK 922        TOTAL FREE ENERGY PREDICTED BY IDOCK:  -12.25 KCAL/MOL
REMARK 923 INTER-LIGAND FREE ENERGY PREDICTED BY IDOCK:  -11.09 KCAL/MOL
REMARK 924 INTRA-LIGAND FREE ENERGY PREDICTED BY IDOCK:   -1.16 KCAL/MOL
REMARK 927      BINDING AFFINITY PREDICTED BY RF-SCORE:    0.00 PKD
ROOT
HETATM    1  F   UNL     1     -10.812   3.315  74.509  1.00  0.00    -0.237 F  
HETATM    2  C   UNL     1     -10.422   2.671  73.374  1.00  0.00    -0.146 C  
HETATM    3  C   UNL     1     -10.126   3.593  72.217  1.00  0.00    -0.225 A  
HETATM    4  F   UNL     1      -9.351   1.907  73.725  1.00  0.00    -0.069 F  
HETATM    5  F   UNL     1     -11.424   1.793  73.086  1.00  0.00    -0.251 F  
HETATM    6  C   UNL     1     -10.261   4.991  72.337  1.00  0.00    -0.254 A  
HETATM    7  C   UNL     1     -10.085   5.829  71.230  1.00  0.00    -0.201 A  
HETATM    8  C   UNL     1      -9.756   3.038  70.982  1.00  0.00    -0.173 A  
HETATM    9  C   UNL     1      -9.696   5.235  70.016  1.00  0.00    -0.263 A  
HETATM   10  C   UNL     1      -9.530   3.859  69.886  1.00  0.00    -0.267 A  
ENDROOT
BRANCH   7  11
HETATM   11  N   UNL     1     -10.320   7.207  71.237  1.00  0.00    -0.198 NA 
HETATM   12  C   UNL     1     -11.679   9.266  71.469  1.00  0.00    -0.380 C  
HETATM   13  C   UNL     1     -11.700   7.732  71.212  1.00  0.00    -0.288 C  
HETATM   14  N   UNL     1     -10.811  10.058  70.552  1.00  0.00    -0.311 NA 
HETATM   15  C   UNL     1      -9.402   7.936  70.330  1.00  0.00    -0.159 C  
HETATM   16  C   UNL     1      -9.453   9.453  70.629  1.00  0.00    -0.262 C  
BRANCH  14  17
HETATM   17  C   UNL     1     -11.294  10.069  69.152  1.00  0.00    -0.094 C  
BRANCH  17  18
HETATM   18  C   UNL     1     -10.838  11.274  68.297  1.00  0.00    -0.205 C  
BRANCH  18  19
HETATM   19  O   UNL     1      -9.619  10.987  67.548  1.00  0.00    -0.162 OA 
BRANCH  19  20
HETATM   20  C   UNL     1      -9.854  10.769  66.230  1.00  0.00    -0.215 C  
HETATM   21  O   UNL     1      -9.595   9.699  65.675  1.00  0.00    -0.233 OA 
BRANCH  20  22
HETATM   22  C   UNL     1     -10.492  11.892  65.463  1.00  0.00    -0.309 A  
HETATM   23  C   UNL     1     -11.634  11.468  64.739  1.00  0.00    -0.086 A  
HETATM   24  C   UNL     1     -12.364  12.337  63.940  1.00  0.00    -0.606 A  
HETATM   25  C   UNL     1     -11.975  13.666  63.858  1.00  0.00    -0.455 A  
HETATM   26  C   UNL     1     -10.859  14.113  64.572  1.00  0.00    -0.336 A  
HETATM   27  C   UNL     1     -10.086  13.252  65.382  1.00  0.00    -0.253 A  
BRANCH  27  28
HETATM   28  N   UNL     1      -8.920  13.752  66.000  1.00  0.00    -0.356 NA 
HETATM   29  H   UNL     1      -8.078  13.611  65.441  1.00  0.00     0.000 HD 
BRANCH  28  30
HETATM   30  C   UNL     1      -8.668  14.414  67.237  1.00  0.00    -0.215 A  
HETATM   31  C   UNL     1      -9.128  15.741  67.415  1.00  0.00    -0.206 A  
HETATM   32  C   UNL     1     -10.078  16.309  66.551  1.00  0.00    -0.301 A  
HETATM   33  C   UNL     1     -10.425  17.652  66.645  1.00  0.00    -0.286 A  
HETATM   34  C   UNL     1      -9.805  18.471  67.587  1.00  0.00    -0.335 A  
HETATM   35  C   UNL     1      -8.946  17.871  68.531  1.00  0.00    -0.291 A  
HETATM   36  C   UNL     1     -10.037  19.964  67.532  1.00  0.00    -0.429 C  
HETATM   37  C   UNL     1      -8.630  16.511  68.491  1.00  0.00    -0.223 A  
HETATM   38  F   UNL     1     -10.850  20.334  66.498  1.00  0.00    -0.465 F  
HETATM   39  F   UNL     1     -10.615  20.470  68.653  1.00  0.00    -0.436 F  
HETATM   40  F   UNL     1      -8.883  20.663  67.347  1.00  0.00    -0.414 F  
HETATM   41  N   UNL     1      -7.843  15.968  69.432  1.00  0.00    -0.222 NA 
HETATM   42  C   UNL     1      -7.532  14.651  69.322  1.00  0.00    -0.132 A  
HETATM   43  C   UNL     1      -7.896  13.849  68.244  1.00  0.00    -0.146 A  
ENDBRANCH  28  30
ENDBRANCH  27  28
ENDBRANCH  20  22
ENDBRANCH  19  20
ENDBRANCH  18  19
ENDBRANCH  17  18
ENDBRANCH  14  17
ENDBRANCH   7  11
TORSDOF 8
ENDMDL
MODEL       93
REMARK 921   NORMALIZED FREE ENERGY PREDICTED BY IDOCK:   -6.02 KCAL/MOL
REMARK 922        TOTAL FREE ENERGY PREDICTED BY IDOCK:  -12.24 KCAL/MOL
REMARK 923 INTER-LIGAND FREE ENERGY PREDICTED BY IDOCK:  -10.93 KCAL/MOL
REMARK 924 INTRA-LIGAND FREE ENERGY PREDICTED BY IDOCK:   -1.31 KCAL/MOL
REMARK 927      BINDING AFFINITY PREDICTED BY RF-SCORE:    0.00 PKD
ROOT
HETATM    1  F   UNL     1      -7.048   4.859  65.584  1.00  0.00    -0.061 F  
HETATM    2  C   UNL     1      -7.383   6.028  64.971  1.00  0.00    -0.073 C  
HETATM    3  C   UNL     1      -8.200   6.960  65.831  1.00  0.00    -0.129 A  
HETATM    4  F   UNL     1      -6.209   6.586  64.561  1.00  0.00    -0.033 F  
HETATM    5  F   UNL     1      -8.041   5.673  63.831  1.00  0.00    -0.105 F  
HETATM    6  C   UNL     1      -8.573   6.610  67.145  1.00  0.00    -0.112 A  
HETATM    7  C   UNL     1      -9.418   7.434  67.897  1.00  0.00    -0.140 A  
HETATM    8  C   UNL     1      -8.638   8.178  65.289  1.00  0.00    -0.132 A  
HETATM    9  C   UNL     1      -9.819   8.655  67.324  1.00  0.00    -0.256 A  
HETATM   10  C   UNL     1      -9.438   9.030  66.039  1.00  0.00    -0.323 A  
ENDROOT
BRANCH   7  11
HETATM   11  N   UNL     1      -9.931   7.103  69.155  1.00  0.00    -0.164 NA 
HETATM   12  C   UNL     1     -11.699   6.536  70.795  1.00  0.00    -0.366 C  
HETATM   13  C   UNL     1     -11.382   7.182  69.415  1.00  0.00     0.031 C  
HETATM   14  N   UNL     1     -10.938   7.086  71.951  1.00  0.00    -0.229 NA 
HETATM   15  C   UNL     1      -9.109   7.654  70.257  1.00  0.00    -0.149 C  
HETATM   16  C   UNL     1      -9.495   6.982  71.596  1.00  0.00    -0.156 C  
BRANCH  14  17
HETATM   17  C   UNL     1     -11.291   8.489  72.271  1.00  0.00    -0.371 C  
BRANCH  17  18
HETATM   18  C   UNL     1     -12.614   9.002  71.654  1.00  0.00    -0.348 C  
BRANCH  18  19
HETATM   19  O   UNL     1     -12.868  10.401  71.985  1.00  0.00    -0.431 OA 
BRANCH  19  20
HETATM   20  C   UNL     1     -12.831  11.210  70.897  1.00  0.00    -0.282 C  
HETATM   21  O   UNL     1     -12.907  10.780  69.744  1.00  0.00    -0.174 OA 
BRANCH  20  22
HETATM   22  C   UNL     1     -12.730  12.687  71.156  1.00  0.00    -0.347 A  
HETATM   23  C   UNL     1     -13.508  13.091  72.269  1.00  0.00    -0.645 A  
HETATM   24  C   UNL     1     -13.582  14.417  72.673  1.00  0.00    -0.589 A  
HETATM   25  C   UNL     1     -12.862  15.376  71.977  1.00  0.00    -0.468 A  
HETATM   26  C   UNL     1     -12.076  15.001  70.882  1.00  0.00    -0.380 A  
HETATM   27  C   UNL     1     -11.990  13.663  70.436  1.00  0.00    -0.302 A  
BRANCH  27  28
HETATM   28  N   UNL     1     -11.252  13.374  69.269  1.00  0.00    -0.374 NA 
HETATM   29  H   UNL     1     -10.750  12.487  69.322  1.00  0.00     0.000 HD 
BRANCH  28  30
HETATM   30  C   UNL     1     -11.058  14.057  68.033  1.00  0.00    -0.263 A  
HETATM   31  C   UNL     1     -10.121  15.116  67.971  1.00  0.00    -0.222 A  
HETATM   32  C   UNL     1      -9.165  15.310  68.981  1.00  0.00    -0.223 A  
HETATM   33  C   UNL     1      -8.338  16.427  68.986  1.00  0.00    -0.225 A  
HETATM   34  C   UNL     1      -8.467  17.398  67.995  1.00  0.00    -0.235 A  
HETATM   35  C   UNL     1      -9.338  17.139  66.916  1.00  0.00    -0.260 A  
HETATM   36  C   UNL     1      -7.712  18.700  68.136  1.00  0.00    -0.281 C  
HETATM   37  C   UNL     1     -10.136  15.994  66.862  1.00  0.00    -0.265 A  
HETATM   38  F   UNL     1      -6.980  18.764  69.288  1.00  0.00    -0.300 F  
HETATM   39  F   UNL     1      -6.830  18.934  67.129  1.00  0.00    -0.198 F  
HETATM   40  F   UNL     1      -8.541  19.780  68.178  1.00  0.00    -0.341 F  
HETATM   41  N   UNL     1     -10.920  15.761  65.799  1.00  0.00    -0.263 NA 
HETATM   42  C   UNL     1     -11.708  14.656  65.816  1.00  0.00    -0.302 A  
HETATM   43  C   UNL     1     -11.827  13.797  66.906  1.00  0.00    -0.447 A  
ENDBRANCH  28  30
ENDBRANCH  27  28
ENDBRANCH  20  22
ENDBRANCH  19  20
ENDBRANCH  18  19
ENDBRANCH  17  18
ENDBRANCH  14  17
ENDBRANCH   7  11
TORSDOF 8
ENDMDL
MODEL       94
REMARK 921   NORMALIZED FREE ENERGY PREDICTED BY IDOCK:   -6.02 KCAL/MOL
REMARK 922        TOTAL FREE ENERGY PREDICTED BY IDOCK:  -12.24 KCAL/MOL
REMARK 923 INTER-LIGAND FREE ENERGY PREDICTED BY IDOCK:  -10.17 KCAL/MOL
REMARK 924 INTRA-LIGAND FREE ENERGY PREDICTED BY IDOCK:   -2.07 KCAL/MOL
REMARK 927      BINDING AFFINITY PREDICTED BY RF-SCORE:    0.00 PKD
ROOT
HETATM    1  F   UNL     1      -9.119   2.764  65.743  1.00  0.00    -0.132 F  
HETATM    2  C   UNL     1      -9.638   3.975  65.395  1.00  0.00    -0.188 C  
HETATM    3  C   UNL     1      -9.962   4.864  66.570  1.00  0.00    -0.256 A  
HETATM    4  F   UNL     1      -8.738   4.538  64.542  1.00  0.00    -0.123 F  
HETATM    5  F   UNL     1     -10.740   3.701  64.641  1.00  0.00    -0.185 F  
HETATM    6  C   UNL     1      -9.741   4.439  67.897  1.00  0.00    -0.186 A  
HETATM    7  C   UNL     1     -10.141   5.228  68.981  1.00  0.00    -0.202 A  
HETATM    8  C   UNL     1     -10.542   6.120  66.334  1.00  0.00    -0.107 A  
HETATM    9  C   UNL     1     -10.700   6.488  68.701  1.00  0.00    -0.323 A  
HETATM   10  C   UNL     1     -10.900   6.936  67.398  1.00  0.00    -0.396 A  
ENDROOT
BRANCH   7  11
HETATM   11  N   UNL     1     -10.070   4.828  70.319  1.00  0.00    -0.247 NA 
HETATM   12  C   UNL     1     -10.871   4.587  72.651  1.00  0.00    -0.116 C  
HETATM   13  C   UNL     1     -11.014   5.372  71.314  1.00  0.00    -0.065 C  
HETATM   14  N   UNL     1      -9.496   4.536  73.221  1.00  0.00    -0.119 NA 
HETATM   15  C   UNL     1      -8.673   4.766  70.810  1.00  0.00    -0.109 C  
HETATM   16  C   UNL     1      -8.614   3.994  72.150  1.00  0.00    -0.105 C  
BRANCH  14  17
HETATM   17  C   UNL     1      -9.001   5.856  73.678  1.00  0.00    -0.127 C  
BRANCH  17  18
HETATM   18  C   UNL     1     -10.081   6.948  73.858  1.00  0.00    -0.357 C  
BRANCH  18  19
HETATM   19  O   UNL     1      -9.645   8.241  73.341  1.00  0.00    -0.207 OA 
BRANCH  19  20
HETATM   20  C   UNL     1     -10.459   8.715  72.364  1.00  0.00    -0.237 C  
HETATM   21  O   UNL     1     -11.679   8.818  72.505  1.00  0.00    -0.326 OA 
BRANCH  20  22
HETATM   22  C   UNL     1      -9.797   9.156  71.089  1.00  0.00    -0.371 A  
HETATM   23  C   UNL     1      -8.529   8.551  70.905  1.00  0.00    -0.176 A  
HETATM   24  C   UNL     1      -7.730   8.834  69.805  1.00  0.00    -0.084 A  
HETATM   25  C   UNL     1      -8.192   9.726  68.848  1.00  0.00    -0.117 A  
HETATM   26  C   UNL     1      -9.446  10.327  68.999  1.00  0.00    -0.206 A  
HETATM   27  C   UNL     1     -10.276  10.072  70.114  1.00  0.00    -0.242 A  
BRANCH  27  28
HETATM   28  N   UNL     1     -11.486  10.785  70.246  1.00  0.00    -0.313 NA 
HETATM   29  H   UNL     1     -12.269  10.197  70.535  1.00  0.00     0.000 HD 
BRANCH  28  30
HETATM   30  C   UNL     1     -11.849  12.151  70.061  1.00  0.00    -0.306 A  
HETATM   31  C   UNL     1     -11.917  12.674  68.748  1.00  0.00    -0.279 A  
HETATM   32  C   UNL     1     -11.947  11.832  67.624  1.00  0.00    -0.106 A  
HETATM   33  C   UNL     1     -11.876  12.348  66.335  1.00  0.00    -0.421 A  
HETATM   34  C   UNL     1     -11.741  13.721  66.137  1.00  0.00    -0.392 A  
HETATM   35  C   UNL     1     -11.838  14.571  67.259  1.00  0.00    -0.419 A  
HETATM   36  C   UNL     1     -11.452  14.241  64.747  1.00  0.00    -0.393 C  
HETATM   37  C   UNL     1     -11.968  14.075  68.558  1.00  0.00    -0.348 A  
HETATM   38  F   UNL     1     -11.334  13.240  63.824  1.00  0.00    -0.399 F  
HETATM   39  F   UNL     1     -12.410  15.075  64.263  1.00  0.00    -0.490 F  
HETATM   40  F   UNL     1     -10.277  14.927  64.682  1.00  0.00    -0.394 F  
HETATM   41  N   UNL     1     -12.100  14.914  69.597  1.00  0.00    -0.304 NA 
HETATM   42  C   UNL     1     -12.180  14.382  70.842  1.00  0.00    -0.342 A  
HETATM   43  C   UNL     1     -12.037  13.025  71.124  1.00  0.00     0.048 A  
ENDBRANCH  28  30
ENDBRANCH  27  28
ENDBRANCH  20  22
ENDBRANCH  19  20
ENDBRANCH  18  19
ENDBRANCH  17  18
ENDBRANCH  14  17
ENDBRANCH   7  11
TORSDOF 8
ENDMDL
MODEL       95
REMARK 921   NORMALIZED FREE ENERGY PREDICTED BY IDOCK:   -6.00 KCAL/MOL
REMARK 922        TOTAL FREE ENERGY PREDICTED BY IDOCK:  -12.21 KCAL/MOL
REMARK 923 INTER-LIGAND FREE ENERGY PREDICTED BY IDOCK:  -10.42 KCAL/MOL
REMARK 924 INTRA-LIGAND FREE ENERGY PREDICTED BY IDOCK:   -1.79 KCAL/MOL
REMARK 927      BINDING AFFINITY PREDICTED BY RF-SCORE:    0.00 PKD
ROOT
HETATM    1  F   UNL     1      -9.698   3.629  73.379  1.00  0.00    -0.117 F  
HETATM    2  C   UNL     1     -10.844   4.364  73.368  1.00  0.00    -0.267 C  
HETATM    3  C   UNL     1     -10.971   5.285  72.180  1.00  0.00    -0.226 A  
HETATM    4  F   UNL     1     -11.866   3.467  73.448  1.00  0.00    -0.277 F  
HETATM    5  F   UNL     1     -10.857   5.046  74.548  1.00  0.00    -0.309 F  
HETATM    6  C   UNL     1      -9.965   5.356  71.194  1.00  0.00    -0.257 A  
HETATM    7  C   UNL     1     -10.042   6.288  70.152  1.00  0.00    -0.179 A  
HETATM    8  C   UNL     1     -12.092   6.123  72.084  1.00  0.00    -0.263 A  
HETATM    9  C   UNL     1     -11.192   7.095  70.082  1.00  0.00    -0.295 A  
HETATM   10  C   UNL     1     -12.208   7.019  71.030  1.00  0.00    -0.419 A  
ENDROOT
BRANCH   7  11
HETATM   11  N   UNL     1      -9.033   6.505  69.210  1.00  0.00    -0.131 NA 
HETATM   12  C   UNL     1      -7.330   7.825  67.986  1.00  0.00    -0.102 C  
HETATM   13  C   UNL     1      -8.615   7.878  68.863  1.00  0.00    -0.132 C  
HETATM   14  N   UNL     1      -7.427   6.992  66.756  1.00  0.00    -0.081 NA 
HETATM   15  C   UNL     1      -9.171   5.621  68.029  1.00  0.00    -0.107 C  
HETATM   16  C   UNL     1      -7.868   5.638  67.195  1.00  0.00    -0.101 C  
BRANCH  14  17
HETATM   17  C   UNL     1      -8.368   7.539  65.750  1.00  0.00    -0.142 C  
BRANCH  17  18
HETATM   18  C   UNL     1      -8.270   9.062  65.503  1.00  0.00    -0.122 C  
BRANCH  18  19
HETATM   19  O   UNL     1      -9.487   9.601  64.905  1.00  0.00    -0.267 OA 
BRANCH  19  20
HETATM   20  C   UNL     1     -10.263  10.260  65.801  1.00  0.00    -0.219 C  
HETATM   21  O   UNL     1     -10.378   9.900  66.975  1.00  0.00    -0.222 OA 
BRANCH  20  22
HETATM   22  C   UNL     1     -10.963  11.495  65.309  1.00  0.00    -0.291 A  
HETATM   23  C   UNL     1     -11.320  11.401  63.941  1.00  0.00    -0.302 A  
HETATM   24  C   UNL     1     -11.954  12.441  63.272  1.00  0.00    -0.509 A  
HETATM   25  C   UNL     1     -12.262  13.601  63.966  1.00  0.00    -0.443 A  
HETATM   26  C   UNL     1     -11.932  13.714  65.321  1.00  0.00    -0.395 A  
HETATM   27  C   UNL     1     -11.274  12.682  66.027  1.00  0.00    -0.306 A  
BRANCH  27  28
HETATM   28  N   UNL     1     -10.889  12.903  67.366  1.00  0.00    -0.247 NA 
HETATM   29  H   UNL     1     -11.595  12.603  68.040  1.00  0.00     0.000 HD 
BRANCH  28  30
HETATM   30  C   UNL     1      -9.726  13.455  67.978  1.00  0.00    -0.222 A  
HETATM   31  C   UNL     1      -9.681  14.845  68.242  1.00  0.00    -0.215 A  
HETATM   32  C   UNL     1     -10.842  15.635  68.212  1.00  0.00    -0.298 A  
HETATM   33  C   UNL     1     -10.775  17.018  68.336  1.00  0.00    -0.361 A  
HETATM   34  C   UNL     1      -9.540  17.651  68.463  1.00  0.00    -0.315 A  
HETATM   35  C   UNL     1      -8.391  16.848  68.619  1.00  0.00    -0.261 A  
HETATM   36  C   UNL     1      -9.473  19.159  68.382  1.00  0.00    -0.369 C  
HETATM   37  C   UNL     1      -8.444  15.454  68.555  1.00  0.00    -0.163 A  
HETATM   38  F   UNL     1     -10.695  19.731  68.163  1.00  0.00    -0.520 F  
HETATM   39  F   UNL     1      -8.990  19.748  69.508  1.00  0.00    -0.268 F  
HETATM   40  F   UNL     1      -8.687  19.591  67.357  1.00  0.00    -0.306 F  
HETATM   41  N   UNL     1      -7.336  14.722  68.751  1.00  0.00    -0.121 NA 
HETATM   42  C   UNL     1      -7.434  13.373  68.636  1.00  0.00    -0.104 A  
HETATM   43  C   UNL     1      -8.587  12.704  68.233  1.00  0.00    -0.167 A  
ENDBRANCH  28  30
ENDBRANCH  27  28
ENDBRANCH  20  22
ENDBRANCH  19  20
ENDBRANCH  18  19
ENDBRANCH  17  18
ENDBRANCH  14  17
ENDBRANCH   7  11
TORSDOF 8
ENDMDL
MODEL       96
REMARK 921   NORMALIZED FREE ENERGY PREDICTED BY IDOCK:   -6.00 KCAL/MOL
REMARK 922        TOTAL FREE ENERGY PREDICTED BY IDOCK:  -12.20 KCAL/MOL
REMARK 923 INTER-LIGAND FREE ENERGY PREDICTED BY IDOCK:  -10.36 KCAL/MOL
REMARK 924 INTRA-LIGAND FREE ENERGY PREDICTED BY IDOCK:   -1.85 KCAL/MOL
REMARK 927      BINDING AFFINITY PREDICTED BY RF-SCORE:    0.00 PKD
ROOT
HETATM    1  F   UNL     1     -10.889  12.967  69.236  1.00  0.00    -0.238 F  
HETATM    2  C   UNL     1     -11.917  12.846  70.121  1.00  0.00    -0.301 C  
HETATM    3  C   UNL     1     -12.073  11.460  70.694  1.00  0.00    -0.469 A  
HETATM    4  F   UNL     1     -11.701  13.790  71.079  1.00  0.00    -0.337 F  
HETATM    5  F   UNL     1     -13.032  13.251  69.448  1.00  0.00     0.174 F  
HETATM    6  C   UNL     1     -11.215  10.406  70.316  1.00  0.00    -0.395 A  
HETATM    7  C   UNL     1     -11.432   9.102  70.773  1.00  0.00    -0.282 A  
HETATM    8  C   UNL     1     -13.127  11.206  71.585  1.00  0.00    -0.529 A  
HETATM    9  C   UNL     1     -12.487   8.894  71.680  1.00  0.00    -0.403 A  
HETATM   10  C   UNL     1     -13.327   9.927  72.086  1.00  0.00    -0.498 A  
ENDROOT
BRANCH   7  11
HETATM   11  N   UNL     1     -10.705   7.985  70.350  1.00  0.00    -0.229 NA 
HETATM   12  C   UNL     1      -8.790   6.792  69.327  1.00  0.00    -0.137 C  
HETATM   13  C   UNL     1      -9.553   8.143  69.440  1.00  0.00    -0.167 C  
HETATM   14  N   UNL     1      -9.614   5.621  68.915  1.00  0.00    -0.125 NA 
HETATM   15  C   UNL     1     -11.584   6.848  69.988  1.00  0.00    -0.246 C  
HETATM   16  C   UNL     1     -10.753   5.549  69.872  1.00  0.00    -0.288 C  
BRANCH  14  17
HETATM   17  C   UNL     1     -10.114   5.717  67.523  1.00  0.00    -0.174 C  
BRANCH  17  18
HETATM   18  C   UNL     1      -9.981   7.108  66.860  1.00  0.00    -0.224 C  
BRANCH  18  19
HETATM   19  O   UNL     1      -8.796   7.201  66.013  1.00  0.00    -0.152 OA 
BRANCH  19  20
HETATM   20  C   UNL     1      -8.582   8.458  65.550  1.00  0.00    -0.176 C  
HETATM   21  O   UNL     1      -9.011   8.850  64.463  1.00  0.00    -0.113 OA 
BRANCH  20  22
HETATM   22  C   UNL     1      -7.816   9.387  66.449  1.00  0.00    -0.100 A  
HETATM   23  C   UNL     1      -6.535   8.881  66.779  1.00  0.00    -0.064 A  
HETATM   24  C   UNL     1      -5.667   9.566  67.620  1.00  0.00    -0.040 A  
HETATM   25  C   UNL     1      -6.058  10.789  68.142  1.00  0.00    -0.050 A  
HETATM   26  C   UNL     1      -7.313  11.317  67.821  1.00  0.00    -0.094 A  
HETATM   27  C   UNL     1      -8.225  10.640  66.982  1.00  0.00    -0.124 A  
BRANCH  27  28
HETATM   28  N   UNL     1      -9.509  11.189  66.778  1.00  0.00    -0.181 NA 
HETATM   29  H   UNL     1     -10.190  10.886  67.475  1.00  0.00     0.000 HD 
BRANCH  28  30
HETATM   30  C   UNL     1     -10.057  12.076  65.806  1.00  0.00    -0.238 A  
HETATM   31  C   UNL     1      -9.926  13.473  65.996  1.00  0.00    -0.308 A  
HETATM   32  C   UNL     1      -9.020  14.003  66.928  1.00  0.00    -0.243 A  
HETATM   33  C   UNL     1      -8.991  15.364  67.211  1.00  0.00    -0.213 A  
HETATM   34  C   UNL     1      -9.891  16.227  66.589  1.00  0.00    -0.265 A  
HETATM   35  C   UNL     1     -10.712  15.712  65.565  1.00  0.00    -0.403 A  
HETATM   36  C   UNL     1      -9.986  17.659  67.064  1.00  0.00    -0.320 C  
HETATM   37  C   UNL     1     -10.715  14.357  65.225  1.00  0.00    -0.375 A  
HETATM   38  F   UNL     1      -9.147  17.926  68.109  1.00  0.00    -0.250 F  
HETATM   39  F   UNL     1      -9.682  18.576  66.108  1.00  0.00    -0.318 F  
HETATM   40  F   UNL     1     -11.232  17.976  67.516  1.00  0.00    -0.304 F  
HETATM   41  N   UNL     1     -11.478  13.911  64.215  1.00  0.00    -0.352 NA 
HETATM   42  C   UNL     1     -11.477  12.579  63.955  1.00  0.00    -0.437 A  
HETATM   43  C   UNL     1     -10.809  11.631  64.727  1.00  0.00    -0.367 A  
ENDBRANCH  28  30
ENDBRANCH  27  28
ENDBRANCH  20  22
ENDBRANCH  19  20
ENDBRANCH  18  19
ENDBRANCH  17  18
ENDBRANCH  14  17
ENDBRANCH   7  11
TORSDOF 8
ENDMDL
MODEL       97
REMARK 921   NORMALIZED FREE ENERGY PREDICTED BY IDOCK:   -5.99 KCAL/MOL
REMARK 922        TOTAL FREE ENERGY PREDICTED BY IDOCK:  -12.20 KCAL/MOL
REMARK 923 INTER-LIGAND FREE ENERGY PREDICTED BY IDOCK:  -10.48 KCAL/MOL
REMARK 924 INTRA-LIGAND FREE ENERGY PREDICTED BY IDOCK:   -1.72 KCAL/MOL
REMARK 927      BINDING AFFINITY PREDICTED BY RF-SCORE:    0.00 PKD
ROOT
HETATM    1  F   UNL     1      -8.574   5.031  74.471  1.00  0.00    -0.108 F  
HETATM    2  C   UNL     1      -9.420   4.454  73.572  1.00  0.00    -0.117 C  
HETATM    3  C   UNL     1      -9.297   5.003  72.173  1.00  0.00    -0.163 A  
HETATM    4  F   UNL     1      -9.176   3.115  73.634  1.00  0.00    -0.084 F  
HETATM    5  F   UNL     1     -10.673   4.624  74.082  1.00  0.00    -0.266 F  
HETATM    6  C   UNL     1      -8.382   6.031  71.864  1.00  0.00    -0.115 A  
HETATM    7  C   UNL     1      -8.349   6.606  70.589  1.00  0.00    -0.129 A  
HETATM    8  C   UNL     1     -10.148   4.513  71.172  1.00  0.00    -0.218 A  
HETATM    9  C   UNL     1      -9.205   6.072  69.609  1.00  0.00    -0.148 A  
HETATM   10  C   UNL     1     -10.095   5.039  69.888  1.00  0.00    -0.344 A  
ENDROOT
BRANCH   7  11
HETATM   11  N   UNL     1      -7.561   7.706  70.238  1.00  0.00    -0.087 NA 
HETATM   12  C   UNL     1      -6.626   9.987  70.490  1.00  0.00    -0.122 C  
HETATM   13  C   UNL     1      -7.779   9.018  70.880  1.00  0.00    -0.128 C  
HETATM   14  N   UNL     1      -6.400  10.161  69.028  1.00  0.00    -0.043 NA 
HETATM   15  C   UNL     1      -7.349   7.800  68.775  1.00  0.00    -0.087 C  
HETATM   16  C   UNL     1      -6.206   8.795  68.465  1.00  0.00    -0.053 C  
BRANCH  14  17
HETATM   17  C   UNL     1      -7.517  10.849  68.340  1.00  0.00    -0.098 C  
BRANCH  17  18
HETATM   18  C   UNL     1      -7.522  10.739  66.797  1.00  0.00    -0.129 C  
BRANCH  18  19
HETATM   19  O   UNL     1      -8.342  11.773  66.175  1.00  0.00    -0.055 OA 
BRANCH  19  20
HETATM   20  C   UNL     1      -9.174  11.279  65.224  1.00  0.00    -0.172 C  
HETATM   21  O   UNL     1      -9.056  10.142  64.761  1.00  0.00    -0.184 OA 
BRANCH  20  22
HETATM   22  C   UNL     1     -10.293  12.175  64.773  1.00  0.00    -0.320 A  
HETATM   23  C   UNL     1     -11.196  11.511  63.906  1.00  0.00    -0.439 A  
HETATM   24  C   UNL     1     -12.291  12.158  63.349  1.00  0.00    -0.648 A  
HETATM   25  C   UNL     1     -12.519  13.490  63.661  1.00  0.00    -0.278 A  
HETATM   26  C   UNL     1     -11.649  14.164  64.525  1.00  0.00    -0.400 A  
HETATM   27  C   UNL     1     -10.518  13.540  65.096  1.00  0.00    -0.364 A  
BRANCH  27  28
HETATM   28  N   UNL     1      -9.635  14.308  65.884  1.00  0.00    -0.488 NA 
HETATM   29  H   UNL     1      -8.654  14.062  65.743  1.00  0.00     0.000 HD 
BRANCH  28  30
HETATM   30  C   UNL     1      -9.820  15.354  66.835  1.00  0.00    -0.244 A  
HETATM   31  C   UNL     1     -10.482  15.069  68.053  1.00  0.00    -0.242 A  
HETATM   32  C   UNL     1     -10.681  13.748  68.487  1.00  0.00    -0.274 A  
HETATM   33  C   UNL     1     -11.450  13.467  69.611  1.00  0.00    -0.283 A  
HETATM   34  C   UNL     1     -12.066  14.501  70.314  1.00  0.00    -0.386 A  
HETATM   35  C   UNL     1     -11.762  15.830  69.950  1.00  0.00    -0.365 A  
HETATM   36  C   UNL     1     -13.063  14.162  71.398  1.00  0.00    -0.358 C  
HETATM   37  C   UNL     1     -10.945  16.134  68.859  1.00  0.00    -0.324 A  
HETATM   38  F   UNL     1     -13.254  12.817  71.538  1.00  0.00    -0.447 F  
HETATM   39  F   UNL     1     -12.708  14.612  72.630  1.00  0.00    -0.367 F  
HETATM   40  F   UNL     1     -14.300  14.674  71.145  1.00  0.00    -0.455 F  
HETATM   41  N   UNL     1     -10.644  17.409  68.571  1.00  0.00    -0.362 NA 
HETATM   42  C   UNL     1      -9.882  17.652  67.474  1.00  0.00    -0.299 A  
HETATM   43  C   UNL     1      -9.471  16.673  66.574  1.00  0.00    -0.288 A  
ENDBRANCH  28  30
ENDBRANCH  27  28
ENDBRANCH  20  22
ENDBRANCH  19  20
ENDBRANCH  18  19
ENDBRANCH  17  18
ENDBRANCH  14  17
ENDBRANCH   7  11
TORSDOF 8
ENDMDL
MODEL       98
REMARK 921   NORMALIZED FREE ENERGY PREDICTED BY IDOCK:   -5.99 KCAL/MOL
REMARK 922        TOTAL FREE ENERGY PREDICTED BY IDOCK:  -12.19 KCAL/MOL
REMARK 923 INTER-LIGAND FREE ENERGY PREDICTED BY IDOCK:  -10.27 KCAL/MOL
REMARK 924 INTRA-LIGAND FREE ENERGY PREDICTED BY IDOCK:   -1.92 KCAL/MOL
REMARK 927      BINDING AFFINITY PREDICTED BY RF-SCORE:    0.00 PKD
ROOT
HETATM    1  F   UNL     1      -9.024   1.507  66.974  1.00  0.00    -0.105 F  
HETATM    2  C   UNL     1      -8.864   2.455  66.010  1.00  0.00    -0.125 C  
HETATM    3  C   UNL     1      -9.087   3.866  66.494  1.00  0.00    -0.155 A  
HETATM    4  F   UNL     1      -7.615   2.266  65.501  1.00  0.00    -0.066 F  
HETATM    5  F   UNL     1      -9.726   2.114  65.010  1.00  0.00    -0.100 F  
HETATM    6  C   UNL     1      -9.438   4.138  67.833  1.00  0.00    -0.219 A  
HETATM    7  C   UNL     1      -9.745   5.439  68.247  1.00  0.00    -0.135 A  
HETATM    8  C   UNL     1      -8.990   4.924  65.578  1.00  0.00    -0.149 A  
HETATM    9  C   UNL     1      -9.617   6.472  67.302  1.00  0.00    -0.148 A  
HETATM   10  C   UNL     1      -9.244   6.227  65.983  1.00  0.00    -0.103 A  
ENDROOT
BRANCH   7  11
HETATM   11  N   UNL     1     -10.219   5.772  69.520  1.00  0.00    -0.215 NA 
HETATM   12  C   UNL     1     -11.838   6.679  71.162  1.00  0.00    -0.360 C  
HETATM   13  C   UNL     1     -11.379   6.671  69.674  1.00  0.00    -0.329 C  
HETATM   14  N   UNL     1     -10.783   7.024  72.156  1.00  0.00    -0.214 NA 
HETATM   15  C   UNL     1      -9.118   6.071  70.466  1.00  0.00    -0.149 C  
HETATM   16  C   UNL     1      -9.653   6.084  71.917  1.00  0.00    -0.150 C  
BRANCH  14  17
HETATM   17  C   UNL     1     -10.319   8.427  72.054  1.00  0.00    -0.304 C  
BRANCH  17  18
HETATM   18  C   UNL     1     -11.317   9.416  71.410  1.00  0.00    -0.381 C  
BRANCH  18  19
HETATM   19  O   UNL     1     -10.715  10.168  70.314  1.00  0.00    -0.284 OA 
BRANCH  19  20
HETATM   20  C   UNL     1     -11.631  10.599  69.410  1.00  0.00    -0.280 C  
HETATM   21  O   UNL     1     -12.837  10.650  69.656  1.00  0.00    -0.177 OA 
BRANCH  20  22
HETATM   22  C   UNL     1     -11.103  11.058  68.080  1.00  0.00    -0.329 A  
HETATM   23  C   UNL     1     -10.165  10.147  67.531  1.00  0.00    -0.257 A  
HETATM   24  C   UNL     1      -9.531  10.385  66.319  1.00  0.00    -0.215 A  
HETATM   25  C   UNL     1      -9.834  11.541  65.614  1.00  0.00    -0.269 A  
HETATM   26  C   UNL     1     -10.765  12.449  66.128  1.00  0.00    -0.292 A  
HETATM   27  C   UNL     1     -11.416  12.245  67.365  1.00  0.00    -0.352 A  
BRANCH  27  28
HETATM   28  N   UNL     1     -12.274  13.249  67.864  1.00  0.00    -0.200 NA 
HETATM   29  H   UNL     1     -13.200  13.234  67.435  1.00  0.00     0.000 HD 
BRANCH  28  30
HETATM   30  C   UNL     1     -12.122  14.278  68.838  1.00  0.00    -0.279 A  
HETATM   31  C   UNL     1     -11.474  15.482  68.472  1.00  0.00    -0.369 A  
HETATM   32  C   UNL     1     -11.259  15.820  67.126  1.00  0.00    -0.110 A  
HETATM   33  C   UNL     1     -10.504  16.932  66.774  1.00  0.00    -0.260 A  
HETATM   34  C   UNL     1      -9.917  17.721  67.762  1.00  0.00    -0.322 A  
HETATM   35  C   UNL     1     -10.238  17.453  69.109  1.00  0.00    -0.273 A  
HETATM   36  C   UNL     1      -8.931  18.794  67.359  1.00  0.00    -0.272 C  
HETATM   37  C   UNL     1     -11.042  16.374  69.481  1.00  0.00    -0.293 A  
HETATM   38  F   UNL     1      -8.719  18.836  66.009  1.00  0.00    -0.292 F  
HETATM   39  F   UNL     1      -9.313  20.050  67.709  1.00  0.00    -0.397 F  
HETATM   40  F   UNL     1      -7.699  18.601  67.908  1.00  0.00    -0.242 F  
HETATM   41  N   UNL     1     -11.360  16.176  70.770  1.00  0.00    -0.395 NA 
HETATM   42  C   UNL     1     -12.109  15.088  71.083  1.00  0.00    -0.318 A  
HETATM   43  C   UNL     1     -12.489  14.110  70.167  1.00  0.00    -0.391 A  
ENDBRANCH  28  30
ENDBRANCH  27  28
ENDBRANCH  20  22
ENDBRANCH  19  20
ENDBRANCH  18  19
ENDBRANCH  17  18
ENDBRANCH  14  17
ENDBRANCH   7  11
TORSDOF 8
ENDMDL
MODEL       99
REMARK 921   NORMALIZED FREE ENERGY PREDICTED BY IDOCK:   -5.98 KCAL/MOL
REMARK 922        TOTAL FREE ENERGY PREDICTED BY IDOCK:  -12.17 KCAL/MOL
REMARK 923 INTER-LIGAND FREE ENERGY PREDICTED BY IDOCK:   -8.98 KCAL/MOL
REMARK 924 INTRA-LIGAND FREE ENERGY PREDICTED BY IDOCK:   -3.19 KCAL/MOL
REMARK 927      BINDING AFFINITY PREDICTED BY RF-SCORE:    0.00 PKD
ROOT
HETATM    1  F   UNL     1     -12.617   9.656  70.493  1.00  0.00    -0.261 F  
HETATM    2  C   UNL     1     -12.508   8.822  71.564  1.00  0.00    -0.326 C  
HETATM    3  C   UNL     1     -11.085   8.488  71.938  1.00  0.00    -0.395 A  
HETATM    4  F   UNL     1     -13.191   9.422  72.578  1.00  0.00    -0.459 F  
HETATM    5  F   UNL     1     -13.227   7.710  71.241  1.00  0.00    -0.349 F  
HETATM    6  C   UNL     1      -9.992   9.007  71.213  1.00  0.00    -0.381 A  
HETATM    7  C   UNL     1      -8.682   8.609  71.503  1.00  0.00    -0.202 A  
HETATM    8  C   UNL     1     -10.850   7.603  73.002  1.00  0.00    -0.457 A  
HETATM    9  C   UNL     1      -8.489   7.736  72.588  1.00  0.00    -0.182 A  
HETATM   10  C   UNL     1      -9.554   7.236  73.334  1.00  0.00    -0.272 A  
ENDROOT
BRANCH   7  11
HETATM   11  N   UNL     1      -7.560   8.979  70.755  1.00  0.00    -0.107 NA 
HETATM   12  C   UNL     1      -5.334   9.998  70.377  1.00  0.00    -0.047 C  
HETATM   13  C   UNL     1      -6.590   9.953  71.295  1.00  0.00     0.230 C  
HETATM   14  N   UNL     1      -5.600  10.281  68.939  1.00  0.00    -0.041 NA 
HETATM   15  C   UNL     1      -7.890   9.212  69.329  1.00  0.00    -0.095 C  
HETATM   16  C   UNL     1      -6.594   9.269  68.486  1.00  0.00    -0.054 C  
BRANCH  14  17
HETATM   17  C   UNL     1      -6.110  11.651  68.695  1.00  0.00    -0.051 C  
BRANCH  17  18
HETATM   18  C   UNL     1      -7.638  11.767  68.488  1.00  0.00    -0.131 C  
BRANCH  18  19
HETATM   19  O   UNL     1      -7.979  12.160  67.125  1.00  0.00    -0.167 OA 
BRANCH  19  20
HETATM   20  C   UNL     1      -8.836  13.211  67.082  1.00  0.00    -0.222 C  
HETATM   21  O   UNL     1      -8.713  14.201  67.806  1.00  0.00    -0.163 OA 
BRANCH  20  22
HETATM   22  C   UNL     1      -9.943  13.139  66.068  1.00  0.00    -0.283 A  
HETATM   23  C   UNL     1     -10.217  14.400  65.482  1.00  0.00    -0.386 A  
HETATM   24  C   UNL     1     -11.220  14.570  64.537  1.00  0.00    -0.302 A  
HETATM   25  C   UNL     1     -11.968  13.471  64.142  1.00  0.00    -0.498 A  
HETATM   26  C   UNL     1     -11.709  12.213  64.696  1.00  0.00    -0.400 A  
HETATM   27  C   UNL     1     -10.706  12.009  65.670  1.00  0.00    -0.272 A  
BRANCH  27  28
HETATM   28  N   UNL     1     -10.564  10.731  66.251  1.00  0.00    -0.226 NA 
HETATM   29  H   UNL     1     -11.076  10.630  67.128  1.00  0.00     0.000 HD 
BRANCH  28  30
HETATM   30  C   UNL     1      -9.858   9.551  65.874  1.00  0.00    -0.290 A  
HETATM   31  C   UNL     1      -9.973   8.393  66.680  1.00  0.00    -0.354 A  
HETATM   32  C   UNL     1     -10.986   8.268  67.644  1.00  0.00     0.088 A  
HETATM   33  C   UNL     1     -11.015   7.193  68.524  1.00  0.00    -0.080 A  
HETATM   34  C   UNL     1     -10.011   6.227  68.483  1.00  0.00    -0.163 A  
HETATM   35  C   UNL     1      -9.068   6.288  67.435  1.00  0.00    -0.111 A  
HETATM   36  C   UNL     1      -9.942   5.189  69.579  1.00  0.00    -0.231 C  
HETATM   37  C   UNL     1      -9.057   7.330  66.505  1.00  0.00    -0.155 A  
HETATM   38  F   UNL     1     -10.912   5.356  70.526  1.00  0.00    -0.328 F  
HETATM   39  F   UNL     1     -10.080   3.912  69.134  1.00  0.00    -0.191 F  
HETATM   40  F   UNL     1      -8.764   5.231  70.262  1.00  0.00    -0.112 F  
HETATM   41  N   UNL     1      -8.172   7.331  65.496  1.00  0.00    -0.135 NA 
HETATM   42  C   UNL     1      -8.175   8.388  64.645  1.00  0.00    -0.154 A  
HETATM   43  C   UNL     1      -8.973   9.519  64.804  1.00  0.00    -0.263 A  
ENDBRANCH  28  30
ENDBRANCH  27  28
ENDBRANCH  20  22
ENDBRANCH  19  20
ENDBRANCH  18  19
ENDBRANCH  17  18
ENDBRANCH  14  17
ENDBRANCH   7  11
TORSDOF 8
ENDMDL
MODEL      100
REMARK 921   NORMALIZED FREE ENERGY PREDICTED BY IDOCK:   -5.96 KCAL/MOL
REMARK 922        TOTAL FREE ENERGY PREDICTED BY IDOCK:  -12.15 KCAL/MOL
REMARK 923 INTER-LIGAND FREE ENERGY PREDICTED BY IDOCK:   -9.54 KCAL/MOL
REMARK 924 INTRA-LIGAND FREE ENERGY PREDICTED BY IDOCK:   -2.60 KCAL/MOL
REMARK 927      BINDING AFFINITY PREDICTED BY RF-SCORE:    0.00 PKD
ROOT
HETATM    1  F   UNL     1      -5.560   4.879  67.228  1.00  0.00    -0.011 F  
HETATM    2  C   UNL     1      -6.693   4.133  67.351  1.00  0.00    -0.047 C  
HETATM    3  C   UNL     1      -7.954   4.864  66.967  1.00  0.00    -0.103 A  
HETATM    4  F   UNL     1      -6.487   3.012  66.604  1.00  0.00    -0.032 F  
HETATM    5  F   UNL     1      -6.718   3.712  68.648  1.00  0.00    -0.041 F  
HETATM    6  C   UNL     1      -7.924   6.205  66.532  1.00  0.00    -0.105 A  
HETATM    7  C   UNL     1      -9.108   6.907  66.279  1.00  0.00    -0.141 A  
HETATM    8  C   UNL     1      -9.188   4.208  67.094  1.00  0.00    -0.176 A  
HETATM    9  C   UNL     1     -10.321   6.207  66.399  1.00  0.00    -0.102 A  
HETATM   10  C   UNL     1     -10.369   4.874  66.800  1.00  0.00    -0.264 A  
ENDROOT
BRANCH   7  11
HETATM   11  N   UNL     1      -9.168   8.268  65.964  1.00  0.00    -0.188 NA 
HETATM   12  C   UNL     1      -8.344  10.408  65.024  1.00  0.00    -0.166 C  
HETATM   13  C   UNL     1      -7.953   8.992  65.538  1.00  0.00    -0.106 C  
HETATM   14  N   UNL     1      -9.132  11.241  65.976  1.00  0.00    -0.206 NA 
HETATM   15  C   UNL     1      -9.993   9.030  66.930  1.00  0.00    -0.246 C  
HETATM   16  C   UNL     1     -10.321  10.431  66.362  1.00  0.00    -0.213 C  
BRANCH  14  17
HETATM   17  C   UNL     1      -8.365  11.639  67.179  1.00  0.00    -0.164 C  
BRANCH  17  18
HETATM   18  C   UNL     1      -9.205  12.202  68.350  1.00  0.00    -0.154 C  
BRANCH  18  19
HETATM   19  O   UNL     1      -9.684  13.554  68.081  1.00  0.00    -0.221 OA 
BRANCH  19  20
HETATM   20  C   UNL     1     -11.038  13.640  68.088  1.00  0.00    -0.256 C  
HETATM   21  O   UNL     1     -11.722  13.453  67.079  1.00  0.00    -0.339 OA 
BRANCH  20  22
HETATM   22  C   UNL     1     -11.690  13.939  69.408  1.00  0.00    -0.367 A  
HETATM   23  C   UNL     1     -11.838  15.331  69.630  1.00  0.00    -0.363 A  
HETATM   24  C   UNL     1     -12.393  15.834  70.799  1.00  0.00    -0.435 A  
HETATM   25  C   UNL     1     -12.831  14.950  71.774  1.00  0.00    -0.404 A  
HETATM   26  C   UNL     1     -12.708  13.572  71.574  1.00  0.00    -0.412 A  
HETATM   27  C   UNL     1     -12.134  13.027  70.403  1.00  0.00    -0.314 A  
BRANCH  27  28
HETATM   28  N   UNL     1     -11.958  11.630  70.311  1.00  0.00    -0.365 NA 
HETATM   29  H   UNL     1     -11.485  11.341  69.454  1.00  0.00     0.000 HD 
BRANCH  28  30
HETATM   30  C   UNL     1     -12.300  10.536  71.159  1.00  0.00    -0.405 A  
HETATM   31  C   UNL     1     -11.455   9.401  71.193  1.00  0.00    -0.422 A  
HETATM   32  C   UNL     1     -10.152   9.441  70.670  1.00  0.00    -0.356 A  
HETATM   33  C   UNL     1      -9.376   8.291  70.581  1.00  0.00    -0.172 A  
HETATM   34  C   UNL     1      -9.896   7.063  70.985  1.00  0.00    -0.185 A  
HETATM   35  C   UNL     1     -11.153   7.047  71.624  1.00  0.00    -0.264 A  
HETATM   36  C   UNL     1      -9.121   5.800  70.685  1.00  0.00    -0.151 C  
HETATM   37  C   UNL     1     -11.925   8.201  71.776  1.00  0.00    -0.305 A  
HETATM   38  F   UNL     1      -7.962   6.042  70.002  1.00  0.00    -0.099 F  
HETATM   39  F   UNL     1      -8.755   5.104  71.793  1.00  0.00    -0.122 F  
HETATM   40  F   UNL     1      -9.823   4.933  69.902  1.00  0.00    -0.212 F  
HETATM   41  N   UNL     1     -13.097   8.155  72.427  1.00  0.00    -0.172 NA 
HETATM   42  C   UNL     1     -13.828   9.296  72.509  1.00  0.00    -0.384 A  
HETATM   43  C   UNL     1     -13.486  10.490  71.879  1.00  0.00    -0.358 A  
ENDBRANCH  28  30
ENDBRANCH  27  28
ENDBRANCH  20  22
ENDBRANCH  19  20
ENDBRANCH  18  19
ENDBRANCH  17  18
ENDBRANCH  14  17
ENDBRANCH   7  11
TORSDOF 8
ENDMDL
MODEL      101
REMARK 921   NORMALIZED FREE ENERGY PREDICTED BY IDOCK:   -5.95 KCAL/MOL
REMARK 922        TOTAL FREE ENERGY PREDICTED BY IDOCK:  -12.13 KCAL/MOL
REMARK 923 INTER-LIGAND FREE ENERGY PREDICTED BY IDOCK:   -8.87 KCAL/MOL
REMARK 924 INTRA-LIGAND FREE ENERGY PREDICTED BY IDOCK:   -3.26 KCAL/MOL
REMARK 927      BINDING AFFINITY PREDICTED BY RF-SCORE:    0.00 PKD
ROOT
HETATM    1  F   UNL     1     -10.660  13.830  64.091  1.00  0.00    -0.397 F  
HETATM    2  C   UNL     1     -11.205  14.601  65.073  1.00  0.00    -0.386 C  
HETATM    3  C   UNL     1     -10.440  14.572  66.372  1.00  0.00    -0.295 A  
HETATM    4  F   UNL     1     -11.307  15.855  64.551  1.00  0.00    -0.435 F  
HETATM    5  F   UNL     1     -12.486  14.158  65.222  1.00  0.00    -0.402 F  
HETATM    6  C   UNL     1      -9.273  13.796  66.522  1.00  0.00    -0.210 A  
HETATM    7  C   UNL     1      -8.630  13.693  67.761  1.00  0.00    -0.182 A  
HETATM    8  C   UNL     1     -10.932  15.297  67.468  1.00  0.00    -0.315 A  
HETATM    9  C   UNL     1      -9.144  14.451  68.828  1.00  0.00    -0.133 A  
HETATM   10  C   UNL     1     -10.279  15.246  68.692  1.00  0.00    -0.223 A  
ENDROOT
BRANCH   7  11
HETATM   11  N   UNL     1      -7.544  12.851  68.021  1.00  0.00    -0.123 NA 
HETATM   12  C   UNL     1      -5.553  11.492  67.451  1.00  0.00    -0.072 C  
HETATM   13  C   UNL     1      -6.853  12.160  66.915  1.00  0.00     0.007 C  
HETATM   14  N   UNL     1      -5.735  10.566  68.603  1.00  0.00    -0.041 NA 
HETATM   15  C   UNL     1      -7.779  11.982  69.198  1.00  0.00     0.203 C  
HETATM   16  C   UNL     1      -6.450  11.338  69.657  1.00  0.00    -0.132 C  
BRANCH  14  17
HETATM   17  C   UNL     1      -6.494   9.341  68.256  1.00  0.00    -0.055 C  
BRANCH  17  18
HETATM   18  C   UNL     1      -6.380   8.176  69.267  1.00  0.00    -0.039 C  
BRANCH  18  19
HETATM   19  O   UNL     1      -7.491   7.237  69.149  1.00  0.00    -0.089 OA 
BRANCH  19  20
HETATM   20  C   UNL     1      -7.554   6.368  70.189  1.00  0.00    -0.096 C  
HETATM   21  O   UNL     1      -7.154   5.204  70.110  1.00  0.00    -0.051 OA 
BRANCH  20  22
HETATM   22  C   UNL     1      -8.106   6.899  71.481  1.00  0.00    -0.109 A  
HETATM   23  C   UNL     1      -7.244   6.646  72.578  1.00  0.00    -0.084 A  
HETATM   24  C   UNL     1      -7.569   7.028  73.873  1.00  0.00    -0.116 A  
HETATM   25  C   UNL     1      -8.765   7.692  74.101  1.00  0.00    -0.290 A  
HETATM   26  C   UNL     1      -9.626   7.967  73.034  1.00  0.00    -0.341 A  
HETATM   27  C   UNL     1      -9.334   7.578  71.707  1.00  0.00    -0.144 A  
BRANCH  27  28
HETATM   28  N   UNL     1     -10.292   7.806  70.697  1.00  0.00    -0.201 NA 
HETATM   29  H   UNL     1     -10.647   6.945  70.279  1.00  0.00     0.000 HD 
BRANCH  28  30
HETATM   30  C   UNL     1     -10.871   8.982  70.137  1.00  0.00    -0.237 A  
HETATM   31  C   UNL     1     -10.717   9.233  68.752  1.00  0.00    -0.184 A  
HETATM   32  C   UNL     1     -10.294   8.227  67.868  1.00  0.00    -0.278 A  
HETATM   33  C   UNL     1     -10.014   8.510  66.536  1.00  0.00    -0.350 A  
HETATM   34  C   UNL     1     -10.120   9.816  66.061  1.00  0.00    -0.322 A  
HETATM   35  C   UNL     1     -10.664  10.796  66.917  1.00  0.00    -0.309 A  
HETATM   36  C   UNL     1      -9.609  10.139  64.675  1.00  0.00    -0.315 C  
HETATM   37  C   UNL     1     -11.006  10.519  68.242  1.00  0.00    -0.263 A  
HETATM   38  F   UNL     1      -9.063   9.055  64.047  1.00  0.00    -0.186 F  
HETATM   39  F   UNL     1     -10.567  10.606  63.832  1.00  0.00    -0.414 F  
HETATM   40  F   UNL     1      -8.622  11.078  64.691  1.00  0.00    -0.150 F  
HETATM   41  N   UNL     1     -11.562  11.467  69.013  1.00  0.00    -0.288 NA 
HETATM   42  C   UNL     1     -11.836  11.158  70.306  1.00  0.00    -0.366 A  
HETATM   43  C   UNL     1     -11.492   9.953  70.912  1.00  0.00    -0.456 A  
ENDBRANCH  28  30
ENDBRANCH  27  28
ENDBRANCH  20  22
ENDBRANCH  19  20
ENDBRANCH  18  19
ENDBRANCH  17  18
ENDBRANCH  14  17
ENDBRANCH   7  11
TORSDOF 8
ENDMDL
MODEL      102
REMARK 921   NORMALIZED FREE ENERGY PREDICTED BY IDOCK:   -5.94 KCAL/MOL
REMARK 922        TOTAL FREE ENERGY PREDICTED BY IDOCK:  -12.12 KCAL/MOL
REMARK 923 INTER-LIGAND FREE ENERGY PREDICTED BY IDOCK:   -9.80 KCAL/MOL
REMARK 924 INTRA-LIGAND FREE ENERGY PREDICTED BY IDOCK:   -2.32 KCAL/MOL
REMARK 927      BINDING AFFINITY PREDICTED BY RF-SCORE:    0.00 PKD
ROOT
HETATM    1  F   UNL     1     -11.868   9.174  70.096  1.00  0.00    -0.186 F  
HETATM    2  C   UNL     1     -12.358   9.825  71.187  1.00  0.00    -0.359 C  
HETATM    3  C   UNL     1     -12.580  11.302  70.973  1.00  0.00    -0.495 A  
HETATM    4  F   UNL     1     -13.500   9.168  71.535  1.00  0.00    -0.352 F  
HETATM    5  F   UNL     1     -11.471   9.581  72.193  1.00  0.00    -0.412 F  
HETATM    6  C   UNL     1     -12.284  11.918  69.739  1.00  0.00    -0.241 A  
HETATM    7  C   UNL     1     -12.394  13.305  69.583  1.00  0.00    -0.097 A  
HETATM    8  C   UNL     1     -13.043  12.083  72.042  1.00  0.00    -0.456 A  
HETATM    9  C   UNL     1     -12.880  14.048  70.673  1.00  0.00    -0.320 A  
HETATM   10  C   UNL     1     -13.204  13.453  71.889  1.00  0.00    -0.522 A  
ENDROOT
BRANCH   7  11
HETATM   11  N   UNL     1     -12.005  14.004  68.437  1.00  0.00    -0.357 NA 
HETATM   12  C   UNL     1     -11.999  14.557  66.021  1.00  0.00    -0.311 C  
HETATM   13  C   UNL     1     -12.327  13.479  67.095  1.00  0.00    -0.173 C  
HETATM   14  N   UNL     1     -10.606  15.084  66.047  1.00  0.00    -0.308 NA 
HETATM   15  C   UNL     1     -10.623  14.529  68.543  1.00  0.00    -0.252 C  
HETATM   16  C   UNL     1     -10.364  15.574  67.433  1.00  0.00    -0.266 C  
BRANCH  14  17
HETATM   17  C   UNL     1      -9.589  14.073  65.672  1.00  0.00    -0.057 C  
BRANCH  17  18
HETATM   18  C   UNL     1     -10.146  12.716  65.182  1.00  0.00    -0.237 C  
BRANCH  18  19
HETATM   19  O   UNL     1      -9.891  11.641  66.135  1.00  0.00    -0.210 OA 
BRANCH  19  20
HETATM   20  C   UNL     1      -8.606  11.209  66.104  1.00  0.00    -0.172 C  
HETATM   21  O   UNL     1      -8.058  10.820  65.071  1.00  0.00    -0.094 OA 
BRANCH  20  22
HETATM   22  C   UNL     1      -7.845  11.259  67.399  1.00  0.00    -0.128 A  
HETATM   23  C   UNL     1      -7.418  12.571  67.721  1.00  0.00    -0.130 A  
HETATM   24  C   UNL     1      -6.676  12.845  68.863  1.00  0.00    -0.097 A  
HETATM   25  C   UNL     1      -6.354  11.806  69.723  1.00  0.00    -0.125 A  
HETATM   26  C   UNL     1      -6.775  10.503  69.435  1.00  0.00    -0.076 A  
HETATM   27  C   UNL     1      -7.518  10.189  68.276  1.00  0.00    -0.082 A  
BRANCH  27  28
HETATM   28  N   UNL     1      -7.827   8.839  68.003  1.00  0.00    -0.102 NA 
HETATM   29  H   UNL     1      -7.006   8.276  67.780  1.00  0.00     0.000 HD 
BRANCH  28  30
HETATM   30  C   UNL     1      -9.042   8.095  67.974  1.00  0.00    -0.133 A  
HETATM   31  C   UNL     1      -9.458   7.408  69.140  1.00  0.00    -0.149 A  
HETATM   32  C   UNL     1      -8.890   7.684  70.395  1.00  0.00    -0.144 A  
HETATM   33  C   UNL     1      -9.201   6.916  71.511  1.00  0.00    -0.151 A  
HETATM   34  C   UNL     1     -10.066   5.829  71.393  1.00  0.00    -0.249 A  
HETATM   35  C   UNL     1     -10.729   5.632  70.164  1.00  0.00    -0.376 A  
HETATM   36  C   UNL     1     -10.223   4.883  72.563  1.00  0.00    -0.195 C  
HETATM   37  C   UNL     1     -10.474   6.429  69.046  1.00  0.00    -0.224 A  
HETATM   38  F   UNL     1      -9.439   5.226  73.628  1.00  0.00    -0.131 F  
HETATM   39  F   UNL     1     -11.491   4.817  73.047  1.00  0.00    -0.320 F  
HETATM   40  F   UNL     1      -9.865   3.607  72.251  1.00  0.00    -0.186 F  
HETATM   41  N   UNL     1     -11.156   6.239  67.906  1.00  0.00    -0.327 NA 
HETATM   42  C   UNL     1     -10.840   7.012  66.837  1.00  0.00    -0.280 A  
HETATM   43  C   UNL     1      -9.788   7.926  66.815  1.00  0.00    -0.318 A  
ENDBRANCH  28  30
ENDBRANCH  27  28
ENDBRANCH  20  22
ENDBRANCH  19  20
ENDBRANCH  18  19
ENDBRANCH  17  18
ENDBRANCH  14  17
ENDBRANCH   7  11
TORSDOF 8
ENDMDL
MODEL      103
REMARK 921   NORMALIZED FREE ENERGY PREDICTED BY IDOCK:   -5.94 KCAL/MOL
REMARK 922        TOTAL FREE ENERGY PREDICTED BY IDOCK:  -12.12 KCAL/MOL
REMARK 923 INTER-LIGAND FREE ENERGY PREDICTED BY IDOCK:   -9.29 KCAL/MOL
REMARK 924 INTRA-LIGAND FREE ENERGY PREDICTED BY IDOCK:   -2.83 KCAL/MOL
REMARK 927      BINDING AFFINITY PREDICTED BY RF-SCORE:    0.00 PKD
ROOT
HETATM    1  F   UNL     1      -6.543   9.646  71.667  1.00  0.00    -0.011 F  
HETATM    2  C   UNL     1      -6.245   9.083  70.463  1.00  0.00    -0.045 C  
HETATM    3  C   UNL     1      -5.995  10.084  69.362  1.00  0.00    -0.037 A  
HETATM    4  F   UNL     1      -5.176   8.268  70.684  1.00  0.00    -0.023 F  
HETATM    5  F   UNL     1      -7.288   8.254  70.175  1.00  0.00    -0.052 F  
HETATM    6  C   UNL     1      -6.081  11.472  69.597  1.00  0.00    -0.114 A  
HETATM    7  C   UNL     1      -5.951  12.389  68.547  1.00  0.00    -0.055 A  
HETATM    8  C   UNL     1      -5.720   9.618  68.067  1.00  0.00    -0.040 A  
HETATM    9  C   UNL     1      -5.657  11.881  67.269  1.00  0.00    -0.125 A  
HETATM   10  C   UNL     1      -5.540  10.516  67.024  1.00  0.00    -0.043 A  
ENDROOT
BRANCH   7  11
HETATM   11  N   UNL     1      -6.144  13.768  68.674  1.00  0.00    -0.082 NA 
HETATM   12  C   UNL     1      -6.947  15.846  69.758  1.00  0.00    -0.072 C  
HETATM   13  C   UNL     1      -7.107  14.301  69.658  1.00  0.00    -0.007 C  
HETATM   14  N   UNL     1      -7.063  16.587  68.471  1.00  0.00    -0.156 NA 
HETATM   15  C   UNL     1      -6.216  14.446  67.359  1.00  0.00     0.208 C  
HETATM   16  C   UNL     1      -6.074  15.976  67.541  1.00  0.00    -0.159 C  
BRANCH  14  17
HETATM   17  C   UNL     1      -8.423  16.536  67.886  1.00  0.00    -0.181 C  
BRANCH  17  18
HETATM   18  C   UNL     1      -9.504  17.350  68.636  1.00  0.00    -0.280 C  
BRANCH  18  19
HETATM   19  O   UNL     1     -10.039  16.624  69.784  1.00  0.00    -0.124 OA 
BRANCH  19  20
HETATM   20  C   UNL     1     -11.289  16.147  69.565  1.00  0.00    -0.321 C  
HETATM   21  O   UNL     1     -11.845  16.214  68.467  1.00  0.00    -0.300 OA 
BRANCH  20  22
HETATM   22  C   UNL     1     -11.972  15.483  70.727  1.00  0.00    -0.420 A  
HETATM   23  C   UNL     1     -11.973  16.298  71.886  1.00  0.00    -0.513 A  
HETATM   24  C   UNL     1     -12.529  15.872  73.085  1.00  0.00    -0.608 A  
HETATM   25  C   UNL     1     -13.115  14.617  73.149  1.00  0.00    -0.580 A  
HETATM   26  C   UNL     1     -13.138  13.798  72.016  1.00  0.00    -0.485 A  
HETATM   27  C   UNL     1     -12.569  14.195  70.785  1.00  0.00    -0.362 A  
BRANCH  27  28
HETATM   28  N   UNL     1     -12.547  13.279  69.712  1.00  0.00    -0.001 NA 
HETATM   29  H   UNL     1     -13.417  13.268  69.177  1.00  0.00     0.000 HD 
BRANCH  28  30
HETATM   30  C   UNL     1     -11.570  12.368  69.214  1.00  0.00    -0.319 A  
HETATM   31  C   UNL     1     -11.336  11.160  69.914  1.00  0.00    -0.348 A  
HETATM   32  C   UNL     1     -12.234  10.689  70.885  1.00  0.00    -0.497 A  
HETATM   33  C   UNL     1     -11.935   9.578  71.665  1.00  0.00    -0.474 A  
HETATM   34  C   UNL     1     -10.713   8.926  71.515  1.00  0.00    -0.398 A  
HETATM   35  C   UNL     1      -9.870   9.323  70.456  1.00  0.00    -0.310 A  
HETATM   36  C   UNL     1     -10.320   7.859  72.511  1.00  0.00    -0.285 C  
HETATM   37  C   UNL     1     -10.179  10.401  69.624  1.00  0.00    -0.209 A  
HETATM   38  F   UNL     1     -11.255   7.681  73.491  1.00  0.00    -0.411 F  
HETATM   39  F   UNL     1     -10.133   6.633  71.956  1.00  0.00    -0.182 F  
HETATM   40  F   UNL     1      -9.166   8.162  73.169  1.00  0.00    -0.265 F  
HETATM   41  N   UNL     1      -9.373  10.722  68.600  1.00  0.00    -0.177 NA 
HETATM   42  C   UNL     1      -9.697  11.805  67.848  1.00  0.00    -0.185 A  
HETATM   43  C   UNL     1     -10.759  12.662  68.126  1.00  0.00    -0.242 A  
ENDBRANCH  28  30
ENDBRANCH  27  28
ENDBRANCH  20  22
ENDBRANCH  19  20
ENDBRANCH  18  19
ENDBRANCH  17  18
ENDBRANCH  14  17
ENDBRANCH   7  11
TORSDOF 8
ENDMDL
MODEL      104
REMARK 921   NORMALIZED FREE ENERGY PREDICTED BY IDOCK:   -5.93 KCAL/MOL
REMARK 922        TOTAL FREE ENERGY PREDICTED BY IDOCK:  -12.11 KCAL/MOL
REMARK 923 INTER-LIGAND FREE ENERGY PREDICTED BY IDOCK:  -10.90 KCAL/MOL
REMARK 924 INTRA-LIGAND FREE ENERGY PREDICTED BY IDOCK:   -1.21 KCAL/MOL
REMARK 927      BINDING AFFINITY PREDICTED BY RF-SCORE:    0.00 PKD
ROOT
HETATM    1  F   UNL     1      -9.934  20.623  67.846  1.00  0.00    -0.529 F  
HETATM    2  C   UNL     1      -9.595  19.780  66.831  1.00  0.00    -0.377 C  
HETATM    3  C   UNL     1      -9.986  18.343  67.070  1.00  0.00    -0.355 A  
HETATM    4  F   UNL     1     -10.164  20.299  65.707  1.00  0.00    -0.532 F  
HETATM    5  F   UNL     1      -8.250  19.924  66.665  1.00  0.00    -0.288 F  
HETATM    6  C   UNL     1     -10.636  17.945  68.257  1.00  0.00    -0.314 A  
HETATM    7  C   UNL     1     -10.901  16.595  68.515  1.00  0.00    -0.356 A  
HETATM    8  C   UNL     1      -9.650  17.377  66.110  1.00  0.00    -0.213 A  
HETATM    9  C   UNL     1     -10.565  15.662  67.518  1.00  0.00    -0.297 A  
HETATM   10  C   UNL     1      -9.949  16.039  66.328  1.00  0.00    -0.329 A  
ENDROOT
BRANCH   7  11
HETATM   11  N   UNL     1     -11.427  16.108  69.715  1.00  0.00    -0.311 NA 
HETATM   12  C   UNL     1     -11.354  14.994  71.927  1.00  0.00    -0.201 C  
HETATM   13  C   UNL     1     -10.643  15.183  70.556  1.00  0.00    -0.091 C  
HETATM   14  N   UNL     1     -12.774  14.548  71.858  1.00  0.00    -0.326 NA 
HETATM   15  C   UNL     1     -12.850  15.715  69.583  1.00  0.00     0.371 C  
HETATM   16  C   UNL     1     -13.481  15.524  70.982  1.00  0.00    -0.368 C  
BRANCH  14  17
HETATM   17  C   UNL     1     -12.930  13.173  71.329  1.00  0.00    -0.254 C  
BRANCH  17  18
HETATM   18  C   UNL     1     -11.712  12.609  70.560  1.00  0.00     0.126 C  
BRANCH  18  19
HETATM   19  O   UNL     1     -11.843  12.790  69.118  1.00  0.00    -0.298 OA 
BRANCH  19  20
HETATM   20  C   UNL     1     -11.791  11.617  68.437  1.00  0.00    -0.278 C  
HETATM   21  O   UNL     1     -12.149  10.545  68.930  1.00  0.00    -0.286 OA 
BRANCH  20  22
HETATM   22  C   UNL     1     -11.308  11.682  67.016  1.00  0.00    -0.373 A  
HETATM   23  C   UNL     1     -11.981  12.677  66.265  1.00  0.00    -0.439 A  
HETATM   24  C   UNL     1     -11.711  12.894  64.920  1.00  0.00    -0.388 A  
HETATM   25  C   UNL     1     -10.742  12.123  64.295  1.00  0.00    -0.380 A  
HETATM   26  C   UNL     1     -10.054  11.143  65.017  1.00  0.00    -0.338 A  
HETATM   27  C   UNL     1     -10.315  10.887  66.382  1.00  0.00    -0.251 A  
BRANCH  27  28
HETATM   28  N   UNL     1      -9.649   9.821  67.021  1.00  0.00    -0.166 NA 
HETATM   29  H   UNL     1      -9.805   8.920  66.567  1.00  0.00     0.000 HD 
BRANCH  28  30
HETATM   30  C   UNL     1      -8.803   9.733  68.165  1.00  0.00    -0.119 A  
HETATM   31  C   UNL     1      -9.189   8.903  69.245  1.00  0.00    -0.145 A  
HETATM   32  C   UNL     1     -10.199   7.937  69.102  1.00  0.00    -0.219 A  
HETATM   33  C   UNL     1     -10.669   7.220  70.196  1.00  0.00    -0.260 A  
HETATM   34  C   UNL     1     -10.162   7.473  71.470  1.00  0.00    -0.208 A  
HETATM   35  C   UNL     1      -9.065   8.351  71.590  1.00  0.00    -0.268 A  
HETATM   36  C   UNL     1     -10.832   6.840  72.668  1.00  0.00    -0.250 C  
HETATM   37  C   UNL     1      -8.539   9.038  70.494  1.00  0.00    -0.201 A  
HETATM   38  F   UNL     1     -11.915   6.080  72.327  1.00  0.00    -0.348 F  
HETATM   39  F   UNL     1     -10.017   6.018  73.381  1.00  0.00    -0.159 F  
HETATM   40  F   UNL     1     -11.307   7.765  73.548  1.00  0.00    -0.373 F  
HETATM   41  N   UNL     1      -7.467   9.832  70.639  1.00  0.00    -0.295 NA 
HETATM   42  C   UNL     1      -7.023  10.510  69.551  1.00  0.00    -0.114 A  
HETATM   43  C   UNL     1      -7.663  10.512  68.314  1.00  0.00    -0.101 A  
ENDBRANCH  28  30
ENDBRANCH  27  28
ENDBRANCH  20  22
ENDBRANCH  19  20
ENDBRANCH  18  19
ENDBRANCH  17  18
ENDBRANCH  14  17
ENDBRANCH   7  11
TORSDOF 8
ENDMDL
MODEL      105
REMARK 921   NORMALIZED FREE ENERGY PREDICTED BY IDOCK:   -5.90 KCAL/MOL
REMARK 922        TOTAL FREE ENERGY PREDICTED BY IDOCK:  -12.06 KCAL/MOL
REMARK 923 INTER-LIGAND FREE ENERGY PREDICTED BY IDOCK:  -10.36 KCAL/MOL
REMARK 924 INTRA-LIGAND FREE ENERGY PREDICTED BY IDOCK:   -1.70 KCAL/MOL
REMARK 927      BINDING AFFINITY PREDICTED BY RF-SCORE:    0.00 PKD
ROOT
HETATM    1  F   UNL     1     -10.070  18.666  69.115  1.00  0.00    -0.399 F  
HETATM    2  C   UNL     1     -10.261  18.715  67.768  1.00  0.00    -0.386 C  
HETATM    3  C   UNL     1     -10.459  17.364  67.127  1.00  0.00    -0.305 A  
HETATM    4  F   UNL     1     -11.318  19.551  67.568  1.00  0.00    -0.507 F  
HETATM    5  F   UNL     1      -9.174  19.367  67.264  1.00  0.00    -0.317 F  
HETATM    6  C   UNL     1     -10.433  16.177  67.889  1.00  0.00    -0.290 A  
HETATM    7  C   UNL     1     -10.513  14.924  67.271  1.00  0.00    -0.263 A  
HETATM    8  C   UNL     1     -10.623  17.288  65.735  1.00  0.00    -0.198 A  
HETATM    9  C   UNL     1     -10.696  14.892  65.878  1.00  0.00    -0.329 A  
HETATM   10  C   UNL     1     -10.753  16.054  65.113  1.00  0.00    -0.429 A  
ENDROOT
BRANCH   7  11
HETATM   11  N   UNL     1     -10.371  13.704  67.940  1.00  0.00    -0.243 NA 
HETATM   12  C   UNL     1      -9.253  11.579  68.550  1.00  0.00    -0.167 C  
HETATM   13  C   UNL     1      -9.359  12.723  67.500  1.00  0.00    -0.189 C  
HETATM   14  N   UNL     1     -10.531  10.887  68.877  1.00  0.00    -0.194 NA 
HETATM   15  C   UNL     1     -11.680  13.089  68.264  1.00  0.00    -0.353 C  
HETATM   16  C   UNL     1     -11.491  11.948  69.292  1.00  0.00    -0.306 C  
BRANCH  14  17
HETATM   17  C   UNL     1     -11.083  10.107  67.745  1.00  0.00    -0.227 C  
BRANCH  17  18
HETATM   18  C   UNL     1     -10.039   9.537  66.756  1.00  0.00    -0.245 C  
BRANCH  18  19
HETATM   19  O   UNL     1     -10.161   8.091  66.602  1.00  0.00    -0.268 OA 
BRANCH  19  20
HETATM   20  C   UNL     1      -8.962   7.457  66.651  1.00  0.00    -0.146 C  
HETATM   21  O   UNL     1      -8.061   7.794  67.422  1.00  0.00    -0.119 OA 
BRANCH  20  22
HETATM   22  C   UNL     1      -8.784   6.278  65.737  1.00  0.00    -0.145 A  
HETATM   23  C   UNL     1      -8.021   6.599  64.588  1.00  0.00    -0.113 A  
HETATM   24  C   UNL     1      -7.754   5.665  63.596  1.00  0.00    -0.095 A  
HETATM   25  C   UNL     1      -8.236   4.373  63.739  1.00  0.00    -0.100 A  
HETATM   26  C   UNL     1      -8.981   4.026  64.871  1.00  0.00    -0.134 A  
HETATM   27  C   UNL     1      -9.283   4.956  65.890  1.00  0.00    -0.155 A  
BRANCH  27  28
HETATM   28  N   UNL     1     -10.118   4.559  66.956  1.00  0.00    -0.178 NA 
HETATM   29  H   UNL     1     -11.104   4.513  66.698  1.00  0.00     0.000 HD 
BRANCH  28  30
HETATM   30  C   UNL     1      -9.878   4.209  68.317  1.00  0.00    -0.013 A  
HETATM   31  C   UNL     1     -10.261   5.112  69.338  1.00  0.00    -0.293 A  
HETATM   32  C   UNL     1     -11.138   6.178  69.083  1.00  0.00    -0.448 A  
HETATM   33  C   UNL     1     -11.404   7.140  70.051  1.00  0.00    -0.242 A  
HETATM   34  C   UNL     1     -10.774   7.076  71.292  1.00  0.00    -0.243 A  
HETATM   35  C   UNL     1      -9.995   5.939  71.588  1.00  0.00    -0.213 A  
HETATM   36  C   UNL     1     -10.911   8.240  72.248  1.00  0.00    -0.348 C  
HETATM   37  C   UNL     1      -9.762   4.932  70.649  1.00  0.00    -0.201 A  
HETATM   38  F   UNL     1     -11.656   9.262  71.732  1.00  0.00    -0.389 F  
HETATM   39  F   UNL     1     -11.503   7.914  73.427  1.00  0.00    -0.394 F  
HETATM   40  F   UNL     1      -9.709   8.797  72.564  1.00  0.00    -0.349 F  
HETATM   41  N   UNL     1      -9.050   3.844  70.981  1.00  0.00    -0.108 NA 
HETATM   42  C   UNL     1      -8.816   2.916  70.019  1.00  0.00    -0.087 A  
HETATM   43  C   UNL     1      -9.185   3.063  68.684  1.00  0.00    -0.231 A  
ENDBRANCH  28  30
ENDBRANCH  27  28
ENDBRANCH  20  22
ENDBRANCH  19  20
ENDBRANCH  18  19
ENDBRANCH  17  18
ENDBRANCH  14  17
ENDBRANCH   7  11
TORSDOF 8
ENDMDL
MODEL      106
REMARK 921   NORMALIZED FREE ENERGY PREDICTED BY IDOCK:   -5.90 KCAL/MOL
REMARK 922        TOTAL FREE ENERGY PREDICTED BY IDOCK:  -12.06 KCAL/MOL
REMARK 923 INTER-LIGAND FREE ENERGY PREDICTED BY IDOCK:  -10.26 KCAL/MOL
REMARK 924 INTRA-LIGAND FREE ENERGY PREDICTED BY IDOCK:   -1.79 KCAL/MOL
REMARK 927      BINDING AFFINITY PREDICTED BY RF-SCORE:    0.00 PKD
ROOT
HETATM    1  F   UNL     1      -6.047  16.434  66.493  1.00  0.00    -0.146 F  
HETATM    2  C   UNL     1      -6.499  17.390  67.351  1.00  0.00    -0.146 C  
HETATM    3  C   UNL     1      -7.994  17.376  67.553  1.00  0.00    -0.205 A  
HETATM    4  F   UNL     1      -5.811  17.207  68.513  1.00  0.00    -0.133 F  
HETATM    5  F   UNL     1      -6.061  18.577  66.846  1.00  0.00    -0.158 F  
HETATM    6  C   UNL     1      -8.817  16.445  66.886  1.00  0.00    -0.232 A  
HETATM    7  C   UNL     1     -10.211  16.507  66.998  1.00  0.00    -0.288 A  
HETATM    8  C   UNL     1      -8.578  18.343  68.385  1.00  0.00    -0.345 A  
HETATM    9  C   UNL     1     -10.755  17.479  67.856  1.00  0.00    -0.340 A  
HETATM   10  C   UNL     1      -9.956  18.387  68.545  1.00  0.00    -0.415 A  
ENDROOT
BRANCH   7  11
HETATM   11  N   UNL     1     -11.098  15.703  66.276  1.00  0.00    -0.200 NA 
HETATM   12  C   UNL     1     -12.436  13.670  65.809  1.00  0.00    -0.477 C  
HETATM   13  C   UNL     1     -11.224  14.264  66.584  1.00  0.00    -0.334 C  
HETATM   14  N   UNL     1     -12.421  13.882  64.335  1.00  0.00    -0.659 NA 
HETATM   15  C   UNL     1     -11.056  15.988  64.823  1.00  0.00    -0.365 C  
HETATM   16  C   UNL     1     -12.276  15.348  64.119  1.00  0.00    -0.057 C  
BRANCH  14  17
HETATM   17  C   UNL     1     -11.332  13.149  63.648  1.00  0.00    -0.257 C  
BRANCH  17  18
HETATM   18  C   UNL     1     -11.439  11.606  63.683  1.00  0.00    -0.363 C  
BRANCH  18  19
HETATM   19  O   UNL     1     -10.143  10.962  63.499  1.00  0.00    -0.324 OA 
BRANCH  19  20
HETATM   20  C   UNL     1      -9.623  10.492  64.660  1.00  0.00    -0.292 C  
HETATM   21  O   UNL     1     -10.236  10.530  65.729  1.00  0.00    -0.255 OA 
BRANCH  20  22
HETATM   22  C   UNL     1      -8.254   9.875  64.587  1.00  0.00    -0.153 A  
HETATM   23  C   UNL     1      -7.558  10.251  63.411  1.00  0.00    -0.112 A  
HETATM   24  C   UNL     1      -6.285   9.776  63.126  1.00  0.00    -0.113 A  
HETATM   25  C   UNL     1      -5.667   8.920  64.024  1.00  0.00    -0.070 A  
HETATM   26  C   UNL     1      -6.328   8.544  65.199  1.00  0.00    -0.056 A  
HETATM   27  C   UNL     1      -7.629   8.996  65.512  1.00  0.00    -0.090 A  
BRANCH  27  28
HETATM   28  N   UNL     1      -8.269   8.502  66.668  1.00  0.00    -0.106 NA 
HETATM   29  H   UNL     1      -8.064   9.049  67.505  1.00  0.00     0.000 HD 
BRANCH  28  30
HETATM   30  C   UNL     1      -9.140   7.401  66.916  1.00  0.00    -0.141 A  
HETATM   31  C   UNL     1      -9.978   7.430  68.057  1.00  0.00    -0.195 A  
HETATM   32  C   UNL     1     -10.207   8.619  68.768  1.00  0.00    -0.224 A  
HETATM   33  C   UNL     1     -10.918   8.618  69.963  1.00  0.00    -0.208 A  
HETATM   34  C   UNL     1     -11.392   7.420  70.494  1.00  0.00    -0.295 A  
HETATM   35  C   UNL     1     -11.270   6.250  69.717  1.00  0.00    -0.499 A  
HETATM   36  C   UNL     1     -11.972   7.412  71.890  1.00  0.00    -0.302 C  
HETATM   37  C   UNL     1     -10.610   6.240  68.486  1.00  0.00    -0.262 A  
HETATM   38  F   UNL     1     -11.933   8.642  72.485  1.00  0.00    -0.425 F  
HETATM   39  F   UNL     1     -13.273   7.021  71.941  1.00  0.00    -0.363 F  
HETATM   40  F   UNL     1     -11.291   6.586  72.732  1.00  0.00    -0.269 F  
HETATM   41  N   UNL     1     -10.551   5.116  67.755  1.00  0.00    -0.044 NA 
HETATM   42  C   UNL     1      -9.861   5.150  66.587  1.00  0.00    -0.189 A  
HETATM   43  C   UNL     1      -9.128   6.248  66.142  1.00  0.00    -0.153 A  
ENDBRANCH  28  30
ENDBRANCH  27  28
ENDBRANCH  20  22
ENDBRANCH  19  20
ENDBRANCH  18  19
ENDBRANCH  17  18
ENDBRANCH  14  17
ENDBRANCH   7  11
TORSDOF 8
ENDMDL
MODEL      107
REMARK 921   NORMALIZED FREE ENERGY PREDICTED BY IDOCK:   -5.89 KCAL/MOL
REMARK 922        TOTAL FREE ENERGY PREDICTED BY IDOCK:  -12.04 KCAL/MOL
REMARK 923 INTER-LIGAND FREE ENERGY PREDICTED BY IDOCK:   -9.09 KCAL/MOL
REMARK 924 INTRA-LIGAND FREE ENERGY PREDICTED BY IDOCK:   -2.96 KCAL/MOL
REMARK 927      BINDING AFFINITY PREDICTED BY RF-SCORE:    0.00 PKD
ROOT
HETATM    1  F   UNL     1      -9.109  15.517  65.859  1.00  0.00    -0.335 F  
HETATM    2  C   UNL     1      -8.696  15.908  67.097  1.00  0.00    -0.200 C  
HETATM    3  C   UNL     1      -7.862  14.879  67.819  1.00  0.00    -0.164 A  
HETATM    4  F   UNL     1      -8.036  17.086  66.918  1.00  0.00    -0.190 F  
HETATM    5  F   UNL     1      -9.831  16.221  67.783  1.00  0.00    -0.228 F  
HETATM    6  C   UNL     1      -7.566  13.630  67.234  1.00  0.00    -0.073 A  
HETATM    7  C   UNL     1      -6.882  12.643  67.953  1.00  0.00    -0.112 A  
HETATM    8  C   UNL     1      -7.415  15.155  69.120  1.00  0.00    -0.176 A  
HETATM    9  C   UNL     1      -6.435  12.968  69.246  1.00  0.00    -0.103 A  
HETATM   10  C   UNL     1      -6.693  14.205  69.829  1.00  0.00    -0.065 A  
ENDROOT
BRANCH   7  11
HETATM   11  N   UNL     1      -6.658  11.342  67.491  1.00  0.00    -0.071 NA 
HETATM   12  C   UNL     1      -6.736   9.480  65.859  1.00  0.00    -0.082 C  
HETATM   13  C   UNL     1      -7.342  10.850  66.279  1.00  0.00    -0.127 C  
HETATM   14  N   UNL     1      -6.738   8.427  66.914  1.00  0.00    -0.061 NA 
HETATM   15  C   UNL     1      -6.639  10.353  68.594  1.00  0.00    -0.052 C  
HETATM   16  C   UNL     1      -6.047   9.013  68.097  1.00  0.00    -0.050 C  
BRANCH  14  17
HETATM   17  C   UNL     1      -8.098   7.971  67.284  1.00  0.00    -0.121 C  
BRANCH  17  18
HETATM   18  C   UNL     1      -8.159   6.808  68.302  1.00  0.00    -0.115 C  
BRANCH  18  19
HETATM   19  O   UNL     1      -9.384   6.027  68.170  1.00  0.00    -0.116 OA 
BRANCH  19  20
HETATM   20  C   UNL     1     -10.490   6.721  68.540  1.00  0.00    -0.204 C  
HETATM   21  O   UNL     1     -11.408   6.977  67.759  1.00  0.00    -0.041 OA 
BRANCH  20  22
HETATM   22  C   UNL     1     -10.572   7.143  69.980  1.00  0.00    -0.248 A  
HETATM   23  C   UNL     1     -10.874   6.059  70.840  1.00  0.00    -0.349 A  
HETATM   24  C   UNL     1     -11.023   6.226  72.211  1.00  0.00    -0.297 A  
HETATM   25  C   UNL     1     -10.856   7.489  72.758  1.00  0.00    -0.397 A  
HETATM   26  C   UNL     1     -10.544   8.574  71.932  1.00  0.00    -0.392 A  
HETATM   27  C   UNL     1     -10.401   8.441  70.533  1.00  0.00    -0.199 A  
BRANCH  27  28
HETATM   28  N   UNL     1     -10.179   9.595  69.753  1.00  0.00    -0.220 NA 
HETATM   29  H   UNL     1      -9.244   9.629  69.345  1.00  0.00     0.000 HD 
BRANCH  28  30
HETATM   30  C   UNL     1     -10.981  10.723  69.413  1.00  0.00    -0.254 A  
HETATM   31  C   UNL     1     -11.102  11.097  68.053  1.00  0.00    -0.334 A  
HETATM   32  C   UNL     1     -10.724  10.228  67.017  1.00  0.00    -0.281 A  
HETATM   33  C   UNL     1     -10.715  10.647  65.691  1.00  0.00    -0.104 A  
HETATM   34  C   UNL     1     -11.056  11.960  65.371  1.00  0.00    -0.360 A  
HETATM   35  C   UNL     1     -11.554  12.791  66.396  1.00  0.00    -0.435 A  
HETATM   36  C   UNL     1     -10.836  12.454  63.959  1.00  0.00    -0.397 C  
HETATM   37  C   UNL     1     -11.626  12.369  67.725  1.00  0.00    -0.352 A  
HETATM   38  F   UNL     1     -10.284  11.504  63.147  1.00  0.00    -0.334 F  
HETATM   39  F   UNL     1     -11.975  12.853  63.334  1.00  0.00    -0.508 F  
HETATM   40  F   UNL     1      -9.979  13.511  63.905  1.00  0.00    -0.196 F  
HETATM   41  N   UNL     1     -12.146  13.173  68.666  1.00  0.00    -0.268 NA 
HETATM   42  C   UNL     1     -12.152  12.732  69.950  1.00  0.00    -0.259 A  
HETATM   43  C   UNL     1     -11.568  11.540  70.370  1.00  0.00    -0.216 A  
ENDBRANCH  28  30
ENDBRANCH  27  28
ENDBRANCH  20  22
ENDBRANCH  19  20
ENDBRANCH  18  19
ENDBRANCH  17  18
ENDBRANCH  14  17
ENDBRANCH   7  11
TORSDOF 8
ENDMDL
MODEL      108
REMARK 921   NORMALIZED FREE ENERGY PREDICTED BY IDOCK:   -5.84 KCAL/MOL
REMARK 922        TOTAL FREE ENERGY PREDICTED BY IDOCK:  -11.97 KCAL/MOL
REMARK 923 INTER-LIGAND FREE ENERGY PREDICTED BY IDOCK:   -9.82 KCAL/MOL
REMARK 924 INTRA-LIGAND FREE ENERGY PREDICTED BY IDOCK:   -2.16 KCAL/MOL
REMARK 927      BINDING AFFINITY PREDICTED BY RF-SCORE:    0.00 PKD
ROOT
HETATM    1  F   UNL     1      -9.338   2.859  69.855  1.00  0.00    -0.178 F  
HETATM    2  C   UNL     1      -9.601   2.575  71.160  1.00  0.00    -0.147 C  
HETATM    3  C   UNL     1     -10.049   3.767  71.970  1.00  0.00    -0.209 A  
HETATM    4  F   UNL     1     -10.524   1.573  71.147  1.00  0.00    -0.096 F  
HETATM    5  F   UNL     1      -8.459   2.019  71.655  1.00  0.00    -0.055 F  
HETATM    6  C   UNL     1     -10.163   5.048  71.391  1.00  0.00    -0.270 A  
HETATM    7  C   UNL     1     -10.477   6.165  72.173  1.00  0.00    -0.202 A  
HETATM    8  C   UNL     1     -10.308   3.602  73.339  1.00  0.00    -0.237 A  
HETATM    9  C   UNL     1     -10.748   5.953  73.536  1.00  0.00    -0.284 A  
HETATM   10  C   UNL     1     -10.669   4.692  74.119  1.00  0.00    -0.329 A  
ENDROOT
BRANCH   7  11
HETATM   11  N   UNL     1     -10.489   7.481  71.701  1.00  0.00    -0.200 NA 
HETATM   12  C   UNL     1     -11.511   9.657  71.101  1.00  0.00    -0.384 C  
HETATM   13  C   UNL     1     -11.764   8.144  71.364  1.00  0.00    -0.285 C  
HETATM   14  N   UNL     1     -10.483   9.966  70.069  1.00  0.00    -0.265 NA 
HETATM   15  C   UNL     1      -9.421   7.728  70.704  1.00  0.00    -0.162 C  
HETATM   16  C   UNL     1      -9.244   9.248  70.479  1.00  0.00    -0.261 C  
BRANCH  14  17
HETATM   17  C   UNL     1     -10.885   9.562  68.701  1.00  0.00    -0.139 C  
BRANCH  17  18
HETATM   18  C   UNL     1     -10.256  10.382  67.550  1.00  0.00    -0.210 C  
BRANCH  18  19
HETATM   19  O   UNL     1      -9.122   9.694  66.942  1.00  0.00    -0.136 OA 
BRANCH  19  20
HETATM   20  C   UNL     1      -8.248  10.548  66.351  1.00  0.00    -0.140 C  
HETATM   21  O   UNL     1      -8.199  10.711  65.131  1.00  0.00    -0.159 OA 
BRANCH  20  22
HETATM   22  C   UNL     1      -7.349  11.333  67.264  1.00  0.00    -0.122 A  
HETATM   23  C   UNL     1      -6.537  10.495  68.068  1.00  0.00    -0.060 A  
HETATM   24  C   UNL     1      -5.647  11.009  69.003  1.00  0.00    -0.040 A  
HETATM   25  C   UNL     1      -5.538  12.384  69.145  1.00  0.00    -0.071 A  
HETATM   26  C   UNL     1      -6.319  13.233  68.354  1.00  0.00    -0.086 A  
HETATM   27  C   UNL     1      -7.244  12.743  67.405  1.00  0.00    -0.132 A  
BRANCH  27  28
HETATM   28  N   UNL     1      -8.064  13.656  66.710  1.00  0.00    -0.369 NA 
HETATM   29  H   UNL     1      -7.535  14.316  66.138  1.00  0.00     0.000 HD 
BRANCH  28  30
HETATM   30  C   UNL     1      -9.473  13.854  66.635  1.00  0.00    -0.285 A  
HETATM   31  C   UNL     1     -10.165  14.323  67.777  1.00  0.00    -0.235 A  
HETATM   32  C   UNL     1      -9.482  14.890  68.866  1.00  0.00    -0.209 A  
HETATM   33  C   UNL     1     -10.148  15.223  70.040  1.00  0.00    -0.178 A  
HETATM   34  C   UNL     1     -11.513  14.969  70.166  1.00  0.00    -0.314 A  
HETATM   35  C   UNL     1     -12.216  14.517  69.031  1.00  0.00    -0.215 A  
HETATM   36  C   UNL     1     -12.171  15.139  71.517  1.00  0.00    -0.340 C  
HETATM   37  C   UNL     1     -11.575  14.231  67.824  1.00  0.00    -0.354 A  
HETATM   38  F   UNL     1     -11.291  15.520  72.489  1.00  0.00    -0.503 F  
HETATM   39  F   UNL     1     -13.159  16.072  71.531  1.00  0.00    -0.519 F  
HETATM   40  F   UNL     1     -12.729  13.983  71.973  1.00  0.00    -0.377 F  
HETATM   41  N   UNL     1     -12.284  13.845  66.752  1.00  0.00    -0.426 NA 
HETATM   42  C   UNL     1     -11.608  13.538  65.616  1.00  0.00    -0.325 A  
HETATM   43  C   UNL     1     -10.219  13.505  65.516  1.00  0.00    -0.308 A  
ENDBRANCH  28  30
ENDBRANCH  27  28
ENDBRANCH  20  22
ENDBRANCH  19  20
ENDBRANCH  18  19
ENDBRANCH  17  18
ENDBRANCH  14  17
ENDBRANCH   7  11
TORSDOF 8
ENDMDL
MODEL      109
REMARK 921   NORMALIZED FREE ENERGY PREDICTED BY IDOCK:   -5.83 KCAL/MOL
REMARK 922        TOTAL FREE ENERGY PREDICTED BY IDOCK:  -11.96 KCAL/MOL
REMARK 923 INTER-LIGAND FREE ENERGY PREDICTED BY IDOCK:   -9.69 KCAL/MOL
REMARK 924 INTRA-LIGAND FREE ENERGY PREDICTED BY IDOCK:   -2.26 KCAL/MOL
REMARK 927      BINDING AFFINITY PREDICTED BY RF-SCORE:    0.00 PKD
ROOT
HETATM    1  F   UNL     1      -6.914  15.034  68.220  1.00  0.00    -0.097 F  
HETATM    2  C   UNL     1      -7.663  15.598  69.208  1.00  0.00    -0.223 C  
HETATM    3  C   UNL     1      -9.151  15.457  69.007  1.00  0.00    -0.233 A  
HETATM    4  F   UNL     1      -7.234  15.034  70.372  1.00  0.00    -0.114 F  
HETATM    5  F   UNL     1      -7.274  16.904  69.266  1.00  0.00    -0.228 F  
HETATM    6  C   UNL     1      -9.681  14.800  67.877  1.00  0.00    -0.211 A  
HETATM    7  C   UNL     1     -11.061  14.766  67.647  1.00  0.00    -0.306 A  
HETATM    8  C   UNL     1     -10.022  16.037  69.941  1.00  0.00    -0.077 A  
HETATM    9  C   UNL     1     -11.900  15.342  68.617  1.00  0.00    -0.329 A  
HETATM   10  C   UNL     1     -11.396  15.970  69.753  1.00  0.00    -0.331 A  
ENDROOT
BRANCH   7  11
HETATM   11  N   UNL     1     -11.657  14.245  66.494  1.00  0.00    -0.364 NA 
HETATM   12  C   UNL     1     -12.657  12.483  65.068  1.00  0.00    -0.345 C  
HETATM   13  C   UNL     1     -11.747  12.785  66.294  1.00  0.00    -0.402 C  
HETATM   14  N   UNL     1     -12.265  13.153  63.797  1.00  0.00    -0.632 NA 
HETATM   15  C   UNL     1     -11.251  14.978  65.273  1.00  0.00    -0.367 C  
HETATM   16  C   UNL     1     -12.184  14.610  64.096  1.00  0.00    -0.315 C  
BRANCH  14  17
HETATM   17  C   UNL     1     -10.978  12.666  63.250  1.00  0.00    -0.092 C  
BRANCH  17  18
HETATM   18  C   UNL     1     -10.727  11.146  63.385  1.00  0.00    -0.209 C  
BRANCH  18  19
HETATM   19  O   UNL     1      -9.361  10.850  63.806  1.00  0.00    -0.218 OA 
BRANCH  19  20
HETATM   20  C   UNL     1      -9.303   9.866  64.737  1.00  0.00    -0.278 C  
HETATM   21  O   UNL     1     -10.106   9.781  65.669  1.00  0.00    -0.296 OA 
BRANCH  20  22
HETATM   22  C   UNL     1      -8.220   8.837  64.566  1.00  0.00    -0.168 A  
HETATM   23  C   UNL     1      -7.659   8.860  63.265  1.00  0.00    -0.109 A  
HETATM   24  C   UNL     1      -6.660   7.976  62.879  1.00  0.00    -0.085 A  
HETATM   25  C   UNL     1      -6.184   7.053  63.798  1.00  0.00    -0.043 A  
HETATM   26  C   UNL     1      -6.712   7.018  65.093  1.00  0.00    -0.047 A  
HETATM   27  C   UNL     1      -7.739   7.893  65.513  1.00  0.00    -0.101 A  
BRANCH  27  28
HETATM   28  N   UNL     1      -8.287   7.738  66.804  1.00  0.00    -0.122 NA 
HETATM   29  H   UNL     1      -9.034   7.044  66.842  1.00  0.00     0.000 HD 
BRANCH  28  30
HETATM   30  C   UNL     1      -8.019   8.345  68.066  1.00  0.00    -0.119 A  
HETATM   31  C   UNL     1      -8.986   8.250  69.095  1.00  0.00    -0.147 A  
HETATM   32  C   UNL     1     -10.043   7.328  69.024  1.00  0.00    -0.186 A  
HETATM   33  C   UNL     1     -11.065   7.330  69.967  1.00  0.00    -0.262 A  
HETATM   34  C   UNL     1     -11.071   8.276  70.990  1.00  0.00    -0.284 A  
HETATM   35  C   UNL     1      -9.947   9.116  71.131  1.00  0.00    -0.377 A  
HETATM   36  C   UNL     1     -12.292   8.398  71.873  1.00  0.00    -0.347 C  
HETATM   37  C   UNL     1      -8.882   9.090  70.227  1.00  0.00    -0.189 A  
HETATM   38  F   UNL     1     -13.289   7.532  71.519  1.00  0.00    -0.353 F  
HETATM   39  F   UNL     1     -12.045   8.154  73.187  1.00  0.00    -0.347 F  
HETATM   40  F   UNL     1     -12.857   9.636  71.813  1.00  0.00    -0.372 F  
HETATM   41  N   UNL     1      -7.810   9.874  70.418  1.00  0.00    -0.235 NA 
HETATM   42  C   UNL     1      -6.822   9.842  69.488  1.00  0.00    -0.065 A  
HETATM   43  C   UNL     1      -6.891   9.121  68.298  1.00  0.00    -0.065 A  
ENDBRANCH  28  30
ENDBRANCH  27  28
ENDBRANCH  20  22
ENDBRANCH  19  20
ENDBRANCH  18  19
ENDBRANCH  17  18
ENDBRANCH  14  17
ENDBRANCH   7  11
TORSDOF 8
ENDMDL
MODEL      110
REMARK 921   NORMALIZED FREE ENERGY PREDICTED BY IDOCK:   -5.83 KCAL/MOL
REMARK 922        TOTAL FREE ENERGY PREDICTED BY IDOCK:  -11.95 KCAL/MOL
REMARK 923 INTER-LIGAND FREE ENERGY PREDICTED BY IDOCK:  -10.63 KCAL/MOL
REMARK 924 INTRA-LIGAND FREE ENERGY PREDICTED BY IDOCK:   -1.32 KCAL/MOL
REMARK 927      BINDING AFFINITY PREDICTED BY RF-SCORE:    0.00 PKD
ROOT
HETATM    1  F   UNL     1     -10.655   3.766  71.709  1.00  0.00    -0.137 F  
HETATM    2  C   UNL     1     -10.319   4.416  72.858  1.00  0.00    -0.178 C  
HETATM    3  C   UNL     1      -9.981   5.873  72.663  1.00  0.00    -0.195 A  
HETATM    4  F   UNL     1     -11.362   4.228  73.713  1.00  0.00    -0.323 F  
HETATM    5  F   UNL     1      -9.277   3.714  73.388  1.00  0.00    -0.099 F  
HETATM    6  C   UNL     1     -10.013   6.471  71.386  1.00  0.00    -0.202 A  
HETATM    7  C   UNL     1      -9.598   7.794  71.201  1.00  0.00    -0.158 A  
HETATM    8  C   UNL     1      -9.580   6.633  73.772  1.00  0.00    -0.226 A  
HETATM    9  C   UNL     1      -9.222   8.527  72.341  1.00  0.00    -0.328 A  
HETATM   10  C   UNL     1      -9.211   7.962  73.613  1.00  0.00    -0.320 A  
ENDROOT
BRANCH   7  11
HETATM   11  N   UNL     1      -9.483   8.419  69.955  1.00  0.00    -0.163 NA 
HETATM   12  C   UNL     1      -8.287   9.471  68.057  1.00  0.00    -0.118 C  
HETATM   13  C   UNL     1      -8.221   9.076  69.561  1.00  0.00    -0.114 C  
HETATM   14  N   UNL     1      -9.451  10.315  67.666  1.00  0.00    -0.151 NA 
HETATM   15  C   UNL     1     -10.687   9.214  69.615  1.00  0.00    -0.225 C  
HETATM   16  C   UNL     1     -10.671   9.588  68.114  1.00  0.00    -0.197 C  
BRANCH  14  17
HETATM   17  C   UNL     1      -9.414  11.674  68.256  1.00  0.00    -0.191 C  
BRANCH  17  18
HETATM   18  C   UNL     1      -8.041  12.385  68.211  1.00  0.00    -0.166 C  
BRANCH  18  19
HETATM   19  O   UNL     1      -8.122  13.696  67.575  1.00  0.00    -0.160 OA 
BRANCH  19  20
HETATM   20  C   UNL     1      -6.943  14.365  67.603  1.00  0.00    -0.184 C  
HETATM   21  O   UNL     1      -5.851  13.794  67.566  1.00  0.00    -0.328 OA 
BRANCH  20  22
HETATM   22  C   UNL     1      -7.018  15.865  67.644  1.00  0.00    -0.187 A  
HETATM   23  C   UNL     1      -6.062  16.428  68.526  1.00  0.00    -0.123 A  
HETATM   24  C   UNL     1      -5.971  17.797  68.737  1.00  0.00    -0.187 A  
HETATM   25  C   UNL     1      -6.831  18.644  68.054  1.00  0.00    -0.236 A  
HETATM   26  C   UNL     1      -7.776  18.115  67.168  1.00  0.00    -0.232 A  
HETATM   27  C   UNL     1      -7.904  16.726  66.942  1.00  0.00    -0.218 A  
BRANCH  27  28
HETATM   28  N   UNL     1      -8.941  16.260  66.105  1.00  0.00    -0.335 NA 
HETATM   29  H   UNL     1      -8.807  16.508  65.124  1.00  0.00     0.000 HD 
BRANCH  28  30
HETATM   30  C   UNL     1     -10.134  15.517  66.338  1.00  0.00    -0.288 A  
HETATM   31  C   UNL     1     -10.771  15.613  67.599  1.00  0.00    -0.302 A  
HETATM   32  C   UNL     1     -10.452  16.638  68.505  1.00  0.00    -0.319 A  
HETATM   33  C   UNL     1     -10.977  16.651  69.792  1.00  0.00    -0.208 A  
HETATM   34  C   UNL     1     -11.813  15.621  70.217  1.00  0.00    -0.386 A  
HETATM   35  C   UNL     1     -12.230  14.664  69.268  1.00  0.00    -0.247 A  
HETATM   36  C   UNL     1     -12.200  15.541  71.677  1.00  0.00    -0.399 C  
HETATM   37  C   UNL     1     -11.760  14.666  67.954  1.00  0.00    -0.351 A  
HETATM   38  F   UNL     1     -11.631  16.530  72.429  1.00  0.00    -0.545 F  
HETATM   39  F   UNL     1     -13.538  15.638  71.896  1.00  0.00    -0.470 F  
HETATM   40  F   UNL     1     -11.800  14.375  72.258  1.00  0.00    -0.310 F  
HETATM   41  N   UNL     1     -12.213  13.766  67.068  1.00  0.00    -0.386 NA 
HETATM   42  C   UNL     1     -11.690  13.785  65.815  1.00  0.00    -0.349 A  
HETATM   43  C   UNL     1     -10.646  14.615  65.415  1.00  0.00    -0.390 A  
ENDBRANCH  28  30
ENDBRANCH  27  28
ENDBRANCH  20  22
ENDBRANCH  19  20
ENDBRANCH  18  19
ENDBRANCH  17  18
ENDBRANCH  14  17
ENDBRANCH   7  11
TORSDOF 8
ENDMDL
MODEL      111
REMARK 921   NORMALIZED FREE ENERGY PREDICTED BY IDOCK:   -5.82 KCAL/MOL
REMARK 922        TOTAL FREE ENERGY PREDICTED BY IDOCK:  -11.94 KCAL/MOL
REMARK 923 INTER-LIGAND FREE ENERGY PREDICTED BY IDOCK:   -9.83 KCAL/MOL
REMARK 924 INTRA-LIGAND FREE ENERGY PREDICTED BY IDOCK:   -2.11 KCAL/MOL
REMARK 927      BINDING AFFINITY PREDICTED BY RF-SCORE:    0.00 PKD
ROOT
HETATM    1  F   UNL     1     -11.321  11.541  62.927  1.00  0.00    -0.265 F  
HETATM    2  C   UNL     1     -12.063  12.336  63.746  1.00  0.00    -0.532 C  
HETATM    3  C   UNL     1     -11.541  12.418  65.159  1.00  0.00    -0.408 A  
HETATM    4  F   UNL     1     -12.121  13.553  63.136  1.00  0.00    -0.547 F  
HETATM    5  F   UNL     1     -13.331  11.837  63.696  1.00  0.00    -0.526 F  
HETATM    6  C   UNL     1     -10.388  11.712  65.560  1.00  0.00    -0.309 A  
HETATM    7  C   UNL     1      -9.973  11.711  66.896  1.00  0.00    -0.202 A  
HETATM    8  C   UNL     1     -12.249  13.177  66.103  1.00  0.00    -0.451 A  
HETATM    9  C   UNL     1     -10.699  12.499  67.806  1.00  0.00    -0.242 A  
HETATM   10  C   UNL     1     -11.823  13.226  67.423  1.00  0.00    -0.413 A  
ENDROOT
BRANCH   7  11
HETATM   11  N   UNL     1      -8.917  10.941  67.395  1.00  0.00    -0.136 NA 
HETATM   12  C   UNL     1      -7.822   8.883  68.233  1.00  0.00    -0.101 C  
HETATM   13  C   UNL     1      -9.174   9.612  67.985  1.00  0.00    -0.125 C  
HETATM   14  N   UNL     1      -6.833   9.630  69.059  1.00  0.00    -0.050 NA 
HETATM   15  C   UNL     1      -7.954  11.752  68.177  1.00  0.00    -0.146 C  
HETATM   16  C   UNL     1      -6.648  10.954  68.403  1.00  0.00    -0.058 C  
BRANCH  14  17
HETATM   17  C   UNL     1      -7.258   9.806  70.467  1.00  0.00    -0.120 C  
BRANCH  17  18
HETATM   18  C   UNL     1      -7.504   8.500  71.259  1.00  0.00    -0.098 C  
BRANCH  18  19
HETATM   19  O   UNL     1      -8.286   8.731  72.469  1.00  0.00    -0.387 OA 
BRANCH  19  20
HETATM   20  C   UNL     1      -7.653   8.304  73.591  1.00  0.00    -0.139 C  
HETATM   21  O   UNL     1      -7.286   9.072  74.483  1.00  0.00    -0.423 OA 
BRANCH  20  22
HETATM   22  C   UNL     1      -7.444   6.822  73.726  1.00  0.00    -0.083 A  
HETATM   23  C   UNL     1      -6.071   6.474  73.763  1.00  0.00    -0.064 A  
HETATM   24  C   UNL     1      -5.648   5.154  73.859  1.00  0.00    -0.022 A  
HETATM   25  C   UNL     1      -6.597   4.146  73.935  1.00  0.00    -0.052 A  
HETATM   26  C   UNL     1      -7.959   4.464  73.913  1.00  0.00    -0.093 A  
HETATM   27  C   UNL     1      -8.422   5.793  73.801  1.00  0.00    -0.115 A  
BRANCH  27  28
HETATM   28  N   UNL     1      -9.809   6.031  73.691  1.00  0.00    -0.167 NA 
HETATM   29  H   UNL     1     -10.341   5.671  74.484  1.00  0.00     0.000 HD 
BRANCH  28  30
HETATM   30  C   UNL     1     -10.624   6.665  72.709  1.00  0.00    -0.232 A  
HETATM   31  C   UNL     1     -10.588   6.194  71.375  1.00  0.00    -0.294 A  
HETATM   32  C   UNL     1     -10.028   4.947  71.053  1.00  0.00    -0.282 A  
HETATM   33  C   UNL     1      -9.871   4.547  69.731  1.00  0.00    -0.295 A  
HETATM   34  C   UNL     1     -10.243   5.400  68.693  1.00  0.00    -0.246 A  
HETATM   35  C   UNL     1     -10.918   6.594  69.020  1.00  0.00    -0.332 A  
HETATM   36  C   UNL     1      -9.870   5.039  67.273  1.00  0.00    -0.179 C  
HETATM   37  C   UNL     1     -11.138   6.987  70.342  1.00  0.00    -0.287 A  
HETATM   38  F   UNL     1      -9.162   3.872  67.194  1.00  0.00    -0.133 F  
HETATM   39  F   UNL     1     -10.939   4.875  66.450  1.00  0.00    -0.310 F  
HETATM   40  F   UNL     1      -9.076   5.979  66.689  1.00  0.00    -0.123 F  
HETATM   41  N   UNL     1     -11.822   8.109  70.613  1.00  0.00    -0.162 NA 
HETATM   42  C   UNL     1     -11.970   8.468  71.913  1.00  0.00    -0.345 A  
HETATM   43  C   UNL     1     -11.377   7.800  72.982  1.00  0.00    -0.331 A  
ENDBRANCH  28  30
ENDBRANCH  27  28
ENDBRANCH  20  22
ENDBRANCH  19  20
ENDBRANCH  18  19
ENDBRANCH  17  18
ENDBRANCH  14  17
ENDBRANCH   7  11
TORSDOF 8
ENDMDL
MODEL      112
REMARK 921   NORMALIZED FREE ENERGY PREDICTED BY IDOCK:   -5.81 KCAL/MOL
REMARK 922        TOTAL FREE ENERGY PREDICTED BY IDOCK:  -11.93 KCAL/MOL
REMARK 923 INTER-LIGAND FREE ENERGY PREDICTED BY IDOCK:   -9.69 KCAL/MOL
REMARK 924 INTRA-LIGAND FREE ENERGY PREDICTED BY IDOCK:   -2.24 KCAL/MOL
REMARK 927      BINDING AFFINITY PREDICTED BY RF-SCORE:    0.00 PKD
ROOT
HETATM    1  F   UNL     1     -10.423   4.890  68.142  1.00  0.00    -0.179 F  
HETATM    2  C   UNL     1      -9.860   4.741  66.911  1.00  0.00    -0.205 C  
HETATM    3  C   UNL     1      -8.941   5.869  66.515  1.00  0.00    -0.133 A  
HETATM    4  F   UNL     1      -9.231   3.533  66.930  1.00  0.00    -0.143 F  
HETATM    5  F   UNL     1     -10.902   4.601  66.043  1.00  0.00    -0.329 F  
HETATM    6  C   UNL     1      -8.716   6.969  67.369  1.00  0.00    -0.120 A  
HETATM    7  C   UNL     1      -7.945   8.059  66.951  1.00  0.00    -0.104 A  
HETATM    8  C   UNL     1      -8.336   5.843  65.249  1.00  0.00    -0.146 A  
HETATM    9  C   UNL     1      -7.342   7.985  65.683  1.00  0.00    -0.079 A  
HETATM   10  C   UNL     1      -7.529   6.895  64.838  1.00  0.00    -0.094 A  
ENDROOT
BRANCH   7  11
HETATM   11  N   UNL     1      -7.777   9.236  67.687  1.00  0.00    -0.092 NA 
HETATM   12  C   UNL     1      -8.410  11.471  68.549  1.00  0.00    -0.146 C  
HETATM   13  C   UNL     1      -8.651  10.401  67.445  1.00  0.00    -0.125 C  
HETATM   14  N   UNL     1      -6.997  11.914  68.715  1.00  0.00    -0.098 NA 
HETATM   15  C   UNL     1      -6.349   9.600  67.841  1.00  0.00    -0.057 C  
HETATM   16  C   UNL     1      -6.191  10.682  68.936  1.00  0.00    -0.044 C  
BRANCH  14  17
HETATM   17  C   UNL     1      -6.479  12.669  67.550  1.00  0.00    -0.158 C  
BRANCH  17  18
HETATM   18  C   UNL     1      -6.521  14.209  67.679  1.00  0.00    -0.135 C  
BRANCH  18  19
HETATM   19  O   UNL     1      -7.872  14.737  67.513  1.00  0.00    -0.157 OA 
BRANCH  19  20
HETATM   20  C   UNL     1      -8.211  15.620  68.486  1.00  0.00    -0.153 C  
HETATM   21  O   UNL     1      -8.236  15.317  69.681  1.00  0.00    -0.234 OA 
BRANCH  20  22
HETATM   22  C   UNL     1      -8.526  17.022  68.047  1.00  0.00    -0.216 A  
HETATM   23  C   UNL     1      -7.431  17.902  68.234  1.00  0.00    -0.260 A  
HETATM   24  C   UNL     1      -7.509  19.252  67.919  1.00  0.00    -0.293 A  
HETATM   25  C   UNL     1      -8.689  19.754  67.391  1.00  0.00    -0.385 A  
HETATM   26  C   UNL     1      -9.781  18.904  67.185  1.00  0.00    -0.345 A  
HETATM   27  C   UNL     1      -9.739  17.529  67.508  1.00  0.00    -0.278 A  
BRANCH  27  28
HETATM   28  N   UNL     1     -10.908  16.753  67.359  1.00  0.00    -0.238 NA 
HETATM   29  H   UNL     1     -11.743  17.211  67.726  1.00  0.00     0.000 HD 
BRANCH  28  30
HETATM   30  C   UNL     1     -11.171  15.466  66.806  1.00  0.00    -0.197 A  
HETATM   31  C   UNL     1     -11.573  14.416  67.666  1.00  0.00    -0.396 A  
HETATM   32  C   UNL     1     -12.019  14.669  68.974  1.00  0.00    -0.318 A  
HETATM   33  C   UNL     1     -12.283  13.631  69.859  1.00  0.00    -0.367 A  
HETATM   34  C   UNL     1     -12.077  12.309  69.468  1.00  0.00    -0.260 A  
HETATM   35  C   UNL     1     -11.751  12.054  68.120  1.00  0.00    -0.398 A  
HETATM   36  C   UNL     1     -12.164  11.212  70.506  1.00  0.00    -0.384 C  
HETATM   37  C   UNL     1     -11.538  13.082  67.199  1.00  0.00    -0.358 A  
HETATM   38  F   UNL     1     -12.426  11.690  71.759  1.00  0.00    -0.345 F  
HETATM   39  F   UNL     1     -13.134  10.294  70.253  1.00  0.00    -0.347 F  
HETATM   40  F   UNL     1     -10.999  10.516  70.625  1.00  0.00    -0.355 F  
HETATM   41  N   UNL     1     -11.271  12.799  65.915  1.00  0.00    -0.290 NA 
HETATM   42  C   UNL     1     -11.030  13.834  65.071  1.00  0.00    -0.357 A  
HETATM   43  C   UNL     1     -10.947  15.166  65.469  1.00  0.00    -0.370 A  
ENDBRANCH  28  30
ENDBRANCH  27  28
ENDBRANCH  20  22
ENDBRANCH  19  20
ENDBRANCH  18  19
ENDBRANCH  17  18
ENDBRANCH  14  17
ENDBRANCH   7  11
TORSDOF 8
ENDMDL
MODEL      113
REMARK 921   NORMALIZED FREE ENERGY PREDICTED BY IDOCK:   -5.81 KCAL/MOL
REMARK 922        TOTAL FREE ENERGY PREDICTED BY IDOCK:  -11.92 KCAL/MOL
REMARK 923 INTER-LIGAND FREE ENERGY PREDICTED BY IDOCK:   -8.82 KCAL/MOL
REMARK 924 INTRA-LIGAND FREE ENERGY PREDICTED BY IDOCK:   -3.10 KCAL/MOL
REMARK 927      BINDING AFFINITY PREDICTED BY RF-SCORE:    0.00 PKD
ROOT
HETATM    1  F   UNL     1      -8.804   5.048  71.733  1.00  0.00    -0.125 F  
HETATM    2  C   UNL     1      -9.571   4.666  70.674  1.00  0.00    -0.191 C  
HETATM    3  C   UNL     1      -9.181   5.314  69.368  1.00  0.00    -0.152 A  
HETATM    4  F   UNL     1      -9.498   3.307  70.628  1.00  0.00    -0.191 F  
HETATM    5  F   UNL     1     -10.856   4.955  71.025  1.00  0.00    -0.206 F  
HETATM    6  C   UNL     1      -8.116   6.235  69.294  1.00  0.00    -0.110 A  
HETATM    7  C   UNL     1      -7.829   6.909  68.101  1.00  0.00    -0.114 A  
HETATM    8  C   UNL     1      -9.928   5.028  68.216  1.00  0.00    -0.193 A  
HETATM    9  C   UNL     1      -8.589   6.579  66.965  1.00  0.00    -0.113 A  
HETATM   10  C   UNL     1      -9.626   5.651  67.013  1.00  0.00    -0.143 A  
ENDROOT
BRANCH   7  11
HETATM   11  N   UNL     1      -6.874   7.923  67.976  1.00  0.00    -0.070 NA 
HETATM   12  C   UNL     1      -5.613   9.937  68.677  1.00  0.00    -0.035 C  
HETATM   13  C   UNL     1      -6.911   9.099  68.868  1.00  0.00    -0.056 C  
HETATM   14  N   UNL     1      -5.322  10.360  67.279  1.00  0.00    -0.040 NA 
HETATM   15  C   UNL     1      -6.609   8.270  66.561  1.00  0.00    -0.056 C  
HETATM   16  C   UNL     1      -5.321   9.120  66.454  1.00  0.00    -0.037 C  
BRANCH  14  17
HETATM   17  C   UNL     1      -6.303  11.335  66.745  1.00  0.00    -0.139 C  
BRANCH  17  18
HETATM   18  C   UNL     1      -6.510  12.609  67.597  1.00  0.00    -0.146 C  
BRANCH  18  19
HETATM   19  O   UNL     1      -7.923  12.927  67.774  1.00  0.00    -0.135 OA 
BRANCH  19  20
HETATM   20  C   UNL     1      -8.192  14.242  67.575  1.00  0.00    -0.189 C  
HETATM   21  O   UNL     1      -7.421  14.997  66.979  1.00  0.00    -0.166 OA 
BRANCH  20  22
HETATM   22  C   UNL     1      -9.512  14.746  68.086  1.00  0.00    -0.208 A  
HETATM   23  C   UNL     1      -9.367  15.555  69.240  1.00  0.00    -0.266 A  
HETATM   24  C   UNL     1     -10.461  16.107  69.894  1.00  0.00    -0.261 A  
HETATM   25  C   UNL     1     -11.734  15.873  69.396  1.00  0.00    -0.350 A  
HETATM   26  C   UNL     1     -11.903  15.088  68.251  1.00  0.00    -0.295 A  
HETATM   27  C   UNL     1     -10.813  14.500  67.570  1.00  0.00    -0.289 A  
BRANCH  27  28
HETATM   28  N   UNL     1     -11.067  13.645  66.477  1.00  0.00    -0.302 NA 
HETATM   29  H   UNL     1     -11.469  14.129  65.674  1.00  0.00     0.000 HD 
BRANCH  28  30
HETATM   30  C   UNL     1     -10.880  12.249  66.255  1.00  0.00    -0.278 A  
HETATM   31  C   UNL     1     -11.047  11.352  67.337  1.00  0.00    -0.349 A  
HETATM   32  C   UNL     1     -11.684  11.745  68.525  1.00  0.00    -0.390 A  
HETATM   33  C   UNL     1     -11.725  10.907  69.633  1.00  0.00    -0.403 A  
HETATM   34  C   UNL     1     -11.100   9.662  69.591  1.00  0.00    -0.223 A  
HETATM   35  C   UNL     1     -10.572   9.220  68.361  1.00  0.00    -0.234 A  
HETATM   36  C   UNL     1     -10.972   8.859  70.866  1.00  0.00    -0.266 C  
HETATM   37  C   UNL     1     -10.573  10.024  67.219  1.00  0.00    -0.257 A  
HETATM   38  F   UNL     1     -11.495   9.505  71.951  1.00  0.00    -0.433 F  
HETATM   39  F   UNL     1     -11.598   7.654  70.821  1.00  0.00    -0.284 F  
HETATM   40  F   UNL     1      -9.674   8.605  71.192  1.00  0.00    -0.199 F  
HETATM   41  N   UNL     1     -10.100   9.553  66.055  1.00  0.00    -0.283 NA 
HETATM   42  C   UNL     1     -10.084  10.391  64.987  1.00  0.00    -0.309 A  
HETATM   43  C   UNL     1     -10.437  11.737  65.043  1.00  0.00    -0.332 A  
ENDBRANCH  28  30
ENDBRANCH  27  28
ENDBRANCH  20  22
ENDBRANCH  19  20
ENDBRANCH  18  19
ENDBRANCH  17  18
ENDBRANCH  14  17
ENDBRANCH   7  11
TORSDOF 8
ENDMDL
MODEL      114
REMARK 921   NORMALIZED FREE ENERGY PREDICTED BY IDOCK:   -5.81 KCAL/MOL
REMARK 922        TOTAL FREE ENERGY PREDICTED BY IDOCK:  -11.92 KCAL/MOL
REMARK 923 INTER-LIGAND FREE ENERGY PREDICTED BY IDOCK:   -9.89 KCAL/MOL
REMARK 924 INTRA-LIGAND FREE ENERGY PREDICTED BY IDOCK:   -2.03 KCAL/MOL
REMARK 927      BINDING AFFINITY PREDICTED BY RF-SCORE:    0.00 PKD
ROOT
HETATM    1  F   UNL     1      -5.546  17.003  65.894  1.00  0.00    -0.135 F  
HETATM    2  C   UNL     1      -6.043  18.263  66.041  1.00  0.00    -0.212 C  
HETATM    3  C   UNL     1      -7.545  18.318  66.171  1.00  0.00    -0.276 A  
HETATM    4  F   UNL     1      -5.403  18.795  67.119  1.00  0.00    -0.134 F  
HETATM    5  F   UNL     1      -5.596  18.965  64.961  1.00  0.00    -0.190 F  
HETATM    6  C   UNL     1      -8.330  17.148  66.129  1.00  0.00    -0.258 A  
HETATM    7  C   UNL     1      -9.728  17.218  66.146  1.00  0.00    -0.224 A  
HETATM    8  C   UNL     1      -8.173  19.568  66.285  1.00  0.00    -0.354 A  
HETATM    9  C   UNL     1     -10.317  18.488  66.281  1.00  0.00    -0.459 A  
HETATM   10  C   UNL     1      -9.557  19.652  66.352  1.00  0.00    -0.490 A  
ENDROOT
BRANCH   7  11
HETATM   11  N   UNL     1     -10.576  16.118  65.985  1.00  0.00    -0.315 NA 
HETATM   12  C   UNL     1     -11.483  13.871  66.501  1.00  0.00    -0.348 C  
HETATM   13  C   UNL     1     -10.270  14.834  66.646  1.00  0.00    -0.269 C  
HETATM   14  N   UNL     1     -11.950  13.633  65.106  1.00  0.00    -0.353 NA 
HETATM   15  C   UNL     1     -11.029  15.960  64.583  1.00  0.00    -0.305 C  
HETATM   16  C   UNL     1     -12.219  14.974  64.516  1.00  0.00    -0.331 C  
BRANCH  14  17
HETATM   17  C   UNL     1     -10.971  12.891  64.278  1.00  0.00    -0.388 C  
BRANCH  17  18
HETATM   18  C   UNL     1     -10.959  11.356  64.472  1.00  0.00    -0.277 C  
BRANCH  18  19
HETATM   19  O   UNL     1      -9.697  10.883  65.030  1.00  0.00    -0.229 OA 
BRANCH  19  20
HETATM   20  C   UNL     1      -9.823  10.434  66.303  1.00  0.00    -0.218 C  
HETATM   21  O   UNL     1     -10.690   9.625  66.642  1.00  0.00    -0.149 OA 
BRANCH  20  22
HETATM   22  C   UNL     1      -8.821  10.941  67.301  1.00  0.00    -0.134 A  
HETATM   23  C   UNL     1      -8.040  12.004  66.784  1.00  0.00    -0.081 A  
HETATM   24  C   UNL     1      -7.034  12.608  67.528  1.00  0.00    -0.150 A  
HETATM   25  C   UNL     1      -6.795  12.168  68.821  1.00  0.00    -0.095 A  
HETATM   26  C   UNL     1      -7.561  11.129  69.359  1.00  0.00    -0.013 A  
HETATM   27  C   UNL     1      -8.581  10.484  68.625  1.00  0.00    -0.139 A  
BRANCH  27  28
HETATM   28  N   UNL     1      -9.249   9.382  69.200  1.00  0.00    -0.150 NA 
HETATM   29  H   UNL     1      -8.990   8.490  68.777  1.00  0.00     0.000 HD 
BRANCH  28  30
HETATM   30  C   UNL     1     -10.208   9.249  70.246  1.00  0.00    -0.227 A  
HETATM   31  C   UNL     1     -10.161   8.108  71.083  1.00  0.00    -0.234 A  
HETATM   32  C   UNL     1      -9.033   7.273  71.120  1.00  0.00    -0.147 A  
HETATM   33  C   UNL     1      -9.042   6.082  71.837  1.00  0.00    -0.143 A  
HETATM   34  C   UNL     1     -10.193   5.680  72.511  1.00  0.00    -0.225 A  
HETATM   35  C   UNL     1     -11.279   6.578  72.575  1.00  0.00    -0.298 A  
HETATM   36  C   UNL     1     -10.253   4.290  73.103  1.00  0.00    -0.159 C  
HETATM   37  C   UNL     1     -11.268   7.806  71.909  1.00  0.00    -0.265 A  
HETATM   38  F   UNL     1      -9.117   3.567  72.868  1.00  0.00    -0.096 F  
HETATM   39  F   UNL     1     -10.424   4.275  74.451  1.00  0.00    -0.214 F  
HETATM   40  F   UNL     1     -11.266   3.545  72.580  1.00  0.00    -0.084 F  
HETATM   41  N   UNL     1     -12.301   8.653  72.029  1.00  0.00    -0.346 NA 
HETATM   42  C   UNL     1     -12.259   9.814  71.327  1.00  0.00    -0.374 A  
HETATM   43  C   UNL     1     -11.258  10.142  70.416  1.00  0.00    -0.402 A  
ENDBRANCH  28  30
ENDBRANCH  27  28
ENDBRANCH  20  22
ENDBRANCH  19  20
ENDBRANCH  18  19
ENDBRANCH  17  18
ENDBRANCH  14  17
ENDBRANCH   7  11
TORSDOF 8
ENDMDL
MODEL      115
REMARK 921   NORMALIZED FREE ENERGY PREDICTED BY IDOCK:   -5.81 KCAL/MOL
REMARK 922        TOTAL FREE ENERGY PREDICTED BY IDOCK:  -11.92 KCAL/MOL
REMARK 923 INTER-LIGAND FREE ENERGY PREDICTED BY IDOCK:   -9.12 KCAL/MOL
REMARK 924 INTRA-LIGAND FREE ENERGY PREDICTED BY IDOCK:   -2.81 KCAL/MOL
REMARK 927      BINDING AFFINITY PREDICTED BY RF-SCORE:    0.00 PKD
ROOT
HETATM    1  F   UNL     1     -11.370  19.901  66.075  1.00  0.00    -0.317 F  
HETATM    2  C   UNL     1     -10.091  19.994  66.533  1.00  0.00    -0.482 C  
HETATM    3  C   UNL     1      -9.616  18.773  67.281  1.00  0.00    -0.333 A  
HETATM    4  F   UNL     1      -9.322  20.274  65.444  1.00  0.00    -0.230 F  
HETATM    5  F   UNL     1     -10.056  21.115  67.308  1.00  0.00    -0.533 F  
HETATM    6  C   UNL     1     -10.457  17.657  67.476  1.00  0.00    -0.365 A  
HETATM    7  C   UNL     1     -10.044  16.574  68.261  1.00  0.00    -0.259 A  
HETATM    8  C   UNL     1      -8.327  18.772  67.835  1.00  0.00    -0.300 A  
HETATM    9  C   UNL     1      -8.738  16.604  68.781  1.00  0.00    -0.260 A  
HETATM   10  C   UNL     1      -7.884  17.684  68.575  1.00  0.00    -0.282 A  
ENDROOT
BRANCH   7  11
HETATM   11  N   UNL     1     -10.859  15.490  68.602  1.00  0.00    -0.255 NA 
HETATM   12  C   UNL     1     -12.019  13.934  70.142  1.00  0.00    -0.332 C  
HETATM   13  C   UNL     1     -10.863  14.963  69.982  1.00  0.00    -0.176 C  
HETATM   14  N   UNL     1     -12.020  12.811  69.162  1.00  0.00    -0.277 NA 
HETATM   15  C   UNL     1     -10.839  14.427  67.570  1.00  0.00    -0.282 C  
HETATM   16  C   UNL     1     -11.999  13.432  67.808  1.00  0.00    -0.324 C  
BRANCH  14  17
HETATM   17  C   UNL     1     -10.871  11.890  69.325  1.00  0.00    -0.104 C  
BRANCH  17  18
HETATM   18  C   UNL     1     -11.176  10.393  69.087  1.00  0.00    -0.246 C  
BRANCH  18  19
HETATM   19  O   UNL     1     -11.219   9.636  70.333  1.00  0.00    -0.248 OA 
BRANCH  19  20
HETATM   20  C   UNL     1     -10.053   8.996  70.598  1.00  0.00    -0.229 C  
HETATM   21  O   UNL     1      -9.167   9.489  71.300  1.00  0.00    -0.237 OA 
BRANCH  20  22
HETATM   22  C   UNL     1      -9.892   7.618  70.021  1.00  0.00    -0.180 A  
HETATM   23  C   UNL     1     -10.761   6.677  70.629  1.00  0.00    -0.286 A  
HETATM   24  C   UNL     1     -10.763   5.336  70.268  1.00  0.00    -0.221 A  
HETATM   25  C   UNL     1      -9.901   4.905  69.271  1.00  0.00    -0.272 A  
HETATM   26  C   UNL     1      -9.042   5.816  68.646  1.00  0.00    -0.116 A  
HETATM   27  C   UNL     1      -9.004   7.183  69.001  1.00  0.00    -0.134 A  
BRANCH  27  28
HETATM   28  N   UNL     1      -8.048   8.023  68.393  1.00  0.00    -0.120 NA 
HETATM   29  H   UNL     1      -7.087   7.717  68.550  1.00  0.00     0.000 HD 
BRANCH  28  30
HETATM   30  C   UNL     1      -8.138   9.209  67.607  1.00  0.00    -0.104 A  
HETATM   31  C   UNL     1      -7.484  10.383  68.053  1.00  0.00    -0.090 A  
HETATM   32  C   UNL     1      -6.507  10.339  69.060  1.00  0.00    -0.045 A  
HETATM   33  C   UNL     1      -5.966  11.505  69.591  1.00  0.00    -0.102 A  
HETATM   34  C   UNL     1      -6.413  12.748  69.146  1.00  0.00    -0.109 A  
HETATM   35  C   UNL     1      -7.299  12.787  68.050  1.00  0.00    -0.117 A  
HETATM   36  C   UNL     1      -5.971  13.995  69.880  1.00  0.00    -0.133 C  
HETATM   37  C   UNL     1      -7.809  11.627  67.465  1.00  0.00    -0.137 A  
HETATM   38  F   UNL     1      -5.167  13.720  70.950  1.00  0.00    -0.097 F  
HETATM   39  F   UNL     1      -5.269  14.865  69.108  1.00  0.00    -0.092 F  
HETATM   40  F   UNL     1      -7.021  14.696  70.391  1.00  0.00    -0.168 F  
HETATM   41  N   UNL     1      -8.616  11.703  66.395  1.00  0.00    -0.173 NA 
HETATM   42  C   UNL     1      -9.120  10.547  65.892  1.00  0.00    -0.168 A  
HETATM   43  C   UNL     1      -8.930   9.294  66.469  1.00  0.00    -0.178 A  
ENDBRANCH  28  30
ENDBRANCH  27  28
ENDBRANCH  20  22
ENDBRANCH  19  20
ENDBRANCH  18  19
ENDBRANCH  17  18
ENDBRANCH  14  17
ENDBRANCH   7  11
TORSDOF 8
ENDMDL
MODEL      116
REMARK 921   NORMALIZED FREE ENERGY PREDICTED BY IDOCK:   -5.80 KCAL/MOL
REMARK 922        TOTAL FREE ENERGY PREDICTED BY IDOCK:  -11.91 KCAL/MOL
REMARK 923 INTER-LIGAND FREE ENERGY PREDICTED BY IDOCK:   -8.66 KCAL/MOL
REMARK 924 INTRA-LIGAND FREE ENERGY PREDICTED BY IDOCK:   -3.25 KCAL/MOL
REMARK 927      BINDING AFFINITY PREDICTED BY RF-SCORE:    0.00 PKD
ROOT
HETATM    1  F   UNL     1      -7.213   9.340  71.078  1.00  0.00    -0.090 F  
HETATM    2  C   UNL     1      -6.622   8.930  69.922  1.00  0.00    -0.042 C  
HETATM    3  C   UNL     1      -6.250  10.057  68.990  1.00  0.00    -0.044 A  
HETATM    4  F   UNL     1      -5.548   8.181  70.295  1.00  0.00    -0.023 F  
HETATM    5  F   UNL     1      -7.499   8.059  69.347  1.00  0.00    -0.085 F  
HETATM    6  C   UNL     1      -6.516  11.402  69.319  1.00  0.00    -0.096 A  
HETATM    7  C   UNL     1      -6.262  12.430  68.405  1.00  0.00    -0.057 A  
HETATM    8  C   UNL     1      -5.671   9.751  67.749  1.00  0.00    -0.040 A  
HETATM    9  C   UNL     1      -5.665  12.083  67.180  1.00  0.00    -0.142 A  
HETATM   10  C   UNL     1      -5.369  10.764  66.849  1.00  0.00    -0.051 A  
ENDROOT
BRANCH   7  11
HETATM   11  N   UNL     1      -6.610  13.770  68.605  1.00  0.00    -0.088 NA 
HETATM   12  C   UNL     1      -7.828  15.655  69.656  1.00  0.00    -0.089 C  
HETATM   13  C   UNL     1      -7.812  14.122  69.386  1.00  0.00     0.240 C  
HETATM   14  N   UNL     1      -7.727  16.520  68.448  1.00  0.00    -0.180 NA 
HETATM   15  C   UNL     1      -6.455  14.579  67.374  1.00  0.00     0.104 C  
HETATM   16  C   UNL     1      -6.503  16.086  67.718  1.00  0.00    -0.157 C  
BRANCH  14  17
HETATM   17  C   UNL     1      -8.913  16.433  67.564  1.00  0.00    -0.192 C  
BRANCH  17  18
HETATM   18  C   UNL     1     -10.208  17.073  68.118  1.00  0.00    -0.322 C  
BRANCH  18  19
HETATM   19  O   UNL     1     -10.475  16.668  69.494  1.00  0.00    -0.305 OA 
BRANCH  19  20
HETATM   20  C   UNL     1     -11.549  15.846  69.598  1.00  0.00    -0.336 C  
HETATM   21  O   UNL     1     -12.111  15.356  68.616  1.00  0.00    -0.260 OA 
BRANCH  20  22
HETATM   22  C   UNL     1     -12.015  15.516  70.988  1.00  0.00    -0.428 A  
HETATM   23  C   UNL     1     -11.732  16.554  71.910  1.00  0.00    -0.277 A  
HETATM   24  C   UNL     1     -12.053  16.450  73.257  1.00  0.00    -0.553 A  
HETATM   25  C   UNL     1     -12.685  15.303  73.714  1.00  0.00    -0.697 A  
HETATM   26  C   UNL     1     -12.988  14.269  72.822  1.00  0.00    -0.545 A  
HETATM   27  C   UNL     1     -12.661  14.337  71.449  1.00  0.00    -0.360 A  
BRANCH  27  28
HETATM   28  N   UNL     1     -12.913  13.218  70.627  1.00  0.00    -0.032 NA 
HETATM   29  H   UNL     1     -13.532  13.427  69.843  1.00  0.00     0.000 HD 
BRANCH  28  30
HETATM   30  C   UNL     1     -12.489  11.857  70.659  1.00  0.00    -0.257 A  
HETATM   31  C   UNL     1     -11.577  11.397  69.678  1.00  0.00    -0.399 A  
HETATM   32  C   UNL     1     -10.846  12.292  68.880  1.00  0.00    -0.238 A  
HETATM   33  C   UNL     1     -10.057  11.840  67.829  1.00  0.00    -0.199 A  
HETATM   34  C   UNL     1     -10.003  10.480  67.529  1.00  0.00    -0.204 A  
HETATM   35  C   UNL     1     -10.636   9.577  68.407  1.00  0.00    -0.261 A  
HETATM   36  C   UNL     1      -9.314  10.033  66.259  1.00  0.00    -0.168 C  
HETATM   37  C   UNL     1     -11.386  10.007  69.503  1.00  0.00    -0.169 A  
HETATM   38  F   UNL     1      -8.828  11.078  65.525  1.00  0.00    -0.186 F  
HETATM   39  F   UNL     1      -8.253   9.211  66.472  1.00  0.00    -0.106 F  
HETATM   40  F   UNL     1     -10.153   9.366  65.419  1.00  0.00    -0.371 F  
HETATM   41  N   UNL     1     -11.938   9.117  70.341  1.00  0.00    -0.040 NA 
HETATM   42  C   UNL     1     -12.694   9.587  71.366  1.00  0.00    -0.358 A  
HETATM   43  C   UNL     1     -13.013  10.930  71.550  1.00  0.00    -0.556 A  
ENDBRANCH  28  30
ENDBRANCH  27  28
ENDBRANCH  20  22
ENDBRANCH  19  20
ENDBRANCH  18  19
ENDBRANCH  17  18
ENDBRANCH  14  17
ENDBRANCH   7  11
TORSDOF 8
ENDMDL
MODEL      117
REMARK 921   NORMALIZED FREE ENERGY PREDICTED BY IDOCK:   -5.76 KCAL/MOL
REMARK 922        TOTAL FREE ENERGY PREDICTED BY IDOCK:  -11.86 KCAL/MOL
REMARK 923 INTER-LIGAND FREE ENERGY PREDICTED BY IDOCK:   -9.29 KCAL/MOL
REMARK 924 INTRA-LIGAND FREE ENERGY PREDICTED BY IDOCK:   -2.57 KCAL/MOL
REMARK 927      BINDING AFFINITY PREDICTED BY RF-SCORE:    0.00 PKD
ROOT
HETATM    1  F   UNL     1      -5.543   4.755  64.948  1.00  0.00    -0.012 F  
HETATM    2  C   UNL     1      -6.801   4.823  64.431  1.00  0.00    -0.049 C  
HETATM    3  C   UNL     1      -7.891   4.867  65.473  1.00  0.00    -0.095 A  
HETATM    4  F   UNL     1      -6.812   5.912  63.613  1.00  0.00    -0.034 F  
HETATM    5  F   UNL     1      -6.921   3.742  63.609  1.00  0.00    -0.040 F  
HETATM    6  C   UNL     1      -7.594   4.829  66.851  1.00  0.00    -0.087 A  
HETATM    7  C   UNL     1      -8.614   4.765  67.806  1.00  0.00    -0.103 A  
HETATM    8  C   UNL     1      -9.231   4.896  65.056  1.00  0.00    -0.107 A  
HETATM    9  C   UNL     1      -9.942   4.815  67.347  1.00  0.00    -0.204 A  
HETATM   10  C   UNL     1     -10.255   4.881  65.992  1.00  0.00    -0.287 A  
ENDROOT
BRANCH   7  11
HETATM   11  N   UNL     1      -8.403   4.602  69.179  1.00  0.00    -0.080 NA 
HETATM   12  C   UNL     1      -8.982   3.914  71.488  1.00  0.00    -0.107 C  
HETATM   13  C   UNL     1      -9.529   4.273  70.075  1.00  0.00    -0.184 C  
HETATM   14  N   UNL     1      -8.107   4.942  72.117  1.00  0.00    -0.109 NA 
HETATM   15  C   UNL     1      -7.498   5.636  69.732  1.00  0.00    -0.074 C  
HETATM   16  C   UNL     1      -7.016   5.222  71.142  1.00  0.00    -0.056 C  
BRANCH  14  17
HETATM   17  C   UNL     1      -8.824   6.192  72.462  1.00  0.00    -0.124 C  
BRANCH  17  18
HETATM   18  C   UNL     1      -7.954   7.470  72.512  1.00  0.00    -0.103 C  
BRANCH  18  19
HETATM   19  O   UNL     1      -8.764   8.683  72.556  1.00  0.00    -0.360 OA 
BRANCH  19  20
HETATM   20  C   UNL     1      -9.354   8.962  71.367  1.00  0.00    -0.268 C  
HETATM   21  O   UNL     1      -8.773   8.832  70.288  1.00  0.00    -0.140 OA 
BRANCH  20  22
HETATM   22  C   UNL     1     -10.788   9.408  71.414  1.00  0.00    -0.430 A  
HETATM   23  C   UNL     1     -11.563   8.633  72.312  1.00  0.00    -0.424 A  
HETATM   24  C   UNL     1     -12.922   8.855  72.494  1.00  0.00    -0.415 A  
HETATM   25  C   UNL     1     -13.539   9.875  71.787  1.00  0.00    -0.363 A  
HETATM   26  C   UNL     1     -12.794  10.663  70.903  1.00  0.00    -0.473 A  
HETATM   27  C   UNL     1     -11.414  10.454  70.684  1.00  0.00    -0.349 A  
BRANCH  27  28
HETATM   28  N   UNL     1     -10.749  11.227  69.709  1.00  0.00    -0.458 NA 
HETATM   29  H   UNL     1      -9.791  11.464  69.970  1.00  0.00     0.000 HD 
BRANCH  28  30
HETATM   30  C   UNL     1     -11.129  11.747  68.437  1.00  0.00    -0.237 A  
HETATM   31  C   UNL     1     -10.696  11.084  67.264  1.00  0.00    -0.312 A  
HETATM   32  C   UNL     1     -10.180   9.779  67.309  1.00  0.00    -0.289 A  
HETATM   33  C   UNL     1      -9.630   9.182  66.179  1.00  0.00    -0.333 A  
HETATM   34  C   UNL     1      -9.555   9.890  64.981  1.00  0.00    -0.364 A  
HETATM   35  C   UNL     1     -10.187  11.149  64.908  1.00  0.00    -0.361 A  
HETATM   36  C   UNL     1      -8.767   9.307  63.830  1.00  0.00    -0.167 C  
HETATM   37  C   UNL     1     -10.795  11.741  66.016  1.00  0.00    -0.296 A  
HETATM   38  F   UNL     1      -8.185   8.111  64.140  1.00  0.00    -0.151 F  
HETATM   39  F   UNL     1      -9.513   9.074  62.717  1.00  0.00     0.001 F  
HETATM   40  F   UNL     1      -7.741  10.114  63.441  1.00  0.00    -0.141 F  
HETATM   41  N   UNL     1     -11.423  12.921  65.897  1.00  0.00    -0.329 NA 
HETATM   42  C   UNL     1     -11.961  13.473  67.015  1.00  0.00    -0.394 A  
HETATM   43  C   UNL     1     -11.821  12.943  68.295  1.00  0.00    -0.372 A  
ENDBRANCH  28  30
ENDBRANCH  27  28
ENDBRANCH  20  22
ENDBRANCH  19  20
ENDBRANCH  18  19
ENDBRANCH  17  18
ENDBRANCH  14  17
ENDBRANCH   7  11
TORSDOF 8
ENDMDL
MODEL      118
REMARK 921   NORMALIZED FREE ENERGY PREDICTED BY IDOCK:   -5.74 KCAL/MOL
REMARK 922        TOTAL FREE ENERGY PREDICTED BY IDOCK:  -11.82 KCAL/MOL
REMARK 923 INTER-LIGAND FREE ENERGY PREDICTED BY IDOCK:  -10.49 KCAL/MOL
REMARK 924 INTRA-LIGAND FREE ENERGY PREDICTED BY IDOCK:   -1.33 KCAL/MOL
REMARK 927      BINDING AFFINITY PREDICTED BY RF-SCORE:    0.00 PKD
ROOT
HETATM    1  F   UNL     1      -7.180  13.986  69.928  1.00  0.00    -0.016 F  
HETATM    2  C   UNL     1      -6.512  14.975  69.272  1.00  0.00    -0.124 C  
HETATM    3  C   UNL     1      -7.305  15.619  68.162  1.00  0.00    -0.123 A  
HETATM    4  F   UNL     1      -6.127  15.866  70.228  1.00  0.00    -0.173 F  
HETATM    5  F   UNL     1      -5.361  14.404  68.815  1.00  0.00    -0.080 F  
HETATM    6  C   UNL     1      -8.616  15.200  67.856  1.00  0.00    -0.154 A  
HETATM    7  C   UNL     1      -9.304  15.731  66.759  1.00  0.00    -0.242 A  
HETATM    8  C   UNL     1      -6.703  16.624  67.389  1.00  0.00    -0.199 A  
HETATM    9  C   UNL     1      -8.673  16.749  66.022  1.00  0.00    -0.218 A  
HETATM   10  C   UNL     1      -7.390  17.196  66.327  1.00  0.00    -0.326 A  
ENDROOT
BRANCH   7  11
HETATM   11  N   UNL     1     -10.553  15.283  66.318  1.00  0.00    -0.302 NA 
HETATM   12  C   UNL     1     -12.778  14.217  66.540  1.00  0.00     0.060 C  
HETATM   13  C   UNL     1     -11.352  14.358  67.146  1.00  0.00    -0.343 C  
HETATM   14  N   UNL     1     -12.830  13.802  65.110  1.00  0.00    -0.748 NA 
HETATM   15  C   UNL     1     -10.541  14.920  64.881  1.00  0.00    -0.391 C  
HETATM   16  C   UNL     1     -11.989  14.775  64.357  1.00  0.00    -0.417 C  
BRANCH  14  17
HETATM   17  C   UNL     1     -12.348  12.419  64.883  1.00  0.00    -0.402 C  
BRANCH  17  18
HETATM   18  C   UNL     1     -11.295  12.254  63.762  1.00  0.00    -0.459 C  
BRANCH  18  19
HETATM   19  O   UNL     1     -10.639  10.951  63.813  1.00  0.00    -0.341 OA 
BRANCH  19  20
HETATM   20  C   UNL     1      -9.714  10.869  64.802  1.00  0.00    -0.271 C  
HETATM   21  O   UNL     1      -9.411  11.830  65.512  1.00  0.00    -0.227 OA 
BRANCH  20  22
HETATM   22  C   UNL     1      -9.086   9.523  65.029  1.00  0.00    -0.281 A  
HETATM   23  C   UNL     1      -8.037   9.259  64.114  1.00  0.00    -0.145 A  
HETATM   24  C   UNL     1      -7.334   8.061  64.126  1.00  0.00    -0.096 A  
HETATM   25  C   UNL     1      -7.656   7.099  65.071  1.00  0.00    -0.104 A  
HETATM   26  C   UNL     1      -8.679   7.341  65.994  1.00  0.00    -0.168 A  
HETATM   27  C   UNL     1      -9.424   8.541  65.999  1.00  0.00    -0.186 A  
BRANCH  27  28
HETATM   28  N   UNL     1     -10.502   8.677  66.899  1.00  0.00    -0.287 NA 
HETATM   29  H   UNL     1     -11.272   8.037  66.702  1.00  0.00     0.000 HD 
BRANCH  28  30
HETATM   30  C   UNL     1     -10.744   9.517  68.025  1.00  0.00    -0.212 A  
HETATM   31  C   UNL     1     -10.400   9.054  69.317  1.00  0.00    -0.227 A  
HETATM   32  C   UNL     1      -9.554   7.947  69.498  1.00  0.00    -0.160 A  
HETATM   33  C   UNL     1      -9.328   7.411  70.761  1.00  0.00    -0.159 A  
HETATM   34  C   UNL     1      -9.967   7.952  71.875  1.00  0.00    -0.234 A  
HETATM   35  C   UNL     1     -10.714   9.137  71.707  1.00  0.00    -0.405 A  
HETATM   36  C   UNL     1      -9.876   7.228  73.199  1.00  0.00    -0.235 C  
HETATM   37  C   UNL     1     -10.906   9.724  70.455  1.00  0.00    -0.323 A  
HETATM   38  F   UNL     1      -9.159   6.068  73.119  1.00  0.00    -0.131 F  
HETATM   39  F   UNL     1      -9.286   7.957  74.183  1.00  0.00    -0.308 F  
HETATM   40  F   UNL     1     -11.098   6.860  73.676  1.00  0.00    -0.287 F  
HETATM   41  N   UNL     1     -11.586  10.875  70.341  1.00  0.00    -0.324 NA 
HETATM   42  C   UNL     1     -11.781  11.380  69.097  1.00  0.00    -0.342 A  
HETATM   43  C   UNL     1     -11.405  10.735  67.922  1.00  0.00    -0.372 A  
ENDBRANCH  28  30
ENDBRANCH  27  28
ENDBRANCH  20  22
ENDBRANCH  19  20
ENDBRANCH  18  19
ENDBRANCH  17  18
ENDBRANCH  14  17
ENDBRANCH   7  11
TORSDOF 8
ENDMDL
MODEL      119
REMARK 921   NORMALIZED FREE ENERGY PREDICTED BY IDOCK:   -5.70 KCAL/MOL
REMARK 922        TOTAL FREE ENERGY PREDICTED BY IDOCK:  -11.77 KCAL/MOL
REMARK 923 INTER-LIGAND FREE ENERGY PREDICTED BY IDOCK:   -8.68 KCAL/MOL
REMARK 924 INTRA-LIGAND FREE ENERGY PREDICTED BY IDOCK:   -3.09 KCAL/MOL
REMARK 927      BINDING AFFINITY PREDICTED BY RF-SCORE:    0.00 PKD
ROOT
HETATM    1  F   UNL     1     -12.090  12.247  65.224  1.00  0.00    -0.428 F  
HETATM    2  C   UNL     1     -12.150  13.388  65.965  1.00  0.00    -0.438 C  
HETATM    3  C   UNL     1     -12.034  13.162  67.452  1.00  0.00    -0.379 A  
HETATM    4  F   UNL     1     -11.172  14.202  65.479  1.00  0.00    -0.301 F  
HETATM    5  F   UNL     1     -13.329  13.985  65.628  1.00  0.00    -0.522 F  
HETATM    6  C   UNL     1     -11.886  11.867  67.989  1.00  0.00    -0.323 A  
HETATM    7  C   UNL     1     -11.884  11.658  69.373  1.00  0.00    -0.342 A  
HETATM    8  C   UNL     1     -12.125  14.263  68.317  1.00  0.00    -0.278 A  
HETATM    9  C   UNL     1     -11.958  12.790  70.205  1.00  0.00    -0.371 A  
HETATM   10  C   UNL     1     -12.076  14.079  69.692  1.00  0.00    -0.408 A  
ENDROOT
BRANCH   7  11
HETATM   11  N   UNL     1     -11.866  10.400  69.982  1.00  0.00    -0.276 NA 
HETATM   12  C   UNL     1     -12.506   8.693  71.660  1.00  0.00    -0.335 C  
HETATM   13  C   UNL     1     -12.441  10.212  71.329  1.00  0.00    -0.406 C  
HETATM   14  N   UNL     1     -11.217   7.955  71.544  1.00  0.00    -0.244 NA 
HETATM   15  C   UNL     1     -10.568   9.709  69.799  1.00  0.00    -0.242 C  
HETATM   16  C   UNL     1     -10.705   8.213  70.169  1.00  0.00    -0.243 C  
BRANCH  14  17
HETATM   17  C   UNL     1     -10.214   8.365  72.554  1.00  0.00    -0.299 C  
BRANCH  17  18
HETATM   18  C   UNL     1      -8.744   8.024  72.212  1.00  0.00    -0.164 C  
BRANCH  18  19
HETATM   19  O   UNL     1      -8.373   6.685  72.658  1.00  0.00    -0.109 OA 
BRANCH  19  20
HETATM   20  C   UNL     1      -7.588   6.035  71.763  1.00  0.00    -0.096 C  
HETATM   21  O   UNL     1      -6.444   5.659  72.030  1.00  0.00    -0.049 OA 
BRANCH  20  22
HETATM   22  C   UNL     1      -8.191   5.748  70.417  1.00  0.00    -0.107 A  
HETATM   23  C   UNL     1      -9.324   4.901  70.506  1.00  0.00    -0.216 A  
HETATM   24  C   UNL     1     -10.023   4.487  69.380  1.00  0.00    -0.212 A  
HETATM   25  C   UNL     1      -9.611   4.926  68.131  1.00  0.00    -0.191 A  
HETATM   26  C   UNL     1      -8.504   5.773  68.017  1.00  0.00    -0.106 A  
HETATM   27  C   UNL     1      -7.762   6.201  69.140  1.00  0.00    -0.100 A  
BRANCH  27  28
HETATM   28  N   UNL     1      -6.602   6.979  68.942  1.00  0.00    -0.046 NA 
HETATM   29  H   UNL     1      -5.981   6.988  69.751  1.00  0.00     0.000 HD 
BRANCH  28  30
HETATM   30  C   UNL     1      -6.113   7.756  67.851  1.00  0.00    -0.045 A  
HETATM   31  C   UNL     1      -6.431   9.135  67.791  1.00  0.00    -0.056 A  
HETATM   32  C   UNL     1      -6.935   9.820  68.908  1.00  0.00    -0.062 A  
HETATM   33  C   UNL     1      -7.373  11.136  68.808  1.00  0.00    -0.114 A  
HETATM   34  C   UNL     1      -7.346  11.792  67.579  1.00  0.00    -0.127 A  
HETATM   35  C   UNL     1      -6.724  11.145  66.490  1.00  0.00    -0.128 A  
HETATM   36  C   UNL     1      -8.019  13.139  67.447  1.00  0.00    -0.171 C  
HETATM   37  C   UNL     1      -6.225   9.844  66.585  1.00  0.00    -0.068 A  
HETATM   38  F   UNL     1      -8.615  13.547  68.607  1.00  0.00    -0.164 F  
HETATM   39  F   UNL     1      -7.173  14.143  67.097  1.00  0.00    -0.189 F  
HETATM   40  F   UNL     1      -9.014  13.134  66.517  1.00  0.00    -0.225 F  
HETATM   41  N   UNL     1      -5.601   9.278  65.540  1.00  0.00    -0.048 NA 
HETATM   42  C   UNL     1      -5.174   7.996  65.671  1.00  0.00    -0.028 A  
HETATM   43  C   UNL     1      -5.424   7.197  66.783  1.00  0.00    -0.022 A  
ENDBRANCH  28  30
ENDBRANCH  27  28
ENDBRANCH  20  22
ENDBRANCH  19  20
ENDBRANCH  18  19
ENDBRANCH  17  18
ENDBRANCH  14  17
ENDBRANCH   7  11
TORSDOF 8
ENDMDL
MODEL      120
REMARK 921   NORMALIZED FREE ENERGY PREDICTED BY IDOCK:   -5.68 KCAL/MOL
REMARK 922        TOTAL FREE ENERGY PREDICTED BY IDOCK:  -11.74 KCAL/MOL
REMARK 923 INTER-LIGAND FREE ENERGY PREDICTED BY IDOCK:   -9.76 KCAL/MOL
REMARK 924 INTRA-LIGAND FREE ENERGY PREDICTED BY IDOCK:   -1.98 KCAL/MOL
REMARK 927      BINDING AFFINITY PREDICTED BY RF-SCORE:    0.00 PKD
ROOT
HETATM    1  F   UNL     1     -13.982  13.990  71.967  1.00  0.00    -0.438 F  
HETATM    2  C   UNL     1     -13.001  14.915  72.157  1.00  0.00    -0.334 C  
HETATM    3  C   UNL     1     -12.256  15.287  70.899  1.00  0.00    -0.409 A  
HETATM    4  F   UNL     1     -13.603  15.985  72.747  1.00  0.00    -0.559 F  
HETATM    5  F   UNL     1     -12.174  14.388  73.105  1.00  0.00    -0.314 F  
HETATM    6  C   UNL     1     -12.572  14.700  69.657  1.00  0.00    -0.105 A  
HETATM    7  C   UNL     1     -11.808  14.974  68.517  1.00  0.00    -0.291 A  
HETATM    8  C   UNL     1     -11.195  16.202  70.981  1.00  0.00    -0.297 A  
HETATM    9  C   UNL     1     -10.766  15.910  68.638  1.00  0.00    -0.274 A  
HETATM   10  C   UNL     1     -10.458  16.522  69.850  1.00  0.00    -0.166 A  
ENDROOT
BRANCH   7  11
HETATM   11  N   UNL     1     -11.978  14.342  67.281  1.00  0.00    -0.413 NA 
HETATM   12  C   UNL     1     -12.372  12.427  65.758  1.00  0.00    -0.028 C  
HETATM   13  C   UNL     1     -11.915  12.870  67.178  1.00  0.00    -0.310 C  
HETATM   14  N   UNL     1     -11.640  13.054  64.623  1.00  0.00    -0.331 NA 
HETATM   15  C   UNL     1     -11.251  15.036  66.192  1.00  0.00    -0.307 C  
HETATM   16  C   UNL     1     -11.742  14.528  64.816  1.00  0.00    -0.422 C  
BRANCH  14  17
HETATM   17  C   UNL     1     -10.219  12.641  64.543  1.00  0.00    -0.305 C  
BRANCH  17  18
HETATM   18  C   UNL     1      -9.959  11.120  64.643  1.00  0.00    -0.292 C  
BRANCH  18  19
HETATM   19  O   UNL     1      -9.176  10.774  65.825  1.00  0.00    -0.175 OA 
BRANCH  19  20
HETATM   20  C   UNL     1      -9.639   9.663  66.451  1.00  0.00    -0.210 C  
HETATM   21  O   UNL     1     -10.832   9.493  66.713  1.00  0.00    -0.117 OA 
BRANCH  20  22
HETATM   22  C   UNL     1      -8.626   8.605  66.786  1.00  0.00    -0.126 A  
HETATM   23  C   UNL     1      -8.342   7.764  65.681  1.00  0.00    -0.143 A  
HETATM   24  C   UNL     1      -7.453   6.701  65.774  1.00  0.00    -0.081 A  
HETATM   25  C   UNL     1      -6.809   6.464  66.979  1.00  0.00    -0.066 A  
HETATM   26  C   UNL     1      -7.061   7.287  68.081  1.00  0.00    -0.081 A  
HETATM   27  C   UNL     1      -7.972   8.366  68.025  1.00  0.00    -0.119 A  
BRANCH  27  28
HETATM   28  N   UNL     1      -8.245   9.096  69.201  1.00  0.00    -0.114 NA 
HETATM   29  H   UNL     1      -7.520   9.777  69.428  1.00  0.00     0.000 HD 
BRANCH  28  30
HETATM   30  C   UNL     1      -9.318   9.084  70.139  1.00  0.00    -0.192 A  
HETATM   31  C   UNL     1      -9.445   7.989  71.027  1.00  0.00    -0.179 A  
HETATM   32  C   UNL     1      -8.391   7.082  71.228  1.00  0.00    -0.114 A  
HETATM   33  C   UNL     1      -8.564   5.935  71.993  1.00  0.00    -0.137 A  
HETATM   34  C   UNL     1      -9.807   5.648  72.553  1.00  0.00    -0.185 A  
HETATM   35  C   UNL     1     -10.824   6.620  72.455  1.00  0.00    -0.270 A  
HETATM   36  C   UNL     1     -10.031   4.299  73.198  1.00  0.00    -0.142 C  
HETATM   37  C   UNL     1     -10.653   7.807  71.740  1.00  0.00    -0.217 A  
HETATM   38  F   UNL     1      -8.933   3.489  73.123  1.00  0.00    -0.094 F  
HETATM   39  F   UNL     1     -10.346   4.367  74.518  1.00  0.00    -0.203 F  
HETATM   40  F   UNL     1     -11.034   3.597  72.601  1.00  0.00    -0.196 F  
HETATM   41  N   UNL     1     -11.628   8.727  71.705  1.00  0.00    -0.296 NA 
HETATM   42  C   UNL     1     -11.427   9.843  70.960  1.00  0.00    -0.388 A  
HETATM   43  C   UNL     1     -10.313  10.054  70.151  1.00  0.00    -0.321 A  
ENDBRANCH  28  30
ENDBRANCH  27  28
ENDBRANCH  20  22
ENDBRANCH  19  20
ENDBRANCH  18  19
ENDBRANCH  17  18
ENDBRANCH  14  17
ENDBRANCH   7  11
TORSDOF 8
ENDMDL
MODEL      121
REMARK 921   NORMALIZED FREE ENERGY PREDICTED BY IDOCK:   -5.67 KCAL/MOL
REMARK 922        TOTAL FREE ENERGY PREDICTED BY IDOCK:  -11.73 KCAL/MOL
REMARK 923 INTER-LIGAND FREE ENERGY PREDICTED BY IDOCK:   -9.90 KCAL/MOL
REMARK 924 INTRA-LIGAND FREE ENERGY PREDICTED BY IDOCK:   -1.83 KCAL/MOL
REMARK 927      BINDING AFFINITY PREDICTED BY RF-SCORE:    0.00 PKD
ROOT
HETATM    1  F   UNL     1      -6.119   6.945  65.056  1.00  0.00    -0.033 F  
HETATM    2  C   UNL     1      -7.179   6.317  64.475  1.00  0.00    -0.064 C  
HETATM    3  C   UNL     1      -8.066   5.582  65.449  1.00  0.00    -0.123 A  
HETATM    4  F   UNL     1      -7.847   7.277  63.777  1.00  0.00    -0.109 F  
HETATM    5  F   UNL     1      -6.645   5.483  63.538  1.00  0.00    -0.027 F  
HETATM    6  C   UNL     1      -7.784   5.563  66.831  1.00  0.00    -0.100 A  
HETATM    7  C   UNL     1      -8.552   4.793  67.712  1.00  0.00    -0.103 A  
HETATM    8  C   UNL     1      -9.166   4.863  64.959  1.00  0.00    -0.107 A  
HETATM    9  C   UNL     1      -9.657   4.103  67.183  1.00  0.00    -0.229 A  
HETATM   10  C   UNL     1      -9.968   4.133  65.826  1.00  0.00    -0.200 A  
ENDROOT
BRANCH   7  11
HETATM   11  N   UNL     1      -8.265   4.624  69.070  1.00  0.00    -0.080 NA 
HETATM   12  C   UNL     1      -8.595   3.719  71.352  1.00  0.00    -0.084 C  
HETATM   13  C   UNL     1      -9.255   4.002  69.972  1.00  0.00    -0.145 C  
HETATM   14  N   UNL     1      -7.962   4.894  72.014  1.00  0.00    -0.107 NA 
HETATM   15  C   UNL     1      -7.608   5.815  69.655  1.00  0.00    -0.076 C  
HETATM   16  C   UNL     1      -6.998   5.463  71.033  1.00  0.00    -0.060 C  
BRANCH  14  17
HETATM   17  C   UNL     1      -8.939   5.925  72.436  1.00  0.00    -0.137 C  
BRANCH  17  18
HETATM   18  C   UNL     1      -8.339   7.301  72.808  1.00  0.00    -0.107 C  
BRANCH  18  19
HETATM   19  O   UNL     1      -9.368   8.322  72.975  1.00  0.00    -0.264 OA 
BRANCH  19  20
HETATM   20  C   UNL     1      -9.786   8.842  71.793  1.00  0.00    -0.321 C  
HETATM   21  O   UNL     1      -9.011   9.117  70.875  1.00  0.00    -0.219 OA 
BRANCH  20  22
HETATM   22  C   UNL     1     -11.267   9.038  71.627  1.00  0.00    -0.431 A  
HETATM   23  C   UNL     1     -12.012   7.932  72.108  1.00  0.00    -0.379 A  
HETATM   24  C   UNL     1     -13.398   7.889  72.030  1.00  0.00    -0.251 A  
HETATM   25  C   UNL     1     -14.077   8.965  71.481  1.00  0.00    -0.344 A  
HETATM   26  C   UNL     1     -13.366  10.075  71.011  1.00  0.00    -0.334 A  
HETATM   27  C   UNL     1     -11.955  10.144  71.061  1.00  0.00    -0.378 A  
BRANCH  27  28
HETATM   28  N   UNL     1     -11.302  11.253  70.484  1.00  0.00    -0.399 NA 
HETATM   29  H   UNL     1     -10.309  11.089  70.312  1.00  0.00     0.000 HD 
BRANCH  28  30
HETATM   30  C   UNL     1     -11.732  12.554  70.091  1.00  0.00    -0.175 A  
HETATM   31  C   UNL     1     -11.810  12.866  68.712  1.00  0.00    -0.353 A  
HETATM   32  C   UNL     1     -11.783  11.862  67.731  1.00  0.00    -0.362 A  
HETATM   33  C   UNL     1     -11.722  12.178  66.379  1.00  0.00    -0.394 A  
HETATM   34  C   UNL     1     -11.656  13.510  65.973  1.00  0.00    -0.363 A  
HETATM   35  C   UNL     1     -11.810  14.514  66.951  1.00  0.00    -0.399 A  
HETATM   36  C   UNL     1     -11.377  13.825  64.521  1.00  0.00    -0.380 C  
HETATM   37  C   UNL     1     -11.930  14.217  68.310  1.00  0.00    -0.332 A  
HETATM   38  F   UNL     1     -11.196  12.703  63.763  1.00  0.00    -0.380 F  
HETATM   39  F   UNL     1     -12.370  14.524  63.911  1.00  0.00    -0.508 F  
HETATM   40  F   UNL     1     -10.238  14.555  64.357  1.00  0.00    -0.350 F  
HETATM   41  N   UNL     1     -12.118  15.197  69.207  1.00  0.00    -0.277 NA 
HETATM   42  C   UNL     1     -12.186  14.858  70.519  1.00  0.00    -0.329 A  
HETATM   43  C   UNL     1     -11.978  13.569  71.006  1.00  0.00    -0.081 A  
ENDBRANCH  28  30
ENDBRANCH  27  28
ENDBRANCH  20  22
ENDBRANCH  19  20
ENDBRANCH  18  19
ENDBRANCH  17  18
ENDBRANCH  14  17
ENDBRANCH   7  11
TORSDOF 8
ENDMDL
MODEL      122
REMARK 921   NORMALIZED FREE ENERGY PREDICTED BY IDOCK:   -5.66 KCAL/MOL
REMARK 922        TOTAL FREE ENERGY PREDICTED BY IDOCK:  -11.71 KCAL/MOL
REMARK 923 INTER-LIGAND FREE ENERGY PREDICTED BY IDOCK:  -10.70 KCAL/MOL
REMARK 924 INTRA-LIGAND FREE ENERGY PREDICTED BY IDOCK:   -1.01 KCAL/MOL
REMARK 927      BINDING AFFINITY PREDICTED BY RF-SCORE:    0.00 PKD
ROOT
HETATM    1  F   UNL     1     -12.735   6.869  70.703  1.00  0.00    -0.402 F  
HETATM    2  C   UNL     1     -12.133   6.925  71.923  1.00  0.00    -0.333 C  
HETATM    3  C   UNL     1     -10.776   7.585  71.908  1.00  0.00    -0.253 A  
HETATM    4  F   UNL     1     -13.014   7.555  72.748  1.00  0.00     0.114 F  
HETATM    5  F   UNL     1     -12.071   5.636  72.364  1.00  0.00    -0.343 F  
HETATM    6  C   UNL     1     -10.212   8.080  70.713  1.00  0.00    -0.209 A  
HETATM    7  C   UNL     1      -8.912   8.595  70.691  1.00  0.00    -0.171 A  
HETATM    8  C   UNL     1     -10.043   7.662  73.101  1.00  0.00    -0.382 A  
HETATM    9  C   UNL     1      -8.218   8.672  71.912  1.00  0.00    -0.167 A  
HETATM   10  C   UNL     1      -8.770   8.215  73.106  1.00  0.00    -0.307 A  
ENDROOT
BRANCH   7  11
HETATM   11  N   UNL     1      -8.238   8.990  69.532  1.00  0.00    -0.110 NA 
HETATM   12  C   UNL     1      -6.744  10.415  68.161  1.00  0.00    -0.061 C  
HETATM   13  C   UNL     1      -7.623  10.330  69.443  1.00  0.00    -0.137 C  
HETATM   14  N   UNL     1      -7.437  10.082  66.885  1.00  0.00    -0.094 NA 
HETATM   15  C   UNL     1      -8.964   8.598  68.301  1.00  0.00    -0.142 C  
HETATM   16  C   UNL     1      -8.037   8.731  67.070  1.00  0.00    -0.099 C  
BRANCH  14  17
HETATM   17  C   UNL     1      -8.482  11.064  66.511  1.00  0.00    -0.161 C  
BRANCH  17  18
HETATM   18  C   UNL     1      -9.700  10.487  65.753  1.00  0.00    -0.223 C  
BRANCH  18  19
HETATM   19  O   UNL     1     -10.850  10.291  66.631  1.00  0.00    -0.159 OA 
BRANCH  19  20
HETATM   20  C   UNL     1     -11.620  11.402  66.740  1.00  0.00     0.046 C  
HETATM   21  O   UNL     1     -12.132  11.956  65.766  1.00  0.00    -0.451 OA 
BRANCH  20  22
HETATM   22  C   UNL     1     -11.862  11.922  68.129  1.00  0.00    -0.338 A  
HETATM   23  C   UNL     1     -11.643  10.932  69.119  1.00  0.00    -0.389 A  
HETATM   24  C   UNL     1     -11.833  11.187  70.471  1.00  0.00    -0.448 A  
HETATM   25  C   UNL     1     -12.236  12.453  70.868  1.00  0.00    -0.290 A  
HETATM   26  C   UNL     1     -12.447  13.452  69.912  1.00  0.00    -0.155 A  
HETATM   27  C   UNL     1     -12.277  13.221  68.529  1.00  0.00    -0.068 A  
BRANCH  27  28
HETATM   28  N   UNL     1     -12.598  14.248  67.616  1.00  0.00    -0.375 NA 
HETATM   29  H   UNL     1     -13.568  14.559  67.687  1.00  0.00     0.000 HD 
BRANCH  28  30
HETATM   30  C   UNL     1     -11.857  14.945  66.618  1.00  0.00    -0.156 A  
HETATM   31  C   UNL     1     -11.090  16.075  66.991  1.00  0.00    -0.071 A  
HETATM   32  C   UNL     1     -10.787  16.342  68.336  1.00  0.00    -0.342 A  
HETATM   33  C   UNL     1     -10.152  17.521  68.711  1.00  0.00    -0.363 A  
HETATM   34  C   UNL     1      -9.832  18.479  67.751  1.00  0.00    -0.336 A  
HETATM   35  C   UNL     1     -10.024  18.154  66.392  1.00  0.00    -0.376 A  
HETATM   36  C   UNL     1      -9.341  19.836  68.200  1.00  0.00    -0.340 C  
HETATM   37  C   UNL     1     -10.607  16.949  65.991  1.00  0.00    -0.218 A  
HETATM   38  F   UNL     1      -9.293  19.957  69.561  1.00  0.00    -0.284 F  
HETATM   39  F   UNL     1      -8.091  20.140  67.761  1.00  0.00    -0.322 F  
HETATM   40  F   UNL     1     -10.150  20.848  67.780  1.00  0.00    -0.521 F  
HETATM   41  N   UNL     1     -10.733  16.656  64.688  1.00  0.00    -0.707 NA 
HETATM   42  C   UNL     1     -11.346  15.492  64.352  1.00  0.00    -0.252 A  
HETATM   43  C   UNL     1     -11.937  14.626  65.268  1.00  0.00    -0.302 A  
ENDBRANCH  28  30
ENDBRANCH  27  28
ENDBRANCH  20  22
ENDBRANCH  19  20
ENDBRANCH  18  19
ENDBRANCH  17  18
ENDBRANCH  14  17
ENDBRANCH   7  11
TORSDOF 8
ENDMDL
MODEL      123
REMARK 921   NORMALIZED FREE ENERGY PREDICTED BY IDOCK:   -5.65 KCAL/MOL
REMARK 922        TOTAL FREE ENERGY PREDICTED BY IDOCK:  -11.70 KCAL/MOL
REMARK 923 INTER-LIGAND FREE ENERGY PREDICTED BY IDOCK:   -9.39 KCAL/MOL
REMARK 924 INTRA-LIGAND FREE ENERGY PREDICTED BY IDOCK:   -2.30 KCAL/MOL
REMARK 927      BINDING AFFINITY PREDICTED BY RF-SCORE:    0.00 PKD
ROOT
HETATM    1  F   UNL     1      -9.799   7.315  70.627  1.00  0.00    -0.178 F  
HETATM    2  C   UNL     1     -10.108   6.024  70.933  1.00  0.00    -0.196 C  
HETATM    3  C   UNL     1      -9.421   5.005  70.059  1.00  0.00    -0.231 A  
HETATM    4  F   UNL     1      -9.809   5.870  72.253  1.00  0.00    -0.167 F  
HETATM    5  F   UNL     1     -11.466   5.940  70.849  1.00  0.00    -0.356 F  
HETATM    6  C   UNL     1      -8.550   5.394  69.020  1.00  0.00    -0.102 A  
HETATM    7  C   UNL     1      -8.001   4.446  68.149  1.00  0.00    -0.079 A  
HETATM    8  C   UNL     1      -9.697   3.643  70.255  1.00  0.00    -0.193 A  
HETATM    9  C   UNL     1      -8.286   3.091  68.392  1.00  0.00    -0.088 A  
HETATM   10  C   UNL     1      -9.121   2.686  69.430  1.00  0.00    -0.188 A  
ENDROOT
BRANCH   7  11
HETATM   11  N   UNL     1      -7.230   4.760  67.025  1.00  0.00    -0.075 NA 
HETATM   12  C   UNL     1      -5.851   6.211  65.565  1.00  0.00    -0.025 C  
HETATM   13  C   UNL     1      -6.905   6.165  66.709  1.00  0.00    -0.062 C  
HETATM   14  N   UNL     1      -6.221   5.476  64.322  1.00  0.00    -0.022 NA 
HETATM   15  C   UNL     1      -7.628   3.971  65.836  1.00  0.00    -0.089 C  
HETATM   16  C   UNL     1      -6.546   4.083  64.736  1.00  0.00    -0.043 C  
BRANCH  14  17
HETATM   17  C   UNL     1      -7.365   6.082  63.602  1.00  0.00    -0.066 C  
BRANCH  17  18
HETATM   18  C   UNL     1      -7.363   7.627  63.523  1.00  0.00    -0.090 C  
BRANCH  18  19
HETATM   19  O   UNL     1      -8.636   8.199  63.949  1.00  0.00     0.033 OA 
BRANCH  19  20
HETATM   20  C   UNL     1      -8.489   9.396  64.571  1.00  0.00    -0.177 C  
HETATM   21  O   UNL     1      -7.764  10.291  64.130  1.00  0.00    -0.148 OA 
BRANCH  20  22
HETATM   22  C   UNL     1      -9.290   9.610  65.824  1.00  0.00    -0.286 A  
HETATM   23  C   UNL     1      -9.637   8.389  66.453  1.00  0.00    -0.307 A  
HETATM   24  C   UNL     1     -10.399   8.349  67.614  1.00  0.00    -0.317 A  
HETATM   25  C   UNL     1     -10.821   9.540  68.184  1.00  0.00    -0.208 A  
HETATM   26  C   UNL     1     -10.481  10.760  67.590  1.00  0.00    -0.252 A  
HETATM   27  C   UNL     1      -9.720  10.834  66.402  1.00  0.00    -0.199 A  
BRANCH  27  28
HETATM   28  N   UNL     1      -9.494  12.095  65.809  1.00  0.00    -0.384 NA 
HETATM   29  H   UNL     1      -8.534  12.422  65.915  1.00  0.00     0.000 HD 
BRANCH  28  30
HETATM   30  C   UNL     1     -10.322  13.008  65.093  1.00  0.00    -0.304 A  
HETATM   31  C   UNL     1     -10.193  14.396  65.343  1.00  0.00    -0.408 A  
HETATM   32  C   UNL     1      -9.083  14.917  66.027  1.00  0.00    -0.109 A  
HETATM   33  C   UNL     1      -9.025  16.258  66.390  1.00  0.00    -0.343 A  
HETATM   34  C   UNL     1     -10.093  17.107  66.104  1.00  0.00    -0.317 A  
HETATM   35  C   UNL     1     -11.147  16.611  65.310  1.00  0.00    -0.036 A  
HETATM   36  C   UNL     1     -10.104  18.500  66.692  1.00  0.00    -0.389 C  
HETATM   37  C   UNL     1     -11.196  15.281  64.885  1.00  0.00    -0.415 A  
HETATM   38  F   UNL     1      -9.018  18.748  67.483  1.00  0.00    -0.272 F  
HETATM   39  F   UNL     1     -10.110  19.488  65.759  1.00  0.00    -0.435 F  
HETATM   40  F   UNL     1     -11.185  18.719  67.490  1.00  0.00    -0.437 F  
HETATM   41  N   UNL     1     -12.193  14.856  64.094  1.00  0.00    -0.629 NA 
HETATM   42  C   UNL     1     -12.217  13.545  63.745  1.00  0.00    -0.388 A  
HETATM   43  C   UNL     1     -11.328  12.589  64.232  1.00  0.00    -0.417 A  
ENDBRANCH  28  30
ENDBRANCH  27  28
ENDBRANCH  20  22
ENDBRANCH  19  20
ENDBRANCH  18  19
ENDBRANCH  17  18
ENDBRANCH  14  17
ENDBRANCH   7  11
TORSDOF 8
ENDMDL
MODEL      124
REMARK 921   NORMALIZED FREE ENERGY PREDICTED BY IDOCK:   -5.64 KCAL/MOL
REMARK 922        TOTAL FREE ENERGY PREDICTED BY IDOCK:  -11.68 KCAL/MOL
REMARK 923 INTER-LIGAND FREE ENERGY PREDICTED BY IDOCK:   -8.60 KCAL/MOL
REMARK 924 INTRA-LIGAND FREE ENERGY PREDICTED BY IDOCK:   -3.08 KCAL/MOL
REMARK 927      BINDING AFFINITY PREDICTED BY RF-SCORE:    0.00 PKD
ROOT
HETATM    1  F   UNL     1      -8.085   4.601  71.225  1.00  0.00    -0.085 F  
HETATM    2  C   UNL     1      -9.370   5.006  71.024  1.00  0.00    -0.152 C  
HETATM    3  C   UNL     1      -9.614   5.624  69.669  1.00  0.00    -0.197 A  
HETATM    4  F   UNL     1     -10.149   3.911  71.250  1.00  0.00    -0.253 F  
HETATM    5  F   UNL     1      -9.647   5.872  72.040  1.00  0.00    -0.154 F  
HETATM    6  C   UNL     1      -8.575   5.760  68.725  1.00  0.00    -0.109 A  
HETATM    7  C   UNL     1      -8.787   6.428  67.514  1.00  0.00    -0.111 A  
HETATM    8  C   UNL     1     -10.892   6.116  69.366  1.00  0.00    -0.420 A  
HETATM    9  C   UNL     1     -10.087   6.889  67.241  1.00  0.00    -0.256 A  
HETATM   10  C   UNL     1     -11.132   6.738  68.149  1.00  0.00    -0.229 A  
ENDROOT
BRANCH   7  11
HETATM   11  N   UNL     1      -7.784   6.712  66.582  1.00  0.00    -0.100 NA 
HETATM   12  C   UNL     1      -5.521   7.390  65.836  1.00  0.00    -0.028 C  
HETATM   13  C   UNL     1      -6.557   7.421  66.997  1.00  0.00    -0.061 C  
HETATM   14  N   UNL     1      -6.004   7.920  64.530  1.00  0.00    -0.048 NA 
HETATM   15  C   UNL     1      -8.336   7.202  65.297  1.00  0.00    -0.096 C  
HETATM   16  C   UNL     1      -7.245   7.164  64.201  1.00  0.00    -0.069 C  
BRANCH  14  17
HETATM   17  C   UNL     1      -6.277   9.376  64.553  1.00  0.00    -0.079 C  
BRANCH  17  18
HETATM   18  C   UNL     1      -7.333   9.874  63.539  1.00  0.00    -0.132 C  
BRANCH  18  19
HETATM   19  O   UNL     1      -8.009  11.083  63.998  1.00  0.00     0.249 OA 
BRANCH  19  20
HETATM   20  C   UNL     1      -9.332  10.888  64.227  1.00  0.00    -0.228 C  
HETATM   21  O   UNL     1      -9.846   9.768  64.248  1.00  0.00    -0.106 OA 
BRANCH  20  22
HETATM   22  C   UNL     1     -10.158  12.113  64.499  1.00  0.00    -0.286 A  
HETATM   23  C   UNL     1     -11.152  12.321  63.511  1.00  0.00    -0.533 A  
HETATM   24  C   UNL     1     -12.013  13.410  63.550  1.00  0.00    -0.467 A  
HETATM   25  C   UNL     1     -11.909  14.315  64.595  1.00  0.00    -0.459 A  
HETATM   26  C   UNL     1     -10.945  14.125  65.591  1.00  0.00    -0.308 A  
HETATM   27  C   UNL     1     -10.044  13.037  65.573  1.00  0.00    -0.259 A  
BRANCH  27  28
HETATM   28  N   UNL     1      -9.038  12.962  66.559  1.00  0.00    -0.389 NA 
HETATM   29  H   UNL     1      -8.590  13.860  66.744  1.00  0.00     0.000 HD 
BRANCH  28  30
HETATM   30  C   UNL     1      -8.515  11.899  67.353  1.00  0.00    -0.166 A  
HETATM   31  C   UNL     1      -9.394  11.165  68.185  1.00  0.00    -0.176 A  
HETATM   32  C   UNL     1     -10.787  11.236  68.025  1.00  0.00    -0.266 A  
HETATM   33  C   UNL     1     -11.649  10.624  68.927  1.00  0.00    -0.320 A  
HETATM   34  C   UNL     1     -11.138   9.947  70.034  1.00  0.00    -0.335 A  
HETATM   35  C   UNL     1      -9.741   9.771  70.122  1.00  0.00    -0.299 A  
HETATM   36  C   UNL     1     -12.087   9.474  71.111  1.00  0.00    -0.347 C  
HETATM   37  C   UNL     1      -8.861  10.330  69.194  1.00  0.00    -0.176 A  
HETATM   38  F   UNL     1     -13.387   9.808  70.853  1.00  0.00    -0.400 F  
HETATM   39  F   UNL     1     -12.084   8.127  71.291  1.00  0.00    -0.287 F  
HETATM   40  F   UNL     1     -11.811  10.024  72.326  1.00  0.00    -0.175 F  
HETATM   41  N   UNL     1      -7.541  10.104  69.287  1.00  0.00    -0.104 NA 
HETATM   42  C   UNL     1      -6.725  10.706  68.385  1.00  0.00    -0.060 A  
HETATM   43  C   UNL     1      -7.157  11.619  67.426  1.00  0.00    -0.124 A  
ENDBRANCH  28  30
ENDBRANCH  27  28
ENDBRANCH  20  22
ENDBRANCH  19  20
ENDBRANCH  18  19
ENDBRANCH  17  18
ENDBRANCH  14  17
ENDBRANCH   7  11
TORSDOF 8
ENDMDL
MODEL      125
REMARK 921   NORMALIZED FREE ENERGY PREDICTED BY IDOCK:   -5.63 KCAL/MOL
REMARK 922        TOTAL FREE ENERGY PREDICTED BY IDOCK:  -11.67 KCAL/MOL
REMARK 923 INTER-LIGAND FREE ENERGY PREDICTED BY IDOCK:   -9.32 KCAL/MOL
REMARK 924 INTRA-LIGAND FREE ENERGY PREDICTED BY IDOCK:   -2.35 KCAL/MOL
REMARK 927      BINDING AFFINITY PREDICTED BY RF-SCORE:    0.00 PKD
ROOT
HETATM    1  F   UNL     1     -10.217  14.016  69.009  1.00  0.00    -0.229 F  
HETATM    2  C   UNL     1     -11.244  14.115  68.120  1.00  0.00    -0.276 C  
HETATM    3  C   UNL     1     -11.144  13.158  66.959  1.00  0.00    -0.305 A  
HETATM    4  F   UNL     1     -12.385  13.946  68.844  1.00  0.00    -0.385 F  
HETATM    5  F   UNL     1     -11.255  15.416  67.712  1.00  0.00    -0.294 F  
HETATM    6  C   UNL     1     -10.063  12.261  66.836  1.00  0.00    -0.224 A  
HETATM    7  C   UNL     1      -9.926  11.451  65.703  1.00  0.00    -0.240 A  
HETATM    8  C   UNL     1     -12.126  13.198  65.957  1.00  0.00    -0.495 A  
HETATM    9  C   UNL     1     -10.941  11.508  64.731  1.00  0.00    -0.338 A  
HETATM   10  C   UNL     1     -12.030  12.366  64.850  1.00  0.00    -0.458 A  
ENDROOT
BRANCH   7  11
HETATM   11  N   UNL     1      -8.824  10.628  65.449  1.00  0.00    -0.185 NA 
HETATM   12  C   UNL     1      -7.668   8.510  64.886  1.00  0.00    -0.105 C  
HETATM   13  C   UNL     1      -8.976   9.160  65.423  1.00  0.00    -0.207 C  
HETATM   14  N   UNL     1      -6.421   8.885  65.609  1.00  0.00    -0.063 NA 
HETATM   15  C   UNL     1      -7.611  11.078  66.172  1.00  0.00    -0.084 C  
HETATM   16  C   UNL     1      -6.358  10.374  65.600  1.00  0.00    -0.126 C  
BRANCH  14  17
HETATM   17  C   UNL     1      -6.374   8.375  66.999  1.00  0.00    -0.057 C  
BRANCH  17  18
HETATM   18  C   UNL     1      -5.301   7.296  67.279  1.00  0.00    -0.028 C  
BRANCH  18  19
HETATM   19  O   UNL     1      -5.738   6.337  68.288  1.00  0.00    -0.011 OA 
BRANCH  19  20
HETATM   20  C   UNL     1      -6.177   5.173  67.748  1.00  0.00    -0.038 C  
HETATM   21  O   UNL     1      -5.446   4.192  67.593  1.00  0.00    -0.015 OA 
BRANCH  20  22
HETATM   22  C   UNL     1      -7.630   5.109  67.371  1.00  0.00    -0.088 A  
HETATM   23  C   UNL     1      -7.820   5.058  65.968  1.00  0.00    -0.099 A  
HETATM   24  C   UNL     1      -9.086   5.020  65.397  1.00  0.00    -0.157 A  
HETATM   25  C   UNL     1     -10.199   5.016  66.223  1.00  0.00    -0.306 A  
HETATM   26  C   UNL     1     -10.039   5.052  67.613  1.00  0.00    -0.192 A  
HETATM   27  C   UNL     1      -8.767   5.107  68.225  1.00  0.00    -0.101 A  
BRANCH  27  28
HETATM   28  N   UNL     1      -8.685   5.235  69.628  1.00  0.00    -0.100 NA 
HETATM   29  H   UNL     1      -8.726   4.340  70.116  1.00  0.00     0.000 HD 
BRANCH  28  30
HETATM   30  C   UNL     1      -8.556   6.349  70.508  1.00  0.00    -0.143 A  
HETATM   31  C   UNL     1      -9.719   7.057  70.897  1.00  0.00    -0.176 A  
HETATM   32  C   UNL     1     -11.002   6.521  70.704  1.00  0.00    -0.340 A  
HETATM   33  C   UNL     1     -12.143   7.273  70.960  1.00  0.00    -0.361 A  
HETATM   34  C   UNL     1     -12.028   8.595  71.389  1.00  0.00    -0.355 A  
HETATM   35  C   UNL     1     -10.744   9.086  71.702  1.00  0.00    -0.441 A  
HETATM   36  C   UNL     1     -13.268   9.457  71.457  1.00  0.00    -0.384 C  
HETATM   37  C   UNL     1      -9.589   8.326  71.506  1.00  0.00    -0.188 A  
HETATM   38  F   UNL     1     -14.393   8.798  71.047  1.00  0.00    -0.393 F  
HETATM   39  F   UNL     1     -13.548   9.918  72.704  1.00  0.00    -0.414 F  
HETATM   40  F   UNL     1     -13.183  10.553  70.653  1.00  0.00    -0.414 F  
HETATM   41  N   UNL     1      -8.388   8.812  71.856  1.00  0.00    -0.349 NA 
HETATM   42  C   UNL     1      -7.293   8.051  71.605  1.00  0.00    -0.076 A  
HETATM   43  C   UNL     1      -7.324   6.838  70.921  1.00  0.00    -0.082 A  
ENDBRANCH  28  30
ENDBRANCH  27  28
ENDBRANCH  20  22
ENDBRANCH  19  20
ENDBRANCH  18  19
ENDBRANCH  17  18
ENDBRANCH  14  17
ENDBRANCH   7  11
TORSDOF 8
ENDMDL
MODEL      126
REMARK 921   NORMALIZED FREE ENERGY PREDICTED BY IDOCK:   -5.61 KCAL/MOL
REMARK 922        TOTAL FREE ENERGY PREDICTED BY IDOCK:  -11.63 KCAL/MOL
REMARK 923 INTER-LIGAND FREE ENERGY PREDICTED BY IDOCK:   -9.31 KCAL/MOL
REMARK 924 INTRA-LIGAND FREE ENERGY PREDICTED BY IDOCK:   -2.32 KCAL/MOL
REMARK 927      BINDING AFFINITY PREDICTED BY RF-SCORE:    0.00 PKD
ROOT
HETATM    1  F   UNL     1     -11.812   2.976  73.875  1.00  0.00    -0.166 F  
HETATM    2  C   UNL     1     -10.856   2.298  73.181  1.00  0.00    -0.158 C  
HETATM    3  C   UNL     1      -9.882   3.189  72.450  1.00  0.00    -0.227 A  
HETATM    4  F   UNL     1     -10.245   1.481  74.084  1.00  0.00    -0.097 F  
HETATM    5  F   UNL     1     -11.531   1.472  72.333  1.00  0.00    -0.149 F  
HETATM    6  C   UNL     1      -9.991   4.594  72.499  1.00  0.00    -0.220 A  
HETATM    7  C   UNL     1      -9.147   5.408  71.734  1.00  0.00    -0.138 A  
HETATM    8  C   UNL     1      -8.877   2.601  71.667  1.00  0.00    -0.123 A  
HETATM    9  C   UNL     1      -8.142   4.780  70.978  1.00  0.00    -0.088 A  
HETATM   10  C   UNL     1      -8.001   3.395  70.940  1.00  0.00    -0.055 A  
ENDROOT
BRANCH   7  11
HETATM   11  N   UNL     1      -9.270   6.797  71.632  1.00  0.00    -0.145 NA 
HETATM   12  C   UNL     1     -10.285   9.014  72.073  1.00  0.00    -0.200 C  
HETATM   13  C   UNL     1     -10.507   7.474  72.070  1.00  0.00    -0.208 C  
HETATM   14  N   UNL     1      -9.808   9.596  70.787  1.00  0.00    -0.227 NA 
HETATM   15  C   UNL     1      -8.747   7.312  70.344  1.00  0.00    -0.146 C  
HETATM   16  C   UNL     1      -8.575   8.848  70.416  1.00  0.00    -0.180 C  
BRANCH  14  17
HETATM   17  C   UNL     1     -10.810   9.513  69.699  1.00  0.00    -0.235 C  
BRANCH  17  18
HETATM   18  C   UNL     1     -11.737  10.742  69.549  1.00  0.00    -0.312 C  
BRANCH  18  19
HETATM   19  O   UNL     1     -11.948  11.102  68.150  1.00  0.00    -0.615 OA 
BRANCH  19  20
HETATM   20  C   UNL     1     -11.064  12.033  67.711  1.00  0.00    -0.249 C  
HETATM   21  O   UNL     1     -10.220  12.549  68.446  1.00  0.00    -0.225 OA 
BRANCH  20  22
HETATM   22  C   UNL     1     -11.129  12.392  66.254  1.00  0.00    -0.344 A  
HETATM   23  C   UNL     1     -12.309  13.107  65.929  1.00  0.00    -0.462 A  
HETATM   24  C   UNL     1     -12.588  13.516  64.631  1.00  0.00    -0.303 A  
HETATM   25  C   UNL     1     -11.678  13.232  63.624  1.00  0.00    -0.447 A  
HETATM   26  C   UNL     1     -10.500  12.539  63.921  1.00  0.00    -0.464 A  
HETATM   27  C   UNL     1     -10.194  12.095  65.226  1.00  0.00    -0.274 A  
BRANCH  27  28
HETATM   28  N   UNL     1      -9.032  11.321  65.434  1.00  0.00    -0.343 NA 
HETATM   29  H   UNL     1      -8.435  11.685  66.176  1.00  0.00     0.000 HD 
BRANCH  28  30
HETATM   30  C   UNL     1      -8.515  10.139  64.827  1.00  0.00    -0.174 A  
HETATM   31  C   UNL     1      -8.894   8.877  65.344  1.00  0.00    -0.234 A  
HETATM   32  C   UNL     1      -9.987   8.740  66.216  1.00  0.00    -0.315 A  
HETATM   33  C   UNL     1     -10.273   7.525  66.828  1.00  0.00    -0.324 A  
HETATM   34  C   UNL     1      -9.452   6.421  66.607  1.00  0.00    -0.191 A  
HETATM   35  C   UNL     1      -8.434   6.528  65.637  1.00  0.00    -0.146 A  
HETATM   36  C   UNL     1      -9.652   5.176  67.442  1.00  0.00    -0.139 C  
HETATM   37  C   UNL     1      -8.167   7.724  64.968  1.00  0.00    -0.120 A  
HETATM   38  F   UNL     1     -10.650   5.314  68.365  1.00  0.00    -0.240 F  
HETATM   39  F   UNL     1      -9.976   4.074  66.715  1.00  0.00    -0.230 F  
HETATM   40  F   UNL     1      -8.543   4.849  68.161  1.00  0.00    -0.101 F  
HETATM   41  N   UNL     1      -7.219   7.776  64.020  1.00  0.00    -0.075 NA 
HETATM   42  C   UNL     1      -6.970   8.973  63.431  1.00  0.00    -0.089 A  
HETATM   43  C   UNL     1      -7.568  10.172  63.812  1.00  0.00    -0.133 A  
ENDBRANCH  28  30
ENDBRANCH  27  28
ENDBRANCH  20  22
ENDBRANCH  19  20
ENDBRANCH  18  19
ENDBRANCH  17  18
ENDBRANCH  14  17
ENDBRANCH   7  11
TORSDOF 8
ENDMDL
MODEL      127
REMARK 921   NORMALIZED FREE ENERGY PREDICTED BY IDOCK:   -5.60 KCAL/MOL
REMARK 922        TOTAL FREE ENERGY PREDICTED BY IDOCK:  -11.61 KCAL/MOL
REMARK 923 INTER-LIGAND FREE ENERGY PREDICTED BY IDOCK:   -9.25 KCAL/MOL
REMARK 924 INTRA-LIGAND FREE ENERGY PREDICTED BY IDOCK:   -2.37 KCAL/MOL
REMARK 927      BINDING AFFINITY PREDICTED BY RF-SCORE:    0.00 PKD
ROOT
HETATM    1  F   UNL     1      -8.177   2.394  66.256  1.00  0.00    -0.079 F  
HETATM    2  C   UNL     1      -9.063   3.257  65.686  1.00  0.00    -0.152 C  
HETATM    3  C   UNL     1      -9.683   4.229  66.658  1.00  0.00    -0.239 A  
HETATM    4  F   UNL     1      -8.388   3.879  64.680  1.00  0.00    -0.094 F  
HETATM    5  F   UNL     1      -9.999   2.476  65.076  1.00  0.00    -0.029 F  
HETATM    6  C   UNL     1      -9.355   4.209  68.030  1.00  0.00    -0.213 A  
HETATM    7  C   UNL     1     -10.012   5.044  68.940  1.00  0.00    -0.166 A  
HETATM    8  C   UNL     1     -10.644   5.140  66.192  1.00  0.00    -0.293 A  
HETATM    9  C   UNL     1     -10.954   5.955  68.428  1.00  0.00    -0.264 A  
HETATM   10  C   UNL     1     -11.270   6.009  67.074  1.00  0.00    -0.099 A  
ENDROOT
BRANCH   7  11
HETATM   11  N   UNL     1      -9.833   4.999  70.326  1.00  0.00    -0.213 NA 
HETATM   12  C   UNL     1     -10.421   5.426  72.694  1.00  0.00    -0.217 C  
HETATM   13  C   UNL     1     -10.653   5.847  71.214  1.00  0.00    -0.252 C  
HETATM   14  N   UNL     1      -9.002   5.428  73.147  1.00  0.00    -0.119 NA 
HETATM   15  C   UNL     1      -8.401   4.969  70.704  1.00  0.00    -0.106 C  
HETATM   16  C   UNL     1      -8.252   4.567  72.191  1.00  0.00    -0.105 C  
BRANCH  14  17
HETATM   17  C   UNL     1      -8.405   6.783  73.200  1.00  0.00    -0.114 C  
BRANCH  17  18
HETATM   18  C   UNL     1      -9.401   7.943  73.431  1.00  0.00    -0.282 C  
BRANCH  18  19
HETATM   19  O   UNL     1      -9.232   9.015  72.455  1.00  0.00    -0.259 OA 
BRANCH  19  20
HETATM   20  C   UNL     1     -10.294   9.134  71.620  1.00  0.00    -0.318 C  
HETATM   21  O   UNL     1     -11.458   9.176  72.024  1.00  0.00    -0.362 OA 
BRANCH  20  22
HETATM   22  C   UNL     1      -9.990   9.256  70.154  1.00  0.00    -0.251 A  
HETATM   23  C   UNL     1      -8.759   8.644  69.808  1.00  0.00    -0.132 A  
HETATM   24  C   UNL     1      -8.268   8.659  68.509  1.00  0.00    -0.122 A  
HETATM   25  C   UNL     1      -9.011   9.279  67.515  1.00  0.00    -0.127 A  
HETATM   26  C   UNL     1     -10.235   9.879  67.827  1.00  0.00    -0.241 A  
HETATM   27  C   UNL     1     -10.755   9.895  69.141  1.00  0.00    -0.224 A  
BRANCH  27  28
HETATM   28  N   UNL     1     -11.950  10.600  69.398  1.00  0.00    -0.490 NA 
HETATM   29  H   UNL     1     -12.781  10.120  69.051  1.00  0.00     0.000 HD 
BRANCH  28  30
HETATM   30  C   UNL     1     -12.243  11.838  70.040  1.00  0.00    -0.242 A  
HETATM   31  C   UNL     1     -11.627  13.022  69.568  1.00  0.00    -0.342 A  
HETATM   32  C   UNL     1     -10.992  13.068  68.316  1.00  0.00    -0.285 A  
HETATM   33  C   UNL     1     -10.271  14.187  67.915  1.00  0.00    -0.235 A  
HETATM   34  C   UNL     1     -10.140  15.279  68.771  1.00  0.00    -0.219 A  
HETATM   35  C   UNL     1     -10.881  15.280  69.971  1.00  0.00    -0.303 A  
HETATM   36  C   UNL     1      -9.182  16.391  68.406  1.00  0.00    -0.217 C  
HETATM   37  C   UNL     1     -11.658  14.188  70.366  1.00  0.00    -0.171 A  
HETATM   38  F   UNL     1      -8.522  16.154  67.233  1.00  0.00    -0.168 F  
HETATM   39  F   UNL     1      -9.780  17.601  68.252  1.00  0.00    -0.265 F  
HETATM   40  F   UNL     1      -8.205  16.562  69.339  1.00  0.00    -0.234 F  
HETATM   41  N   UNL     1     -12.383  14.243  71.494  1.00  0.00    -0.349 NA 
HETATM   42  C   UNL     1     -13.086  13.139  71.854  1.00  0.00    -0.385 A  
HETATM   43  C   UNL     1     -13.030  11.921  71.181  1.00  0.00    -0.266 A  
ENDBRANCH  28  30
ENDBRANCH  27  28
ENDBRANCH  20  22
ENDBRANCH  19  20
ENDBRANCH  18  19
ENDBRANCH  17  18
ENDBRANCH  14  17
ENDBRANCH   7  11
TORSDOF 8
ENDMDL
MODEL      128
REMARK 921   NORMALIZED FREE ENERGY PREDICTED BY IDOCK:   -5.59 KCAL/MOL
REMARK 922        TOTAL FREE ENERGY PREDICTED BY IDOCK:  -11.61 KCAL/MOL
REMARK 923 INTER-LIGAND FREE ENERGY PREDICTED BY IDOCK:  -10.26 KCAL/MOL
REMARK 924 INTRA-LIGAND FREE ENERGY PREDICTED BY IDOCK:   -1.35 KCAL/MOL
REMARK 927      BINDING AFFINITY PREDICTED BY RF-SCORE:    0.00 PKD
ROOT
HETATM    1  F   UNL     1      -8.160   5.223  71.917  1.00  0.00    -0.104 F  
HETATM    2  C   UNL     1      -9.471   5.340  71.565  1.00  0.00    -0.150 C  
HETATM    3  C   UNL     1      -9.687   5.741  70.127  1.00  0.00    -0.219 A  
HETATM    4  F   UNL     1     -10.049   4.145  71.870  1.00  0.00    -0.227 F  
HETATM    5  F   UNL     1     -10.007   6.243  72.435  1.00  0.00    -0.172 F  
HETATM    6  C   UNL     1      -8.601   5.974  69.257  1.00  0.00    -0.118 A  
HETATM    7  C   UNL     1      -8.810   6.446  67.956  1.00  0.00    -0.113 A  
HETATM    8  C   UNL     1     -10.997   5.932  69.663  1.00  0.00    -0.447 A  
HETATM    9  C   UNL     1     -10.138   6.606  67.525  1.00  0.00    -0.202 A  
HETATM   10  C   UNL     1     -11.223   6.354  68.360  1.00  0.00    -0.297 A  
ENDROOT
BRANCH   7  11
HETATM   11  N   UNL     1      -7.788   6.817  67.077  1.00  0.00    -0.103 NA 
HETATM   12  C   UNL     1      -5.594   7.777  66.439  1.00  0.00    -0.028 C  
HETATM   13  C   UNL     1      -6.712   7.726  67.521  1.00  0.00    -0.068 C  
HETATM   14  N   UNL     1      -6.045   8.144  65.068  1.00  0.00    -0.045 NA 
HETATM   15  C   UNL     1      -8.302   7.136  65.724  1.00  0.00    -0.143 C  
HETATM   16  C   UNL     1      -7.134   7.192  64.711  1.00  0.00    -0.068 C  
BRANCH  14  17
HETATM   17  C   UNL     1      -6.526   9.542  64.963  1.00  0.00    -0.084 C  
BRANCH  17  18
HETATM   18  C   UNL     1      -7.590   9.802  63.872  1.00  0.00    -0.133 C  
BRANCH  18  19
HETATM   19  O   UNL     1      -8.288  11.068  64.075  1.00  0.00     0.086 OA 
BRANCH  19  20
HETATM   20  C   UNL     1      -9.561  10.899  64.513  1.00  0.00    -0.264 C  
HETATM   21  O   UNL     1      -9.971   9.832  64.973  1.00  0.00    -0.286 OA 
BRANCH  20  22
HETATM   22  C   UNL     1     -10.461  12.100  64.450  1.00  0.00    -0.352 A  
HETATM   23  C   UNL     1     -11.572  11.895  63.595  1.00  0.00    -0.559 A  
HETATM   24  C   UNL     1     -12.520  12.884  63.369  1.00  0.00    -0.396 A  
HETATM   25  C   UNL     1     -12.386  14.106  64.010  1.00  0.00    -0.315 A  
HETATM   26  C   UNL     1     -11.305  14.330  64.870  1.00  0.00    -0.372 A  
HETATM   27  C   UNL     1     -10.316  13.351  65.110  1.00  0.00    -0.336 A  
BRANCH  27  28
HETATM   28  N   UNL     1      -9.205  13.680  65.916  1.00  0.00    -0.479 NA 
HETATM   29  H   UNL     1      -8.376  13.124  65.702  1.00  0.00     0.000 HD 
BRANCH  28  30
HETATM   30  C   UNL     1      -8.995  14.622  66.964  1.00  0.00    -0.240 A  
HETATM   31  C   UNL     1      -9.812  14.563  68.118  1.00  0.00    -0.223 A  
HETATM   32  C   UNL     1     -10.599  13.434  68.402  1.00  0.00    -0.259 A  
HETATM   33  C   UNL     1     -11.502  13.432  69.459  1.00  0.00    -0.308 A  
HETATM   34  C   UNL     1     -11.664  14.573  70.243  1.00  0.00    -0.356 A  
HETATM   35  C   UNL     1     -10.785  15.657  70.035  1.00  0.00    -0.345 A  
HETATM   36  C   UNL     1     -12.794  14.624  71.246  1.00  0.00    -0.335 C  
HETATM   37  C   UNL     1      -9.831  15.656  69.015  1.00  0.00    -0.236 A  
HETATM   38  F   UNL     1     -13.561  13.492  71.234  1.00  0.00    -0.336 F  
HETATM   39  F   UNL     1     -12.380  14.773  72.532  1.00  0.00    -0.377 F  
HETATM   40  F   UNL     1     -13.661  15.645  71.001  1.00  0.00    -0.538 F  
HETATM   41  N   UNL     1      -8.984  16.687  68.875  1.00  0.00    -0.254 NA 
HETATM   42  C   UNL     1      -8.106  16.656  67.841  1.00  0.00    -0.172 A  
HETATM   43  C   UNL     1      -8.088  15.669  66.859  1.00  0.00    -0.290 A  
ENDBRANCH  28  30
ENDBRANCH  27  28
ENDBRANCH  20  22
ENDBRANCH  19  20
ENDBRANCH  18  19
ENDBRANCH  17  18
ENDBRANCH  14  17
ENDBRANCH   7  11
TORSDOF 8
ENDMDL
MODEL      129
REMARK 921   NORMALIZED FREE ENERGY PREDICTED BY IDOCK:   -5.58 KCAL/MOL
REMARK 922        TOTAL FREE ENERGY PREDICTED BY IDOCK:  -11.58 KCAL/MOL
REMARK 923 INTER-LIGAND FREE ENERGY PREDICTED BY IDOCK:   -9.75 KCAL/MOL
REMARK 924 INTRA-LIGAND FREE ENERGY PREDICTED BY IDOCK:   -1.83 KCAL/MOL
REMARK 927      BINDING AFFINITY PREDICTED BY RF-SCORE:    0.00 PKD
ROOT
HETATM    1  F   UNL     1     -12.553  16.410  72.354  1.00  0.00    -0.476 F  
HETATM    2  C   UNL     1     -13.008  15.234  72.870  1.00  0.00    -0.463 C  
HETATM    3  C   UNL     1     -12.724  14.034  72.002  1.00  0.00    -0.367 A  
HETATM    4  F   UNL     1     -12.453  15.129  74.110  1.00  0.00    -0.599 F  
HETATM    5  F   UNL     1     -14.343  15.414  73.076  1.00  0.00    -0.402 F  
HETATM    6  C   UNL     1     -12.053  14.159  70.768  1.00  0.00    -0.419 A  
HETATM    7  C   UNL     1     -11.888  13.056  69.923  1.00  0.00    -0.307 A  
HETATM    8  C   UNL     1     -13.184  12.773  72.413  1.00  0.00    -0.396 A  
HETATM    9  C   UNL     1     -12.346  11.808  70.381  1.00  0.00    -0.362 A  
HETATM   10  C   UNL     1     -12.985  11.660  71.608  1.00  0.00    -0.483 A  
ENDROOT
BRANCH   7  11
HETATM   11  N   UNL     1     -11.345  13.122  68.636  1.00  0.00    -0.269 NA 
HETATM   12  C   UNL     1     -11.073  12.461  66.264  1.00  0.00    -0.303 C  
HETATM   13  C   UNL     1     -11.574  12.027  67.672  1.00  0.00    -0.321 C  
HETATM   14  N   UNL     1      -9.656  12.917  66.199  1.00  0.00    -0.244 NA 
HETATM   15  C   UNL     1      -9.948  13.613  68.642  1.00  0.00    -0.161 C  
HETATM   16  C   UNL     1      -9.514  14.002  67.209  1.00  0.00    -0.231 C  
BRANCH  14  17
HETATM   17  C   UNL     1      -8.680  11.834  66.464  1.00  0.00    -0.173 C  
BRANCH  17  18
HETATM   18  C   UNL     1      -7.483  12.219  67.366  1.00  0.00    -0.160 C  
BRANCH  18  19
HETATM   19  O   UNL     1      -7.485  11.480  68.624  1.00  0.00    -0.104 OA 
BRANCH  19  20
HETATM   20  C   UNL     1      -7.632  10.143  68.445  1.00  0.00    -0.087 C  
HETATM   21  O   UNL     1      -6.825   9.463  67.808  1.00  0.00    -0.077 OA 
BRANCH  20  22
HETATM   22  C   UNL     1      -8.821   9.501  69.101  1.00  0.00    -0.147 A  
HETATM   23  C   UNL     1      -8.729   9.517  70.515  1.00  0.00    -0.247 A  
HETATM   24  C   UNL     1      -9.708   8.954  71.323  1.00  0.00    -0.359 A  
HETATM   25  C   UNL     1     -10.818   8.371  70.732  1.00  0.00    -0.255 A  
HETATM   26  C   UNL     1     -10.940   8.353  69.338  1.00  0.00    -0.016 A  
HETATM   27  C   UNL     1      -9.955   8.904  68.487  1.00  0.00    -0.177 A  
BRANCH  27  28
HETATM   28  N   UNL     1     -10.101   8.767  67.091  1.00  0.00    -0.227 NA 
HETATM   29  H   UNL     1     -10.857   9.336  66.708  1.00  0.00     0.000 HD 
BRANCH  28  30
HETATM   30  C   UNL     1      -9.416   8.004  66.100  1.00  0.00    -0.122 A  
HETATM   31  C   UNL     1      -9.346   6.597  66.241  1.00  0.00    -0.144 A  
HETATM   32  C   UNL     1     -10.180   5.908  67.137  1.00  0.00    -0.247 A  
HETATM   33  C   UNL     1     -10.016   4.548  67.372  1.00  0.00    -0.171 A  
HETATM   34  C   UNL     1      -8.991   3.846  66.739  1.00  0.00    -0.144 A  
HETATM   35  C   UNL     1      -8.239   4.512  65.749  1.00  0.00    -0.110 A  
HETATM   36  C   UNL     1      -8.696   2.427  67.167  1.00  0.00    -0.123 C  
HETATM   37  C   UNL     1      -8.427   5.864  65.455  1.00  0.00    -0.154 A  
HETATM   38  F   UNL     1      -9.503   2.004  68.186  1.00  0.00    -0.203 F  
HETATM   39  F   UNL     1      -8.851   1.511  66.174  1.00  0.00    -0.105 F  
HETATM   40  F   UNL     1      -7.425   2.277  67.632  1.00  0.00    -0.053 F  
HETATM   41  N   UNL     1      -7.722   6.452  64.476  1.00  0.00    -0.101 NA 
HETATM   42  C   UNL     1      -7.912   7.778  64.261  1.00  0.00    -0.120 A  
HETATM   43  C   UNL     1      -8.721   8.591  65.051  1.00  0.00    -0.124 A  
ENDBRANCH  28  30
ENDBRANCH  27  28
ENDBRANCH  20  22
ENDBRANCH  19  20
ENDBRANCH  18  19
ENDBRANCH  17  18
ENDBRANCH  14  17
ENDBRANCH   7  11
TORSDOF 8
ENDMDL
MODEL      130
REMARK 921   NORMALIZED FREE ENERGY PREDICTED BY IDOCK:   -5.56 KCAL/MOL
REMARK 922        TOTAL FREE ENERGY PREDICTED BY IDOCK:  -11.55 KCAL/MOL
REMARK 923 INTER-LIGAND FREE ENERGY PREDICTED BY IDOCK:  -10.43 KCAL/MOL
REMARK 924 INTRA-LIGAND FREE ENERGY PREDICTED BY IDOCK:   -1.13 KCAL/MOL
REMARK 927      BINDING AFFINITY PREDICTED BY RF-SCORE:    0.00 PKD
ROOT
HETATM    1  F   UNL     1      -5.155   5.405  67.466  1.00  0.00    -0.003 F  
HETATM    2  C   UNL     1      -5.922   4.675  66.609  1.00  0.00    -0.027 C  
HETATM    3  C   UNL     1      -7.400   4.741  66.900  1.00  0.00    -0.082 A  
HETATM    4  F   UNL     1      -5.612   5.117  65.358  1.00  0.00    -0.012 F  
HETATM    5  F   UNL     1      -5.442   3.400  66.679  1.00  0.00    -0.014 F  
HETATM    6  C   UNL     1      -7.904   5.497  67.979  1.00  0.00    -0.096 A  
HETATM    7  C   UNL     1      -9.265   5.468  68.304  1.00  0.00    -0.109 A  
HETATM    8  C   UNL     1      -8.285   3.995  66.107  1.00  0.00    -0.105 A  
HETATM    9  C   UNL     1     -10.120   4.723  67.473  1.00  0.00    -0.161 A  
HETATM   10  C   UNL     1      -9.644   3.994  66.386  1.00  0.00    -0.217 A  
ENDROOT
BRANCH   7  11
HETATM   11  N   UNL     1      -9.822   6.088  69.427  1.00  0.00    -0.157 NA 
HETATM   12  C   UNL     1     -11.656   6.881  70.892  1.00  0.00    -0.337 C  
HETATM   13  C   UNL     1     -11.258   6.432  69.456  1.00  0.00    -0.412 C  
HETATM   14  N   UNL     1     -10.849   7.994  71.464  1.00  0.00    -0.228 NA 
HETATM   15  C   UNL     1      -8.953   7.161  69.963  1.00  0.00    -0.142 C  
HETATM   16  C   UNL     1      -9.423   7.570  71.379  1.00  0.00    -0.148 C  
BRANCH  14  17
HETATM   17  C   UNL     1     -11.046   9.283  70.760  1.00  0.00    -0.285 C  
BRANCH  17  18
HETATM   18  C   UNL     1      -9.806   9.837  70.020  1.00  0.00    -0.251 C  
BRANCH  18  19
HETATM   19  O   UNL     1     -10.114  11.043  69.259  1.00  0.00    -0.189 OA 
BRANCH  19  20
HETATM   20  C   UNL     1     -10.814  10.783  68.126  1.00  0.00    -0.236 C  
HETATM   21  O   UNL     1     -12.030  10.970  68.036  1.00  0.00    -0.623 OA 
BRANCH  20  22
HETATM   22  C   UNL     1     -10.029  10.284  66.947  1.00  0.00    -0.259 A  
HETATM   23  C   UNL     1      -9.855   8.878  66.974  1.00  0.00    -0.277 A  
HETATM   24  C   UNL     1      -9.137   8.206  65.993  1.00  0.00    -0.218 A  
HETATM   25  C   UNL     1      -8.586   8.929  64.946  1.00  0.00    -0.198 A  
HETATM   26  C   UNL     1      -8.754  10.316  64.889  1.00  0.00    -0.198 A  
HETATM   27  C   UNL     1      -9.466  11.032  65.878  1.00  0.00    -0.214 A  
BRANCH  27  28
HETATM   28  N   UNL     1      -9.516  12.440  65.804  1.00  0.00    -0.422 NA 
HETATM   29  H   UNL     1      -8.806  12.897  66.377  1.00  0.00     0.000 HD 
BRANCH  28  30
HETATM   30  C   UNL     1     -10.347  13.359  65.100  1.00  0.00    -0.336 A  
HETATM   31  C   UNL     1     -10.207  14.746  65.351  1.00  0.00    -0.415 A  
HETATM   32  C   UNL     1      -9.085  15.259  66.022  1.00  0.00    -0.244 A  
HETATM   33  C   UNL     1      -9.015  16.599  66.387  1.00  0.00    -0.326 A  
HETATM   34  C   UNL     1     -10.081  17.455  66.116  1.00  0.00    -0.309 A  
HETATM   35  C   UNL     1     -11.148  16.966  65.333  1.00  0.00     0.089 A  
HETATM   36  C   UNL     1     -10.076  18.847  66.706  1.00  0.00    -0.375 C  
HETATM   37  C   UNL     1     -11.210  15.638  64.907  1.00  0.00    -0.369 A  
HETATM   38  F   UNL     1      -8.979  19.087  67.484  1.00  0.00    -0.294 F  
HETATM   39  F   UNL     1     -10.089  19.837  65.775  1.00  0.00    -0.471 F  
HETATM   40  F   UNL     1     -11.147  19.071  67.518  1.00  0.00    -0.508 F  
HETATM   41  N   UNL     1     -12.219  15.220  64.128  1.00  0.00    -0.571 NA 
HETATM   42  C   UNL     1     -12.255  13.910  63.777  1.00  0.00    -0.261 A  
HETATM   43  C   UNL     1     -11.366  12.948  64.251  1.00  0.00    -0.417 A  
ENDBRANCH  28  30
ENDBRANCH  27  28
ENDBRANCH  20  22
ENDBRANCH  19  20
ENDBRANCH  18  19
ENDBRANCH  17  18
ENDBRANCH  14  17
ENDBRANCH   7  11
TORSDOF 8
ENDMDL
MODEL      131
REMARK 921   NORMALIZED FREE ENERGY PREDICTED BY IDOCK:   -5.54 KCAL/MOL
REMARK 922        TOTAL FREE ENERGY PREDICTED BY IDOCK:  -11.53 KCAL/MOL
REMARK 923 INTER-LIGAND FREE ENERGY PREDICTED BY IDOCK:   -9.86 KCAL/MOL
REMARK 924 INTRA-LIGAND FREE ENERGY PREDICTED BY IDOCK:   -1.67 KCAL/MOL
REMARK 927      BINDING AFFINITY PREDICTED BY RF-SCORE:    0.00 PKD
ROOT
HETATM    1  F   UNL     1      -7.395   1.805  71.703  1.00  0.00    -0.032 F  
HETATM    2  C   UNL     1      -6.899   2.329  72.858  1.00  0.00    -0.023 C  
HETATM    3  C   UNL     1      -7.328   3.750  73.122  1.00  0.00    -0.064 A  
HETATM    4  F   UNL     1      -7.275   1.474  73.850  1.00  0.00    -0.021 F  
HETATM    5  F   UNL     1      -5.544   2.212  72.765  1.00  0.00     0.000 F  
HETATM    6  C   UNL     1      -8.164   4.445  72.223  1.00  0.00    -0.108 A  
HETATM    7  C   UNL     1      -8.471   5.796  72.423  1.00  0.00    -0.118 A  
HETATM    8  C   UNL     1      -6.845   4.407  74.263  1.00  0.00    -0.069 A  
HETATM    9  C   UNL     1      -7.982   6.411  73.589  1.00  0.00    -0.098 A  
HETATM   10  C   UNL     1      -7.180   5.733  74.503  1.00  0.00    -0.088 A  
ENDROOT
BRANCH   7  11
HETATM   11  N   UNL     1      -9.187   6.586  71.519  1.00  0.00    -0.144 NA 
HETATM   12  C   UNL     1      -9.800   8.675  70.337  1.00  0.00    -0.183 C  
HETATM   13  C   UNL     1      -9.113   8.059  71.590  1.00  0.00    -0.150 C  
HETATM   14  N   UNL     1     -11.205   8.242  70.096  1.00  0.00    -0.190 NA 
HETATM   15  C   UNL     1     -10.563   6.079  71.301  1.00  0.00    -0.246 C  
HETATM   16  C   UNL     1     -11.187   6.753  70.056  1.00  0.00    -0.328 C  
BRANCH  14  17
HETATM   17  C   UNL     1     -12.151   8.719  71.131  1.00  0.00    -0.267 C  
BRANCH  17  18
HETATM   18  C   UNL     1     -11.972  10.191  71.572  1.00  0.00    -0.317 C  
BRANCH  18  19
HETATM   19  O   UNL     1     -12.952  11.074  70.947  1.00  0.00    -0.316 OA 
BRANCH  19  20
HETATM   20  C   UNL     1     -12.457  11.718  69.861  1.00  0.00    -0.020 C  
HETATM   21  O   UNL     1     -12.352  11.180  68.757  1.00  0.00    -0.539 OA 
BRANCH  20  22
HETATM   22  C   UNL     1     -12.068  13.157  70.049  1.00  0.00    -0.375 A  
HETATM   23  C   UNL     1     -12.632  13.717  71.222  1.00  0.00    -0.444 A  
HETATM   24  C   UNL     1     -12.424  15.043  71.579  1.00  0.00    -0.400 A  
HETATM   25  C   UNL     1     -11.629  15.842  70.771  1.00  0.00    -0.441 A  
HETATM   26  C   UNL     1     -11.050  15.310  69.614  1.00  0.00    -0.284 A  
HETATM   27  C   UNL     1     -11.253  13.970  69.215  1.00  0.00    -0.261 A  
BRANCH  27  28
HETATM   28  N   UNL     1     -10.714  13.530  67.988  1.00  0.00    -0.245 NA 
HETATM   29  H   UNL     1      -9.733  13.257  68.056  1.00  0.00     0.000 HD 
BRANCH  28  30
HETATM   30  C   UNL     1     -11.247  13.384  66.674  1.00  0.00    -0.309 A  
HETATM   31  C   UNL     1     -10.708  12.394  65.818  1.00  0.00    -0.301 A  
HETATM   32  C   UNL     1      -9.897  11.360  66.313  1.00  0.00    -0.250 A  
HETATM   33  C   UNL     1      -9.259  10.471  65.455  1.00  0.00    -0.223 A  
HETATM   34  C   UNL     1      -9.392  10.613  64.075  1.00  0.00    -0.303 A  
HETATM   35  C   UNL     1     -10.305  11.571  63.587  1.00  0.00    -0.467 A  
HETATM   36  C   UNL     1      -8.527   9.775  63.161  1.00  0.00    -0.179 C  
HETATM   37  C   UNL     1     -11.000  12.435  64.435  1.00  0.00    -0.334 A  
HETATM   38  F   UNL     1      -7.669   8.962  63.846  1.00  0.00    -0.108 F  
HETATM   39  F   UNL     1      -9.232   8.954  62.339  1.00  0.00    -0.214 F  
HETATM   40  F   UNL     1      -7.734  10.535  62.356  1.00  0.00    -0.141 F  
HETATM   41  N   UNL     1     -11.893  13.305  63.937  1.00  0.00    -0.454 NA 
HETATM   42  C   UNL     1     -12.509  14.152  64.800  1.00  0.00    -0.373 A  
HETATM   43  C   UNL     1     -12.207  14.244  66.157  1.00  0.00    -0.430 A  
ENDBRANCH  28  30
ENDBRANCH  27  28
ENDBRANCH  20  22
ENDBRANCH  19  20
ENDBRANCH  18  19
ENDBRANCH  17  18
ENDBRANCH  14  17
ENDBRANCH   7  11
TORSDOF 8
ENDMDL
MODEL      132
REMARK 921   NORMALIZED FREE ENERGY PREDICTED BY IDOCK:   -5.53 KCAL/MOL
REMARK 922        TOTAL FREE ENERGY PREDICTED BY IDOCK:  -11.52 KCAL/MOL
REMARK 923 INTER-LIGAND FREE ENERGY PREDICTED BY IDOCK:   -9.28 KCAL/MOL
REMARK 924 INTRA-LIGAND FREE ENERGY PREDICTED BY IDOCK:   -2.24 KCAL/MOL
REMARK 927      BINDING AFFINITY PREDICTED BY RF-SCORE:    0.00 PKD
ROOT
HETATM    1  F   UNL     1      -7.926   9.025  71.909  1.00  0.00    -0.141 F  
HETATM    2  C   UNL     1      -9.054   8.322  72.210  1.00  0.00    -0.221 C  
HETATM    3  C   UNL     1      -9.187   7.023  71.454  1.00  0.00    -0.151 A  
HETATM    4  F   UNL     1      -9.037   8.145  73.560  1.00  0.00    -0.289 F  
HETATM    5  F   UNL     1     -10.093   9.168  71.961  1.00  0.00    -0.395 F  
HETATM    6  C   UNL     1      -8.213   6.612  70.521  1.00  0.00    -0.118 A  
HETATM    7  C   UNL     1      -8.397   5.458  69.750  1.00  0.00    -0.100 A  
HETATM    8  C   UNL     1     -10.330   6.235  71.652  1.00  0.00    -0.248 A  
HETATM    9  C   UNL     1      -9.546   4.687  69.993  1.00  0.00    -0.259 A  
HETATM   10  C   UNL     1     -10.505   5.062  70.931  1.00  0.00    -0.212 A  
ENDROOT
BRANCH   7  11
HETATM   11  N   UNL     1      -7.541   5.051  68.722  1.00  0.00    -0.076 NA 
HETATM   12  C   UNL     1      -5.784   5.336  66.999  1.00  0.00    -0.017 C  
HETATM   13  C   UNL     1      -6.840   6.050  67.891  1.00  0.00    -0.063 C  
HETATM   14  N   UNL     1      -6.306   4.233  66.145  1.00  0.00    -0.032 NA 
HETATM   15  C   UNL     1      -8.107   3.930  67.935  1.00  0.00    -0.088 C  
HETATM   16  C   UNL     1      -7.007   3.287  67.058  1.00  0.00    -0.054 C  
BRANCH  14  17
HETATM   17  C   UNL     1      -7.225   4.700  65.080  1.00  0.00    -0.067 C  
BRANCH  17  18
HETATM   18  C   UNL     1      -6.930   6.109  64.514  1.00  0.00    -0.051 C  
BRANCH  18  19
HETATM   19  O   UNL     1      -8.152   6.834  64.182  1.00  0.00    -0.111 OA 
BRANCH  19  20
HETATM   20  C   UNL     1      -8.123   8.125  64.597  1.00  0.00    -0.148 C  
HETATM   21  O   UNL     1      -7.376   8.969  64.097  1.00  0.00    -0.100 OA 
BRANCH  20  22
HETATM   22  C   UNL     1      -9.085   8.506  65.687  1.00  0.00    -0.189 A  
HETATM   23  C   UNL     1      -9.420   7.407  66.516  1.00  0.00    -0.229 A  
HETATM   24  C   UNL     1     -10.314   7.527  67.572  1.00  0.00    -0.321 A  
HETATM   25  C   UNL     1     -10.886   8.763  67.834  1.00  0.00    -0.078 A  
HETATM   26  C   UNL     1     -10.562   9.867  67.039  1.00  0.00    -0.272 A  
HETATM   27  C   UNL     1      -9.669   9.775  65.948  1.00  0.00    -0.266 A  
BRANCH  27  28
HETATM   28  N   UNL     1      -9.461  10.909  65.134  1.00  0.00    -0.215 NA 
HETATM   29  H   UNL     1      -8.521  10.952  64.738  1.00  0.00     0.000 HD 
BRANCH  28  30
HETATM   30  C   UNL     1     -10.284  12.006  64.745  1.00  0.00    -0.279 A  
HETATM   31  C   UNL     1     -10.367  13.138  65.591  1.00  0.00    -0.291 A  
HETATM   32  C   UNL     1      -9.441  13.350  66.625  1.00  0.00    -0.264 A  
HETATM   33  C   UNL     1      -9.603  14.386  67.537  1.00  0.00    -0.215 A  
HETATM   34  C   UNL     1     -10.717  15.221  67.456  1.00  0.00    -0.285 A  
HETATM   35  C   UNL     1     -11.575  15.084  66.345  1.00  0.00    -0.172 A  
HETATM   36  C   UNL     1     -10.985  16.201  68.576  1.00  0.00    -0.338 C  
HETATM   37  C   UNL     1     -11.396  14.086  65.386  1.00  0.00    -0.315 A  
HETATM   38  F   UNL     1     -10.064  16.119  69.581  1.00  0.00    -0.235 F  
HETATM   39  F   UNL     1     -10.981  17.501  68.180  1.00  0.00    -0.370 F  
HETATM   40  F   UNL     1     -12.189  15.987  69.176  1.00  0.00    -0.358 F  
HETATM   41  N   UNL     1     -12.208  14.014  64.320  1.00  0.00    -0.598 NA 
HETATM   42  C   UNL     1     -12.018  12.998  63.440  1.00  0.00    -0.520 A  
HETATM   43  C   UNL     1     -11.096  11.970  63.619  1.00  0.00    -0.525 A  
ENDBRANCH  28  30
ENDBRANCH  27  28
ENDBRANCH  20  22
ENDBRANCH  19  20
ENDBRANCH  18  19
ENDBRANCH  17  18
ENDBRANCH  14  17
ENDBRANCH   7  11
TORSDOF 8
ENDMDL
MODEL      133
REMARK 921   NORMALIZED FREE ENERGY PREDICTED BY IDOCK:   -5.53 KCAL/MOL
REMARK 922        TOTAL FREE ENERGY PREDICTED BY IDOCK:  -11.51 KCAL/MOL
REMARK 923 INTER-LIGAND FREE ENERGY PREDICTED BY IDOCK:  -10.17 KCAL/MOL
REMARK 924 INTRA-LIGAND FREE ENERGY PREDICTED BY IDOCK:   -1.34 KCAL/MOL
REMARK 927      BINDING AFFINITY PREDICTED BY RF-SCORE:    0.00 PKD
ROOT
HETATM    1  F   UNL     1     -12.547  16.466  72.029  1.00  0.00    -0.473 F  
HETATM    2  C   UNL     1     -13.072  15.367  72.638  1.00  0.00    -0.442 C  
HETATM    3  C   UNL     1     -12.817  14.076  71.900  1.00  0.00    -0.421 A  
HETATM    4  F   UNL     1     -12.563  15.359  73.902  1.00  0.00    -0.508 F  
HETATM    5  F   UNL     1     -14.403  15.622  72.778  1.00  0.00    -0.597 F  
HETATM    6  C   UNL     1     -12.101  14.052  70.685  1.00  0.00    -0.424 A  
HETATM    7  C   UNL     1     -11.960  12.866  69.956  1.00  0.00    -0.309 A  
HETATM    8  C   UNL     1     -13.347  12.882  72.413  1.00  0.00    -0.526 A  
HETATM    9  C   UNL     1     -12.490  11.689  70.514  1.00  0.00    -0.344 A  
HETATM   10  C   UNL     1     -13.174  11.688  71.726  1.00  0.00    -0.438 A  
ENDROOT
BRANCH   7  11
HETATM   11  N   UNL     1     -11.375  12.782  68.689  1.00  0.00    -0.271 NA 
HETATM   12  C   UNL     1     -11.154  11.995  66.350  1.00  0.00    -0.318 C  
HETATM   13  C   UNL     1     -11.771  11.713  67.751  1.00  0.00    -0.245 C  
HETATM   14  N   UNL     1      -9.676  12.179  66.325  1.00  0.00    -0.234 NA 
HETATM   15  C   UNL     1      -9.911  13.008  68.733  1.00  0.00    -0.010 C  
HETATM   16  C   UNL     1      -9.368  13.257  67.306  1.00  0.00    -0.226 C  
BRANCH  14  17
HETATM   17  C   UNL     1      -8.926  10.946  66.660  1.00  0.00    -0.164 C  
BRANCH  17  18
HETATM   18  C   UNL     1      -8.482  10.815  68.136  1.00  0.00    -0.125 C  
BRANCH  18  19
HETATM   19  O   UNL     1      -9.381   9.961  68.905  1.00  0.00    -0.156 OA 
BRANCH  19  20
HETATM   20  C   UNL     1      -8.779   9.410  69.989  1.00  0.00    -0.210 C  
HETATM   21  O   UNL     1      -7.664   9.759  70.381  1.00  0.00    -0.163 OA 
BRANCH  20  22
HETATM   22  C   UNL     1      -9.557   8.363  70.735  1.00  0.00    -0.203 A  
HETATM   23  C   UNL     1     -10.401   8.924  71.725  1.00  0.00    -0.426 A  
HETATM   24  C   UNL     1     -11.192   8.137  72.551  1.00  0.00    -0.459 A  
HETATM   25  C   UNL     1     -11.169   6.759  72.394  1.00  0.00    -0.300 A  
HETATM   26  C   UNL     1     -10.355   6.181  71.414  1.00  0.00    -0.260 A  
HETATM   27  C   UNL     1      -9.527   6.952  70.568  1.00  0.00    -0.169 A  
BRANCH  27  28
HETATM   28  N   UNL     1      -8.664   6.295  69.667  1.00  0.00    -0.135 NA 
HETATM   29  H   UNL     1      -7.737   6.118  70.055  1.00  0.00     0.000 HD 
BRANCH  28  30
HETATM   30  C   UNL     1      -8.810   5.824  68.329  1.00  0.00    -0.109 A  
HETATM   31  C   UNL     1      -8.139   6.502  67.283  1.00  0.00    -0.113 A  
HETATM   32  C   UNL     1      -7.102   7.412  67.547  1.00  0.00    -0.088 A  
HETATM   33  C   UNL     1      -6.538   8.176  66.531  1.00  0.00    -0.055 A  
HETATM   34  C   UNL     1      -7.020   8.072  65.228  1.00  0.00    -0.063 A  
HETATM   35  C   UNL     1      -7.971   7.070  64.945  1.00  0.00    -0.127 A  
HETATM   36  C   UNL     1      -6.543   9.058  64.186  1.00  0.00    -0.083 C  
HETATM   37  C   UNL     1      -8.508   6.252  65.942  1.00  0.00    -0.146 A  
HETATM   38  F   UNL     1      -5.673   9.982  64.692  1.00  0.00    -0.074 F  
HETATM   39  F   UNL     1      -5.896   8.480  63.140  1.00  0.00    -0.073 F  
HETATM   40  F   UNL     1      -7.564   9.784  63.651  1.00  0.00    -0.112 F  
HETATM   41  N   UNL     1      -9.380   5.281  65.628  1.00  0.00    -0.146 NA 
HETATM   42  C   UNL     1      -9.905   4.543  66.639  1.00  0.00    -0.225 A  
HETATM   43  C   UNL     1      -9.671   4.789  67.990  1.00  0.00    -0.202 A  
ENDBRANCH  28  30
ENDBRANCH  27  28
ENDBRANCH  20  22
ENDBRANCH  19  20
ENDBRANCH  18  19
ENDBRANCH  17  18
ENDBRANCH  14  17
ENDBRANCH   7  11
TORSDOF 8
ENDMDL
MODEL      134
REMARK 921   NORMALIZED FREE ENERGY PREDICTED BY IDOCK:   -5.52 KCAL/MOL
REMARK 922        TOTAL FREE ENERGY PREDICTED BY IDOCK:  -11.51 KCAL/MOL
REMARK 923 INTER-LIGAND FREE ENERGY PREDICTED BY IDOCK:  -10.39 KCAL/MOL
REMARK 924 INTRA-LIGAND FREE ENERGY PREDICTED BY IDOCK:   -1.12 KCAL/MOL
REMARK 927      BINDING AFFINITY PREDICTED BY RF-SCORE:    0.00 PKD
ROOT
HETATM    1  F   UNL     1      -9.884   2.961  70.150  1.00  0.00    -0.208 F  
HETATM    2  C   UNL     1      -9.807   2.712  71.487  1.00  0.00    -0.123 C  
HETATM    3  C   UNL     1     -10.046   3.924  72.353  1.00  0.00    -0.237 A  
HETATM    4  F   UNL     1     -10.693   1.707  71.733  1.00  0.00    -0.177 F  
HETATM    5  F   UNL     1      -8.571   2.172  71.692  1.00  0.00    -0.062 F  
HETATM    6  C   UNL     1     -10.315   5.188  71.789  1.00  0.00    -0.274 A  
HETATM    7  C   UNL     1     -10.431   6.326  72.596  1.00  0.00    -0.211 A  
HETATM    8  C   UNL     1      -9.950   3.795  73.746  1.00  0.00    -0.163 A  
HETATM    9  C   UNL     1     -10.348   6.150  73.988  1.00  0.00    -0.311 A  
HETATM   10  C   UNL     1     -10.112   4.905  74.564  1.00  0.00    -0.273 A  
ENDROOT
BRANCH   7  11
HETATM   11  N   UNL     1     -10.574   7.629  72.109  1.00  0.00    -0.221 NA 
HETATM   12  C   UNL     1     -11.790   9.722  71.578  1.00  0.00    -0.399 C  
HETATM   13  C   UNL     1     -11.916   8.201  71.884  1.00  0.00    -0.320 C  
HETATM   14  N   UNL     1     -10.884  10.075  70.449  1.00  0.00    -0.303 NA 
HETATM   15  C   UNL     1      -9.622   7.924  71.012  1.00  0.00    -0.159 C  
HETATM   16  C   UNL     1      -9.568   9.447  70.750  1.00  0.00    -0.255 C  
BRANCH  14  17
HETATM   17  C   UNL     1     -11.385   9.619  69.131  1.00  0.00     0.071 C  
BRANCH  17  18
HETATM   18  C   UNL     1     -10.911  10.446  67.913  1.00  0.00    -0.279 C  
BRANCH  18  19
HETATM   19  O   UNL     1     -10.520   9.597  66.792  1.00  0.00    -0.230 OA 
BRANCH  19  20
HETATM   20  C   UNL     1      -9.754  10.251  65.883  1.00  0.00    -0.225 C  
HETATM   21  O   UNL     1      -9.929  10.149  64.667  1.00  0.00    -0.328 OA 
BRANCH  20  22
HETATM   22  C   UNL     1      -8.685  11.156  66.428  1.00  0.00    -0.177 A  
HETATM   23  C   UNL     1      -7.486  10.457  66.716  1.00  0.00    -0.110 A  
HETATM   24  C   UNL     1      -6.374  11.093  67.253  1.00  0.00    -0.074 A  
HETATM   25  C   UNL     1      -6.431  12.456  67.500  1.00  0.00    -0.146 A  
HETATM   26  C   UNL     1      -7.598  13.172  67.212  1.00  0.00    -0.090 A  
HETATM   27  C   UNL     1      -8.751  12.553  66.680  1.00  0.00    -0.100 A  
BRANCH  27  28
HETATM   28  N   UNL     1      -9.922  13.320  66.502  1.00  0.00    -0.273 NA 
HETATM   29  H   UNL     1     -10.312  13.244  65.562  1.00  0.00     0.000 HD 
BRANCH  28  30
HETATM   30  C   UNL     1     -10.676  14.178  67.355  1.00  0.00    -0.284 A  
HETATM   31  C   UNL     1     -10.413  15.568  67.339  1.00  0.00    -0.281 A  
HETATM   32  C   UNL     1      -9.670  16.162  66.306  1.00  0.00    -0.332 A  
HETATM   33  C   UNL     1      -9.299  17.501  66.363  1.00  0.00    -0.265 A  
HETATM   34  C   UNL     1      -9.635  18.274  67.473  1.00  0.00    -0.282 A  
HETATM   35  C   UNL     1     -10.486  17.710  68.447  1.00  0.00    -0.360 A  
HETATM   36  C   UNL     1      -9.043  19.657  67.614  1.00  0.00    -0.329 C  
HETATM   37  C   UNL     1     -10.919  16.384  68.378  1.00  0.00    -0.353 A  
HETATM   38  F   UNL     1      -8.195  19.976  66.591  1.00  0.00    -0.299 F  
HETATM   39  F   UNL     1      -9.971  20.650  67.643  1.00  0.00    -0.551 F  
HETATM   40  F   UNL     1      -8.301  19.793  68.749  1.00  0.00    -0.364 F  
HETATM   41  N   UNL     1     -11.763  15.895  69.300  1.00  0.00    -0.370 NA 
HETATM   42  C   UNL     1     -12.118  14.588  69.211  1.00  0.00    -0.290 A  
HETATM   43  C   UNL     1     -11.590  13.695  68.283  1.00  0.00    -0.374 A  
ENDBRANCH  28  30
ENDBRANCH  27  28
ENDBRANCH  20  22
ENDBRANCH  19  20
ENDBRANCH  18  19
ENDBRANCH  17  18
ENDBRANCH  14  17
ENDBRANCH   7  11
TORSDOF 8
ENDMDL
MODEL      135
REMARK 921   NORMALIZED FREE ENERGY PREDICTED BY IDOCK:   -5.52 KCAL/MOL
REMARK 922        TOTAL FREE ENERGY PREDICTED BY IDOCK:  -11.50 KCAL/MOL
REMARK 923 INTER-LIGAND FREE ENERGY PREDICTED BY IDOCK:   -8.70 KCAL/MOL
REMARK 924 INTRA-LIGAND FREE ENERGY PREDICTED BY IDOCK:   -2.80 KCAL/MOL
REMARK 927      BINDING AFFINITY PREDICTED BY RF-SCORE:    0.00 PKD
ROOT
HETATM    1  F   UNL     1      -8.450   8.927  71.412  1.00  0.00    -0.184 F  
HETATM    2  C   UNL     1      -9.507   8.445  72.124  1.00  0.00    -0.290 C  
HETATM    3  C   UNL     1      -9.710   6.957  71.989  1.00  0.00    -0.160 A  
HETATM    4  F   UNL     1      -9.299   8.833  73.413  1.00  0.00    -0.165 F  
HETATM    5  F   UNL     1     -10.592   9.151  71.696  1.00  0.00    -0.352 F  
HETATM    6  C   UNL     1      -8.863   6.169  71.181  1.00  0.00    -0.139 A  
HETATM    7  C   UNL     1      -9.122   4.809  70.979  1.00  0.00    -0.132 A  
HETATM    8  C   UNL     1     -10.794   6.355  72.644  1.00  0.00    -0.270 A  
HETATM    9  C   UNL     1     -10.208   4.241  71.670  1.00  0.00    -0.160 A  
HETATM   10  C   UNL     1     -11.037   4.997  72.494  1.00  0.00    -0.217 A  
ENDROOT
BRANCH   7  11
HETATM   11  N   UNL     1      -8.407   3.990  70.100  1.00  0.00    -0.060 NA 
HETATM   12  C   UNL     1      -6.742   3.480  68.338  1.00  0.00    -0.045 C  
HETATM   13  C   UNL     1      -7.617   4.582  69.002  1.00  0.00    -0.056 C  
HETATM   14  N   UNL     1      -7.479   2.280  67.853  1.00  0.00    -0.055 NA 
HETATM   15  C   UNL     1      -9.186   2.800  69.685  1.00  0.00    -0.136 C  
HETATM   16  C   UNL     1      -8.255   1.762  69.014  1.00  0.00    -0.048 C  
BRANCH  14  17
HETATM   17  C   UNL     1      -8.383   2.568  66.715  1.00  0.00    -0.090 C  
BRANCH  17  18
HETATM   18  C   UNL     1      -7.845   3.576  65.673  1.00  0.00    -0.089 C  
BRANCH  18  19
HETATM   19  O   UNL     1      -8.891   4.468  65.181  1.00  0.00    -0.132 OA 
BRANCH  19  20
HETATM   20  C   UNL     1      -8.586   5.778  65.356  1.00  0.00    -0.143 C  
HETATM   21  O   UNL     1      -7.755   6.367  64.661  1.00  0.00    -0.093 OA 
BRANCH  20  22
HETATM   22  C   UNL     1      -9.343   6.510  66.428  1.00  0.00    -0.175 A  
HETATM   23  C   UNL     1     -10.205   5.654  67.157  1.00  0.00    -0.255 A  
HETATM   24  C   UNL     1     -11.020   6.124  68.178  1.00  0.00    -0.398 A  
HETATM   25  C   UNL     1     -10.979   7.471  68.507  1.00  0.00     0.062 A  
HETATM   26  C   UNL     1     -10.127   8.335  67.811  1.00  0.00    -0.262 A  
HETATM   27  C   UNL     1      -9.297   7.891  66.758  1.00  0.00    -0.184 A  
BRANCH  27  28
HETATM   28  N   UNL     1      -8.533   8.836  66.040  1.00  0.00    -0.127 NA 
HETATM   29  H   UNL     1      -7.590   8.955  66.412  1.00  0.00     0.000 HD 
BRANCH  28  30
HETATM   30  C   UNL     1      -8.798   9.660  64.907  1.00  0.00    -0.199 A  
HETATM   31  C   UNL     1      -9.393  10.930  65.103  1.00  0.00    -0.252 A  
HETATM   32  C   UNL     1      -9.443  11.528  66.372  1.00  0.00    -0.230 A  
HETATM   33  C   UNL     1     -10.146  12.708  66.585  1.00  0.00    -0.248 A  
HETATM   34  C   UNL     1     -10.845  13.305  65.538  1.00  0.00    -0.297 A  
HETATM   35  C   UNL     1     -10.690  12.772  64.241  1.00  0.00    -0.419 A  
HETATM   36  C   UNL     1     -11.771  14.462  65.835  1.00  0.00    -0.369 C  
HETATM   37  C   UNL     1      -9.940  11.619  63.996  1.00  0.00    -0.296 A  
HETATM   38  F   UNL     1     -11.819  14.772  67.165  1.00  0.00    -0.375 F  
HETATM   39  F   UNL     1     -11.430  15.615  65.203  1.00  0.00    -0.306 F  
HETATM   40  F   UNL     1     -13.061  14.200  65.483  1.00  0.00    -0.552 F  
HETATM   41  N   UNL     1      -9.780  11.166  62.743  1.00  0.00    -0.296 NA 
HETATM   42  C   UNL     1      -9.078  10.018  62.565  1.00  0.00    -0.292 A  
HETATM   43  C   UNL     1      -8.594   9.227  63.604  1.00  0.00    -0.208 A  
ENDBRANCH  28  30
ENDBRANCH  27  28
ENDBRANCH  20  22
ENDBRANCH  19  20
ENDBRANCH  18  19
ENDBRANCH  17  18
ENDBRANCH  14  17
ENDBRANCH   7  11
TORSDOF 8
ENDMDL
MODEL      136
REMARK 921   NORMALIZED FREE ENERGY PREDICTED BY IDOCK:   -5.51 KCAL/MOL
REMARK 922        TOTAL FREE ENERGY PREDICTED BY IDOCK:  -11.49 KCAL/MOL
REMARK 923 INTER-LIGAND FREE ENERGY PREDICTED BY IDOCK:   -9.20 KCAL/MOL
REMARK 924 INTRA-LIGAND FREE ENERGY PREDICTED BY IDOCK:   -2.29 KCAL/MOL
REMARK 927      BINDING AFFINITY PREDICTED BY RF-SCORE:    0.00 PKD
ROOT
HETATM    1  F   UNL     1      -8.780   6.878  65.048  1.00  0.00    -0.090 F  
HETATM    2  C   UNL     1      -7.815   7.197  64.141  1.00  0.00    -0.113 C  
HETATM    3  C   UNL     1      -6.983   8.395  64.527  1.00  0.00    -0.073 A  
HETATM    4  F   UNL     1      -7.068   6.070  63.977  1.00  0.00    -0.045 F  
HETATM    5  F   UNL     1      -8.466   7.385  62.959  1.00  0.00    -0.071 F  
HETATM    6  C   UNL     1      -7.221   9.101  65.724  1.00  0.00    -0.089 A  
HETATM    7  C   UNL     1      -6.513  10.272  66.022  1.00  0.00    -0.107 A  
HETATM    8  C   UNL     1      -5.984   8.842  63.648  1.00  0.00    -0.076 A  
HETATM    9  C   UNL     1      -5.509  10.674  65.124  1.00  0.00    -0.142 A  
HETATM   10  C   UNL     1      -5.240   9.974  63.952  1.00  0.00    -0.097 A  
ENDROOT
BRANCH   7  11
HETATM   11  N   UNL     1      -6.774  11.094  67.123  1.00  0.00    -0.097 NA 
HETATM   12  C   UNL     1      -7.990  12.825  68.412  1.00  0.00    -0.137 C  
HETATM   13  C   UNL     1      -7.700  12.237  67.001  1.00  0.00    -0.089 C  
HETATM   14  N   UNL     1      -6.791  13.216  69.204  1.00  0.00    -0.092 NA 
HETATM   15  C   UNL     1      -5.544  11.417  67.883  1.00  0.00    -0.044 C  
HETATM   16  C   UNL     1      -5.912  12.016  69.261  1.00  0.00    -0.081 C  
BRANCH  14  17
HETATM   17  C   UNL     1      -6.057  14.367  68.626  1.00  0.00    -0.084 C  
BRANCH  17  18
HETATM   18  C   UNL     1      -6.659  15.760  68.922  1.00  0.00    -0.119 C  
BRANCH  18  19
HETATM   19  O   UNL     1      -6.605  16.640  67.759  1.00  0.00    -0.127 OA 
BRANCH  19  20
HETATM   20  C   UNL     1      -7.722  16.565  66.994  1.00  0.00    -0.209 C  
HETATM   21  O   UNL     1      -7.943  15.624  66.228  1.00  0.00    -0.071 OA 
BRANCH  20  22
HETATM   22  C   UNL     1      -8.721  17.677  67.145  1.00  0.00    -0.252 A  
HETATM   23  C   UNL     1      -8.178  18.938  66.794  1.00  0.00    -0.287 A  
HETATM   24  C   UNL     1      -8.919  20.109  66.884  1.00  0.00    -0.448 A  
HETATM   25  C   UNL     1     -10.235  20.043  67.315  1.00  0.00    -0.565 A  
HETATM   26  C   UNL     1     -10.799  18.809  67.655  1.00  0.00    -0.382 A  
HETATM   27  C   UNL     1     -10.069  17.601  67.589  1.00  0.00    -0.339 A  
BRANCH  27  28
HETATM   28  N   UNL     1     -10.674  16.408  68.036  1.00  0.00    -0.324 NA 
HETATM   29  H   UNL     1     -10.777  16.365  69.051  1.00  0.00     0.000 HD 
BRANCH  28  30
HETATM   30  C   UNL     1     -11.172  15.248  67.373  1.00  0.00    -0.311 A  
HETATM   31  C   UNL     1     -11.584  14.136  68.145  1.00  0.00    -0.365 A  
HETATM   32  C   UNL     1     -11.811  14.247  69.527  1.00  0.00    -0.378 A  
HETATM   33  C   UNL     1     -12.082  13.127  70.305  1.00  0.00    -0.399 A  
HETATM   34  C   UNL     1     -12.102  11.860  69.724  1.00  0.00    -0.321 A  
HETATM   35  C   UNL     1     -11.998  11.767  68.321  1.00  0.00    -0.236 A  
HETATM   36  C   UNL     1     -12.185  10.643  70.617  1.00  0.00    -0.365 C  
HETATM   37  C   UNL     1     -11.784  12.886  67.515  1.00  0.00    -0.367 A  
HETATM   38  F   UNL     1     -12.211  10.962  71.945  1.00  0.00    -0.320 F  
HETATM   39  F   UNL     1     -13.290   9.881  70.402  1.00  0.00    -0.249 F  
HETATM   40  F   UNL     1     -11.114   9.815  70.469  1.00  0.00    -0.272 F  
HETATM   41  N   UNL     1     -11.733  12.763  66.180  1.00  0.00    -0.382 NA 
HETATM   42  C   UNL     1     -11.480  13.876  65.445  1.00  0.00    -0.312 A  
HETATM   43  C   UNL     1     -11.173  15.120  65.990  1.00  0.00    -0.275 A  
ENDBRANCH  28  30
ENDBRANCH  27  28
ENDBRANCH  20  22
ENDBRANCH  19  20
ENDBRANCH  18  19
ENDBRANCH  17  18
ENDBRANCH  14  17
ENDBRANCH   7  11
TORSDOF 8
ENDMDL
MODEL      137
REMARK 921   NORMALIZED FREE ENERGY PREDICTED BY IDOCK:   -5.51 KCAL/MOL
REMARK 922        TOTAL FREE ENERGY PREDICTED BY IDOCK:  -11.48 KCAL/MOL
REMARK 923 INTER-LIGAND FREE ENERGY PREDICTED BY IDOCK:  -11.28 KCAL/MOL
REMARK 924 INTRA-LIGAND FREE ENERGY PREDICTED BY IDOCK:   -0.20 KCAL/MOL
REMARK 927      BINDING AFFINITY PREDICTED BY RF-SCORE:    0.00 PKD
ROOT
HETATM    1  F   UNL     1     -13.539  13.007  72.676  1.00  0.00    -0.616 F  
HETATM    2  C   UNL     1     -13.151  14.311  72.608  1.00  0.00    -0.478 C  
HETATM    3  C   UNL     1     -12.411  14.666  71.342  1.00  0.00    -0.410 A  
HETATM    4  F   UNL     1     -14.283  15.049  72.779  1.00  0.00    -0.490 F  
HETATM    5  F   UNL     1     -12.396  14.530  73.721  1.00  0.00    -0.512 F  
HETATM    6  C   UNL     1     -12.156  13.702  70.344  1.00  0.00    -0.421 A  
HETATM    7  C   UNL     1     -11.379  14.016  69.223  1.00  0.00    -0.273 A  
HETATM    8  C   UNL     1     -11.926  15.973  71.180  1.00  0.00    -0.443 A  
HETATM    9  C   UNL     1     -10.929  15.341  69.090  1.00  0.00    -0.251 A  
HETATM   10  C   UNL     1     -11.195  16.313  70.051  1.00  0.00    -0.324 A  
ENDROOT
BRANCH   7  11
HETATM   11  N   UNL     1     -10.979  13.089  68.255  1.00  0.00    -0.248 NA 
HETATM   12  C   UNL     1     -11.032  10.935  67.032  1.00  0.00    -0.247 C  
HETATM   13  C   UNL     1     -11.410  11.680  68.345  1.00  0.00    -0.279 C  
HETATM   14  N   UNL     1      -9.596  11.010  66.643  1.00  0.00    -0.186 NA 
HETATM   15  C   UNL     1      -9.551  13.241  67.892  1.00  0.00    -0.217 C  
HETATM   16  C   UNL     1      -9.246  12.457  66.594  1.00  0.00    -0.218 C  
BRANCH  14  17
HETATM   17  C   UNL     1      -8.697  10.294  67.578  1.00  0.00    -0.125 C  
BRANCH  17  18
HETATM   18  C   UNL     1      -7.420   9.690  66.948  1.00  0.00    -0.091 C  
BRANCH  18  19
HETATM   19  O   UNL     1      -7.338   8.247  67.149  1.00  0.00    -0.085 OA 
BRANCH  19  20
HETATM   20  C   UNL     1      -8.350   7.767  67.915  1.00  0.00    -0.123 C  
HETATM   21  O   UNL     1      -8.937   8.457  68.751  1.00  0.00    -0.140 OA 
BRANCH  20  22
HETATM   22  C   UNL     1      -8.763   6.343  67.674  1.00  0.00    -0.114 A  
HETATM   23  C   UNL     1      -9.363   6.165  66.402  1.00  0.00    -0.173 A  
HETATM   24  C   UNL     1      -9.843   4.933  65.980  1.00  0.00    -0.219 A  
HETATM   25  C   UNL     1      -9.720   3.837  66.821  1.00  0.00    -0.149 A  
HETATM   26  C   UNL     1      -9.120   3.982  68.076  1.00  0.00    -0.179 A  
HETATM   27  C   UNL     1      -8.635   5.225  68.542  1.00  0.00    -0.094 A  
BRANCH  27  28
HETATM   28  N   UNL     1      -8.127   5.315  69.855  1.00  0.00    -0.083 NA 
HETATM   29  H   UNL     1      -7.553   4.513  70.119  1.00  0.00     0.000 HD 
BRANCH  28  30
HETATM   30  C   UNL     1      -8.244   6.287  70.891  1.00  0.00    -0.126 A  
HETATM   31  C   UNL     1      -9.528   6.769  71.242  1.00  0.00    -0.166 A  
HETATM   32  C   UNL     1     -10.696   6.106  70.833  1.00  0.00    -0.316 A  
HETATM   33  C   UNL     1     -11.953   6.654  71.062  1.00  0.00    -0.415 A  
HETATM   34  C   UNL     1     -12.073   7.897  71.681  1.00  0.00    -0.333 A  
HETATM   35  C   UNL     1     -10.908   8.499  72.201  1.00  0.00    -0.427 A  
HETATM   36  C   UNL     1     -13.426   8.569  71.728  1.00  0.00    -0.371 C  
HETATM   37  C   UNL     1      -9.641   7.936  72.032  1.00  0.00    -0.186 A  
HETATM   38  F   UNL     1     -14.400   7.839  71.107  1.00  0.00    -0.449 F  
HETATM   39  F   UNL     1     -13.883   8.792  72.988  1.00  0.00    -0.382 F  
HETATM   40  F   UNL     1     -13.429   9.777  71.100  1.00  0.00    -0.407 F  
HETATM   41  N   UNL     1      -8.561   8.515  72.579  1.00  0.00    -0.351 NA 
HETATM   42  C   UNL     1      -7.349   7.951  72.348  1.00  0.00    -0.091 A  
HETATM   43  C   UNL     1      -7.139   6.865  71.503  1.00  0.00    -0.075 A  
ENDBRANCH  28  30
ENDBRANCH  27  28
ENDBRANCH  20  22
ENDBRANCH  19  20
ENDBRANCH  18  19
ENDBRANCH  17  18
ENDBRANCH  14  17
ENDBRANCH   7  11
TORSDOF 8
ENDMDL
MODEL      138
REMARK 921   NORMALIZED FREE ENERGY PREDICTED BY IDOCK:   -5.47 KCAL/MOL
REMARK 922        TOTAL FREE ENERGY PREDICTED BY IDOCK:  -11.43 KCAL/MOL
REMARK 923 INTER-LIGAND FREE ENERGY PREDICTED BY IDOCK:   -9.91 KCAL/MOL
REMARK 924 INTRA-LIGAND FREE ENERGY PREDICTED BY IDOCK:   -1.52 KCAL/MOL
REMARK 927      BINDING AFFINITY PREDICTED BY RF-SCORE:    0.00 PKD
ROOT
HETATM    1  F   UNL     1      -8.236   7.752  73.019  1.00  0.00    -0.118 F  
HETATM    2  C   UNL     1      -8.880   6.647  73.487  1.00  0.00    -0.125 C  
HETATM    3  C   UNL     1      -9.075   5.566  72.454  1.00  0.00    -0.147 A  
HETATM    4  F   UNL     1      -8.161   6.222  74.563  1.00  0.00    -0.118 F  
HETATM    5  F   UNL     1     -10.066   7.096  73.989  1.00  0.00    -0.308 F  
HETATM    6  C   UNL     1      -8.624   5.726  71.127  1.00  0.00    -0.128 A  
HETATM    7  C   UNL     1      -8.902   4.763  70.151  1.00  0.00    -0.094 A  
HETATM    8  C   UNL     1      -9.764   4.397  72.812  1.00  0.00    -0.185 A  
HETATM    9  C   UNL     1      -9.578   3.598  70.556  1.00  0.00    -0.256 A  
HETATM   10  C   UNL     1     -10.006   3.410  71.868  1.00  0.00    -0.210 A  
ENDROOT
BRANCH   7  11
HETATM   11  N   UNL     1      -8.598   4.903  68.794  1.00  0.00    -0.089 NA 
HETATM   12  C   UNL     1      -7.423   5.848  66.827  1.00  0.00    -0.087 C  
HETATM   13  C   UNL     1      -7.819   6.063  68.317  1.00  0.00    -0.106 C  
HETATM   14  N   UNL     1      -8.553   5.570  65.897  1.00  0.00    -0.136 NA 
HETATM   15  C   UNL     1      -9.755   4.580  67.925  1.00  0.00    -0.139 C  
HETATM   16  C   UNL     1      -9.288   4.404  66.461  1.00  0.00    -0.159 C  
BRANCH  14  17
HETATM   17  C   UNL     1      -9.467   6.723  65.725  1.00  0.00     0.288 C  
BRANCH  17  18
HETATM   18  C   UNL     1      -8.808   8.119  65.820  1.00  0.00    -0.135 C  
BRANCH  18  19
HETATM   19  O   UNL     1      -9.777   9.196  65.653  1.00  0.00    -0.270 OA 
BRANCH  19  20
HETATM   20  C   UNL     1      -9.294  10.400  66.049  1.00  0.00    -0.178 C  
HETATM   21  O   UNL     1      -8.257  10.885  65.593  1.00  0.00    -0.154 OA 
BRANCH  20  22
HETATM   22  C   UNL     1     -10.111  11.156  67.059  1.00  0.00    -0.235 A  
HETATM   23  C   UNL     1     -10.832  10.293  67.920  1.00  0.00    -0.337 A  
HETATM   24  C   UNL     1     -11.673  10.779  68.914  1.00  0.00    -0.338 A  
HETATM   25  C   UNL     1     -11.800  12.150  69.080  1.00  0.00    -0.361 A  
HETATM   26  C   UNL     1     -11.088  13.023  68.251  1.00  0.00    -0.293 A  
HETATM   27  C   UNL     1     -10.237  12.562  67.221  1.00  0.00    -0.216 A  
BRANCH  27  28
HETATM   28  N   UNL     1      -9.624  13.502  66.365  1.00  0.00    -0.321 NA 
HETATM   29  H   UNL     1      -8.632  13.317  66.212  1.00  0.00     0.000 HD 
BRANCH  28  30
HETATM   30  C   UNL     1     -10.095  14.652  65.668  1.00  0.00    -0.363 A  
HETATM   31  C   UNL     1      -9.726  15.938  66.132  1.00  0.00    -0.351 A  
HETATM   32  C   UNL     1      -8.675  16.113  67.048  1.00  0.00    -0.228 A  
HETATM   33  C   UNL     1      -8.404  17.357  67.604  1.00  0.00    -0.214 A  
HETATM   34  C   UNL     1      -9.199  18.456  67.282  1.00  0.00    -0.271 A  
HETATM   35  C   UNL     1     -10.169  18.304  66.270  1.00  0.00    -0.414 A  
HETATM   36  C   UNL     1      -9.023  19.744  68.055  1.00  0.00    -0.311 C  
HETATM   37  C   UNL     1     -10.418  17.075  65.657  1.00  0.00    -0.216 A  
HETATM   38  F   UNL     1      -8.074  19.648  69.032  1.00  0.00    -0.383 F  
HETATM   39  F   UNL     1      -8.651  20.799  67.284  1.00  0.00    -0.404 F  
HETATM   40  F   UNL     1     -10.162  20.123  68.699  1.00  0.00    -0.514 F  
HETATM   41  N   UNL     1     -11.320  16.979  64.667  1.00  0.00    -0.865 NA 
HETATM   42  C   UNL     1     -11.555  15.753  64.134  1.00  0.00    -0.076 A  
HETATM   43  C   UNL     1     -10.992  14.572  64.611  1.00  0.00    -0.351 A  
ENDBRANCH  28  30
ENDBRANCH  27  28
ENDBRANCH  20  22
ENDBRANCH  19  20
ENDBRANCH  18  19
ENDBRANCH  17  18
ENDBRANCH  14  17
ENDBRANCH   7  11
TORSDOF 8
ENDMDL
MODEL      139
REMARK 921   NORMALIZED FREE ENERGY PREDICTED BY IDOCK:   -5.47 KCAL/MOL
REMARK 922        TOTAL FREE ENERGY PREDICTED BY IDOCK:  -11.43 KCAL/MOL
REMARK 923 INTER-LIGAND FREE ENERGY PREDICTED BY IDOCK:   -9.73 KCAL/MOL
REMARK 924 INTRA-LIGAND FREE ENERGY PREDICTED BY IDOCK:   -1.69 KCAL/MOL
REMARK 927      BINDING AFFINITY PREDICTED BY RF-SCORE:    0.00 PKD
ROOT
HETATM    1  F   UNL     1      -8.706   3.608  69.129  1.00  0.00    -0.092 F  
HETATM    2  C   UNL     1      -9.058   2.903  70.240  1.00  0.00    -0.117 C  
HETATM    3  C   UNL     1      -9.812   3.711  71.267  1.00  0.00    -0.211 A  
HETATM    4  F   UNL     1      -9.766   1.828  69.794  1.00  0.00    -0.170 F  
HETATM    5  F   UNL     1      -7.895   2.397  70.740  1.00  0.00    -0.041 F  
HETATM    6  C   UNL     1     -10.100   5.076  71.061  1.00  0.00    -0.297 A  
HETATM    7  C   UNL     1     -10.707   5.842  72.063  1.00  0.00    -0.233 A  
HETATM    8  C   UNL     1     -10.190   3.099  72.472  1.00  0.00    -0.216 A  
HETATM    9  C   UNL     1     -11.087   5.186  73.247  1.00  0.00    -0.392 A  
HETATM   10  C   UNL     1     -10.837   3.833  73.456  1.00  0.00    -0.324 A  
ENDROOT
BRANCH   7  11
HETATM   11  N   UNL     1     -10.915   7.223  71.985  1.00  0.00    -0.233 NA 
HETATM   12  C   UNL     1     -12.230   9.319  72.098  1.00  0.00    -0.307 C  
HETATM   13  C   UNL     1     -12.284   7.772  71.937  1.00  0.00    -0.306 C  
HETATM   14  N   UNL     1     -11.355  10.035  71.128  1.00  0.00    -0.359 NA 
HETATM   15  C   UNL     1      -9.990   7.874  71.029  1.00  0.00    -0.181 C  
HETATM   16  C   UNL     1     -10.007   9.408  71.232  1.00  0.00    -0.204 C  
BRANCH  14  17
HETATM   17  C   UNL     1     -11.848   9.968  69.732  1.00  0.00    -0.021 C  
BRANCH  17  18
HETATM   18  C   UNL     1     -10.783  10.201  68.635  1.00  0.00    -0.222 C  
BRANCH  18  19
HETATM   19  O   UNL     1     -10.534   8.998  67.847  1.00  0.00    -0.231 OA 
BRANCH  19  20
HETATM   20  C   UNL     1      -9.637   9.202  66.850  1.00  0.00    -0.178 C  
HETATM   21  O   UNL     1      -9.806   8.778  65.705  1.00  0.00    -0.180 OA 
BRANCH  20  22
HETATM   22  C   UNL     1      -8.422  10.017  67.191  1.00  0.00    -0.125 A  
HETATM   23  C   UNL     1      -7.663   9.438  68.238  1.00  0.00    -0.083 A  
HETATM   24  C   UNL     1      -6.512  10.037  68.732  1.00  0.00    -0.045 A  
HETATM   25  C   UNL     1      -6.081  11.231  68.175  1.00  0.00    -0.045 A  
HETATM   26  C   UNL     1      -6.804  11.818  67.131  1.00  0.00    -0.148 A  
HETATM   27  C   UNL     1      -7.988  11.242  66.616  1.00  0.00    -0.159 A  
BRANCH  27  28
HETATM   28  N   UNL     1      -8.715  11.937  65.627  1.00  0.00    -0.383 NA 
HETATM   29  H   UNL     1      -8.255  11.936  64.716  1.00  0.00     0.000 HD 
BRANCH  28  30
HETATM   30  C   UNL     1      -9.955  12.640  65.629  1.00  0.00    -0.242 A  
HETATM   31  C   UNL     1     -10.023  13.915  66.242  1.00  0.00    -0.315 A  
HETATM   32  C   UNL     1      -8.862  14.636  66.565  1.00  0.00    -0.190 A  
HETATM   33  C   UNL     1      -8.928  15.821  67.288  1.00  0.00    -0.211 A  
HETATM   34  C   UNL     1     -10.158  16.301  67.734  1.00  0.00    -0.252 A  
HETATM   35  C   UNL     1     -11.328  15.644  67.302  1.00  0.00    -0.122 A  
HETATM   36  C   UNL     1     -10.189  17.469  68.694  1.00  0.00    -0.373 C  
HETATM   37  C   UNL     1     -11.286  14.483  66.526  1.00  0.00    -0.352 A  
HETATM   38  F   UNL     1      -8.939  17.909  69.030  1.00  0.00    -0.252 F  
HETATM   39  F   UNL     1     -10.843  18.558  68.212  1.00  0.00    -0.328 F  
HETATM   40  F   UNL     1     -10.787  17.155  69.876  1.00  0.00    -0.300 F  
HETATM   41  N   UNL     1     -12.421  13.910  66.098  1.00  0.00    -0.458 NA 
HETATM   42  C   UNL     1     -12.326  12.760  65.383  1.00  0.00    -0.470 A  
HETATM   43  C   UNL     1     -11.132  12.083  65.146  1.00  0.00    -0.369 A  
ENDBRANCH  28  30
ENDBRANCH  27  28
ENDBRANCH  20  22
ENDBRANCH  19  20
ENDBRANCH  18  19
ENDBRANCH  17  18
ENDBRANCH  14  17
ENDBRANCH   7  11
TORSDOF 8
ENDMDL
MODEL      140
REMARK 921   NORMALIZED FREE ENERGY PREDICTED BY IDOCK:   -5.46 KCAL/MOL
REMARK 922        TOTAL FREE ENERGY PREDICTED BY IDOCK:  -11.42 KCAL/MOL
REMARK 923 INTER-LIGAND FREE ENERGY PREDICTED BY IDOCK:   -8.93 KCAL/MOL
REMARK 924 INTRA-LIGAND FREE ENERGY PREDICTED BY IDOCK:   -2.49 KCAL/MOL
REMARK 927      BINDING AFFINITY PREDICTED BY RF-SCORE:    0.00 PKD
ROOT
HETATM    1  F   UNL     1      -8.447   1.982  66.848  1.00  0.00    -0.078 F  
HETATM    2  C   UNL     1      -8.878   2.995  66.046  1.00  0.00    -0.142 C  
HETATM    3  C   UNL     1      -9.512   4.142  66.793  1.00  0.00    -0.211 A  
HETATM    4  F   UNL     1      -7.796   3.381  65.313  1.00  0.00    -0.078 F  
HETATM    5  F   UNL     1      -9.740   2.423  65.158  1.00  0.00    -0.100 F  
HETATM    6  C   UNL     1      -9.637   4.125  68.198  1.00  0.00    -0.195 A  
HETATM    7  C   UNL     1     -10.320   5.144  68.872  1.00  0.00    -0.116 A  
HETATM    8  C   UNL     1     -10.031   5.224  66.067  1.00  0.00    -0.152 A  
HETATM    9  C   UNL     1     -10.808   6.219  68.109  1.00  0.00    -0.401 A  
HETATM   10  C   UNL     1     -10.669   6.267  66.725  1.00  0.00    -0.364 A  
ENDROOT
BRANCH   7  11
HETATM   11  N   UNL     1     -10.593   5.138  70.243  1.00  0.00    -0.227 NA 
HETATM   12  C   UNL     1     -11.674   5.912  72.334  1.00  0.00    -0.253 C  
HETATM   13  C   UNL     1     -11.288   6.279  70.872  1.00  0.00    -0.325 C  
HETATM   14  N   UNL     1     -10.552   5.453  73.199  1.00  0.00    -0.218 NA 
HETATM   15  C   UNL     1      -9.448   4.640  71.040  1.00  0.00    -0.161 C  
HETATM   16  C   UNL     1      -9.903   4.319  72.484  1.00  0.00    -0.154 C  
BRANCH  14  17
HETATM   17  C   UNL     1      -9.561   6.516  73.487  1.00  0.00    -0.158 C  
BRANCH  17  18
HETATM   18  C   UNL     1     -10.063   7.967  73.296  1.00  0.00    -0.245 C  
BRANCH  18  19
HETATM   19  O   UNL     1      -9.160   8.756  72.465  1.00  0.00    -0.367 OA 
BRANCH  19  20
HETATM   20  C   UNL     1      -9.760   9.232  71.345  1.00  0.00    -0.199 C  
HETATM   21  O   UNL     1     -10.845   9.817  71.368  1.00  0.00    -0.308 OA 
BRANCH  20  22
HETATM   22  C   UNL     1      -9.019   9.049  70.052  1.00  0.00    -0.184 A  
HETATM   23  C   UNL     1      -8.212   7.884  70.055  1.00  0.00    -0.119 A  
HETATM   24  C   UNL     1      -7.419   7.533  68.970  1.00  0.00    -0.096 A  
HETATM   25  C   UNL     1      -7.428   8.338  67.841  1.00  0.00    -0.098 A  
HETATM   26  C   UNL     1      -8.226   9.487  67.806  1.00  0.00    -0.114 A  
HETATM   27  C   UNL     1      -9.031   9.880  68.899  1.00  0.00    -0.153 A  
BRANCH  27  28
HETATM   28  N   UNL     1      -9.737  11.099  68.828  1.00  0.00    -0.246 NA 
HETATM   29  H   UNL     1      -9.958  11.489  69.745  1.00  0.00     0.000 HD 
BRANCH  28  30
HETATM   30  C   UNL     1     -10.207  11.903  67.749  1.00  0.00    -0.200 A  
HETATM   31  C   UNL     1      -9.947  13.294  67.762  1.00  0.00    -0.223 A  
HETATM   32  C   UNL     1      -8.989  13.853  68.624  1.00  0.00    -0.079 A  
HETATM   33  C   UNL     1      -8.833  15.230  68.733  1.00  0.00    -0.192 A  
HETATM   34  C   UNL     1      -9.654  16.087  68.002  1.00  0.00    -0.215 A  
HETATM   35  C   UNL     1     -10.526  15.524  67.047  1.00  0.00    -0.304 A  
HETATM   36  C   UNL     1      -9.614  17.570  68.291  1.00  0.00    -0.299 C  
HETATM   37  C   UNL     1     -10.656  14.143  66.881  1.00  0.00    -0.280 A  
HETATM   38  F   UNL     1      -8.747  17.888  69.299  1.00  0.00    -0.118 F  
HETATM   39  F   UNL     1      -9.233  18.326  67.228  1.00  0.00    -0.249 F  
HETATM   40  F   UNL     1     -10.822  18.055  68.693  1.00  0.00    -0.255 F  
HETATM   41  N   UNL     1     -11.464  13.646  65.932  1.00  0.00    -0.310 NA 
HETATM   42  C   UNL     1     -11.587  12.297  65.842  1.00  0.00    -0.393 A  
HETATM   43  C   UNL     1     -11.005  11.397  66.731  1.00  0.00    -0.347 A  
ENDBRANCH  28  30
ENDBRANCH  27  28
ENDBRANCH  20  22
ENDBRANCH  19  20
ENDBRANCH  18  19
ENDBRANCH  17  18
ENDBRANCH  14  17
ENDBRANCH   7  11
TORSDOF 8
ENDMDL
MODEL      141
REMARK 921   NORMALIZED FREE ENERGY PREDICTED BY IDOCK:   -5.45 KCAL/MOL
REMARK 922        TOTAL FREE ENERGY PREDICTED BY IDOCK:  -11.40 KCAL/MOL
REMARK 923 INTER-LIGAND FREE ENERGY PREDICTED BY IDOCK:   -9.15 KCAL/MOL
REMARK 924 INTRA-LIGAND FREE ENERGY PREDICTED BY IDOCK:   -2.26 KCAL/MOL
REMARK 927      BINDING AFFINITY PREDICTED BY RF-SCORE:    0.00 PKD
ROOT
HETATM    1  F   UNL     1     -10.450   3.705  74.499  1.00  0.00    -0.200 F  
HETATM    2  C   UNL     1     -10.193   3.017  73.352  1.00  0.00    -0.126 C  
HETATM    3  C   UNL     1     -10.014   3.893  72.137  1.00  0.00    -0.243 A  
HETATM    4  F   UNL     1      -9.098   2.249  73.612  1.00  0.00    -0.075 F  
HETATM    5  F   UNL     1     -11.230   2.144  73.205  1.00  0.00    -0.245 F  
HETATM    6  C   UNL     1     -10.119   5.297  72.222  1.00  0.00    -0.237 A  
HETATM    7  C   UNL     1     -10.055   6.094  71.073  1.00  0.00    -0.188 A  
HETATM    8  C   UNL     1      -9.786   3.291  70.891  1.00  0.00    -0.187 A  
HETATM    9  C   UNL     1      -9.806   5.453  69.846  1.00  0.00    -0.268 A  
HETATM   10  C   UNL     1      -9.671   4.071  69.748  1.00  0.00    -0.254 A  
ENDROOT
BRANCH   7  11
HETATM   11  N   UNL     1     -10.272   7.475  71.056  1.00  0.00    -0.191 NA 
HETATM   12  C   UNL     1     -11.512   9.572  71.507  1.00  0.00    -0.395 C  
HETATM   13  C   UNL     1     -11.608   8.026  71.360  1.00  0.00    -0.267 C  
HETATM   14  N   UNL     1     -10.910  10.291  70.349  1.00  0.00    -0.291 NA 
HETATM   15  C   UNL     1      -9.619   8.130  69.898  1.00  0.00    -0.175 C  
HETATM   16  C   UNL     1      -9.582   9.663  70.106  1.00  0.00    -0.254 C  
BRANCH  14  17
HETATM   17  C   UNL     1     -11.742  10.231  69.125  1.00  0.00    -0.037 C  
BRANCH  17  18
HETATM   18  C   UNL     1     -11.860  11.553  68.331  1.00  0.00    -0.283 C  
BRANCH  18  19
HETATM   19  O   UNL     1     -11.541  11.375  66.918  1.00  0.00    -0.492 OA 
BRANCH  19  20
HETATM   20  C   UNL     1     -11.742  12.503  66.191  1.00  0.00    -0.409 C  
HETATM   21  O   UNL     1     -12.747  12.678  65.498  1.00  0.00    -0.597 OA 
BRANCH  20  22
HETATM   22  C   UNL     1     -10.690  13.570  66.293  1.00  0.00    -0.288 A  
HETATM   23  C   UNL     1     -11.131  14.811  65.772  1.00  0.00    -0.338 A  
HETATM   24  C   UNL     1     -10.310  15.931  65.742  1.00  0.00    -0.396 A  
HETATM   25  C   UNL     1      -9.024  15.838  66.251  1.00  0.00    -0.381 A  
HETATM   26  C   UNL     1      -8.568  14.628  66.783  1.00  0.00    -0.195 A  
HETATM   27  C   UNL     1      -9.372  13.466  66.815  1.00  0.00    -0.256 A  
BRANCH  27  28
HETATM   28  N   UNL     1      -8.814  12.257  67.281  1.00  0.00    -0.182 NA 
HETATM   29  H   UNL     1      -9.345  11.838  68.045  1.00  0.00     0.000 HD 
BRANCH  28  30
HETATM   30  C   UNL     1      -7.666  11.496  66.913  1.00  0.00    -0.157 A  
HETATM   31  C   UNL     1      -7.827  10.134  66.562  1.00  0.00    -0.112 A  
HETATM   32  C   UNL     1      -9.090   9.598  66.264  1.00  0.00    -0.197 A  
HETATM   33  C   UNL     1      -9.263   8.234  66.054  1.00  0.00    -0.226 A  
HETATM   34  C   UNL     1      -8.179   7.366  66.167  1.00  0.00    -0.130 A  
HETATM   35  C   UNL     1      -6.894   7.921  66.341  1.00  0.00    -0.062 A  
HETATM   36  C   UNL     1      -8.425   5.874  66.147  1.00  0.00    -0.132 C  
HETATM   37  C   UNL     1      -6.691   9.294  66.496  1.00  0.00    -0.072 A  
HETATM   38  F   UNL     1      -9.750   5.559  66.035  1.00  0.00    -0.168 F  
HETATM   39  F   UNL     1      -7.807   5.231  65.121  1.00  0.00    -0.081 F  
HETATM   40  F   UNL     1      -8.007   5.263  67.290  1.00  0.00    -0.097 F  
HETATM   41  N   UNL     1      -5.450   9.788  66.616  1.00  0.00    -0.045 NA 
HETATM   42  C   UNL     1      -5.311  11.125  66.808  1.00  0.00    -0.094 A  
HETATM   43  C   UNL     1      -6.376  12.005  66.984  1.00  0.00    -0.124 A  
ENDBRANCH  28  30
ENDBRANCH  27  28
ENDBRANCH  20  22
ENDBRANCH  19  20
ENDBRANCH  18  19
ENDBRANCH  17  18
ENDBRANCH  14  17
ENDBRANCH   7  11
TORSDOF 8
ENDMDL
MODEL      142
REMARK 921   NORMALIZED FREE ENERGY PREDICTED BY IDOCK:   -5.41 KCAL/MOL
REMARK 922        TOTAL FREE ENERGY PREDICTED BY IDOCK:  -11.34 KCAL/MOL
REMARK 923 INTER-LIGAND FREE ENERGY PREDICTED BY IDOCK:   -9.96 KCAL/MOL
REMARK 924 INTRA-LIGAND FREE ENERGY PREDICTED BY IDOCK:   -1.38 KCAL/MOL
REMARK 927      BINDING AFFINITY PREDICTED BY RF-SCORE:    0.00 PKD
ROOT
HETATM    1  F   UNL     1     -10.833  19.609  65.098  1.00  0.00    -0.509 F  
HETATM    2  C   UNL     1     -10.298  19.508  66.347  1.00  0.00    -0.496 C  
HETATM    3  C   UNL     1     -10.215  18.095  66.867  1.00  0.00    -0.380 A  
HETATM    4  F   UNL     1      -9.081  20.117  66.283  1.00  0.00    -0.377 F  
HETATM    5  F   UNL     1     -11.067  20.303  67.144  1.00  0.00    -0.306 F  
HETATM    6  C   UNL     1     -10.670  17.002  66.101  1.00  0.00    -0.099 A  
HETATM    7  C   UNL     1     -10.685  15.707  66.632  1.00  0.00    -0.296 A  
HETATM    8  C   UNL     1      -9.718  17.873  68.160  1.00  0.00    -0.320 A  
HETATM    9  C   UNL     1     -10.161  15.525  67.924  1.00  0.00    -0.238 A  
HETATM   10  C   UNL     1      -9.681  16.588  68.684  1.00  0.00    -0.247 A  
ENDROOT
BRANCH   7  11
HETATM   11  N   UNL     1     -11.232  14.594  65.987  1.00  0.00    -0.339 NA 
HETATM   12  C   UNL     1     -11.918  12.224  65.761  1.00  0.00    -0.293 C  
HETATM   13  C   UNL     1     -11.011  13.235  66.520  1.00  0.00    -0.286 C  
HETATM   14  N   UNL     1     -11.777  12.223  64.278  1.00  0.00    -0.359 NA 
HETATM   15  C   UNL     1     -11.088  14.674  64.514  1.00  0.00    -0.257 C  
HETATM   16  C   UNL     1     -11.999  13.627  63.832  1.00  0.00    -0.408 C  
BRANCH  14  17
HETATM   17  C   UNL     1     -10.456  11.737  63.815  1.00  0.00    -0.416 C  
BRANCH  17  18
HETATM   18  C   UNL     1      -9.985  10.397  64.428  1.00  0.00    -0.318 C  
BRANCH  18  19
HETATM   19  O   UNL     1      -9.299  10.588  65.702  1.00  0.00    -0.180 OA 
BRANCH  19  20
HETATM   20  C   UNL     1      -8.785   9.434  66.197  1.00  0.00    -0.147 C  
HETATM   21  O   UNL     1      -8.942   8.343  65.644  1.00  0.00    -0.179 OA 
BRANCH  20  22
HETATM   22  C   UNL     1      -7.964   9.544  67.451  1.00  0.00    -0.106 A  
HETATM   23  C   UNL     1      -7.425  10.842  67.628  1.00  0.00    -0.095 A  
HETATM   24  C   UNL     1      -6.613  11.161  68.709  1.00  0.00    -0.059 A  
HETATM   25  C   UNL     1      -6.332  10.185  69.652  1.00  0.00    -0.057 A  
HETATM   26  C   UNL     1      -6.863   8.898  69.508  1.00  0.00    -0.048 A  
HETATM   27  C   UNL     1      -7.679   8.537  68.413  1.00  0.00    -0.101 A  
BRANCH  27  28
HETATM   28  N   UNL     1      -8.102   7.198  68.284  1.00  0.00    -0.123 NA 
HETATM   29  H   UNL     1      -7.755   6.747  67.437  1.00  0.00     0.000 HD 
BRANCH  28  30
HETATM   30  C   UNL     1      -8.911   6.339  69.085  1.00  0.00    -0.128 A  
HETATM   31  C   UNL     1     -10.073   6.864  69.701  1.00  0.00    -0.195 A  
HETATM   32  C   UNL     1     -10.620   8.095  69.304  1.00  0.00    -0.191 A  
HETATM   33  C   UNL     1     -11.677   8.671  69.999  1.00  0.00     0.283 A  
HETATM   34  C   UNL     1     -12.195   8.044  71.131  1.00  0.00    -0.262 A  
HETATM   35  C   UNL     1     -11.728   6.752  71.451  1.00  0.00    -0.371 A  
HETATM   36  C   UNL     1     -13.193   8.785  71.991  1.00  0.00    -0.395 C  
HETATM   37  C   UNL     1     -10.706   6.131  70.730  1.00  0.00    -0.266 A  
HETATM   38  F   UNL     1     -13.454  10.045  71.532  1.00  0.00    -0.409 F  
HETATM   39  F   UNL     1     -14.402   8.170  72.080  1.00  0.00    -0.426 F  
HETATM   40  F   UNL     1     -12.754   8.953  73.269  1.00  0.00    -0.137 F  
HETATM   41  N   UNL     1     -10.319   4.883  71.038  1.00  0.00    -0.186 NA 
HETATM   42  C   UNL     1      -9.292   4.342  70.334  1.00  0.00    -0.148 A  
HETATM   43  C   UNL     1      -8.551   5.030  69.377  1.00  0.00    -0.097 A  
ENDBRANCH  28  30
ENDBRANCH  27  28
ENDBRANCH  20  22
ENDBRANCH  19  20
ENDBRANCH  18  19
ENDBRANCH  17  18
ENDBRANCH  14  17
ENDBRANCH   7  11
TORSDOF 8
ENDMDL
MODEL      143
REMARK 921   NORMALIZED FREE ENERGY PREDICTED BY IDOCK:   -5.40 KCAL/MOL
REMARK 922        TOTAL FREE ENERGY PREDICTED BY IDOCK:  -11.33 KCAL/MOL
REMARK 923 INTER-LIGAND FREE ENERGY PREDICTED BY IDOCK:   -8.19 KCAL/MOL
REMARK 924 INTRA-LIGAND FREE ENERGY PREDICTED BY IDOCK:   -3.13 KCAL/MOL
REMARK 927      BINDING AFFINITY PREDICTED BY RF-SCORE:    0.00 PKD
ROOT
HETATM    1  F   UNL     1     -10.097   2.793  73.651  1.00  0.00    -0.126 F  
HETATM    2  C   UNL     1      -9.859   2.353  72.384  1.00  0.00    -0.141 C  
HETATM    3  C   UNL     1      -9.765   3.456  71.359  1.00  0.00    -0.234 A  
HETATM    4  F   UNL     1      -8.724   1.603  72.454  1.00  0.00    -0.057 F  
HETATM    5  F   UNL     1     -10.865   1.477  72.102  1.00  0.00    -0.235 F  
HETATM    6  C   UNL     1      -9.923   4.811  71.719  1.00  0.00    -0.255 A  
HETATM    7  C   UNL     1      -9.939   5.817  70.747  1.00  0.00    -0.193 A  
HETATM    8  C   UNL     1      -9.564   3.119  70.012  1.00  0.00    -0.162 A  
HETATM    9  C   UNL     1      -9.714   5.439  69.411  1.00  0.00    -0.226 A  
HETATM   10  C   UNL     1      -9.527   4.110  69.040  1.00  0.00    -0.244 A  
ENDROOT
BRANCH   7  11
HETATM   11  N   UNL     1     -10.212   7.163  71.007  1.00  0.00    -0.196 NA 
HETATM   12  C   UNL     1     -11.490   9.069  71.941  1.00  0.00    -0.370 C  
HETATM   13  C   UNL     1     -11.537   7.574  71.514  1.00  0.00    -0.272 C  
HETATM   14  N   UNL     1     -11.022  10.021  70.896  1.00  0.00    -0.321 NA 
HETATM   15  C   UNL     1      -9.690   8.056  69.946  1.00  0.00    -0.180 C  
HETATM   16  C   UNL     1      -9.696   9.524  70.434  1.00  0.00    -0.271 C  
BRANCH  14  17
HETATM   17  C   UNL     1     -11.955  10.141  69.751  1.00  0.00    -0.037 C  
BRANCH  17  18
HETATM   18  C   UNL     1     -12.149  11.570  69.193  1.00  0.00    -0.263 C  
BRANCH  18  19
HETATM   19  O   UNL     1     -12.035  11.612  67.739  1.00  0.00    -0.608 OA 
BRANCH  19  20
HETATM   20  C   UNL     1     -10.783  11.928  67.321  1.00  0.00    -0.236 C  
HETATM   21  O   UNL     1      -9.981  12.543  68.026  1.00  0.00    -0.206 OA 
BRANCH  20  22
HETATM   22  C   UNL     1     -10.390  11.455  65.950  1.00  0.00    -0.299 A  
HETATM   23  C   UNL     1     -10.808  12.349  64.933  1.00  0.00    -0.333 A  
HETATM   24  C   UNL     1     -10.573  12.097  63.588  1.00  0.00    -0.504 A  
HETATM   25  C   UNL     1      -9.893  10.943  63.227  1.00  0.00    -0.409 A  
HETATM   26  C   UNL     1      -9.458  10.051  64.212  1.00  0.00    -0.336 A  
HETATM   27  C   UNL     1      -9.695  10.270  65.587  1.00  0.00    -0.247 A  
BRANCH  27  28
HETATM   28  N   UNL     1      -9.309   9.281  66.517  1.00  0.00    -0.165 NA 
HETATM   29  H   UNL     1     -10.076   8.969  67.113  1.00  0.00     0.000 HD 
BRANCH  28  30
HETATM   30  C   UNL     1      -8.076   8.625  66.801  1.00  0.00    -0.101 A  
HETATM   31  C   UNL     1      -7.904   7.278  66.402  1.00  0.00    -0.106 A  
HETATM   32  C   UNL     1      -8.769   6.672  65.476  1.00  0.00    -0.051 A  
HETATM   33  C   UNL     1      -8.682   5.314  65.190  1.00  0.00    -0.146 A  
HETATM   34  C   UNL     1      -7.746   4.519  65.849  1.00  0.00    -0.094 A  
HETATM   35  C   UNL     1      -6.799   5.152  66.681  1.00  0.00    -0.063 A  
HETATM   36  C   UNL     1      -7.808   3.018  65.684  1.00  0.00    -0.085 C  
HETATM   37  C   UNL     1      -6.833   6.525  66.936  1.00  0.00    -0.066 A  
HETATM   38  F   UNL     1      -8.842   2.617  64.886  1.00  0.00    -0.101 F  
HETATM   39  F   UNL     1      -6.689   2.479  65.131  1.00  0.00    -0.034 F  
HETATM   40  F   UNL     1      -7.999   2.372  66.868  1.00  0.00    -0.068 F  
HETATM   41  N   UNL     1      -5.890   7.098  67.699  1.00  0.00    -0.028 NA 
HETATM   42  C   UNL     1      -5.994   8.428  67.951  1.00  0.00    -0.047 A  
HETATM   43  C   UNL     1      -7.067   9.219  67.549  1.00  0.00    -0.079 A  
ENDBRANCH  28  30
ENDBRANCH  27  28
ENDBRANCH  20  22
ENDBRANCH  19  20
ENDBRANCH  18  19
ENDBRANCH  17  18
ENDBRANCH  14  17
ENDBRANCH   7  11
TORSDOF 8
ENDMDL
MODEL      144
REMARK 921   NORMALIZED FREE ENERGY PREDICTED BY IDOCK:   -5.37 KCAL/MOL
REMARK 922        TOTAL FREE ENERGY PREDICTED BY IDOCK:  -11.29 KCAL/MOL
REMARK 923 INTER-LIGAND FREE ENERGY PREDICTED BY IDOCK:   -8.70 KCAL/MOL
REMARK 924 INTRA-LIGAND FREE ENERGY PREDICTED BY IDOCK:   -2.59 KCAL/MOL
REMARK 927      BINDING AFFINITY PREDICTED BY RF-SCORE:    0.00 PKD
ROOT
HETATM    1  F   UNL     1      -9.393  20.394  69.226  1.00  0.00     0.094 F  
HETATM    2  C   UNL     1     -10.054  19.999  68.102  1.00  0.00    -0.413 C  
HETATM    3  C   UNL     1      -9.634  18.645  67.587  1.00  0.00    -0.325 A  
HETATM    4  F   UNL     1     -11.380  20.058  68.407  1.00  0.00     0.156 F  
HETATM    5  F   UNL     1      -9.842  20.985  67.184  1.00  0.00    -0.611 F  
HETATM    6  C   UNL     1      -8.635  17.889  68.235  1.00  0.00    -0.277 A  
HETATM    7  C   UNL     1      -8.180  16.682  67.691  1.00  0.00    -0.172 A  
HETATM    8  C   UNL     1     -10.218  18.153  66.410  1.00  0.00    -0.405 A  
HETATM    9  C   UNL     1      -8.805  16.216  66.521  1.00  0.00    -0.331 A  
HETATM   10  C   UNL     1      -9.812  16.935  65.883  1.00  0.00    -0.241 A  
ENDROOT
BRANCH   7  11
HETATM   11  N   UNL     1      -7.113  15.938  68.203  1.00  0.00    -0.114 NA 
HETATM   12  C   UNL     1      -5.502  14.057  68.280  1.00  0.00    -0.112 C  
HETATM   13  C   UNL     1      -6.872  14.557  67.738  1.00  0.00    -0.177 C  
HETATM   14  N   UNL     1      -5.327  14.139  69.757  1.00  0.00    -0.092 NA 
HETATM   15  C   UNL     1      -6.976  16.092  69.671  1.00  0.00    -0.136 C  
HETATM   16  C   UNL     1      -5.603  15.553  70.137  1.00  0.00    -0.142 C  
BRANCH  14  17
HETATM   17  C   UNL     1      -6.217  13.220  70.504  1.00  0.00     0.066 C  
BRANCH  17  18
HETATM   18  C   UNL     1      -6.090  11.723  70.138  1.00  0.00    -0.147 C  
BRANCH  18  19
HETATM   19  O   UNL     1      -7.344  11.173  69.634  1.00  0.00    -0.085 OA 
BRANCH  19  20
HETATM   20  C   UNL     1      -7.154  10.148  68.766  1.00  0.00    -0.075 C  
HETATM   21  O   UNL     1      -6.073   9.935  68.211  1.00  0.00    -0.046 OA 
BRANCH  20  22
HETATM   22  C   UNL     1      -8.325   9.237  68.529  1.00  0.00    -0.119 A  
HETATM   23  C   UNL     1      -8.908   8.786  69.740  1.00  0.00    -0.142 A  
HETATM   24  C   UNL     1      -9.988   7.914  69.757  1.00  0.00    -0.186 A  
HETATM   25  C   UNL     1     -10.525   7.481  68.554  1.00  0.00    -0.211 A  
HETATM   26  C   UNL     1      -9.977   7.921  67.345  1.00  0.00    -0.261 A  
HETATM   27  C   UNL     1      -8.869   8.796  67.293  1.00  0.00    -0.132 A  
BRANCH  27  28
HETATM   28  N   UNL     1      -8.311   9.124  66.038  1.00  0.00    -0.117 NA 
HETATM   29  H   UNL     1      -7.354   8.788  65.925  1.00  0.00     0.000 HD 
BRANCH  28  30
HETATM   30  C   UNL     1      -8.800   9.823  64.897  1.00  0.00    -0.197 A  
HETATM   31  C   UNL     1      -9.523  11.026  65.083  1.00  0.00    -0.265 A  
HETATM   32  C   UNL     1      -9.507  11.708  66.310  1.00  0.00    -0.233 A  
HETATM   33  C   UNL     1     -10.324  12.811  66.533  1.00  0.00    -0.262 A  
HETATM   34  C   UNL     1     -11.204  13.241  65.541  1.00  0.00    -0.307 A  
HETATM   35  C   UNL     1     -11.127  12.634  64.270  1.00  0.00    -0.405 A  
HETATM   36  C   UNL     1     -12.229  14.301  65.875  1.00  0.00    -0.407 C  
HETATM   37  C   UNL     1     -10.271  11.562  64.009  1.00  0.00    -0.345 A  
HETATM   38  F   UNL     1     -12.168  14.702  67.180  1.00  0.00    -0.412 F  
HETATM   39  F   UNL     1     -12.105  15.435  65.137  1.00  0.00    -0.144 F  
HETATM   40  F   UNL     1     -13.506  13.864  65.695  1.00  0.00    -0.422 F  
HETATM   41  N   UNL     1     -10.194  11.038  62.776  1.00  0.00    -0.088 NA 
HETATM   42  C   UNL     1      -9.379   9.970  62.586  1.00  0.00    -0.266 A  
HETATM   43  C   UNL     1      -8.688   9.321  63.607  1.00  0.00    -0.188 A  
ENDBRANCH  28  30
ENDBRANCH  27  28
ENDBRANCH  20  22
ENDBRANCH  19  20
ENDBRANCH  18  19
ENDBRANCH  17  18
ENDBRANCH  14  17
ENDBRANCH   7  11
TORSDOF 8
ENDMDL
MODEL      145
REMARK 921   NORMALIZED FREE ENERGY PREDICTED BY IDOCK:   -5.37 KCAL/MOL
REMARK 922        TOTAL FREE ENERGY PREDICTED BY IDOCK:  -11.28 KCAL/MOL
REMARK 923 INTER-LIGAND FREE ENERGY PREDICTED BY IDOCK:   -9.64 KCAL/MOL
REMARK 924 INTRA-LIGAND FREE ENERGY PREDICTED BY IDOCK:   -1.64 KCAL/MOL
REMARK 927      BINDING AFFINITY PREDICTED BY RF-SCORE:    0.00 PKD
ROOT
HETATM    1  F   UNL     1      -5.516   3.140  67.417  1.00  0.00    -0.014 F  
HETATM    2  C   UNL     1      -6.314   2.868  66.346  1.00  0.00    -0.028 C  
HETATM    3  C   UNL     1      -7.669   3.528  66.408  1.00  0.00    -0.084 A  
HETATM    4  F   UNL     1      -5.601   3.234  65.245  1.00  0.00    -0.014 F  
HETATM    5  F   UNL     1      -6.407   1.510  66.291  1.00  0.00    -0.021 F  
HETATM    6  C   UNL     1      -8.043   4.340  67.499  1.00  0.00    -0.099 A  
HETATM    7  C   UNL     1      -9.338   4.862  67.597  1.00  0.00    -0.130 A  
HETATM    8  C   UNL     1      -8.591   3.286  65.379  1.00  0.00    -0.112 A  
HETATM    9  C   UNL     1     -10.225   4.611  66.535  1.00  0.00    -0.273 A  
HETATM   10  C   UNL     1      -9.864   3.836  65.437  1.00  0.00    -0.130 A  
ENDROOT
BRANCH   7  11
HETATM   11  N   UNL     1      -9.823   5.570  68.701  1.00  0.00    -0.138 NA 
HETATM   12  C   UNL     1     -11.523   6.771  70.045  1.00  0.00    -0.334 C  
HETATM   13  C   UNL     1     -11.115   6.279  68.625  1.00  0.00    -0.325 C  
HETATM   14  N   UNL     1     -10.514   7.614  70.746  1.00  0.00    -0.208 NA 
HETATM   15  C   UNL     1      -8.762   6.359  69.369  1.00  0.00    -0.129 C  
HETATM   16  C   UNL     1      -9.246   6.832  70.760  1.00  0.00    -0.158 C  
BRANCH  14  17
HETATM   17  C   UNL     1     -10.300   8.931  70.101  1.00  0.00    -0.206 C  
BRANCH  17  18
HETATM   18  C   UNL     1      -8.933   9.120  69.404  1.00  0.00    -0.147 C  
BRANCH  18  19
HETATM   19  O   UNL     1      -9.010  10.056  68.287  1.00  0.00    -0.118 OA 
BRANCH  19  20
HETATM   20  C   UNL     1      -9.789   9.599  67.275  1.00  0.00    -0.175 C  
HETATM   21  O   UNL     1     -11.019   9.561  67.346  1.00  0.00    -0.232 OA 
BRANCH  20  22
HETATM   22  C   UNL     1      -9.082   9.169  66.021  1.00  0.00    -0.245 A  
HETATM   23  C   UNL     1      -8.692   7.807  66.065  1.00  0.00    -0.184 A  
HETATM   24  C   UNL     1      -8.001   7.205  65.022  1.00  0.00    -0.129 A  
HETATM   25  C   UNL     1      -7.697   7.952  63.894  1.00  0.00    -0.138 A  
HETATM   26  C   UNL     1      -8.082   9.295  63.820  1.00  0.00    -0.155 A  
HETATM   27  C   UNL     1      -8.772   9.942  64.870  1.00  0.00    -0.176 A  
BRANCH  27  28
HETATM   28  N   UNL     1      -9.046  11.322  64.763  1.00  0.00    -0.382 NA 
HETATM   29  H   UNL     1      -8.204  11.896  64.718  1.00  0.00     0.000 HD 
BRANCH  28  30
HETATM   30  C   UNL     1     -10.249  12.084  64.706  1.00  0.00    -0.279 A  
HETATM   31  C   UNL     1     -10.587  12.920  65.798  1.00  0.00    -0.293 A  
HETATM   32  C   UNL     1      -9.643  13.260  66.780  1.00  0.00    -0.258 A  
HETATM   33  C   UNL     1     -10.012  13.966  67.920  1.00  0.00    -0.242 A  
HETATM   34  C   UNL     1     -11.344  14.324  68.121  1.00  0.00    -0.313 A  
HETATM   35  C   UNL     1     -12.263  14.092  67.076  1.00  0.00    -0.387 A  
HETATM   36  C   UNL     1     -11.758  14.899  69.456  1.00  0.00    -0.320 C  
HETATM   37  C   UNL     1     -11.900  13.436  65.899  1.00  0.00    -0.376 A  
HETATM   38  F   UNL     1     -10.721  14.977  70.343  1.00  0.00    -0.265 F  
HETATM   39  F   UNL     1     -12.267  16.157  69.377  1.00  0.00    -0.289 F  
HETATM   40  F   UNL     1     -12.704  14.141  70.077  1.00  0.00    -0.378 F  
HETATM   41  N   UNL     1     -12.792  13.271  64.909  1.00  0.00    -0.732 NA 
HETATM   42  C   UNL     1     -12.400  12.588  63.804  1.00  0.00    -0.502 A  
HETATM   43  C   UNL     1     -11.162  11.964  63.667  1.00  0.00    -0.522 A  
ENDBRANCH  28  30
ENDBRANCH  27  28
ENDBRANCH  20  22
ENDBRANCH  19  20
ENDBRANCH  18  19
ENDBRANCH  17  18
ENDBRANCH  14  17
ENDBRANCH   7  11
TORSDOF 8
ENDMDL
MODEL      146
REMARK 921   NORMALIZED FREE ENERGY PREDICTED BY IDOCK:   -5.36 KCAL/MOL
REMARK 922        TOTAL FREE ENERGY PREDICTED BY IDOCK:  -11.27 KCAL/MOL
REMARK 923 INTER-LIGAND FREE ENERGY PREDICTED BY IDOCK:   -9.94 KCAL/MOL
REMARK 924 INTRA-LIGAND FREE ENERGY PREDICTED BY IDOCK:   -1.33 KCAL/MOL
REMARK 927      BINDING AFFINITY PREDICTED BY RF-SCORE:    0.00 PKD
ROOT
HETATM    1  F   UNL     1     -12.157  10.896  70.261  1.00  0.00    -0.311 F  
HETATM    2  C   UNL     1     -12.708   9.967  71.091  1.00  0.00    -0.387 C  
HETATM    3  C   UNL     1     -12.008   8.631  71.068  1.00  0.00    -0.278 A  
HETATM    4  F   UNL     1     -12.720  10.532  72.331  1.00  0.00    -0.398 F  
HETATM    5  F   UNL     1     -14.015   9.868  70.718  1.00  0.00    -0.327 F  
HETATM    6  C   UNL     1     -10.891   8.400  70.239  1.00  0.00    -0.244 A  
HETATM    7  C   UNL     1     -10.314   7.129  70.146  1.00  0.00    -0.206 A  
HETATM    8  C   UNL     1     -12.514   7.584  71.853  1.00  0.00    -0.335 A  
HETATM    9  C   UNL     1     -10.839   6.112  70.963  1.00  0.00    -0.338 A  
HETATM   10  C   UNL     1     -11.923   6.328  71.809  1.00  0.00    -0.313 A  
ENDROOT
BRANCH   7  11
HETATM   11  N   UNL     1      -9.287   6.790  69.260  1.00  0.00    -0.144 NA 
HETATM   12  C   UNL     1      -7.333   7.216  67.797  1.00  0.00    -0.097 C  
HETATM   13  C   UNL     1      -8.566   7.840  68.513  1.00  0.00    -0.128 C  
HETATM   14  N   UNL     1      -7.626   6.060  66.904  1.00  0.00    -0.094 NA 
HETATM   15  C   UNL     1      -9.631   5.613  68.427  1.00  0.00    -0.126 C  
HETATM   16  C   UNL     1      -8.364   5.065  67.731  1.00  0.00    -0.105 C  
BRANCH  14  17
HETATM   17  C   UNL     1      -8.421   6.429  65.710  1.00  0.00    -0.148 C  
BRANCH  17  18
HETATM   18  C   UNL     1      -8.751   7.934  65.565  1.00  0.00    -0.081 C  
BRANCH  18  19
HETATM   19  O   UNL     1      -7.776   8.632  64.734  1.00  0.00    -0.097 OA 
BRANCH  19  20
HETATM   20  C   UNL     1      -7.930   9.980  64.768  1.00  0.00    -0.144 C  
HETATM   21  O   UNL     1      -8.364  10.624  63.811  1.00  0.00    -0.136 OA 
BRANCH  20  22
HETATM   22  C   UNL     1      -7.581  10.668  66.057  1.00  0.00    -0.142 A  
HETATM   23  C   UNL     1      -6.253  10.395  66.468  1.00  0.00    -0.078 A  
HETATM   24  C   UNL     1      -5.727  10.908  67.647  1.00  0.00    -0.043 A  
HETATM   25  C   UNL     1      -6.519  11.725  68.439  1.00  0.00    -0.053 A  
HETATM   26  C   UNL     1      -7.829  12.021  68.049  1.00  0.00    -0.145 A  
HETATM   27  C   UNL     1      -8.399  11.503  66.864  1.00  0.00    -0.166 A  
BRANCH  27  28
HETATM   28  N   UNL     1      -9.756  11.768  66.582  1.00  0.00    -0.198 NA 
HETATM   29  H   UNL     1     -10.399  11.224  67.158  1.00  0.00     0.000 HD 
BRANCH  28  30
HETATM   30  C   UNL     1     -10.419  12.634  65.664  1.00  0.00    -0.275 A  
HETATM   31  C   UNL     1     -10.226  14.032  65.773  1.00  0.00    -0.343 A  
HETATM   32  C   UNL     1      -9.177  14.569  66.536  1.00  0.00    -0.282 A  
HETATM   33  C   UNL     1      -9.071  15.938  66.752  1.00  0.00    -0.275 A  
HETATM   34  C   UNL     1     -10.031  16.805  66.233  1.00  0.00    -0.336 A  
HETATM   35  C   UNL     1     -11.009  16.276  65.365  1.00  0.00    -0.204 A  
HETATM   36  C   UNL     1     -10.017  18.257  66.654  1.00  0.00    -0.364 C  
HETATM   37  C   UNL     1     -11.097  14.910  65.089  1.00  0.00    -0.393 A  
HETATM   38  F   UNL     1      -9.025  18.537  67.551  1.00  0.00    -0.267 F  
HETATM   39  F   UNL     1      -9.836  19.125  65.624  1.00  0.00    -0.273 F  
HETATM   40  F   UNL     1     -11.173  18.630  67.271  1.00  0.00    -0.405 F  
HETATM   41  N   UNL     1     -12.014  14.450  64.223  1.00  0.00    -0.438 NA 
HETATM   42  C   UNL     1     -12.086  13.109  64.024  1.00  0.00    -0.446 A  
HETATM   43  C   UNL     1     -11.336  12.171  64.729  1.00  0.00    -0.378 A  
ENDBRANCH  28  30
ENDBRANCH  27  28
ENDBRANCH  20  22
ENDBRANCH  19  20
ENDBRANCH  18  19
ENDBRANCH  17  18
ENDBRANCH  14  17
ENDBRANCH   7  11
TORSDOF 8
ENDMDL
MODEL      147
REMARK 921   NORMALIZED FREE ENERGY PREDICTED BY IDOCK:   -5.34 KCAL/MOL
REMARK 922        TOTAL FREE ENERGY PREDICTED BY IDOCK:  -11.24 KCAL/MOL
REMARK 923 INTER-LIGAND FREE ENERGY PREDICTED BY IDOCK:   -9.17 KCAL/MOL
REMARK 924 INTRA-LIGAND FREE ENERGY PREDICTED BY IDOCK:   -2.07 KCAL/MOL
REMARK 927      BINDING AFFINITY PREDICTED BY RF-SCORE:    0.00 PKD
ROOT
HETATM    1  F   UNL     1      -8.967  18.110  66.801  1.00  0.00    -0.250 F  
HETATM    2  C   UNL     1      -9.477  17.961  68.055  1.00  0.00    -0.279 C  
HETATM    3  C   UNL     1     -10.257  16.685  68.253  1.00  0.00    -0.281 A  
HETATM    4  F   UNL     1      -8.419  18.067  68.906  1.00  0.00    -0.287 F  
HETATM    5  F   UNL     1     -10.241  19.068  68.277  1.00  0.00    -0.374 F  
HETATM    6  C   UNL     1     -10.428  15.757  67.204  1.00  0.00    -0.309 A  
HETATM    7  C   UNL     1     -11.239  14.629  67.367  1.00  0.00    -0.342 A  
HETATM    8  C   UNL     1     -10.865  16.444  69.494  1.00  0.00    -0.338 A  
HETATM    9  C   UNL     1     -11.814  14.414  68.632  1.00  0.00    -0.366 A  
HETATM   10  C   UNL     1     -11.633  15.304  69.687  1.00  0.00    -0.340 A  
ENDROOT
BRANCH   7  11
HETATM   11  N   UNL     1     -11.557  13.731  66.344  1.00  0.00    -0.344 NA 
HETATM   12  C   UNL     1     -11.734  11.508  65.264  1.00  0.00     0.183 C  
HETATM   13  C   UNL     1     -11.040  12.348  66.375  1.00  0.00    -0.301 C  
HETATM   14  N   UNL     1     -11.636  12.062  63.884  1.00  0.00    -0.421 NA 
HETATM   15  C   UNL     1     -11.472  14.356  65.003  1.00  0.00    -0.372 C  
HETATM   16  C   UNL     1     -12.161  13.455  63.951  1.00  0.00    -0.455 C  
BRANCH  14  17
HETATM   17  C   UNL     1     -10.256  12.056  63.346  1.00  0.00    -0.426 C  
BRANCH  17  18
HETATM   18  C   UNL     1      -9.666  10.660  63.039  1.00  0.00    -0.323 C  
BRANCH  18  19
HETATM   19  O   UNL     1      -8.268  10.553  63.444  1.00  0.00    -0.157 OA 
BRANCH  19  20
HETATM   20  C   UNL     1      -8.062   9.577  64.363  1.00  0.00    -0.141 C  
HETATM   21  O   UNL     1      -8.477   9.654  65.521  1.00  0.00    -0.132 OA 
BRANCH  20  22
HETATM   22  C   UNL     1      -7.326   8.354  63.896  1.00  0.00    -0.102 A  
HETATM   23  C   UNL     1      -6.319   8.662  62.947  1.00  0.00    -0.091 A  
HETATM   24  C   UNL     1      -5.532   7.679  62.362  1.00  0.00    -0.051 A  
HETATM   25  C   UNL     1      -5.725   6.355  62.727  1.00  0.00    -0.023 A  
HETATM   26  C   UNL     1      -6.704   6.025  63.671  1.00  0.00    -0.037 A  
HETATM   27  C   UNL     1      -7.531   6.999  64.273  1.00  0.00    -0.098 A  
BRANCH  27  28
HETATM   28  N   UNL     1      -8.558   6.583  65.146  1.00  0.00    -0.338 NA 
HETATM   29  H   UNL     1      -9.476   6.554  64.701  1.00  0.00     0.000 HD 
BRANCH  28  30
HETATM   30  C   UNL     1      -8.587   6.194  66.518  1.00  0.00    -0.126 A  
HETATM   31  C   UNL     1      -9.375   6.939  67.428  1.00  0.00    -0.144 A  
HETATM   32  C   UNL     1     -10.359   7.837  66.982  1.00  0.00    -0.405 A  
HETATM   33  C   UNL     1     -11.035   8.665  67.871  1.00  0.00     0.078 A  
HETATM   34  C   UNL     1     -10.722   8.638  69.229  1.00  0.00    -0.151 A  
HETATM   35  C   UNL     1      -9.826   7.649  69.688  1.00  0.00    -0.181 A  
HETATM   36  C   UNL     1     -11.312   9.688  70.142  1.00  0.00    -0.227 C  
HETATM   37  C   UNL     1      -9.180   6.769  68.818  1.00  0.00    -0.130 A  
HETATM   38  F   UNL     1     -12.098  10.585  69.476  1.00  0.00    -0.313 F  
HETATM   39  F   UNL     1     -12.093   9.179  71.131  1.00  0.00    -0.308 F  
HETATM   40  F   UNL     1     -10.356  10.439  70.757  1.00  0.00    -0.189 F  
HETATM   41  N   UNL     1      -8.368   5.814  69.297  1.00  0.00    -0.107 NA 
HETATM   42  C   UNL     1      -7.731   5.012  68.406  1.00  0.00    -0.079 A  
HETATM   43  C   UNL     1      -7.789   5.177  67.024  1.00  0.00    -0.096 A  
ENDBRANCH  28  30
ENDBRANCH  27  28
ENDBRANCH  20  22
ENDBRANCH  19  20
ENDBRANCH  18  19
ENDBRANCH  17  18
ENDBRANCH  14  17
ENDBRANCH   7  11
TORSDOF 8
ENDMDL
MODEL      148
REMARK 921   NORMALIZED FREE ENERGY PREDICTED BY IDOCK:   -5.34 KCAL/MOL
REMARK 922        TOTAL FREE ENERGY PREDICTED BY IDOCK:  -11.23 KCAL/MOL
REMARK 923 INTER-LIGAND FREE ENERGY PREDICTED BY IDOCK:   -9.67 KCAL/MOL
REMARK 924 INTRA-LIGAND FREE ENERGY PREDICTED BY IDOCK:   -1.56 KCAL/MOL
REMARK 927      BINDING AFFINITY PREDICTED BY RF-SCORE:    0.00 PKD
ROOT
HETATM    1  F   UNL     1      -8.796   5.070  63.265  1.00  0.00    -0.139 F  
HETATM    2  C   UNL     1      -9.207   3.870  63.762  1.00  0.00    -0.129 C  
HETATM    3  C   UNL     1      -9.000   3.718  65.249  1.00  0.00    -0.133 A  
HETATM    4  F   UNL     1     -10.513   3.740  63.398  1.00  0.00    -0.177 F  
HETATM    5  F   UNL     1      -8.529   2.924  63.052  1.00  0.00    -0.081 F  
HETATM    6  C   UNL     1      -8.421   4.748  66.020  1.00  0.00    -0.116 A  
HETATM    7  C   UNL     1      -8.138   4.559  67.377  1.00  0.00    -0.101 A  
HETATM    8  C   UNL     1      -9.348   2.507  65.865  1.00  0.00     0.021 A  
HETATM    9  C   UNL     1      -8.520   3.337  67.960  1.00  0.00    -0.104 A  
HETATM   10  C   UNL     1      -9.118   2.320  67.221  1.00  0.00    -0.166 A  
ENDROOT
BRANCH   7  11
HETATM   11  N   UNL     1      -7.457   5.480  68.178  1.00  0.00    -0.073 NA 
HETATM   12  C   UNL     1      -5.767   6.220  69.833  1.00  0.00    -0.014 C  
HETATM   13  C   UNL     1      -6.577   5.016  69.269  1.00  0.00    -0.047 C  
HETATM   14  N   UNL     1      -6.580   7.383  70.287  1.00  0.00    -0.045 NA 
HETATM   15  C   UNL     1      -8.312   6.626  68.564  1.00  0.00    -0.122 C  
HETATM   16  C   UNL     1      -7.442   7.771  69.136  1.00  0.00    -0.094 C  
BRANCH  14  17
HETATM   17  C   UNL     1      -7.410   7.089  71.478  1.00  0.00    -0.080 C  
BRANCH  17  18
HETATM   18  C   UNL     1      -7.991   8.323  72.209  1.00  0.00    -0.139 C  
BRANCH  18  19
HETATM   19  O   UNL     1      -9.434   8.220  72.398  1.00  0.00    -0.230 OA 
BRANCH  19  20
HETATM   20  C   UNL     1     -10.132   8.973  71.511  1.00  0.00    -0.339 C  
HETATM   21  O   UNL     1      -9.589   9.746  70.720  1.00  0.00    -0.169 OA 
BRANCH  20  22
HETATM   22  C   UNL     1     -11.625   8.797  71.505  1.00  0.00    -0.374 A  
HETATM   23  C   UNL     1     -12.014   7.496  71.909  1.00  0.00    -0.335 A  
HETATM   24  C   UNL     1     -13.346   7.106  71.951  1.00  0.00    -0.271 A  
HETATM   25  C   UNL     1     -14.328   8.021  71.602  1.00  0.00    -0.581 A  
HETATM   26  C   UNL     1     -13.971   9.316  71.212  1.00  0.00    -0.142 A  
HETATM   27  C   UNL     1     -12.625   9.740  71.144  1.00  0.00    -0.345 A  
BRANCH  27  28
HETATM   28  N   UNL     1     -12.336  11.031  70.653  1.00  0.00    -0.358 NA 
HETATM   29  H   UNL     1     -11.748  11.020  69.819  1.00  0.00     0.000 HD 
BRANCH  28  30
HETATM   30  C   UNL     1     -12.690  12.346  71.074  1.00  0.00    -0.223 A  
HETATM   31  C   UNL     1     -12.282  13.452  70.291  1.00  0.00    -0.405 A  
HETATM   32  C   UNL     1     -11.821  13.289  68.974  1.00  0.00    -0.365 A  
HETATM   33  C   UNL     1     -11.294  14.357  68.258  1.00  0.00    -0.311 A  
HETATM   34  C   UNL     1     -11.186  15.613  68.852  1.00  0.00    -0.311 A  
HETATM   35  C   UNL     1     -11.763  15.802  70.125  1.00  0.00    -0.367 A  
HETATM   36  C   UNL     1     -10.420  16.703  68.137  1.00  0.00    -0.321 C  
HETATM   37  C   UNL     1     -12.350  14.755  70.838  1.00  0.00    -0.319 A  
HETATM   38  F   UNL     1      -9.889  16.283  66.949  1.00  0.00    -0.228 F  
HETATM   39  F   UNL     1     -11.171  17.795  67.837  1.00  0.00    -0.297 F  
HETATM   40  F   UNL     1      -9.359  17.155  68.862  1.00  0.00    -0.252 F  
HETATM   41  N   UNL     1     -12.927  14.982  72.028  1.00  0.00    -0.322 NA 
HETATM   42  C   UNL     1     -13.444  13.922  72.699  1.00  0.00    -0.546 A  
HETATM   43  C   UNL     1     -13.331  12.599  72.280  1.00  0.00    -0.527 A  
ENDBRANCH  28  30
ENDBRANCH  27  28
ENDBRANCH  20  22
ENDBRANCH  19  20
ENDBRANCH  18  19
ENDBRANCH  17  18
ENDBRANCH  14  17
ENDBRANCH   7  11
TORSDOF 8
ENDMDL
MODEL      149
REMARK 921   NORMALIZED FREE ENERGY PREDICTED BY IDOCK:   -5.33 KCAL/MOL
REMARK 922        TOTAL FREE ENERGY PREDICTED BY IDOCK:  -11.23 KCAL/MOL
REMARK 923 INTER-LIGAND FREE ENERGY PREDICTED BY IDOCK:   -7.76 KCAL/MOL
REMARK 924 INTRA-LIGAND FREE ENERGY PREDICTED BY IDOCK:   -3.47 KCAL/MOL
REMARK 927      BINDING AFFINITY PREDICTED BY RF-SCORE:    0.00 PKD
ROOT
HETATM    1  F   UNL     1     -12.512   6.606  72.309  1.00  0.00    -0.316 F  
HETATM    2  C   UNL     1     -11.201   6.306  72.096  1.00  0.00    -0.282 C  
HETATM    3  C   UNL     1     -10.404   7.435  71.489  1.00  0.00    -0.216 A  
HETATM    4  F   UNL     1     -10.708   5.903  73.300  1.00  0.00    -0.222 F  
HETATM    5  F   UNL     1     -11.200   5.196  71.306  1.00  0.00    -0.157 F  
HETATM    6  C   UNL     1     -11.003   8.673  71.177  1.00  0.00    -0.320 A  
HETATM    7  C   UNL     1     -10.281   9.675  70.519  1.00  0.00    -0.287 A  
HETATM    8  C   UNL     1      -9.050   7.226  71.187  1.00  0.00    -0.152 A  
HETATM    9  C   UNL     1      -8.922   9.433  70.251  1.00  0.00    -0.277 A  
HETATM   10  C   UNL     1      -8.307   8.228  70.579  1.00  0.00    -0.124 A  
ENDROOT
BRANCH   7  11
HETATM   11  N   UNL     1     -10.832  10.878  70.066  1.00  0.00    -0.161 NA 
HETATM   12  C   UNL     1     -12.658  12.455  69.502  1.00  0.00     0.460 C  
HETATM   13  C   UNL     1     -12.271  10.967  69.745  1.00  0.00    -0.318 C  
HETATM   14  N   UNL     1     -11.855  13.167  68.469  1.00  0.00    -0.340 NA 
HETATM   15  C   UNL     1      -9.967  11.548  69.067  1.00  0.00    -0.019 C  
HETATM   16  C   UNL     1     -10.427  13.011  68.862  1.00  0.00    -0.084 C  
BRANCH  14  17
HETATM   17  C   UNL     1     -12.072  12.649  67.098  1.00  0.00    -0.122 C  
BRANCH  17  18
HETATM   18  C   UNL     1     -12.052  13.709  65.972  1.00  0.00    -0.441 C  
BRANCH  18  19
HETATM   19  O   UNL     1     -10.779  13.729  65.259  1.00  0.00    -0.307 OA 
BRANCH  19  20
HETATM   20  C   UNL     1      -9.908  14.636  65.768  1.00  0.00    -0.328 C  
HETATM   21  O   UNL     1     -10.092  15.852  65.690  1.00  0.00    -0.327 OA 
BRANCH  20  22
HETATM   22  C   UNL     1      -8.704  14.089  66.481  1.00  0.00     0.048 A  
HETATM   23  C   UNL     1      -8.032  15.081  67.238  1.00  0.00    -0.234 A  
HETATM   24  C   UNL     1      -6.877  14.802  67.957  1.00  0.00    -0.150 A  
HETATM   25  C   UNL     1      -6.373  13.510  67.948  1.00  0.00    -0.155 A  
HETATM   26  C   UNL     1      -7.025  12.509  67.219  1.00  0.00    -0.114 A  
HETATM   27  C   UNL     1      -8.192  12.763  66.465  1.00  0.00     0.325 A  
BRANCH  27  28
HETATM   28  N   UNL     1      -8.742  11.727  65.681  1.00  0.00    -0.397 NA 
HETATM   29  H   UNL     1      -9.687  11.930  65.354  1.00  0.00     0.000 HD 
BRANCH  28  30
HETATM   30  C   UNL     1      -8.259  10.458  65.249  1.00  0.00    -0.162 A  
HETATM   31  C   UNL     1      -8.858   9.282  65.761  1.00  0.00    -0.211 A  
HETATM   32  C   UNL     1     -10.095   9.319  66.425  1.00  0.00    -0.337 A  
HETATM   33  C   UNL     1     -10.614   8.188  67.045  1.00  0.00    -0.346 A  
HETATM   34  C   UNL     1      -9.893   6.996  67.043  1.00  0.00    -0.239 A  
HETATM   35  C   UNL     1      -8.715   6.929  66.270  1.00  0.00    -0.149 A  
HETATM   36  C   UNL     1     -10.370   5.844  67.898  1.00  0.00    -0.211 C  
HETATM   37  C   UNL     1      -8.206   8.039  65.591  1.00  0.00    -0.135 A  
HETATM   38  F   UNL     1     -11.494   6.149  68.614  1.00  0.00    -0.425 F  
HETATM   39  F   UNL     1     -10.680   4.726  67.190  1.00  0.00    -0.189 F  
HETATM   40  F   UNL     1      -9.447   5.467  68.825  1.00  0.00    -0.124 F  
HETATM   41  N   UNL     1      -7.107   7.926  64.831  1.00  0.00    -0.065 NA 
HETATM   42  C   UNL     1      -6.630   9.044  64.228  1.00  0.00    -0.082 A  
HETATM   43  C   UNL     1      -7.151  10.321  64.423  1.00  0.00    -0.064 A  
ENDBRANCH  28  30
ENDBRANCH  27  28
ENDBRANCH  20  22
ENDBRANCH  19  20
ENDBRANCH  18  19
ENDBRANCH  17  18
ENDBRANCH  14  17
ENDBRANCH   7  11
TORSDOF 8
ENDMDL
MODEL      150
REMARK 921   NORMALIZED FREE ENERGY PREDICTED BY IDOCK:   -5.33 KCAL/MOL
REMARK 922        TOTAL FREE ENERGY PREDICTED BY IDOCK:  -11.22 KCAL/MOL
REMARK 923 INTER-LIGAND FREE ENERGY PREDICTED BY IDOCK:   -9.79 KCAL/MOL
REMARK 924 INTRA-LIGAND FREE ENERGY PREDICTED BY IDOCK:   -1.44 KCAL/MOL
REMARK 927      BINDING AFFINITY PREDICTED BY RF-SCORE:    0.00 PKD
ROOT
HETATM    1  F   UNL     1      -5.811  18.981  68.053  1.00  0.00    -0.190 F  
HETATM    2  C   UNL     1      -6.624  20.034  67.759  1.00  0.00    -0.242 C  
HETATM    3  C   UNL     1      -8.035  19.637  67.400  1.00  0.00    -0.313 A  
HETATM    4  F   UNL     1      -6.570  20.862  68.839  1.00  0.00    -0.267 F  
HETATM    5  F   UNL     1      -6.007  20.705  66.746  1.00  0.00    -0.190 F  
HETATM    6  C   UNL     1      -8.435  18.285  67.374  1.00  0.00    -0.249 A  
HETATM    7  C   UNL     1      -9.714  17.922  66.938  1.00  0.00    -0.309 A  
HETATM    8  C   UNL     1      -8.951  20.636  67.038  1.00  0.00    -0.317 A  
HETATM    9  C   UNL     1     -10.608  18.954  66.602  1.00  0.00    -0.469 A  
HETATM   10  C   UNL     1     -10.240  20.296  66.650  1.00  0.00    -0.491 A  
ENDROOT
BRANCH   7  11
HETATM   11  N   UNL     1     -10.145  16.603  66.766  1.00  0.00    -0.282 NA 
HETATM   12  C   UNL     1     -11.364  14.529  67.361  1.00  0.00    -0.356 C  
HETATM   13  C   UNL     1     -10.767  15.867  67.885  1.00  0.00    -0.312 C  
HETATM   14  N   UNL     1     -10.414  13.646  66.629  1.00  0.00    -0.270 NA 
HETATM   15  C   UNL     1      -9.170  15.790  66.003  1.00  0.00    -0.344 C  
HETATM   16  C   UNL     1      -9.827  14.470  65.536  1.00  0.00    -0.285 C  
BRANCH  14  17
HETATM   17  C   UNL     1      -9.344  13.094  67.492  1.00  0.00    -0.207 C  
BRANCH  17  18
HETATM   18  C   UNL     1      -9.019  11.597  67.279  1.00  0.00    -0.169 C  
BRANCH  18  19
HETATM   19  O   UNL     1      -9.360  10.789  68.446  1.00  0.00    -0.153 OA 
BRANCH  19  20
HETATM   20  C   UNL     1     -10.698  10.629  68.598  1.00  0.00    -0.207 C  
HETATM   21  O   UNL     1     -11.502  10.830  67.684  1.00  0.00    -0.477 OA 
BRANCH  20  22
HETATM   22  C   UNL     1     -11.173  10.150  69.940  1.00  0.00    -0.343 A  
HETATM   23  C   UNL     1     -12.482  10.603  70.240  1.00  0.00    -0.381 A  
HETATM   24  C   UNL     1     -13.109  10.299  71.441  1.00  0.00    -0.512 A  
HETATM   25  C   UNL     1     -12.442   9.518  72.372  1.00  0.00    -0.196 A  
HETATM   26  C   UNL     1     -11.154   9.048  72.096  1.00  0.00    -0.271 A  
HETATM   27  C   UNL     1     -10.482   9.350  70.890  1.00  0.00    -0.310 A  
BRANCH  27  28
HETATM   28  N   UNL     1      -9.149   8.920  70.720  1.00  0.00    -0.193 NA 
HETATM   29  H   UNL     1      -8.506   9.682  70.504  1.00  0.00     0.000 HD 
BRANCH  28  30
HETATM   30  C   UNL     1      -8.510   7.647  70.785  1.00  0.00    -0.125 A  
HETATM   31  C   UNL     1      -8.270   6.935  69.585  1.00  0.00    -0.131 A  
HETATM   32  C   UNL     1      -8.351   7.562  68.331  1.00  0.00    -0.125 A  
HETATM   33  C   UNL     1      -8.250   6.832  67.153  1.00  0.00    -0.121 A  
HETATM   34  C   UNL     1      -8.095   5.448  67.198  1.00  0.00    -0.101 A  
HETATM   35  C   UNL     1      -7.889   4.839  68.453  1.00  0.00    -0.081 A  
HETATM   36  C   UNL     1      -8.201   4.653  65.916  1.00  0.00    -0.111 C  
HETATM   37  C   UNL     1      -7.929   5.564  69.646  1.00  0.00    -0.093 A  
HETATM   38  F   UNL     1      -8.469   5.436  64.829  1.00  0.00    -0.130 F  
HETATM   39  F   UNL     1      -7.071   3.965  65.603  1.00  0.00    -0.057 F  
HETATM   40  F   UNL     1      -9.209   3.737  65.954  1.00  0.00    -0.130 F  
HETATM   41  N   UNL     1      -7.685   4.958  70.818  1.00  0.00    -0.069 NA 
HETATM   42  C   UNL     1      -7.779   5.698  71.952  1.00  0.00    -0.105 A  
HETATM   43  C   UNL     1      -8.205   7.023  71.988  1.00  0.00    -0.101 A  
ENDBRANCH  28  30
ENDBRANCH  27  28
ENDBRANCH  20  22
ENDBRANCH  19  20
ENDBRANCH  18  19
ENDBRANCH  17  18
ENDBRANCH  14  17
ENDBRANCH   7  11
TORSDOF 8
ENDMDL
MODEL      151
REMARK 921   NORMALIZED FREE ENERGY PREDICTED BY IDOCK:   -5.32 KCAL/MOL
REMARK 922        TOTAL FREE ENERGY PREDICTED BY IDOCK:  -11.21 KCAL/MOL
REMARK 923 INTER-LIGAND FREE ENERGY PREDICTED BY IDOCK:   -9.44 KCAL/MOL
REMARK 924 INTRA-LIGAND FREE ENERGY PREDICTED BY IDOCK:   -1.77 KCAL/MOL
REMARK 927      BINDING AFFINITY PREDICTED BY RF-SCORE:    0.00 PKD
ROOT
HETATM    1  F   UNL     1     -11.388  19.478  66.741  1.00  0.00    -0.439 F  
HETATM    2  C   UNL     1     -10.177  19.612  67.351  1.00  0.00    -0.434 C  
HETATM    3  C   UNL     1      -9.512  18.301  67.689  1.00  0.00    -0.275 A  
HETATM    4  F   UNL     1      -9.423  20.385  66.520  1.00  0.00    -0.454 F  
HETATM    5  F   UNL     1     -10.403  20.373  68.459  1.00  0.00    -0.519 F  
HETATM    6  C   UNL     1     -10.126  17.067  67.393  1.00  0.00    -0.291 A  
HETATM    7  C   UNL     1      -9.550  15.859  67.805  1.00  0.00    -0.218 A  
HETATM    8  C   UNL     1      -8.278  18.316  68.357  1.00  0.00    -0.326 A  
HETATM    9  C   UNL     1      -8.304  15.918  68.454  1.00  0.00    -0.174 A  
HETATM   10  C   UNL     1      -7.669  17.126  68.729  1.00  0.00    -0.259 A  
ENDROOT
BRANCH   7  11
HETATM   11  N   UNL     1     -10.153  14.606  67.659  1.00  0.00    -0.227 NA 
HETATM   12  C   UNL     1     -11.865  12.862  68.067  1.00  0.00    -0.343 C  
HETATM   13  C   UNL     1     -11.209  14.171  68.595  1.00  0.00    -0.266 C  
HETATM   14  N   UNL     1     -10.926  11.739  67.792  1.00  0.00    -0.212 NA 
HETATM   15  C   UNL     1      -9.167  13.543  67.355  1.00  0.00    -0.223 C  
HETATM   16  C   UNL     1      -9.893  12.270  66.859  1.00  0.00    -0.209 C  
BRANCH  14  17
HETATM   17  C   UNL     1     -10.288  11.196  69.014  1.00  0.00    -0.194 C  
BRANCH  17  18
HETATM   18  C   UNL     1     -10.983   9.964  69.639  1.00  0.00    -0.252 C  
BRANCH  18  19
HETATM   19  O   UNL     1     -10.638   9.794  71.047  1.00  0.00    -0.314 OA 
BRANCH  19  20
HETATM   20  C   UNL     1      -9.572   8.974  71.229  1.00  0.00    -0.291 C  
HETATM   21  O   UNL     1      -8.415   9.392  71.308  1.00  0.00    -0.302 OA 
BRANCH  20  22
HETATM   22  C   UNL     1      -9.866   7.507  71.372  1.00  0.00    -0.191 A  
HETATM   23  C   UNL     1     -10.758   7.239  72.440  1.00  0.00    -0.283 A  
HETATM   24  C   UNL     1     -11.147   5.947  72.769  1.00  0.00    -0.321 A  
HETATM   25  C   UNL     1     -10.661   4.886  72.021  1.00  0.00    -0.210 A  
HETATM   26  C   UNL     1      -9.789   5.124  70.953  1.00  0.00    -0.266 A  
HETATM   27  C   UNL     1      -9.362   6.424  70.602  1.00  0.00    -0.162 A  
BRANCH  27  28
HETATM   28  N   UNL     1      -8.410   6.580  69.572  1.00  0.00    -0.129 NA 
HETATM   29  H   UNL     1      -7.487   6.223  69.822  1.00  0.00     0.000 HD 
BRANCH  28  30
HETATM   30  C   UNL     1      -8.463   7.129  68.258  1.00  0.00    -0.124 A  
HETATM   31  C   UNL     1      -8.856   6.300  67.180  1.00  0.00    -0.109 A  
HETATM   32  C   UNL     1      -9.487   5.065  67.397  1.00  0.00    -0.151 A  
HETATM   33  C   UNL     1      -9.748   4.194  66.346  1.00  0.00    -0.223 A  
HETATM   34  C   UNL     1      -9.354   4.524  65.050  1.00  0.00    -0.157 A  
HETATM   35  C   UNL     1      -8.836   5.814  64.817  1.00  0.00     0.107 A  
HETATM   36  C   UNL     1      -9.453   3.479  63.962  1.00  0.00    -0.138 C  
HETATM   37  C   UNL     1      -8.620   6.727  65.852  1.00  0.00    -0.147 A  
HETATM   38  F   UNL     1      -9.920   2.280  64.422  1.00  0.00    -0.139 F  
HETATM   39  F   UNL     1     -10.280   3.827  62.941  1.00  0.00    -0.142 F  
HETATM   40  F   UNL     1      -8.245   3.199  63.398  1.00  0.00    -0.080 F  
HETATM   41  N   UNL     1      -8.165   7.961  65.587  1.00  0.00    -0.130 NA 
HETATM   42  C   UNL     1      -7.932   8.794  66.633  1.00  0.00    -0.100 A  
HETATM   43  C   UNL     1      -8.042   8.421  67.970  1.00  0.00    -0.123 A  
ENDBRANCH  28  30
ENDBRANCH  27  28
ENDBRANCH  20  22
ENDBRANCH  19  20
ENDBRANCH  18  19
ENDBRANCH  17  18
ENDBRANCH  14  17
ENDBRANCH   7  11
TORSDOF 8
ENDMDL
MODEL      152
REMARK 921   NORMALIZED FREE ENERGY PREDICTED BY IDOCK:   -5.28 KCAL/MOL
REMARK 922        TOTAL FREE ENERGY PREDICTED BY IDOCK:  -11.16 KCAL/MOL
REMARK 923 INTER-LIGAND FREE ENERGY PREDICTED BY IDOCK:   -9.01 KCAL/MOL
REMARK 924 INTRA-LIGAND FREE ENERGY PREDICTED BY IDOCK:   -2.15 KCAL/MOL
REMARK 927      BINDING AFFINITY PREDICTED BY RF-SCORE:    0.00 PKD
ROOT
HETATM    1  F   UNL     1     -12.602  15.733  71.799  1.00  0.00    -0.391 F  
HETATM    2  C   UNL     1     -13.057  14.548  72.294  1.00  0.00    -0.374 C  
HETATM    3  C   UNL     1     -12.686  13.350  71.456  1.00  0.00    -0.386 A  
HETATM    4  F   UNL     1     -12.580  14.467  73.568  1.00  0.00    -0.529 F  
HETATM    5  F   UNL     1     -14.407  14.692  72.414  1.00  0.00    -0.509 F  
HETATM    6  C   UNL     1     -11.941  13.486  70.267  1.00  0.00    -0.386 A  
HETATM    7  C   UNL     1     -11.692  12.382  69.443  1.00  0.00    -0.322 A  
HETATM    8  C   UNL     1     -13.136  12.080  71.848  1.00  0.00    -0.475 A  
HETATM    9  C   UNL     1     -12.144  11.125  69.881  1.00  0.00    -0.418 A  
HETATM   10  C   UNL     1     -12.856  10.967  71.067  1.00  0.00    -0.472 A  
ENDROOT
BRANCH   7  11
HETATM   11  N   UNL     1     -11.070  12.454  68.193  1.00  0.00    -0.231 NA 
HETATM   12  C   UNL     1     -10.784  11.962  65.781  1.00  0.00    -0.284 C  
HETATM   13  C   UNL     1     -11.441  11.511  67.118  1.00  0.00    -0.237 C  
HETATM   14  N   UNL     1      -9.305  12.142  65.821  1.00  0.00    -0.148 NA 
HETATM   15  C   UNL     1      -9.608  12.666  68.306  1.00  0.00    -0.208 C  
HETATM   16  C   UNL     1      -9.025  13.088  66.937  1.00  0.00    -0.209 C  
BRANCH  14  17
HETATM   17  C   UNL     1      -8.566  10.874  66.022  1.00  0.00    -0.177 C  
BRANCH  17  18
HETATM   18  C   UNL     1      -7.085  11.023  66.440  1.00  0.00    -0.120 C  
BRANCH  18  19
HETATM   19  O   UNL     1      -6.189  10.274  65.566  1.00  0.00    -0.095 OA 
BRANCH  19  20
HETATM   20  C   UNL     1      -5.759   9.115  66.126  1.00  0.00    -0.053 C  
HETATM   21  O   UNL     1      -5.265   9.063  67.254  1.00  0.00    -0.036 OA 
BRANCH  20  22
HETATM   22  C   UNL     1      -5.948   7.863  65.316  1.00  0.00    -0.038 A  
HETATM   23  C   UNL     1      -5.421   7.986  64.007  1.00  0.00    -0.045 A  
HETATM   24  C   UNL     1      -5.509   6.956  63.078  1.00  0.00    -0.032 A  
HETATM   25  C   UNL     1      -6.117   5.766  63.447  1.00  0.00    -0.024 A  
HETATM   26  C   UNL     1      -6.634   5.615  64.738  1.00  0.00    -0.042 A  
HETATM   27  C   UNL     1      -6.574   6.647  65.700  1.00  0.00    -0.050 A  
BRANCH  27  28
HETATM   28  N   UNL     1      -7.199   6.456  66.951  1.00  0.00    -0.073 NA 
HETATM   29  H   UNL     1      -6.549   6.169  67.685  1.00  0.00     0.000 HD 
BRANCH  28  30
HETATM   30  C   UNL     1      -8.543   6.578  67.409  1.00  0.00    -0.118 A  
HETATM   31  C   UNL     1      -8.782   6.893  68.768  1.00  0.00    -0.129 A  
HETATM   32  C   UNL     1      -7.762   7.390  69.596  1.00  0.00    -0.107 A  
HETATM   33  C   UNL     1      -7.964   7.569  70.959  1.00  0.00    -0.095 A  
HETATM   34  C   UNL     1      -9.184   7.224  71.538  1.00  0.00    -0.150 A  
HETATM   35  C   UNL     1     -10.243   6.845  70.687  1.00  0.00    -0.212 A  
HETATM   36  C   UNL     1      -9.312   7.224  73.044  1.00  0.00    -0.162 C  
HETATM   37  C   UNL     1     -10.078   6.715  69.306  1.00  0.00    -0.169 A  
HETATM   38  F   UNL     1      -8.146   7.560  73.673  1.00  0.00    -0.126 F  
HETATM   39  F   UNL     1     -10.245   8.093  73.515  1.00  0.00    -0.342 F  
HETATM   40  F   UNL     1      -9.644   5.999  73.538  1.00  0.00    -0.138 F  
HETATM   41  N   UNL     1     -11.120   6.394  68.524  1.00  0.00    -0.322 NA 
HETATM   42  C   UNL     1     -10.896   6.239  67.194  1.00  0.00    -0.381 A  
HETATM   43  C   UNL     1      -9.637   6.296  66.601  1.00  0.00    -0.190 A  
ENDBRANCH  28  30
ENDBRANCH  27  28
ENDBRANCH  20  22
ENDBRANCH  19  20
ENDBRANCH  18  19
ENDBRANCH  17  18
ENDBRANCH  14  17
ENDBRANCH   7  11
TORSDOF 8
ENDMDL
MODEL      153
REMARK 921   NORMALIZED FREE ENERGY PREDICTED BY IDOCK:   -5.25 KCAL/MOL
REMARK 922        TOTAL FREE ENERGY PREDICTED BY IDOCK:  -11.11 KCAL/MOL
REMARK 923 INTER-LIGAND FREE ENERGY PREDICTED BY IDOCK:   -9.41 KCAL/MOL
REMARK 924 INTRA-LIGAND FREE ENERGY PREDICTED BY IDOCK:   -1.70 KCAL/MOL
REMARK 927      BINDING AFFINITY PREDICTED BY RF-SCORE:    0.00 PKD
ROOT
HETATM    1  F   UNL     1     -11.234   5.842  72.534  1.00  0.00    -0.269 F  
HETATM    2  C   UNL     1     -10.257   5.110  73.138  1.00  0.00    -0.183 C  
HETATM    3  C   UNL     1      -9.096   4.772  72.235  1.00  0.00    -0.144 A  
HETATM    4  F   UNL     1      -9.879   5.822  74.236  1.00  0.00    -0.149 F  
HETATM    5  F   UNL     1     -10.875   3.993  73.617  1.00  0.00    -0.225 F  
HETATM    6  C   UNL     1      -9.066   5.189  70.888  1.00  0.00    -0.175 A  
HETATM    7  C   UNL     1      -8.037   4.783  70.032  1.00  0.00    -0.069 A  
HETATM    8  C   UNL     1      -8.049   3.985  72.738  1.00  0.00    -0.091 A  
HETATM    9  C   UNL     1      -6.998   4.011  70.580  1.00  0.00    -0.034 A  
HETATM   10  C   UNL     1      -6.996   3.614  71.914  1.00  0.00    -0.030 A  
ENDROOT
BRANCH   7  11
HETATM   11  N   UNL     1      -7.999   5.050  68.660  1.00  0.00    -0.085 NA 
HETATM   12  C   UNL     1      -6.928   5.350  66.446  1.00  0.00    -0.064 C  
HETATM   13  C   UNL     1      -6.715   5.329  67.987  1.00  0.00    -0.055 C  
HETATM   14  N   UNL     1      -7.979   6.285  65.956  1.00  0.00    -0.109 NA 
HETATM   15  C   UNL     1      -9.090   5.958  68.236  1.00  0.00    -0.118 C  
HETATM   16  C   UNL     1      -9.226   5.944  66.695  1.00  0.00    -0.140 C  
BRANCH  14  17
HETATM   17  C   UNL     1      -7.634   7.712  66.157  1.00  0.00    -0.088 C  
BRANCH  17  18
HETATM   18  C   UNL     1      -8.485   8.725  65.356  1.00  0.00    -0.170 C  
BRANCH  18  19
HETATM   19  O   UNL     1      -9.622   9.217  66.127  1.00  0.00    -0.217 OA 
BRANCH  19  20
HETATM   20  C   UNL     1      -9.260  10.116  67.077  1.00  0.00    -0.146 C  
HETATM   21  O   UNL     1      -8.378  10.958  66.896  1.00  0.00    -0.126 OA 
BRANCH  20  22
HETATM   22  C   UNL     1     -10.019  10.072  68.373  1.00  0.00    -0.178 A  
HETATM   23  C   UNL     1      -9.446   9.166  69.300  1.00  0.00    -0.158 A  
HETATM   24  C   UNL     1     -10.000   8.947  70.554  1.00  0.00    -0.243 A  
HETATM   25  C   UNL     1     -11.141   9.646  70.919  1.00  0.00    -0.422 A  
HETATM   26  C   UNL     1     -11.719  10.556  70.027  1.00  0.00    -0.394 A  
HETATM   27  C   UNL     1     -11.189  10.790  68.739  1.00  0.00    -0.272 A  
BRANCH  27  28
HETATM   28  N   UNL     1     -11.878  11.652  67.860  1.00  0.00    -0.596 NA 
HETATM   29  H   UNL     1     -12.876  11.717  68.062  1.00  0.00     0.000 HD 
BRANCH  28  30
HETATM   30  C   UNL     1     -11.477  12.452  66.749  1.00  0.00    -0.362 A  
HETATM   31  C   UNL     1     -11.014  13.769  66.981  1.00  0.00    -0.297 A  
HETATM   32  C   UNL     1     -10.643  14.201  68.265  1.00  0.00    -0.254 A  
HETATM   33  C   UNL     1     -10.320  15.530  68.513  1.00  0.00    -0.225 A  
HETATM   34  C   UNL     1     -10.389  16.470  67.487  1.00  0.00    -0.294 A  
HETATM   35  C   UNL     1     -10.638  16.012  66.176  1.00  0.00    -0.302 A  
HETATM   36  C   UNL     1     -10.242  17.937  67.821  1.00  0.00    -0.368 C  
HETATM   37  C   UNL     1     -10.908  14.670  65.897  1.00  0.00    -0.312 A  
HETATM   38  F   UNL     1     -10.073  18.160  69.158  1.00  0.00    -0.363 F  
HETATM   39  F   UNL     1      -9.183  18.535  67.213  1.00  0.00    -0.267 F  
HETATM   40  F   UNL     1     -11.342  18.662  67.474  1.00  0.00    -0.332 F  
HETATM   41  N   UNL     1     -11.098  14.265  64.632  1.00  0.00    -0.379 NA 
HETATM   42  C   UNL     1     -11.400  12.959  64.419  1.00  0.00    -0.358 A  
HETATM   43  C   UNL     1     -11.621  12.031  65.434  1.00  0.00    -0.343 A  
ENDBRANCH  28  30
ENDBRANCH  27  28
ENDBRANCH  20  22
ENDBRANCH  19  20
ENDBRANCH  18  19
ENDBRANCH  17  18
ENDBRANCH  14  17
ENDBRANCH   7  11
TORSDOF 8
ENDMDL
MODEL      154
REMARK 921   NORMALIZED FREE ENERGY PREDICTED BY IDOCK:   -5.25 KCAL/MOL
REMARK 922        TOTAL FREE ENERGY PREDICTED BY IDOCK:  -11.10 KCAL/MOL
REMARK 923 INTER-LIGAND FREE ENERGY PREDICTED BY IDOCK:   -8.40 KCAL/MOL
REMARK 924 INTRA-LIGAND FREE ENERGY PREDICTED BY IDOCK:   -2.70 KCAL/MOL
REMARK 927      BINDING AFFINITY PREDICTED BY RF-SCORE:    0.00 PKD
ROOT
HETATM    1  F   UNL     1     -13.812  13.593  72.453  1.00  0.00    -0.519 F  
HETATM    2  C   UNL     1     -13.272  14.150  71.333  1.00  0.00    -0.347 C  
HETATM    3  C   UNL     1     -12.419  13.203  70.527  1.00  0.00    -0.322 A  
HETATM    4  F   UNL     1     -14.320  14.650  70.621  1.00  0.00    -0.110 F  
HETATM    5  F   UNL     1     -12.567  15.235  71.764  1.00  0.00    -0.322 F  
HETATM    6  C   UNL     1     -12.215  11.868  70.935  1.00  0.00    -0.351 A  
HETATM    7  C   UNL     1     -11.339  11.029  70.237  1.00  0.00    -0.203 A  
HETATM    8  C   UNL     1     -11.777  13.679  69.374  1.00  0.00    -0.379 A  
HETATM    9  C   UNL     1     -10.731  11.538  69.076  1.00  0.00    -0.233 A  
HETATM   10  C   UNL     1     -10.943  12.844  68.643  1.00  0.00    -0.295 A  
ENDROOT
BRANCH   7  11
HETATM   11  N   UNL     1     -10.989   9.738  70.645  1.00  0.00    -0.307 NA 
HETATM   12  C   UNL     1      -9.594   7.691  70.715  1.00  0.00    -0.166 C  
HETATM   13  C   UNL     1      -9.953   8.978  69.917  1.00  0.00    -0.191 C  
HETATM   14  N   UNL     1     -10.742   6.803  71.052  1.00  0.00    -0.226 NA 
HETATM   15  C   UNL     1     -12.175   8.921  70.996  1.00  0.00    -0.203 C  
HETATM   16  C   UNL     1     -11.738   7.652  71.765  1.00  0.00    -0.283 C  
BRANCH  14  17
HETATM   17  C   UNL     1     -11.361   6.169  69.864  1.00  0.00    -0.384 C  
BRANCH  17  18
HETATM   18  C   UNL     1     -10.525   5.056  69.190  1.00  0.00    -0.016 C  
BRANCH  18  19
HETATM   19  O   UNL     1     -10.207   5.373  67.802  1.00  0.00    -0.177 OA 
BRANCH  19  20
HETATM   20  C   UNL     1      -8.892   5.205  67.515  1.00  0.00    -0.105 C  
HETATM   21  O   UNL     1      -8.098   4.688  68.304  1.00  0.00    -0.084 OA 
BRANCH  20  22
HETATM   22  C   UNL     1      -8.435   5.649  66.154  1.00  0.00    -0.128 A  
HETATM   23  C   UNL     1      -8.963   4.838  65.119  1.00  0.00    -0.152 A  
HETATM   24  C   UNL     1      -8.651   5.052  63.783  1.00  0.00    -0.110 A  
HETATM   25  C   UNL     1      -7.809   6.102  63.448  1.00  0.00    -0.107 A  
HETATM   26  C   UNL     1      -7.285   6.926  64.449  1.00  0.00    -0.067 A  
HETATM   27  C   UNL     1      -7.570   6.725  65.818  1.00  0.00    -0.088 A  
BRANCH  27  28
HETATM   28  N   UNL     1      -6.932   7.538  66.779  1.00  0.00    -0.076 NA 
HETATM   29  H   UNL     1      -6.428   7.003  67.487  1.00  0.00     0.000 HD 
BRANCH  28  30
HETATM   30  C   UNL     1      -6.840   8.948  66.971  1.00  0.00    -0.073 A  
HETATM   31  C   UNL     1      -7.912   9.771  66.549  1.00  0.00    -0.112 A  
HETATM   32  C   UNL     1      -9.172   9.234  66.242  1.00  0.00    -0.236 A  
HETATM   33  C   UNL     1     -10.179  10.024  65.699  1.00  0.00    -0.258 A  
HETATM   34  C   UNL     1      -9.940  11.369  65.421  1.00  0.00    -0.289 A  
HETATM   35  C   UNL     1      -8.719  11.932  65.846  1.00  0.00     0.131 A  
HETATM   36  C   UNL     1     -10.970  12.153  64.639  1.00  0.00    -0.312 C  
HETATM   37  C   UNL     1      -7.716  11.168  66.446  1.00  0.00    -0.124 A  
HETATM   38  F   UNL     1     -12.045  11.394  64.272  1.00  0.00    -0.234 F  
HETATM   39  F   UNL     1     -11.484  13.212  65.318  1.00  0.00    -0.307 F  
HETATM   40  F   UNL     1     -10.469  12.651  63.474  1.00  0.00    -0.408 F  
HETATM   41  N   UNL     1      -6.585  11.748  66.876  1.00  0.00    -0.139 NA 
HETATM   42  C   UNL     1      -5.625  10.953  67.413  1.00  0.00    -0.045 A  
HETATM   43  C   UNL     1      -5.695   9.563  67.460  1.00  0.00    -0.041 A  
ENDBRANCH  28  30
ENDBRANCH  27  28
ENDBRANCH  20  22
ENDBRANCH  19  20
ENDBRANCH  18  19
ENDBRANCH  17  18
ENDBRANCH  14  17
ENDBRANCH   7  11
TORSDOF 8
ENDMDL
MODEL      155
REMARK 921   NORMALIZED FREE ENERGY PREDICTED BY IDOCK:   -5.23 KCAL/MOL
REMARK 922        TOTAL FREE ENERGY PREDICTED BY IDOCK:  -11.08 KCAL/MOL
REMARK 923 INTER-LIGAND FREE ENERGY PREDICTED BY IDOCK:   -8.99 KCAL/MOL
REMARK 924 INTRA-LIGAND FREE ENERGY PREDICTED BY IDOCK:   -2.10 KCAL/MOL
REMARK 927      BINDING AFFINITY PREDICTED BY RF-SCORE:    0.00 PKD
ROOT
HETATM    1  F   UNL     1      -6.288  16.728  68.467  1.00  0.00    -0.135 F  
HETATM    2  C   UNL     1      -6.848  17.947  68.701  1.00  0.00    -0.248 C  
HETATM    3  C   UNL     1      -8.303  18.038  68.314  1.00  0.00    -0.295 A  
HETATM    4  F   UNL     1      -6.639  18.209  70.021  1.00  0.00    -0.147 F  
HETATM    5  F   UNL     1      -6.080  18.844  68.020  1.00  0.00    -0.199 F  
HETATM    6  C   UNL     1      -8.985  16.938  67.753  1.00  0.00    -0.225 A  
HETATM    7  C   UNL     1     -10.304  17.063  67.301  1.00  0.00    -0.311 A  
HETATM    8  C   UNL     1      -8.975  19.259  68.471  1.00  0.00    -0.414 A  
HETATM    9  C   UNL     1     -10.947  18.298  67.495  1.00  0.00    -0.140 A  
HETATM   10  C   UNL     1     -10.299  19.387  68.073  1.00  0.00    -0.536 A  
ENDROOT
BRANCH   7  11
HETATM   11  N   UNL     1     -11.006  16.060  66.625  1.00  0.00    -0.171 NA 
HETATM   12  C   UNL     1     -12.078  13.843  66.355  1.00  0.00    -0.455 C  
HETATM   13  C   UNL     1     -11.045  14.684  67.159  1.00  0.00    -0.326 C  
HETATM   14  N   UNL     1     -11.875  13.817  64.879  1.00  0.00    -0.358 NA 
HETATM   15  C   UNL     1     -10.785  16.113  65.161  1.00  0.00    -0.371 C  
HETATM   16  C   UNL     1     -11.833  15.237  64.433  1.00  0.00    -0.281 C  
BRANCH  14  17
HETATM   17  C   UNL     1     -10.639  13.109  64.470  1.00  0.00    -0.406 C  
BRANCH  17  18
HETATM   18  C   UNL     1     -10.500  11.657  64.983  1.00  0.00    -0.285 C  
BRANCH  18  19
HETATM   19  O   UNL     1      -9.139  11.356  65.417  1.00  0.00    -0.190 OA 
BRANCH  19  20
HETATM   20  C   UNL     1      -9.089  10.885  66.688  1.00  0.00    -0.162 C  
HETATM   21  O   UNL     1      -9.785   9.946  67.080  1.00  0.00    -0.168 OA 
BRANCH  20  22
HETATM   22  C   UNL     1      -8.102  11.541  67.612  1.00  0.00    -0.130 A  
HETATM   23  C   UNL     1      -7.940  12.921  67.334  1.00  0.00    -0.178 A  
HETATM   24  C   UNL     1      -7.057  13.718  68.050  1.00  0.00    -0.133 A  
HETATM   25  C   UNL     1      -6.320  13.152  69.080  1.00  0.00    -0.099 A  
HETATM   26  C   UNL     1      -6.470  11.795  69.383  1.00  0.00    -0.120 A  
HETATM   27  C   UNL     1      -7.349  10.953  68.665  1.00  0.00    -0.101 A  
BRANCH  27  28
HETATM   28  N   UNL     1      -7.379   9.575  68.966  1.00  0.00    -0.071 NA 
HETATM   29  H   UNL     1      -6.508   9.095  68.739  1.00  0.00     0.000 HD 
BRANCH  28  30
HETATM   30  C   UNL     1      -8.368   8.711  69.520  1.00  0.00    -0.117 A  
HETATM   31  C   UNL     1      -8.596   7.450  68.919  1.00  0.00    -0.129 A  
HETATM   32  C   UNL     1      -7.683   6.898  68.005  1.00  0.00    -0.113 A  
HETATM   33  C   UNL     1      -7.974   5.727  67.314  1.00  0.00    -0.102 A  
HETATM   34  C   UNL     1      -9.202   5.093  67.497  1.00  0.00    -0.124 A  
HETATM   35  C   UNL     1     -10.060   5.578  68.505  1.00  0.00    -0.240 A  
HETATM   36  C   UNL     1      -9.583   3.949  66.586  1.00  0.00    -0.193 C  
HETATM   37  C   UNL     1      -9.761   6.720  69.251  1.00  0.00    -0.151 A  
HETATM   38  F   UNL     1      -8.632   3.688  65.640  1.00  0.00    -0.106 F  
HETATM   39  F   UNL     1      -9.784   2.773  67.237  1.00  0.00    -0.184 F  
HETATM   40  F   UNL     1     -10.724   4.199  65.886  1.00  0.00    -0.175 F  
HETATM   41  N   UNL     1     -10.582   7.127  70.231  1.00  0.00    -0.221 NA 
HETATM   42  C   UNL     1     -10.266   8.267  70.897  1.00  0.00    -0.191 A  
HETATM   43  C   UNL     1      -9.196   9.095  70.567  1.00  0.00    -0.286 A  
ENDBRANCH  28  30
ENDBRANCH  27  28
ENDBRANCH  20  22
ENDBRANCH  19  20
ENDBRANCH  18  19
ENDBRANCH  17  18
ENDBRANCH  14  17
ENDBRANCH   7  11
TORSDOF 8
ENDMDL
MODEL      156
REMARK 921   NORMALIZED FREE ENERGY PREDICTED BY IDOCK:   -5.17 KCAL/MOL
REMARK 922        TOTAL FREE ENERGY PREDICTED BY IDOCK:  -10.99 KCAL/MOL
REMARK 923 INTER-LIGAND FREE ENERGY PREDICTED BY IDOCK:   -8.62 KCAL/MOL
REMARK 924 INTRA-LIGAND FREE ENERGY PREDICTED BY IDOCK:   -2.37 KCAL/MOL
REMARK 927      BINDING AFFINITY PREDICTED BY RF-SCORE:    0.00 PKD
ROOT
HETATM    1  F   UNL     1      -8.345   8.290  73.303  1.00  0.00    -0.216 F  
HETATM    2  C   UNL     1      -9.352   7.373  73.298  1.00  0.00    -0.200 C  
HETATM    3  C   UNL     1      -9.338   6.453  72.103  1.00  0.00    -0.149 A  
HETATM    4  F   UNL     1      -9.252   6.701  74.479  1.00  0.00    -0.167 F  
HETATM    5  F   UNL     1     -10.507   8.091  73.379  1.00  0.00    -0.390 F  
HETATM    6  C   UNL     1      -8.358   6.570  71.095  1.00  0.00    -0.122 A  
HETATM    7  C   UNL     1      -8.416   5.783  69.940  1.00  0.00    -0.123 A  
HETATM    8  C   UNL     1     -10.353   5.493  71.970  1.00  0.00    -0.265 A  
HETATM    9  C   UNL     1      -9.437   4.820  69.856  1.00  0.00    -0.231 A  
HETATM   10  C   UNL     1     -10.396   4.670  70.853  1.00  0.00    -0.137 A  
ENDROOT
BRANCH   7  11
HETATM   11  N   UNL     1      -7.558   5.923  68.844  1.00  0.00    -0.089 NA 
HETATM   12  C   UNL     1      -6.322   7.156  67.087  1.00  0.00    -0.053 C  
HETATM   13  C   UNL     1      -7.517   7.188  68.084  1.00  0.00    -0.099 C  
HETATM   14  N   UNL     1      -6.295   5.994  66.155  1.00  0.00    -0.040 NA 
HETATM   15  C   UNL     1      -7.554   4.720  67.979  1.00  0.00    -0.082 C  
HETATM   16  C   UNL     1      -6.356   4.771  67.002  1.00  0.00    -0.037 C  
BRANCH  14  17
HETATM   17  C   UNL     1      -7.408   6.001  65.176  1.00  0.00    -0.073 C  
BRANCH  17  18
HETATM   18  C   UNL     1      -8.354   7.223  65.249  1.00  0.00    -0.104 C  
BRANCH  18  19
HETATM   19  O   UNL     1      -8.023   8.233  64.249  1.00  0.00    -0.137 OA 
BRANCH  19  20
HETATM   20  C   UNL     1      -8.577   9.440  64.523  1.00  0.00    -0.198 C  
HETATM   21  O   UNL     1      -9.511   9.909  63.869  1.00  0.00    -0.273 OA 
BRANCH  20  22
HETATM   22  C   UNL     1      -8.023  10.186  65.704  1.00  0.00    -0.147 A  
HETATM   23  C   UNL     1      -6.660  10.532  65.529  1.00  0.00    -0.097 A  
HETATM   24  C   UNL     1      -5.939  11.203  66.508  1.00  0.00    -0.143 A  
HETATM   25  C   UNL     1      -6.573  11.559  67.688  1.00  0.00    -0.078 A  
HETATM   26  C   UNL     1      -7.922  11.241  67.881  1.00  0.00    -0.118 A  
HETATM   27  C   UNL     1      -8.679  10.546  66.912  1.00  0.00    -0.127 A  
BRANCH  27  28
HETATM   28  N   UNL     1     -10.008  10.177  67.213  1.00  0.00    -0.186 NA 
HETATM   29  H   UNL     1     -10.541   9.891  66.392  1.00  0.00     0.000 HD 
BRANCH  28  30
HETATM   30  C   UNL     1     -10.763  10.120  68.421  1.00  0.00    -0.230 A  
HETATM   31  C   UNL     1     -11.385  11.297  68.901  1.00  0.00    -0.340 A  
HETATM   32  C   UNL     1     -11.544  12.428  68.083  1.00  0.00    -0.395 A  
HETATM   33  C   UNL     1     -12.029  13.625  68.596  1.00  0.00    -0.395 A  
HETATM   34  C   UNL     1     -12.339  13.732  69.951  1.00  0.00    -0.334 A  
HETATM   35  C   UNL     1     -12.297  12.564  70.740  1.00  0.00    -0.376 A  
HETATM   36  C   UNL     1     -12.660  15.092  70.528  1.00  0.00    -0.369 C  
HETATM   37  C   UNL     1     -11.867  11.337  70.230  1.00  0.00    -0.357 A  
HETATM   38  F   UNL     1     -12.579  16.092  69.600  1.00  0.00    -0.274 F  
HETATM   39  F   UNL     1     -13.909  15.183  71.057  1.00  0.00    -0.458 F  
HETATM   40  F   UNL     1     -11.797  15.453  71.519  1.00  0.00    -0.300 F  
HETATM   41  N   UNL     1     -11.882  10.238  70.999  1.00  0.00    -0.363 NA 
HETATM   42  C   UNL     1     -11.414   9.080  70.468  1.00  0.00    -0.212 A  
HETATM   43  C   UNL     1     -10.830   8.977  69.208  1.00  0.00    -0.131 A  
ENDBRANCH  28  30
ENDBRANCH  27  28
ENDBRANCH  20  22
ENDBRANCH  19  20
ENDBRANCH  18  19
ENDBRANCH  17  18
ENDBRANCH  14  17
ENDBRANCH   7  11
TORSDOF 8
ENDMDL
MODEL      157
REMARK 921   NORMALIZED FREE ENERGY PREDICTED BY IDOCK:   -5.15 KCAL/MOL
REMARK 922        TOTAL FREE ENERGY PREDICTED BY IDOCK:  -10.96 KCAL/MOL
REMARK 923 INTER-LIGAND FREE ENERGY PREDICTED BY IDOCK:   -9.84 KCAL/MOL
REMARK 924 INTRA-LIGAND FREE ENERGY PREDICTED BY IDOCK:   -1.12 KCAL/MOL
REMARK 927      BINDING AFFINITY PREDICTED BY RF-SCORE:    0.00 PKD
ROOT
HETATM    1  F   UNL     1     -10.454  20.346  67.851  1.00  0.00    -0.482 F  
HETATM    2  C   UNL     1      -9.894  19.485  66.957  1.00  0.00    -0.360 C  
HETATM    3  C   UNL     1     -10.137  18.030  67.271  1.00  0.00    -0.346 A  
HETATM    4  F   UNL     1     -10.376  19.847  65.735  1.00  0.00    -0.519 F  
HETATM    5  F   UNL     1      -8.565  19.790  66.934  1.00  0.00    -0.300 F  
HETATM    6  C   UNL     1     -10.876  17.635  68.405  1.00  0.00    -0.148 A  
HETATM    7  C   UNL     1     -11.007  16.284  68.744  1.00  0.00    -0.343 A  
HETATM    8  C   UNL     1      -9.571  17.050  66.440  1.00  0.00    -0.301 A  
HETATM    9  C   UNL     1     -10.442  15.334  67.875  1.00  0.00    -0.253 A  
HETATM   10  C   UNL     1      -9.733  15.704  66.736  1.00  0.00    -0.255 A  
ENDROOT
BRANCH   7  11
HETATM   11  N   UNL     1     -11.617  15.818  69.913  1.00  0.00    -0.332 NA 
HETATM   12  C   UNL     1     -11.702  14.727  72.136  1.00  0.00    -0.154 C  
HETATM   13  C   UNL     1     -10.902  14.890  70.811  1.00  0.00     0.028 C  
HETATM   14  N   UNL     1     -13.121  14.303  71.981  1.00  0.00    -0.348 NA 
HETATM   15  C   UNL     1     -13.034  15.446  69.695  1.00  0.00     0.376 C  
HETATM   16  C   UNL     1     -13.756  15.280  71.053  1.00  0.00    -0.380 C  
BRANCH  14  17
HETATM   17  C   UNL     1     -13.267  12.924  71.458  1.00  0.00    -0.257 C  
BRANCH  17  18
HETATM   18  C   UNL     1     -11.945  12.192  71.128  1.00  0.00     0.447 C  
BRANCH  18  19
HETATM   19  O   UNL     1     -11.782  11.971  69.695  1.00  0.00    -0.304 OA 
BRANCH  19  20
HETATM   20  C   UNL     1     -10.951  10.935  69.417  1.00  0.00    -0.252 C  
HETATM   21  O   UNL     1     -10.582  10.128  70.273  1.00  0.00    -0.285 OA 
BRANCH  20  22
HETATM   22  C   UNL     1     -10.519  10.781  67.986  1.00  0.00    -0.225 A  
HETATM   23  C   UNL     1     -10.178  12.022  67.392  1.00  0.00    -0.216 A  
HETATM   24  C   UNL     1      -9.775  12.117  66.066  1.00  0.00    -0.258 A  
HETATM   25  C   UNL     1      -9.689  10.963  65.303  1.00  0.00    -0.296 A  
HETATM   26  C   UNL     1     -10.007   9.724  65.869  1.00  0.00    -0.345 A  
HETATM   27  C   UNL     1     -10.435   9.594  67.209  1.00  0.00    -0.258 A  
BRANCH  27  28
HETATM   28  N   UNL     1     -10.828   8.325  67.684  1.00  0.00    -0.506 NA 
HETATM   29  H   UNL     1     -11.802   8.294  67.986  1.00  0.00     0.000 HD 
BRANCH  28  30
HETATM   30  C   UNL     1     -10.154   7.078  67.833  1.00  0.00    -0.169 A  
HETATM   31  C   UNL     1     -10.293   6.360  69.045  1.00  0.00    -0.238 A  
HETATM   32  C   UNL     1     -11.303   6.672  69.970  1.00  0.00    -0.440 A  
HETATM   33  C   UNL     1     -11.352   6.059  71.217  1.00  0.00    -0.296 A  
HETATM   34  C   UNL     1     -10.373   5.137  71.583  1.00  0.00    -0.274 A  
HETATM   35  C   UNL     1      -9.437   4.735  70.608  1.00  0.00    -0.238 A  
HETATM   36  C   UNL     1     -10.322   4.645  73.011  1.00  0.00    -0.181 C  
HETATM   37  C   UNL     1      -9.406   5.297  69.330  1.00  0.00    -0.123 A  
HETATM   38  F   UNL     1     -11.281   5.214  73.800  1.00  0.00    -0.342 F  
HETATM   39  F   UNL     1     -10.495   3.302  73.134  1.00  0.00    -0.193 F  
HETATM   40  F   UNL     1      -9.139   4.936  73.620  1.00  0.00    -0.118 F  
HETATM   41  N   UNL     1      -8.528   4.857  68.415  1.00  0.00    -0.094 NA 
HETATM   42  C   UNL     1      -8.511   5.467  67.202  1.00  0.00    -0.106 A  
HETATM   43  C   UNL     1      -9.278   6.582  66.876  1.00  0.00    -0.153 A  
ENDBRANCH  28  30
ENDBRANCH  27  28
ENDBRANCH  20  22
ENDBRANCH  19  20
ENDBRANCH  18  19
ENDBRANCH  17  18
ENDBRANCH  14  17
ENDBRANCH   7  11
TORSDOF 8
ENDMDL
MODEL      158
REMARK 921   NORMALIZED FREE ENERGY PREDICTED BY IDOCK:   -5.15 KCAL/MOL
REMARK 922        TOTAL FREE ENERGY PREDICTED BY IDOCK:  -10.96 KCAL/MOL
REMARK 923 INTER-LIGAND FREE ENERGY PREDICTED BY IDOCK:   -7.59 KCAL/MOL
REMARK 924 INTRA-LIGAND FREE ENERGY PREDICTED BY IDOCK:   -3.37 KCAL/MOL
REMARK 927      BINDING AFFINITY PREDICTED BY RF-SCORE:    0.00 PKD
ROOT
HETATM    1  F   UNL     1     -11.331  11.780  71.033  1.00  0.00     0.238 F  
HETATM    2  C   UNL     1     -12.436  10.988  71.106  1.00  0.00    -0.397 C  
HETATM    3  C   UNL     1     -12.131   9.527  71.328  1.00  0.00    -0.443 A  
HETATM    4  F   UNL     1     -13.213  11.518  72.092  1.00  0.00    -0.598 F  
HETATM    5  F   UNL     1     -13.119  11.198  69.945  1.00  0.00    -0.107 F  
HETATM    6  C   UNL     1     -10.804   9.061  71.435  1.00  0.00    -0.400 A  
HETATM    7  C   UNL     1     -10.528   7.693  71.536  1.00  0.00    -0.204 A  
HETATM    8  C   UNL     1     -13.191   8.610  71.379  1.00  0.00    -0.269 A  
HETATM    9  C   UNL     1     -11.619   6.810  71.603  1.00  0.00    -0.336 A  
HETATM   10  C   UNL     1     -12.937   7.254  71.527  1.00  0.00    -0.434 A  
ENDROOT
BRANCH   7  11
HETATM   11  N   UNL     1      -9.242   7.144  71.523  1.00  0.00    -0.146 NA 
HETATM   12  C   UNL     1      -6.776   7.171  71.283  1.00  0.00    -0.051 C  
HETATM   13  C   UNL     1      -8.110   7.902  70.954  1.00  0.00    -0.101 C  
HETATM   14  N   UNL     1      -6.705   5.744  70.860  1.00  0.00    -0.051 NA 
HETATM   15  C   UNL     1      -9.248   5.716  71.126  1.00  0.00    -0.149 C  
HETATM   16  C   UNL     1      -7.885   5.065  71.462  1.00  0.00    -0.110 C  
BRANCH  14  17
HETATM   17  C   UNL     1      -6.703   5.569  69.389  1.00  0.00    -0.059 C  
BRANCH  17  18
HETATM   18  C   UNL     1      -6.031   6.705  68.581  1.00  0.00    -0.022 C  
BRANCH  18  19
HETATM   19  O   UNL     1      -6.816   7.085  67.411  1.00  0.00    -0.068 OA 
BRANCH  19  20
HETATM   20  C   UNL     1      -6.953   8.429  67.287  1.00  0.00    -0.075 C  
HETATM   21  O   UNL     1      -6.017   9.168  66.976  1.00  0.00    -0.054 OA 
BRANCH  20  22
HETATM   22  C   UNL     1      -8.328   8.991  67.511  1.00  0.00    -0.116 A  
HETATM   23  C   UNL     1      -9.330   7.990  67.473  1.00  0.00    -0.171 A  
HETATM   24  C   UNL     1     -10.677   8.290  67.630  1.00  0.00    -0.195 A  
HETATM   25  C   UNL     1     -11.054   9.607  67.846  1.00  0.00    -0.102 A  
HETATM   26  C   UNL     1     -10.083  10.613  67.901  1.00  0.00    -0.194 A  
HETATM   27  C   UNL     1      -8.707  10.343  67.730  1.00  0.00    -0.122 A  
BRANCH  27  28
HETATM   28  N   UNL     1      -7.794  11.419  67.705  1.00  0.00    -0.112 NA 
HETATM   29  H   UNL     1      -7.341  11.540  66.799  1.00  0.00     0.000 HD 
BRANCH  28  30
HETATM   30  C   UNL     1      -7.371  12.373  68.676  1.00  0.00    -0.102 A  
HETATM   31  C   UNL     1      -7.942  13.669  68.663  1.00  0.00    -0.083 A  
HETATM   32  C   UNL     1      -9.116  13.945  67.943  1.00  0.00    -0.194 A  
HETATM   33  C   UNL     1      -9.597  15.243  67.820  1.00  0.00    -0.206 A  
HETATM   34  C   UNL     1      -8.898  16.306  68.391  1.00  0.00    -0.202 A  
HETATM   35  C   UNL     1      -7.793  16.011  69.217  1.00  0.00    -0.222 A  
HETATM   36  C   UNL     1      -9.318  17.722  68.069  1.00  0.00    -0.276 C  
HETATM   37  C   UNL     1      -7.328  14.708  69.399  1.00  0.00    -0.135 A  
HETATM   38  F   UNL     1     -10.370  17.775  67.198  1.00  0.00    -0.311 F  
HETATM   39  F   UNL     1      -9.706  18.439  69.156  1.00  0.00    -0.317 F  
HETATM   40  F   UNL     1      -8.324  18.436  67.473  1.00  0.00    -0.243 F  
HETATM   41  N   UNL     1      -6.300  14.462  70.227  1.00  0.00    -0.173 NA 
HETATM   42  C   UNL     1      -5.859  13.183  70.335  1.00  0.00    -0.156 A  
HETATM   43  C   UNL     1      -6.341  12.122  69.573  1.00  0.00    -0.122 A  
ENDBRANCH  28  30
ENDBRANCH  27  28
ENDBRANCH  20  22
ENDBRANCH  19  20
ENDBRANCH  18  19
ENDBRANCH  17  18
ENDBRANCH  14  17
ENDBRANCH   7  11
TORSDOF 8
ENDMDL
MODEL      159
REMARK 921   NORMALIZED FREE ENERGY PREDICTED BY IDOCK:   -5.12 KCAL/MOL
REMARK 922        TOTAL FREE ENERGY PREDICTED BY IDOCK:  -10.92 KCAL/MOL
REMARK 923 INTER-LIGAND FREE ENERGY PREDICTED BY IDOCK:   -8.44 KCAL/MOL
REMARK 924 INTRA-LIGAND FREE ENERGY PREDICTED BY IDOCK:   -2.48 KCAL/MOL
REMARK 927      BINDING AFFINITY PREDICTED BY RF-SCORE:    0.00 PKD
ROOT
HETATM    1  F   UNL     1     -10.504  14.854  70.174  1.00  0.00    -0.223 F  
HETATM    2  C   UNL     1     -11.479  14.957  69.228  1.00  0.00    -0.303 C  
HETATM    3  C   UNL     1     -11.352  13.958  68.104  1.00  0.00    -0.324 A  
HETATM    4  F   UNL     1     -12.662  14.848  69.895  1.00  0.00    -0.325 F  
HETATM    5  F   UNL     1     -11.425  16.243  68.779  1.00  0.00    -0.329 F  
HETATM    6  C   UNL     1     -10.297  13.023  68.068  1.00  0.00    -0.237 A  
HETATM    7  C   UNL     1     -10.128  12.171  66.970  1.00  0.00    -0.204 A  
HETATM    8  C   UNL     1     -12.277  13.997  67.051  1.00  0.00    -0.387 A  
HETATM    9  C   UNL     1     -11.088  12.229  65.945  1.00  0.00    -0.360 A  
HETATM   10  C   UNL     1     -12.152  13.126  65.977  1.00  0.00    -0.495 A  
ENDROOT
BRANCH   7  11
HETATM   11  N   UNL     1      -9.043  11.305  66.802  1.00  0.00    -0.169 NA 
HETATM   12  C   UNL     1      -7.756   9.477  65.733  1.00  0.00    -0.100 C  
HETATM   13  C   UNL     1      -9.160  10.119  65.930  1.00  0.00    -0.156 C  
HETATM   14  N   UNL     1      -7.030   9.125  66.985  1.00  0.00    -0.080 NA 
HETATM   15  C   UNL     1      -8.347  11.025  68.079  1.00  0.00    -0.125 C  
HETATM   16  C   UNL     1      -6.973  10.368  67.804  1.00  0.00    -0.083 C  
BRANCH  14  17
HETATM   17  C   UNL     1      -7.675   8.032  67.749  1.00  0.00    -0.110 C  
BRANCH  17  18
HETATM   18  C   UNL     1      -8.072   6.785  66.925  1.00  0.00    -0.109 C  
BRANCH  18  19
HETATM   19  O   UNL     1      -8.350   5.631  67.774  1.00  0.00    -0.101 OA 
BRANCH  19  20
HETATM   20  C   UNL     1      -7.356   4.708  67.744  1.00  0.00    -0.073 C  
HETATM   21  O   UNL     1      -6.654   4.518  66.749  1.00  0.00    -0.047 OA 
BRANCH  20  22
HETATM   22  C   UNL     1      -7.114   3.935  69.009  1.00  0.00    -0.047 A  
HETATM   23  C   UNL     1      -6.645   2.622  68.755  1.00  0.00    -0.029 A  
HETATM   24  C   UNL     1      -6.380   1.723  69.780  1.00  0.00    -0.025 A  
HETATM   25  C   UNL     1      -6.564   2.126  71.094  1.00  0.00    -0.023 A  
HETATM   26  C   UNL     1      -7.014   3.421  71.373  1.00  0.00    -0.032 A  
HETATM   27  C   UNL     1      -7.307   4.354  70.353  1.00  0.00    -0.049 A  
BRANCH  27  28
HETATM   28  N   UNL     1      -7.845   5.609  70.706  1.00  0.00    -0.092 NA 
HETATM   29  H   UNL     1      -7.510   6.370  70.113  1.00  0.00     0.000 HD 
BRANCH  28  30
HETATM   30  C   UNL     1      -8.756   6.042  71.713  1.00  0.00    -0.138 A  
HETATM   31  C   UNL     1      -9.739   7.007  71.384  1.00  0.00    -0.169 A  
HETATM   32  C   UNL     1     -10.046   7.315  70.049  1.00  0.00    -0.192 A  
HETATM   33  C   UNL     1     -10.910   8.356  69.730  1.00  0.00    -0.184 A  
HETATM   34  C   UNL     1     -11.467   9.138  70.740  1.00  0.00    -0.337 A  
HETATM   35  C   UNL     1     -11.256   8.748  72.079  1.00  0.00    -0.443 A  
HETATM   36  C   UNL     1     -12.229  10.389  70.368  1.00  0.00    -0.303 C  
HETATM   37  C   UNL     1     -10.438   7.669  72.420  1.00  0.00    -0.248 A  
HETATM   38  F   UNL     1     -12.254  10.611  69.020  1.00  0.00    -0.341 F  
HETATM   39  F   UNL     1     -13.529  10.377  70.761  1.00  0.00    -0.418 F  
HETATM   40  F   UNL     1     -11.676  11.513  70.905  1.00  0.00    -0.382 F  
HETATM   41  N   UNL     1     -10.296   7.301  73.703  1.00  0.00    -0.362 NA 
HETATM   42  C   UNL     1      -9.455   6.273  73.983  1.00  0.00    -0.165 A  
HETATM   43  C   UNL     1      -8.656   5.636  73.037  1.00  0.00    -0.121 A  
ENDBRANCH  28  30
ENDBRANCH  27  28
ENDBRANCH  20  22
ENDBRANCH  19  20
ENDBRANCH  18  19
ENDBRANCH  17  18
ENDBRANCH  14  17
ENDBRANCH   7  11
TORSDOF 8
ENDMDL
MODEL      160
REMARK 921   NORMALIZED FREE ENERGY PREDICTED BY IDOCK:   -5.12 KCAL/MOL
REMARK 922        TOTAL FREE ENERGY PREDICTED BY IDOCK:  -10.91 KCAL/MOL
REMARK 923 INTER-LIGAND FREE ENERGY PREDICTED BY IDOCK:   -9.26 KCAL/MOL
REMARK 924 INTRA-LIGAND FREE ENERGY PREDICTED BY IDOCK:   -1.65 KCAL/MOL
REMARK 927      BINDING AFFINITY PREDICTED BY RF-SCORE:    0.00 PKD
ROOT
HETATM    1  F   UNL     1     -12.019   9.235  70.020  1.00  0.00    -0.107 F  
HETATM    2  C   UNL     1     -12.312  10.043  71.077  1.00  0.00    -0.360 C  
HETATM    3  C   UNL     1     -12.413  11.506  70.723  1.00  0.00    -0.444 A  
HETATM    4  F   UNL     1     -13.462   9.552  71.617  1.00  0.00    -0.376 F  
HETATM    5  F   UNL     1     -11.339   9.807  72.003  1.00  0.00    -0.362 F  
HETATM    6  C   UNL     1     -12.208  11.958  69.403  1.00  0.00    -0.185 A  
HETATM    7  C   UNL     1     -12.201  13.326  69.104  1.00  0.00    -0.124 A  
HETATM    8  C   UNL     1     -12.670  12.437  71.740  1.00  0.00    -0.249 A  
HETATM    9  C   UNL     1     -12.482  14.224  70.148  1.00  0.00    -0.393 A  
HETATM   10  C   UNL     1     -12.715  13.794  71.452  1.00  0.00    -0.450 A  
ENDROOT
BRANCH   7  11
HETATM   11  N   UNL     1     -11.885  13.859  67.851  1.00  0.00    -0.363 NA 
HETATM   12  C   UNL     1     -12.150  14.208  65.412  1.00  0.00    -0.410 C  
HETATM   13  C   UNL     1     -12.474  13.287  66.624  1.00  0.00    -0.066 C  
HETATM   14  N   UNL     1     -10.706  14.504  65.199  1.00  0.00    -0.378 NA 
HETATM   15  C   UNL     1     -10.440  14.161  67.719  1.00  0.00    -0.246 C  
HETATM   16  C   UNL     1     -10.194  15.058  66.484  1.00  0.00    -0.275 C  
BRANCH  14  17
HETATM   17  C   UNL     1      -9.916  13.316  64.799  1.00  0.00    -0.124 C  
BRANCH  17  18
HETATM   18  C   UNL     1     -10.707  12.203  64.073  1.00  0.00    -0.384 C  
BRANCH  18  19
HETATM   19  O   UNL     1     -10.589  10.915  64.749  1.00  0.00    -0.315 OA 
BRANCH  19  20
HETATM   20  C   UNL     1      -9.544  10.179  64.295  1.00  0.00    -0.290 C  
HETATM   21  O   UNL     1      -9.425   9.848  63.114  1.00  0.00    -0.271 OA 
BRANCH  20  22
HETATM   22  C   UNL     1      -8.492   9.808  65.302  1.00  0.00    -0.154 A  
HETATM   23  C   UNL     1      -7.729  10.927  65.719  1.00  0.00    -0.036 A  
HETATM   24  C   UNL     1      -6.685  10.809  66.627  1.00  0.00    -0.120 A  
HETATM   25  C   UNL     1      -6.387   9.562  67.155  1.00  0.00    -0.065 A  
HETATM   26  C   UNL     1      -7.134   8.443  66.770  1.00  0.00    -0.074 A  
HETATM   27  C   UNL     1      -8.192   8.526  65.837  1.00  0.00    -0.125 A  
BRANCH  27  28
HETATM   28  N   UNL     1      -8.839   7.342  65.426  1.00  0.00    -0.372 NA 
HETATM   29  H   UNL     1      -9.579   7.506  64.742  1.00  0.00     0.000 HD 
BRANCH  28  30
HETATM   30  C   UNL     1      -8.680   5.966  65.762  1.00  0.00    -0.151 A  
HETATM   31  C   UNL     1      -9.073   5.520  67.046  1.00  0.00    -0.112 A  
HETATM   32  C   UNL     1      -9.890   6.305  67.876  1.00  0.00    -0.129 A  
HETATM   33  C   UNL     1     -10.162   5.927  69.186  1.00  0.00    -0.275 A  
HETATM   34  C   UNL     1      -9.596   4.767  69.711  1.00  0.00    -0.249 A  
HETATM   35  C   UNL     1      -8.881   3.919  68.840  1.00  0.00    -0.153 A  
HETATM   36  C   UNL     1      -9.729   4.487  71.191  1.00  0.00    -0.186 C  
HETATM   37  C   UNL     1      -8.646   4.252  67.504  1.00  0.00    -0.104 A  
HETATM   38  F   UNL     1     -10.404   5.471  71.856  1.00  0.00    -0.226 F  
HETATM   39  F   UNL     1     -10.391   3.334  71.473  1.00  0.00    -0.185 F  
HETATM   40  F   UNL     1      -8.521   4.398  71.814  1.00  0.00    -0.100 F  
HETATM   41  N   UNL     1      -7.999   3.400  66.695  1.00  0.00    -0.080 NA 
HETATM   42  C   UNL     1      -7.758   3.792  65.417  1.00  0.00    -0.082 A  
HETATM   43  C   UNL     1      -8.055   5.057  64.918  1.00  0.00    -0.112 A  
ENDBRANCH  28  30
ENDBRANCH  27  28
ENDBRANCH  20  22
ENDBRANCH  19  20
ENDBRANCH  18  19
ENDBRANCH  17  18
ENDBRANCH  14  17
ENDBRANCH   7  11
TORSDOF 8
ENDMDL
MODEL      161
REMARK 921   NORMALIZED FREE ENERGY PREDICTED BY IDOCK:   -5.11 KCAL/MOL
REMARK 922        TOTAL FREE ENERGY PREDICTED BY IDOCK:  -10.90 KCAL/MOL
REMARK 923 INTER-LIGAND FREE ENERGY PREDICTED BY IDOCK:   -8.82 KCAL/MOL
REMARK 924 INTRA-LIGAND FREE ENERGY PREDICTED BY IDOCK:   -2.08 KCAL/MOL
REMARK 927      BINDING AFFINITY PREDICTED BY RF-SCORE:    0.00 PKD
ROOT
HETATM    1  F   UNL     1      -8.920  16.437  66.080  1.00  0.00    -0.287 F  
HETATM    2  C   UNL     1     -10.237  16.308  66.403  1.00  0.00    -0.313 C  
HETATM    3  C   UNL     1     -10.560  15.052  67.173  1.00  0.00    -0.295 A  
HETATM    4  F   UNL     1     -10.570  17.441  67.082  1.00  0.00    -0.331 F  
HETATM    5  F   UNL     1     -10.914  16.374  65.221  1.00  0.00    -0.342 F  
HETATM    6  C   UNL     1      -9.560  14.114  67.503  1.00  0.00    -0.223 A  
HETATM    7  C   UNL     1      -9.886  12.904  68.125  1.00  0.00    -0.227 A  
HETATM    8  C   UNL     1     -11.894  14.792  67.523  1.00  0.00    -0.326 A  
HETATM    9  C   UNL     1     -11.231  12.691  68.476  1.00  0.00    -0.315 A  
HETATM   10  C   UNL     1     -12.227  13.618  68.184  1.00  0.00    -0.164 A  
ENDROOT
BRANCH   7  11
HETATM   11  N   UNL     1      -8.975  11.872  68.374  1.00  0.00    -0.182 NA 
HETATM   12  C   UNL     1      -6.732  10.865  68.681  1.00  0.00    -0.059 C  
HETATM   13  C   UNL     1      -7.537  12.061  68.095  1.00  0.00    -0.120 C  
HETATM   14  N   UNL     1      -7.171   9.514  68.232  1.00  0.00    -0.076 NA 
HETATM   15  C   UNL     1      -9.488  10.554  67.933  1.00  0.00    -0.147 C  
HETATM   16  C   UNL     1      -8.626   9.419  68.535  1.00  0.00    -0.123 C  
BRANCH  14  17
HETATM   17  C   UNL     1      -6.926   9.268  66.791  1.00  0.00    -0.081 C  
BRANCH  17  18
HETATM   18  C   UNL     1      -6.143   7.977  66.457  1.00  0.00    -0.049 C  
BRANCH  18  19
HETATM   19  O   UNL     1      -6.020   7.095  67.614  1.00  0.00    -0.030 OA 
BRANCH  19  20
HETATM   20  C   UNL     1      -6.324   5.806  67.323  1.00  0.00    -0.042 C  
HETATM   21  O   UNL     1      -5.466   4.927  67.212  1.00  0.00    -0.012 OA 
BRANCH  20  22
HETATM   22  C   UNL     1      -7.782   5.472  67.177  1.00  0.00    -0.100 A  
HETATM   23  C   UNL     1      -8.194   5.452  65.821  1.00  0.00    -0.121 A  
HETATM   24  C   UNL     1      -9.508   5.191  65.455  1.00  0.00    -0.095 A  
HETATM   25  C   UNL     1     -10.444   4.927  66.444  1.00  0.00    -0.325 A  
HETATM   26  C   UNL     1     -10.060   4.927  67.789  1.00  0.00    -0.158 A  
HETATM   27  C   UNL     1      -8.736   5.204  68.195  1.00  0.00    -0.102 A  
BRANCH  27  28
HETATM   28  N   UNL     1      -8.442   5.279  69.573  1.00  0.00    -0.094 NA 
HETATM   29  H   UNL     1      -8.220   4.372  69.986  1.00  0.00     0.000 HD 
BRANCH  28  30
HETATM   30  C   UNL     1      -8.389   6.351  70.512  1.00  0.00    -0.129 A  
HETATM   31  C   UNL     1      -9.596   6.964  70.925  1.00  0.00    -0.166 A  
HETATM   32  C   UNL     1     -10.842   6.361  70.691  1.00  0.00    -0.331 A  
HETATM   33  C   UNL     1     -12.029   7.027  70.975  1.00  0.00    -0.406 A  
HETATM   34  C   UNL     1     -12.000   8.329  71.473  1.00  0.00    -0.335 A  
HETATM   35  C   UNL     1     -10.751   8.882  71.823  1.00  0.00    -0.432 A  
HETATM   36  C   UNL     1     -13.291   9.108  71.573  1.00  0.00    -0.355 C  
HETATM   37  C   UNL     1      -9.549   8.206  71.600  1.00  0.00    -0.180 A  
HETATM   38  F   UNL     1     -14.370   8.403  71.118  1.00  0.00    -0.404 F  
HETATM   39  F   UNL     1     -13.607   9.486  72.839  1.00  0.00    -0.395 F  
HETATM   40  F   UNL     1     -13.269  10.248  70.827  1.00  0.00    -0.426 F  
HETATM   41  N   UNL     1      -8.383   8.747  71.987  1.00  0.00    -0.368 NA 
HETATM   42  C   UNL     1      -7.242   8.068  71.707  1.00  0.00    -0.077 A  
HETATM   43  C   UNL     1      -7.192   6.893  70.961  1.00  0.00    -0.076 A  
ENDBRANCH  28  30
ENDBRANCH  27  28
ENDBRANCH  20  22
ENDBRANCH  19  20
ENDBRANCH  18  19
ENDBRANCH  17  18
ENDBRANCH  14  17
ENDBRANCH   7  11
TORSDOF 8
ENDMDL
MODEL      162
REMARK 921   NORMALIZED FREE ENERGY PREDICTED BY IDOCK:   -5.09 KCAL/MOL
REMARK 922        TOTAL FREE ENERGY PREDICTED BY IDOCK:  -10.87 KCAL/MOL
REMARK 923 INTER-LIGAND FREE ENERGY PREDICTED BY IDOCK:   -8.06 KCAL/MOL
REMARK 924 INTRA-LIGAND FREE ENERGY PREDICTED BY IDOCK:   -2.80 KCAL/MOL
REMARK 927      BINDING AFFINITY PREDICTED BY RF-SCORE:    0.00 PKD
ROOT
HETATM    1  F   UNL     1     -12.620  15.129  71.343  1.00  0.00    -0.311 F  
HETATM    2  C   UNL     1     -13.058  14.094  72.112  1.00  0.00    -0.401 C  
HETATM    3  C   UNL     1     -12.813  12.734  71.508  1.00  0.00    -0.369 A  
HETATM    4  F   UNL     1     -12.456  14.247  73.325  1.00  0.00    -0.410 F  
HETATM    5  F   UNL     1     -14.384  14.328  72.326  1.00  0.00    -0.525 F  
HETATM    6  C   UNL     1     -12.189  12.589  70.251  1.00  0.00    -0.345 A  
HETATM    7  C   UNL     1     -12.061  11.331  69.653  1.00  0.00    -0.322 A  
HETATM    8  C   UNL     1     -13.260  11.594  72.193  1.00  0.00    -0.327 A  
HETATM    9  C   UNL     1     -12.504  10.212  70.380  1.00  0.00    -0.243 A  
HETATM   10  C   UNL     1     -13.096  10.333  71.635  1.00  0.00    -0.553 A  
ENDROOT
BRANCH   7  11
HETATM   11  N   UNL     1     -11.569  11.116  68.361  1.00  0.00    -0.399 NA 
HETATM   12  C   UNL     1     -10.960   9.774  66.370  1.00  0.00     0.350 C  
HETATM   13  C   UNL     1     -11.252   9.751  67.898  1.00  0.00     0.034 C  
HETATM   14  N   UNL     1      -9.898  10.724  65.934  1.00  0.00    -0.227 NA 
HETATM   15  C   UNL     1     -10.542  12.115  67.981  1.00  0.00    -0.210 C  
HETATM   16  C   UNL     1     -10.289  12.063  66.455  1.00  0.00    -0.210 C  
BRANCH  14  17
HETATM   17  C   UNL     1      -8.547  10.355  66.418  1.00  0.00    -0.132 C  
BRANCH  17  18
HETATM   18  C   UNL     1      -7.441  11.408  66.177  1.00  0.00     0.120 C  
BRANCH  18  19
HETATM   19  O   UNL     1      -7.354  12.374  67.267  1.00  0.00    -0.143 OA 
BRANCH  19  20
HETATM   20  C   UNL     1      -6.076  12.607  67.659  1.00  0.00    -0.147 C  
HETATM   21  O   UNL     1      -5.130  12.622  66.870  1.00  0.00    -0.333 OA 
BRANCH  20  22
HETATM   22  C   UNL     1      -5.859  12.891  69.119  1.00  0.00    -0.081 A  
HETATM   23  C   UNL     1      -5.962  14.272  69.419  1.00  0.00    -0.103 A  
HETATM   24  C   UNL     1      -5.772  14.763  70.704  1.00  0.00    -0.155 A  
HETATM   25  C   UNL     1      -5.486  13.875  71.729  1.00  0.00    -0.226 A  
HETATM   26  C   UNL     1      -5.391  12.505  71.462  1.00  0.00    -0.000 A  
HETATM   27  C   UNL     1      -5.565  11.975  70.164  1.00  0.00    -0.139 A  
BRANCH  27  28
HETATM   28  N   UNL     1      -5.363  10.594  69.954  1.00  0.00    -0.039 NA 
HETATM   29  H   UNL     1      -4.612  10.207  70.527  1.00  0.00     0.000 HD 
BRANCH  28  30
HETATM   30  C   UNL     1      -5.983   9.626  69.111  1.00  0.00    -0.034 A  
HETATM   31  C   UNL     1      -7.227   9.073  69.498  1.00  0.00    -0.060 A  
HETATM   32  C   UNL     1      -8.011   9.663  70.503  1.00  0.00    -0.148 A  
HETATM   33  C   UNL     1      -9.163   9.044  70.975  1.00  0.00    -0.331 A  
HETATM   34  C   UNL     1      -9.546   7.802  70.473  1.00  0.00    -0.167 A  
HETATM   35  C   UNL     1      -8.829   7.274  69.379  1.00  0.00    -0.137 A  
HETATM   36  C   UNL     1     -10.674   7.052  71.144  1.00  0.00    -0.230 C  
HETATM   37  C   UNL     1      -7.702   7.908  68.852  1.00  0.00    -0.105 A  
HETATM   38  F   UNL     1     -11.182   7.718  72.224  1.00  0.00    -0.266 F  
HETATM   39  F   UNL     1     -11.735   6.813  70.329  1.00  0.00    -0.363 F  
HETATM   40  F   UNL     1     -10.280   5.840  71.624  1.00  0.00    -0.209 F  
HETATM   41  N   UNL     1      -7.072   7.398  67.783  1.00  0.00    -0.082 NA 
HETATM   42  C   UNL     1      -5.957   8.030  67.337  1.00  0.00    -0.050 A  
HETATM   43  C   UNL     1      -5.368   9.120  67.974  1.00  0.00    -0.034 A  
ENDBRANCH  28  30
ENDBRANCH  27  28
ENDBRANCH  20  22
ENDBRANCH  19  20
ENDBRANCH  18  19
ENDBRANCH  17  18
ENDBRANCH  14  17
ENDBRANCH   7  11
TORSDOF 8
ENDMDL
MODEL      163
REMARK 921   NORMALIZED FREE ENERGY PREDICTED BY IDOCK:   -5.08 KCAL/MOL
REMARK 922        TOTAL FREE ENERGY PREDICTED BY IDOCK:  -10.86 KCAL/MOL
REMARK 923 INTER-LIGAND FREE ENERGY PREDICTED BY IDOCK:   -9.42 KCAL/MOL
REMARK 924 INTRA-LIGAND FREE ENERGY PREDICTED BY IDOCK:   -1.44 KCAL/MOL
REMARK 927      BINDING AFFINITY PREDICTED BY RF-SCORE:    0.00 PKD
ROOT
HETATM    1  F   UNL     1     -10.211  17.506  69.212  1.00  0.00    -0.321 F  
HETATM    2  C   UNL     1     -10.225  17.601  67.853  1.00  0.00    -0.357 C  
HETATM    3  C   UNL     1     -10.632  16.327  67.154  1.00  0.00    -0.291 A  
HETATM    4  F   UNL     1     -11.046  18.647  67.558  1.00  0.00    -0.457 F  
HETATM    5  F   UNL     1      -8.972  18.003  67.498  1.00  0.00    -0.243 F  
HETATM    6  C   UNL     1     -10.953  15.161  67.878  1.00  0.00    -0.302 A  
HETATM    7  C   UNL     1     -11.227  13.957  67.219  1.00  0.00    -0.312 A  
HETATM    8  C   UNL     1     -10.642  16.294  65.751  1.00  0.00    -0.336 A  
HETATM    9  C   UNL     1     -11.245  13.971  65.813  1.00  0.00    -0.303 A  
HETATM   10  C   UNL     1     -10.959  15.120  65.081  1.00  0.00    -0.428 A  
ENDROOT
BRANCH   7  11
HETATM   11  N   UNL     1     -11.432  12.733  67.863  1.00  0.00    -0.295 NA 
HETATM   12  C   UNL     1     -12.085  11.246  69.735  1.00  0.00    -0.325 C  
HETATM   13  C   UNL     1     -11.646  12.682  69.323  1.00  0.00    -0.318 C  
HETATM   14  N   UNL     1     -11.170  10.149  69.310  1.00  0.00    -0.219 NA 
HETATM   15  C   UNL     1     -10.514  11.680  67.369  1.00  0.00    -0.210 C  
HETATM   16  C   UNL     1     -11.000  10.288  67.837  1.00  0.00    -0.292 C  
BRANCH  14  17
HETATM   17  C   UNL     1      -9.854  10.188  69.988  1.00  0.00    -0.128 C  
BRANCH  17  18
HETATM   18  C   UNL     1      -9.500   8.942  70.833  1.00  0.00    -0.236 C  
BRANCH  18  19
HETATM   19  O   UNL     1      -9.763   7.699  70.114  1.00  0.00    -0.178 OA 
BRANCH  19  20
HETATM   20  C   UNL     1     -10.845   7.037  70.594  1.00  0.00    -0.246 C  
HETATM   21  O   UNL     1     -11.999   7.320  70.266  1.00  0.00    -0.146 OA 
BRANCH  20  22
HETATM   22  C   UNL     1     -10.576   5.893  71.530  1.00  0.00    -0.300 A  
HETATM   23  C   UNL     1     -10.819   6.238  72.883  1.00  0.00    -0.284 A  
HETATM   24  C   UNL     1     -10.611   5.339  73.921  1.00  0.00    -0.335 A  
HETATM   25  C   UNL     1     -10.166   4.059  73.626  1.00  0.00    -0.213 A  
HETATM   26  C   UNL     1      -9.932   3.689  72.298  1.00  0.00    -0.239 A  
HETATM   27  C   UNL     1     -10.119   4.583  71.220  1.00  0.00    -0.155 A  
BRANCH  27  28
HETATM   28  N   UNL     1      -9.774   4.170  69.916  1.00  0.00    -0.212 NA 
HETATM   29  H   UNL     1     -10.478   3.569  69.486  1.00  0.00     0.000 HD 
BRANCH  28  30
HETATM   30  C   UNL     1      -8.651   4.412  69.072  1.00  0.00    -0.083 A  
HETATM   31  C   UNL     1      -8.845   4.482  67.671  1.00  0.00    -0.117 A  
HETATM   32  C   UNL     1     -10.126   4.634  67.116  1.00  0.00    -0.187 A  
HETATM   33  C   UNL     1     -10.328   4.567  65.742  1.00  0.00    -0.287 A  
HETATM   34  C   UNL     1      -9.256   4.314  64.889  1.00  0.00    -0.156 A  
HETATM   35  C   UNL     1      -7.957   4.287  65.438  1.00  0.00    -0.097 A  
HETATM   36  C   UNL     1      -9.527   4.033  63.428  1.00  0.00    -0.150 C  
HETATM   37  C   UNL     1      -7.727   4.411  66.809  1.00  0.00    -0.094 A  
HETATM   38  F   UNL     1     -10.860   4.045  63.127  1.00  0.00    -0.229 F  
HETATM   39  F   UNL     1      -8.953   4.928  62.582  1.00  0.00    -0.120 F  
HETATM   40  F   UNL     1      -9.085   2.803  63.044  1.00  0.00    -0.088 F  
HETATM   41  N   UNL     1      -6.474   4.424  67.290  1.00  0.00    -0.041 NA 
HETATM   42  C   UNL     1      -6.307   4.504  68.635  1.00  0.00    -0.036 A  
HETATM   43  C   UNL     1      -7.351   4.476  69.556  1.00  0.00    -0.051 A  
ENDBRANCH  28  30
ENDBRANCH  27  28
ENDBRANCH  20  22
ENDBRANCH  19  20
ENDBRANCH  18  19
ENDBRANCH  17  18
ENDBRANCH  14  17
ENDBRANCH   7  11
TORSDOF 8
ENDMDL
MODEL      164
REMARK 921   NORMALIZED FREE ENERGY PREDICTED BY IDOCK:   -5.08 KCAL/MOL
REMARK 922        TOTAL FREE ENERGY PREDICTED BY IDOCK:  -10.85 KCAL/MOL
REMARK 923 INTER-LIGAND FREE ENERGY PREDICTED BY IDOCK:   -7.59 KCAL/MOL
REMARK 924 INTRA-LIGAND FREE ENERGY PREDICTED BY IDOCK:   -3.26 KCAL/MOL
REMARK 927      BINDING AFFINITY PREDICTED BY RF-SCORE:    0.00 PKD
ROOT
HETATM    1  F   UNL     1     -11.853  11.431  65.328  1.00  0.00    -0.141 F  
HETATM    2  C   UNL     1     -12.002  12.683  65.843  1.00  0.00    -0.438 C  
HETATM    3  C   UNL     1     -11.847  12.753  67.342  1.00  0.00    -0.404 A  
HETATM    4  F   UNL     1     -11.105  13.469  65.184  1.00  0.00    -0.296 F  
HETATM    5  F   UNL     1     -13.233  13.106  65.435  1.00  0.00    -0.443 F  
HETATM    6  C   UNL     1     -11.579  11.600  68.108  1.00  0.00    -0.389 A  
HETATM    7  C   UNL     1     -11.540  11.658  69.506  1.00  0.00    -0.331 A  
HETATM    8  C   UNL     1     -12.021  13.987  67.987  1.00  0.00    -0.386 A  
HETATM    9  C   UNL     1     -11.701  12.916  70.112  1.00  0.00    -0.234 A  
HETATM   10  C   UNL     1     -11.938  14.070  69.370  1.00  0.00    -0.390 A  
ENDROOT
BRANCH   7  11
HETATM   11  N   UNL     1     -11.404  10.544  70.339  1.00  0.00    -0.321 NA 
HETATM   12  C   UNL     1     -10.191   8.946  71.794  1.00  0.00    -0.344 C  
HETATM   13  C   UNL     1     -10.065  10.020  70.675  1.00  0.00     0.060 C  
HETATM   14  N   UNL     1     -11.125   7.822  71.502  1.00  0.00    -0.234 NA 
HETATM   15  C   UNL     1     -12.383   9.480  70.016  1.00  0.00     0.470 C  
HETATM   16  C   UNL     1     -12.437   8.440  71.160  1.00  0.00    -0.173 C  
BRANCH  14  17
HETATM   17  C   UNL     1     -10.664   6.947  70.399  1.00  0.00    -0.246 C  
BRANCH  17  18
HETATM   18  C   UNL     1     -11.737   6.571  69.351  1.00  0.00    -0.017 C  
BRANCH  18  19
HETATM   19  O   UNL     1     -11.147   6.047  68.124  1.00  0.00    -0.306 OA 
BRANCH  19  20
HETATM   20  C   UNL     1     -10.209   6.875  67.600  1.00  0.00    -0.185 C  
HETATM   21  O   UNL     1     -10.410   8.077  67.414  1.00  0.00    -0.234 OA 
BRANCH  20  22
HETATM   22  C   UNL     1      -8.872   6.267  67.283  1.00  0.00    -0.107 A  
HETATM   23  C   UNL     1      -8.922   4.852  67.240  1.00  0.00    -0.113 A  
HETATM   24  C   UNL     1      -7.794   4.082  66.990  1.00  0.00    -0.095 A  
HETATM   25  C   UNL     1      -6.582   4.716  66.759  1.00  0.00    -0.050 A  
HETATM   26  C   UNL     1      -6.508   6.113  66.782  1.00  0.00    -0.046 A  
HETATM   27  C   UNL     1      -7.633   6.924  67.049  1.00  0.00    -0.102 A  
BRANCH  27  28
HETATM   28  N   UNL     1      -7.464   8.321  67.149  1.00  0.00    -0.088 NA 
HETATM   29  H   UNL     1      -7.431   8.787  66.242  1.00  0.00     0.000 HD 
BRANCH  28  30
HETATM   30  C   UNL     1      -7.330   9.221  68.247  1.00  0.00    -0.078 A  
HETATM   31  C   UNL     1      -7.690  10.579  68.073  1.00  0.00    -0.092 A  
HETATM   32  C   UNL     1      -8.457  10.999  66.974  1.00  0.00    -0.141 A  
HETATM   33  C   UNL     1      -8.693  12.347  66.733  1.00  0.00    -0.160 A  
HETATM   34  C   UNL     1      -8.140  13.315  67.570  1.00  0.00    -0.187 A  
HETATM   35  C   UNL     1      -7.478  12.887  68.740  1.00  0.00    -0.047 A  
HETATM   36  C   UNL     1      -8.229  14.771  67.172  1.00  0.00    -0.211 C  
HETATM   37  C   UNL     1      -7.281  11.535  69.030  1.00  0.00    -0.106 A  
HETATM   38  F   UNL     1      -8.854  14.953  65.971  1.00  0.00    -0.267 F  
HETATM   39  F   UNL     1      -8.911  15.541  68.060  1.00  0.00    -0.161 F  
HETATM   40  F   UNL     1      -7.003  15.346  67.028  1.00  0.00    -0.219 F  
HETATM   41  N   UNL     1      -6.685  11.166  70.174  1.00  0.00    -0.190 NA 
HETATM   42  C   UNL     1      -6.479   9.841  70.388  1.00  0.00    -0.101 A  
HETATM   43  C   UNL     1      -6.759   8.845  69.456  1.00  0.00    -0.047 A  
ENDBRANCH  28  30
ENDBRANCH  27  28
ENDBRANCH  20  22
ENDBRANCH  19  20
ENDBRANCH  18  19
ENDBRANCH  17  18
ENDBRANCH  14  17
ENDBRANCH   7  11
TORSDOF 8
ENDMDL
MODEL      165
REMARK 921   NORMALIZED FREE ENERGY PREDICTED BY IDOCK:   -5.07 KCAL/MOL
REMARK 922        TOTAL FREE ENERGY PREDICTED BY IDOCK:  -10.85 KCAL/MOL
REMARK 923 INTER-LIGAND FREE ENERGY PREDICTED BY IDOCK:   -9.41 KCAL/MOL
REMARK 924 INTRA-LIGAND FREE ENERGY PREDICTED BY IDOCK:   -1.44 KCAL/MOL
REMARK 927      BINDING AFFINITY PREDICTED BY RF-SCORE:    0.00 PKD
ROOT
HETATM    1  F   UNL     1      -9.047   5.219  73.852  1.00  0.00    -0.122 F  
HETATM    2  C   UNL     1     -10.310   5.697  73.675  1.00  0.00    -0.240 C  
HETATM    3  C   UNL     1     -10.677   5.945  72.233  1.00  0.00    -0.279 A  
HETATM    4  F   UNL     1     -11.139   4.801  74.281  1.00  0.00    -0.326 F  
HETATM    5  F   UNL     1     -10.383   6.833  74.425  1.00  0.00    -0.365 F  
HETATM    6  C   UNL     1      -9.761   5.700  71.189  1.00  0.00    -0.218 A  
HETATM    7  C   UNL     1     -10.073   6.031  69.865  1.00  0.00    -0.185 A  
HETATM    8  C   UNL     1     -11.940   6.478  71.933  1.00  0.00    -0.389 A  
HETATM    9  C   UNL     1     -11.356   6.544  69.605  1.00  0.00    -0.443 A  
HETATM   10  C   UNL     1     -12.283   6.767  70.620  1.00  0.00    -0.312 A  
ENDROOT
BRANCH   7  11
HETATM   11  N   UNL     1      -9.179   5.934  68.795  1.00  0.00    -0.115 NA 
HETATM   12  C   UNL     1      -7.113   6.440  67.524  1.00  0.00    -0.080 C  
HETATM   13  C   UNL     1      -8.088   6.916  68.640  1.00  0.00    -0.121 C  
HETATM   14  N   UNL     1      -7.740   6.154  66.203  1.00  0.00    -0.097 NA 
HETATM   15  C   UNL     1      -9.864   5.615  67.520  1.00  0.00    -0.139 C  
HETATM   16  C   UNL     1      -8.832   5.174  66.457  1.00  0.00    -0.117 C  
BRANCH  14  17
HETATM   17  C   UNL     1      -8.276   7.363  65.535  1.00  0.00    -0.135 C  
BRANCH  17  18
HETATM   18  C   UNL     1      -7.734   8.713  66.061  1.00  0.00    -0.100 C  
BRANCH  18  19
HETATM   19  O   UNL     1      -6.435   9.045  65.483  1.00  0.00    -0.066 OA 
BRANCH  19  20
HETATM   20  C   UNL     1      -6.088  10.341  65.687  1.00  0.00    -0.108 C  
HETATM   21  O   UNL     1      -5.749  11.092  64.770  1.00  0.00    -0.023 OA 
BRANCH  20  22
HETATM   22  C   UNL     1      -6.172  10.849  67.098  1.00  0.00    -0.069 A  
HETATM   23  C   UNL     1      -5.349  10.111  67.984  1.00  0.00    -0.038 A  
HETATM   24  C   UNL     1      -5.291  10.392  69.343  1.00  0.00    -0.038 A  
HETATM   25  C   UNL     1      -6.050  11.437  69.848  1.00  0.00    -0.134 A  
HETATM   26  C   UNL     1      -6.861  12.190  68.992  1.00  0.00    -0.098 A  
HETATM   27  C   UNL     1      -6.954  11.920  67.609  1.00  0.00    -0.112 A  
BRANCH  27  28
HETATM   28  N   UNL     1      -7.863  12.661  66.824  1.00  0.00    -0.396 NA 
HETATM   29  H   UNL     1      -7.405  13.330  66.204  1.00  0.00     0.000 HD 
BRANCH  28  30
HETATM   30  C   UNL     1      -9.284  12.674  66.713  1.00  0.00    -0.225 A  
HETATM   31  C   UNL     1     -10.044  13.380  67.676  1.00  0.00    -0.229 A  
HETATM   32  C   UNL     1      -9.447  14.312  68.541  1.00  0.00    -0.206 A  
HETATM   33  C   UNL     1     -10.167  14.901  69.574  1.00  0.00    -0.143 A  
HETATM   34  C   UNL     1     -11.499  14.549  69.788  1.00  0.00    -0.327 A  
HETATM   35  C   UNL     1     -12.128  13.711  68.844  1.00  0.00    -0.335 A  
HETATM   36  C   UNL     1     -12.198  15.036  71.037  1.00  0.00    -0.326 C  
HETATM   37  C   UNL     1     -11.437  13.154  67.766  1.00  0.00    -0.313 A  
HETATM   38  F   UNL     1     -11.382  15.779  71.843  1.00  0.00    -0.421 F  
HETATM   39  F   UNL     1     -13.280  15.820  70.789  1.00  0.00    -0.523 F  
HETATM   40  F   UNL     1     -12.637  14.012  71.820  1.00  0.00    -0.373 F  
HETATM   41  N   UNL     1     -12.080  12.396  66.865  1.00  0.00    -0.547 NA 
HETATM   42  C   UNL     1     -11.353  11.844  65.860  1.00  0.00    -0.308 A  
HETATM   43  C   UNL     1      -9.967  11.934  65.756  1.00  0.00    -0.264 A  
ENDBRANCH  28  30
ENDBRANCH  27  28
ENDBRANCH  20  22
ENDBRANCH  19  20
ENDBRANCH  18  19
ENDBRANCH  17  18
ENDBRANCH  14  17
ENDBRANCH   7  11
TORSDOF 8
ENDMDL
MODEL      166
REMARK 921   NORMALIZED FREE ENERGY PREDICTED BY IDOCK:   -5.07 KCAL/MOL
REMARK 922        TOTAL FREE ENERGY PREDICTED BY IDOCK:  -10.84 KCAL/MOL
REMARK 923 INTER-LIGAND FREE ENERGY PREDICTED BY IDOCK:  -10.68 KCAL/MOL
REMARK 924 INTRA-LIGAND FREE ENERGY PREDICTED BY IDOCK:   -0.17 KCAL/MOL
REMARK 927      BINDING AFFINITY PREDICTED BY RF-SCORE:    0.00 PKD
ROOT
HETATM    1  F   UNL     1     -11.873  17.011  72.217  1.00  0.00    -0.415 F  
HETATM    2  C   UNL     1     -12.543  15.991  72.822  1.00  0.00    -0.472 C  
HETATM    3  C   UNL     1     -12.520  14.697  72.047  1.00  0.00    -0.407 A  
HETATM    4  F   UNL     1     -11.998  15.869  74.064  1.00  0.00    -0.512 F  
HETATM    5  F   UNL     1     -13.812  16.448  73.018  1.00  0.00    -0.553 F  
HETATM    6  C   UNL     1     -11.860  14.594  70.805  1.00  0.00    -0.372 A  
HETATM    7  C   UNL     1     -11.932  13.421  70.046  1.00  0.00    -0.337 A  
HETATM    8  C   UNL     1     -13.213  13.587  72.554  1.00  0.00    -0.551 A  
HETATM    9  C   UNL     1     -12.621  12.327  70.599  1.00  0.00    -0.241 A  
HETATM   10  C   UNL     1     -13.255  12.400  71.836  1.00  0.00    -0.486 A  
ENDROOT
BRANCH   7  11
HETATM   11  N   UNL     1     -11.412  13.281  68.756  1.00  0.00    -0.283 NA 
HETATM   12  C   UNL     1     -11.237  12.310  66.483  1.00  0.00    -0.324 C  
HETATM   13  C   UNL     1     -11.743  12.096  67.940  1.00  0.00    -0.336 C  
HETATM   14  N   UNL     1      -9.790  12.640  66.348  1.00  0.00    -0.254 NA 
HETATM   15  C   UNL     1      -9.980  13.657  68.687  1.00  0.00    -0.161 C  
HETATM   16  C   UNL     1      -9.546  13.828  67.212  1.00  0.00    -0.237 C  
BRANCH  14  17
HETATM   17  C   UNL     1      -8.896  11.525  66.739  1.00  0.00    -0.183 C  
BRANCH  17  18
HETATM   18  C   UNL     1      -8.830  11.221  68.254  1.00  0.00    -0.158 C  
BRANCH  18  19
HETATM   19  O   UNL     1      -9.437   9.935  68.583  1.00  0.00    -0.146 OA 
BRANCH  19  20
HETATM   20  C   UNL     1      -9.297   9.610  69.892  1.00  0.00    -0.228 C  
HETATM   21  O   UNL     1      -8.405  10.078  70.603  1.00  0.00    -0.087 OA 
BRANCH  20  22
HETATM   22  C   UNL     1     -10.316   8.667  70.467  1.00  0.00    -0.234 A  
HETATM   23  C   UNL     1     -11.099   9.275  71.480  1.00  0.00    -0.443 A  
HETATM   24  C   UNL     1     -12.085   8.579  72.166  1.00  0.00    -0.449 A  
HETATM   25  C   UNL     1     -12.323   7.252  71.841  1.00  0.00    -0.346 A  
HETATM   26  C   UNL     1     -11.573   6.632  70.836  1.00  0.00    -0.416 A  
HETATM   27  C   UNL     1     -10.553   7.307  70.130  1.00  0.00    -0.232 A  
BRANCH  27  28
HETATM   28  N   UNL     1      -9.775   6.592  69.195  1.00  0.00    -0.136 NA 
HETATM   29  H   UNL     1      -9.279   7.196  68.539  1.00  0.00     0.000 HD 
BRANCH  28  30
HETATM   30  C   UNL     1      -9.535   5.205  68.972  1.00  0.00    -0.133 A  
HETATM   31  C   UNL     1      -9.518   4.714  67.644  1.00  0.00    -0.186 A  
HETATM   32  C   UNL     1      -9.418   5.580  66.543  1.00  0.00    -0.161 A  
HETATM   33  C   UNL     1      -9.538   5.109  65.241  1.00  0.00     0.038 A  
HETATM   34  C   UNL     1      -9.794   3.759  65.007  1.00  0.00    -0.175 A  
HETATM   35  C   UNL     1      -9.768   2.874  66.105  1.00  0.00     0.264 A  
HETATM   36  C   UNL     1     -10.132   3.305  63.605  1.00  0.00    -0.183 C  
HETATM   37  C   UNL     1      -9.590   3.320  67.416  1.00  0.00    -0.063 A  
HETATM   38  F   UNL     1     -10.164   4.337  62.710  1.00  0.00    -0.169 F  
HETATM   39  F   UNL     1      -9.253   2.404  63.093  1.00  0.00    -0.091 F  
HETATM   40  F   UNL     1     -11.362   2.727  63.528  1.00  0.00    -0.229 F  
HETATM   41  N   UNL     1      -9.529   2.444  68.430  1.00  0.00    -0.199 NA 
HETATM   42  C   UNL     1      -9.398   2.933  69.690  1.00  0.00    -0.135 A  
HETATM   43  C   UNL     1      -9.420   4.288  70.009  1.00  0.00    -0.254 A  
ENDBRANCH  28  30
ENDBRANCH  27  28
ENDBRANCH  20  22
ENDBRANCH  19  20
ENDBRANCH  18  19
ENDBRANCH  17  18
ENDBRANCH  14  17
ENDBRANCH   7  11
TORSDOF 8
ENDMDL
MODEL      167
REMARK 921   NORMALIZED FREE ENERGY PREDICTED BY IDOCK:   -5.06 KCAL/MOL
REMARK 922        TOTAL FREE ENERGY PREDICTED BY IDOCK:  -10.83 KCAL/MOL
REMARK 923 INTER-LIGAND FREE ENERGY PREDICTED BY IDOCK:   -8.73 KCAL/MOL
REMARK 924 INTRA-LIGAND FREE ENERGY PREDICTED BY IDOCK:   -2.10 KCAL/MOL
REMARK 927      BINDING AFFINITY PREDICTED BY RF-SCORE:    0.00 PKD
ROOT
HETATM    1  F   UNL     1     -12.535  16.513  72.364  1.00  0.00    -0.461 F  
HETATM    2  C   UNL     1     -13.026  15.284  72.686  1.00  0.00    -0.408 C  
HETATM    3  C   UNL     1     -12.735  14.219  71.658  1.00  0.00    -0.430 A  
HETATM    4  F   UNL     1     -12.514  14.985  73.912  1.00  0.00    -0.556 F  
HETATM    5  F   UNL     1     -14.364  15.459  72.877  1.00  0.00    -0.478 F  
HETATM    6  C   UNL     1     -12.021  14.512  70.477  1.00  0.00    -0.387 A  
HETATM    7  C   UNL     1     -11.847  13.543  69.483  1.00  0.00    -0.334 A  
HETATM    8  C   UNL     1     -13.228  12.922  71.863  1.00  0.00    -0.521 A  
HETATM    9  C   UNL     1     -12.340  12.251  69.736  1.00  0.00    -0.081 A  
HETATM   10  C   UNL     1     -13.021  11.936  70.908  1.00  0.00    -0.098 A  
ENDROOT
BRANCH   7  11
HETATM   11  N   UNL     1     -11.262  13.786  68.236  1.00  0.00    -0.259 NA 
HETATM   12  C   UNL     1     -11.185  14.601  65.897  1.00  0.00    -0.336 C  
HETATM   13  C   UNL     1     -12.098  14.156  67.077  1.00  0.00    -0.414 C  
HETATM   14  N   UNL     1     -10.142  13.618  65.487  1.00  0.00    -0.294 NA 
HETATM   15  C   UNL     1     -10.212  12.793  67.907  1.00  0.00    -0.229 C  
HETATM   16  C   UNL     1      -9.363  13.292  66.714  1.00  0.00    -0.252 C  
BRANCH  14  17
HETATM   17  C   UNL     1     -10.703  12.384  64.889  1.00  0.00    -0.294 C  
BRANCH  17  18
HETATM   18  C   UNL     1     -10.062  11.939  63.553  1.00  0.00    -0.441 C  
BRANCH  18  19
HETATM   19  O   UNL     1      -8.656  11.583  63.711  1.00  0.00     0.351 OA 
BRANCH  19  20
HETATM   20  C   UNL     1      -8.486  10.349  64.249  1.00  0.00    -0.158 C  
HETATM   21  O   UNL     1      -8.992   9.335  63.764  1.00  0.00    -0.183 OA 
BRANCH  20  22
HETATM   22  C   UNL     1      -7.607  10.257  65.464  1.00  0.00    -0.149 A  
HETATM   23  C   UNL     1      -6.332  10.836  65.249  1.00  0.00     0.047 A  
HETATM   24  C   UNL     1      -5.350  10.839  66.231  1.00  0.00    -0.094 A  
HETATM   25  C   UNL     1      -5.628  10.273  67.466  1.00  0.00    -0.044 A  
HETATM   26  C   UNL     1      -6.884   9.707  67.708  1.00  0.00    -0.078 A  
HETATM   27  C   UNL     1      -7.900   9.673  66.726  1.00  0.00    -0.102 A  
BRANCH  27  28
HETATM   28  N   UNL     1      -9.108   9.003  67.011  1.00  0.00    -0.128 NA 
HETATM   29  H   UNL     1      -9.917   9.420  66.548  1.00  0.00     0.000 HD 
BRANCH  28  30
HETATM   30  C   UNL     1      -9.441   7.869  67.807  1.00  0.00    -0.144 A  
HETATM   31  C   UNL     1      -9.143   6.574  67.319  1.00  0.00    -0.117 A  
HETATM   32  C   UNL     1      -8.264   6.381  66.240  1.00  0.00    -0.118 A  
HETATM   33  C   UNL     1      -8.080   5.124  65.677  1.00  0.00    -0.115 A  
HETATM   34  C   UNL     1      -8.796   4.029  66.158  1.00  0.00    -0.120 A  
HETATM   35  C   UNL     1      -9.580   4.202  67.318  1.00  0.00    -0.228 A  
HETATM   36  C   UNL     1      -8.743   2.723  65.400  1.00  0.00    -0.122 C  
HETATM   37  C   UNL     1      -9.732   5.445  67.935  1.00  0.00    -0.136 A  
HETATM   38  F   UNL     1      -7.976   2.798  64.271  1.00  0.00    -0.077 F  
HETATM   39  F   UNL     1      -8.232   1.690  66.121  1.00  0.00    -0.073 F  
HETATM   40  F   UNL     1      -9.971   2.320  64.971  1.00  0.00     0.007 F  
HETATM   41  N   UNL     1     -10.451   5.562  69.061  1.00  0.00    -0.236 NA 
HETATM   42  C   UNL     1     -10.604   6.800  69.596  1.00  0.00    -0.233 A  
HETATM   43  C   UNL     1     -10.143   7.972  69.000  1.00  0.00    -0.206 A  
ENDBRANCH  28  30
ENDBRANCH  27  28
ENDBRANCH  20  22
ENDBRANCH  19  20
ENDBRANCH  18  19
ENDBRANCH  17  18
ENDBRANCH  14  17
ENDBRANCH   7  11
TORSDOF 8
ENDMDL
MODEL      168
REMARK 921   NORMALIZED FREE ENERGY PREDICTED BY IDOCK:   -5.03 KCAL/MOL
REMARK 922        TOTAL FREE ENERGY PREDICTED BY IDOCK:  -10.78 KCAL/MOL
REMARK 923 INTER-LIGAND FREE ENERGY PREDICTED BY IDOCK:   -6.94 KCAL/MOL
REMARK 924 INTRA-LIGAND FREE ENERGY PREDICTED BY IDOCK:   -3.83 KCAL/MOL
REMARK 927      BINDING AFFINITY PREDICTED BY RF-SCORE:    0.00 PKD
ROOT
HETATM    1  F   UNL     1     -10.868  10.770  70.645  1.00  0.00    -0.271 F  
HETATM    2  C   UNL     1     -11.887   9.956  71.039  1.00  0.00    -0.376 C  
HETATM    3  C   UNL     1     -11.437   8.735  71.802  1.00  0.00    -0.413 A  
HETATM    4  F   UNL     1     -12.738  10.740  71.756  1.00  0.00    -0.464 F  
HETATM    5  F   UNL     1     -12.559   9.628  69.898  1.00  0.00     0.103 F  
HETATM    6  C   UNL     1     -10.072   8.489  72.059  1.00  0.00    -0.386 A  
HETATM    7  C   UNL     1      -9.658   7.303  72.676  1.00  0.00    -0.153 A  
HETATM    8  C   UNL     1     -12.398   7.802  72.222  1.00  0.00    -0.260 A  
HETATM    9  C   UNL     1     -10.654   6.404  73.098  1.00  0.00    -0.278 A  
HETATM   10  C   UNL     1     -12.008   6.644  72.879  1.00  0.00     0.327 A  
ENDROOT
BRANCH   7  11
HETATM   11  N   UNL     1      -8.323   6.930  72.854  1.00  0.00    -0.108 NA 
HETATM   12  C   UNL     1      -5.871   7.084  72.528  1.00  0.00    -0.041 C  
HETATM   13  C   UNL     1      -7.272   7.463  71.965  1.00  0.00    -0.067 C  
HETATM   14  N   UNL     1      -5.650   5.632  72.773  1.00  0.00    -0.025 NA 
HETATM   15  C   UNL     1      -8.178   5.481  73.127  1.00  0.00    -0.118 C  
HETATM   16  C   UNL     1      -6.758   5.179  73.660  1.00  0.00    -0.077 C  
BRANCH  14  17
HETATM   17  C   UNL     1      -5.621   4.826  71.530  1.00  0.00    -0.012 C  
BRANCH  17  18
HETATM   18  C   UNL     1      -5.190   5.583  70.252  1.00  0.00    -0.005 C  
BRANCH  18  19
HETATM   19  O   UNL     1      -6.031   5.251  69.107  1.00  0.00    -0.021 OA 
BRANCH  19  20
HETATM   20  C   UNL     1      -6.599   6.344  68.540  1.00  0.00    -0.055 C  
HETATM   21  O   UNL     1      -5.954   7.166  67.885  1.00  0.00    -0.027 OA 
BRANCH  20  22
HETATM   22  C   UNL     1      -8.083   6.500  68.711  1.00  0.00    -0.118 A  
HETATM   23  C   UNL     1      -8.661   5.412  69.411  1.00  0.00    -0.099 A  
HETATM   24  C   UNL     1     -10.025   5.336  69.659  1.00  0.00    -0.302 A  
HETATM   25  C   UNL     1     -10.848   6.364  69.223  1.00  0.00    -0.387 A  
HETATM   26  C   UNL     1     -10.301   7.456  68.542  1.00  0.00    -0.221 A  
HETATM   27  C   UNL     1      -8.921   7.556  68.260  1.00  0.00    -0.130 A  
BRANCH  27  28
HETATM   28  N   UNL     1      -8.454   8.641  67.488  1.00  0.00    -0.123 NA 
HETATM   29  H   UNL     1      -8.207   8.378  66.533  1.00  0.00     0.000 HD 
BRANCH  28  30
HETATM   30  C   UNL     1      -8.255  10.027  67.756  1.00  0.00    -0.113 A  
HETATM   31  C   UNL     1      -9.139  10.973  67.183  1.00  0.00    -0.151 A  
HETATM   32  C   UNL     1     -10.368  10.585  66.627  1.00  0.00    -0.295 A  
HETATM   33  C   UNL     1     -11.170  11.494  65.945  1.00  0.00    -0.239 A  
HETATM   34  C   UNL     1     -10.746  12.811  65.775  1.00  0.00    -0.296 A  
HETATM   35  C   UNL     1      -9.574  13.227  66.441  1.00  0.00    -0.260 A  
HETATM   36  C   UNL     1     -11.525  13.722  64.854  1.00  0.00    -0.343 C  
HETATM   37  C   UNL     1      -8.785  12.342  67.180  1.00  0.00    -0.195 A  
HETATM   38  F   UNL     1     -12.585  13.095  64.264  1.00  0.00    -0.409 F  
HETATM   39  F   UNL     1     -12.045  14.814  65.475  1.00  0.00    -0.340 F  
HETATM   40  F   UNL     1     -10.768  14.191  63.824  1.00  0.00     0.103 F  
HETATM   41  N   UNL     1      -7.700  12.784  67.835  1.00  0.00    -0.129 NA 
HETATM   42  C   UNL     1      -6.944  11.876  68.502  1.00  0.00    -0.085 A  
HETATM   43  C   UNL     1      -7.165  10.501  68.473  1.00  0.00    -0.085 A  
ENDBRANCH  28  30
ENDBRANCH  27  28
ENDBRANCH  20  22
ENDBRANCH  19  20
ENDBRANCH  18  19
ENDBRANCH  17  18
ENDBRANCH  14  17
ENDBRANCH   7  11
TORSDOF 8
ENDMDL
MODEL      169
REMARK 921   NORMALIZED FREE ENERGY PREDICTED BY IDOCK:   -5.02 KCAL/MOL
REMARK 922        TOTAL FREE ENERGY PREDICTED BY IDOCK:  -10.76 KCAL/MOL
REMARK 923 INTER-LIGAND FREE ENERGY PREDICTED BY IDOCK:   -8.49 KCAL/MOL
REMARK 924 INTRA-LIGAND FREE ENERGY PREDICTED BY IDOCK:   -2.27 KCAL/MOL
REMARK 927      BINDING AFFINITY PREDICTED BY RF-SCORE:    0.00 PKD
ROOT
HETATM    1  F   UNL     1     -12.259  11.533  70.627  1.00  0.00    -0.396 F  
HETATM    2  C   UNL     1     -12.931  10.605  71.364  1.00  0.00    -0.443 C  
HETATM    3  C   UNL     1     -12.381   9.206  71.239  1.00  0.00    -0.382 A  
HETATM    4  F   UNL     1     -12.916  11.063  72.647  1.00  0.00    -0.211 F  
HETATM    5  F   UNL     1     -14.231  10.683  70.960  1.00  0.00     0.540 F  
HETATM    6  C   UNL     1     -11.273   8.922  70.414  1.00  0.00    -0.259 A  
HETATM    7  C   UNL     1     -10.836   7.607  70.224  1.00  0.00    -0.246 A  
HETATM    8  C   UNL     1     -13.020   8.160  71.922  1.00  0.00    -0.356 A  
HETATM    9  C   UNL     1     -11.491   6.590  70.941  1.00  0.00    -0.408 A  
HETATM   10  C   UNL     1     -12.569   6.855  71.782  1.00  0.00    -0.386 A  
ENDROOT
BRANCH   7  11
HETATM   11  N   UNL     1      -9.828   7.230  69.331  1.00  0.00    -0.162 NA 
HETATM   12  C   UNL     1      -7.771   7.542  67.984  1.00  0.00    -0.116 C  
HETATM   13  C   UNL     1      -8.936   8.247  68.738  1.00  0.00    -0.144 C  
HETATM   14  N   UNL     1      -8.182   6.551  66.950  1.00  0.00    -0.112 NA 
HETATM   15  C   UNL     1     -10.295   6.221  68.352  1.00  0.00    -0.200 C  
HETATM   16  C   UNL     1      -9.086   5.582  67.629  1.00  0.00    -0.107 C  
BRANCH  14  17
HETATM   17  C   UNL     1      -8.865   7.167  65.788  1.00  0.00    -0.064 C  
BRANCH  17  18
HETATM   18  C   UNL     1      -8.244   8.485  65.270  1.00  0.00    -0.149 C  
BRANCH  18  19
HETATM   19  O   UNL     1      -9.236   9.548  65.146  1.00  0.00    -0.224 OA 
BRANCH  19  20
HETATM   20  C   UNL     1      -8.778  10.745  65.590  1.00  0.00    -0.190 C  
HETATM   21  O   UNL     1      -7.678  11.199  65.267  1.00  0.00     0.182 OA 
BRANCH  20  22
HETATM   22  C   UNL     1      -9.699  11.533  66.478  1.00  0.00    -0.226 A  
HETATM   23  C   UNL     1     -10.869  10.810  66.816  1.00  0.00    -0.256 A  
HETATM   24  C   UNL     1     -11.870  11.356  67.608  1.00  0.00    -0.157 A  
HETATM   25  C   UNL     1     -11.715  12.644  68.098  1.00  0.00    -0.396 A  
HETATM   26  C   UNL     1     -10.563  13.375  67.790  1.00  0.00    -0.252 A  
HETATM   27  C   UNL     1      -9.534  12.855  66.975  1.00  0.00    -0.235 A  
BRANCH  27  28
HETATM   28  N   UNL     1      -8.445  13.683  66.631  1.00  0.00    -0.433 NA 
HETATM   29  H   UNL     1      -8.366  13.846  65.627  1.00  0.00     0.000 HD 
BRANCH  28  30
HETATM   30  C   UNL     1      -7.431  14.341  67.387  1.00  0.00    -0.149 A  
HETATM   31  C   UNL     1      -7.284  15.744  67.268  1.00  0.00    -0.254 A  
HETATM   32  C   UNL     1      -8.284  16.539  66.685  1.00  0.00    -0.306 A  
HETATM   33  C   UNL     1      -8.080  17.893  66.446  1.00  0.00    -0.296 A  
HETATM   34  C   UNL     1      -6.855  18.482  66.757  1.00  0.00    -0.213 A  
HETATM   35  C   UNL     1      -5.902  17.712  67.456  1.00  0.00    -0.153 A  
HETATM   36  C   UNL     1      -6.580  19.895  66.297  1.00  0.00    -0.211 C  
HETATM   37  C   UNL     1      -6.111  16.364  67.757  1.00  0.00    -0.133 A  
HETATM   38  F   UNL     1      -7.614  20.429  65.581  1.00  0.00    -0.282 F  
HETATM   39  F   UNL     1      -6.349  20.768  67.313  1.00  0.00    -0.236 F  
HETATM   40  F   UNL     1      -5.498  19.972  65.473  1.00  0.00    -0.165 F  
HETATM   41  N   UNL     1      -5.199  15.676  68.461  1.00  0.00    -0.093 NA 
HETATM   42  C   UNL     1      -5.431  14.358  68.689  1.00  0.00    -0.094 A  
HETATM   43  C   UNL     1      -6.507  13.650  68.160  1.00  0.00    -0.125 A  
ENDBRANCH  28  30
ENDBRANCH  27  28
ENDBRANCH  20  22
ENDBRANCH  19  20
ENDBRANCH  18  19
ENDBRANCH  17  18
ENDBRANCH  14  17
ENDBRANCH   7  11
TORSDOF 8
ENDMDL
MODEL      170
REMARK 921   NORMALIZED FREE ENERGY PREDICTED BY IDOCK:   -5.01 KCAL/MOL
REMARK 922        TOTAL FREE ENERGY PREDICTED BY IDOCK:  -10.76 KCAL/MOL
REMARK 923 INTER-LIGAND FREE ENERGY PREDICTED BY IDOCK:   -9.19 KCAL/MOL
REMARK 924 INTRA-LIGAND FREE ENERGY PREDICTED BY IDOCK:   -1.56 KCAL/MOL
REMARK 927      BINDING AFFINITY PREDICTED BY RF-SCORE:    0.00 PKD
ROOT
HETATM    1  F   UNL     1      -5.530   6.554  69.314  1.00  0.00    -0.011 F  
HETATM    2  C   UNL     1      -6.036   5.334  68.980  1.00  0.00    -0.025 C  
HETATM    3  C   UNL     1      -7.530   5.220  69.157  1.00  0.00    -0.069 A  
HETATM    4  F   UNL     1      -5.639   5.102  67.698  1.00  0.00    -0.010 F  
HETATM    5  F   UNL     1      -5.360   4.432  69.746  1.00  0.00    -0.006 F  
HETATM    6  C   UNL     1      -8.299   6.301  69.636  1.00  0.00    -0.125 A  
HETATM    7  C   UNL     1      -9.666   6.153  69.894  1.00  0.00    -0.163 A  
HETATM    8  C   UNL     1      -8.157   3.995  68.883  1.00  0.00    -0.075 A  
HETATM    9  C   UNL     1     -10.259   4.915  69.588  1.00  0.00    -0.265 A  
HETATM   10  C   UNL     1      -9.521   3.846  69.088  1.00  0.00    -0.246 A  
ENDROOT
BRANCH   7  11
HETATM   11  N   UNL     1     -10.470   7.134  70.483  1.00  0.00    -0.210 NA 
HETATM   12  C   UNL     1     -12.601   8.236  71.103  1.00  0.00    -0.141 C  
HETATM   13  C   UNL     1     -11.902   7.234  70.139  1.00  0.00     0.010 C  
HETATM   14  N   UNL     1     -11.992   9.594  71.168  1.00  0.00    -0.341 NA 
HETATM   15  C   UNL     1      -9.791   8.450  70.546  1.00  0.00    -0.184 C  
HETATM   16  C   UNL     1     -10.554   9.397  71.502  1.00  0.00    -0.261 C  
BRANCH  14  17
HETATM   17  C   UNL     1     -12.129  10.359  69.907  1.00  0.00    -0.181 C  
BRANCH  17  18
HETATM   18  C   UNL     1     -11.053  11.444  69.663  1.00  0.00    -0.174 C  
BRANCH  18  19
HETATM   19  O   UNL     1     -11.495  12.448  68.700  1.00  0.00    -0.254 OA 
BRANCH  19  20
HETATM   20  C   UNL     1     -11.463  11.996  67.422  1.00  0.00    -0.336 C  
HETATM   21  O   UNL     1     -12.411  12.129  66.644  1.00  0.00    -0.453 OA 
BRANCH  20  22
HETATM   22  C   UNL     1     -10.187  11.346  66.966  1.00  0.00    -0.246 A  
HETATM   23  C   UNL     1     -10.300   9.935  66.891  1.00  0.00    -0.300 A  
HETATM   24  C   UNL     1      -9.232   9.130  66.517  1.00  0.00    -0.221 A  
HETATM   25  C   UNL     1      -8.022   9.723  66.190  1.00  0.00    -0.110 A  
HETATM   26  C   UNL     1      -7.888  11.115  66.243  1.00  0.00    -0.109 A  
HETATM   27  C   UNL     1      -8.950  11.961  66.635  1.00  0.00    -0.198 A  
BRANCH  27  28
HETATM   28  N   UNL     1      -8.715  13.347  66.755  1.00  0.00    -0.417 NA 
HETATM   29  H   UNL     1      -8.932  13.866  65.903  1.00  0.00     0.000 HD 
BRANCH  28  30
HETATM   30  C   UNL     1      -8.238  14.177  67.811  1.00  0.00    -0.169 A  
HETATM   31  C   UNL     1      -8.778  15.477  67.963  1.00  0.00    -0.163 A  
HETATM   32  C   UNL     1      -9.967  15.857  67.319  1.00  0.00    -0.240 A  
HETATM   33  C   UNL     1     -10.420  17.170  67.359  1.00  0.00    -0.334 A  
HETATM   34  C   UNL     1      -9.678  18.146  68.022  1.00  0.00    -0.316 A  
HETATM   35  C   UNL     1      -8.555  17.738  68.771  1.00  0.00    -0.206 A  
HETATM   36  C   UNL     1     -10.074  19.598  67.875  1.00  0.00    -0.422 C  
HETATM   37  C   UNL     1      -8.116  16.413  68.790  1.00  0.00    -0.234 A  
HETATM   38  F   UNL     1     -11.151  19.771  67.052  1.00  0.00    -0.572 F  
HETATM   39  F   UNL     1     -10.409  20.197  69.048  1.00  0.00    -0.529 F  
HETATM   40  F   UNL     1      -9.081  20.355  67.329  1.00  0.00    -0.418 F  
HETATM   41  N   UNL     1      -7.069  16.055  69.550  1.00  0.00    -0.209 NA 
HETATM   42  C   UNL     1      -6.656  14.763  69.499  1.00  0.00    -0.153 A  
HETATM   43  C   UNL     1      -7.187  13.805  68.639  1.00  0.00    -0.109 A  
ENDBRANCH  28  30
ENDBRANCH  27  28
ENDBRANCH  20  22
ENDBRANCH  19  20
ENDBRANCH  18  19
ENDBRANCH  17  18
ENDBRANCH  14  17
ENDBRANCH   7  11
TORSDOF 8
ENDMDL
MODEL      171
REMARK 921   NORMALIZED FREE ENERGY PREDICTED BY IDOCK:   -4.98 KCAL/MOL
REMARK 922        TOTAL FREE ENERGY PREDICTED BY IDOCK:  -10.72 KCAL/MOL
REMARK 923 INTER-LIGAND FREE ENERGY PREDICTED BY IDOCK:   -8.37 KCAL/MOL
REMARK 924 INTRA-LIGAND FREE ENERGY PREDICTED BY IDOCK:   -2.35 KCAL/MOL
REMARK 927      BINDING AFFINITY PREDICTED BY RF-SCORE:    0.00 PKD
ROOT
HETATM    1  F   UNL     1     -10.608  14.025  69.315  1.00  0.00    -0.237 F  
HETATM    2  C   UNL     1     -11.592  14.288  68.411  1.00  0.00    -0.320 C  
HETATM    3  C   UNL     1     -11.521  13.444  67.163  1.00  0.00    -0.373 A  
HETATM    4  F   UNL     1     -12.768  14.137  69.081  1.00  0.00    -0.253 F  
HETATM    5  F   UNL     1     -11.493  15.620  68.135  1.00  0.00    -0.323 F  
HETATM    6  C   UNL     1     -10.505  12.482  66.982  1.00  0.00    -0.246 A  
HETATM    7  C   UNL     1     -10.386  11.779  65.778  1.00  0.00    -0.253 A  
HETATM    8  C   UNL     1     -12.459  13.657  66.142  1.00  0.00    -0.449 A  
HETATM    9  C   UNL     1     -11.358  12.008  64.789  1.00  0.00    -0.369 A  
HETATM   10  C   UNL     1     -12.385  12.932  64.960  1.00  0.00    -0.541 A  
ENDROOT
BRANCH   7  11
HETATM   11  N   UNL     1      -9.339  10.903  65.475  1.00  0.00    -0.198 NA 
HETATM   12  C   UNL     1      -8.321   8.793  64.668  1.00  0.00    -0.166 C  
HETATM   13  C   UNL     1      -9.610   9.476  65.209  1.00  0.00    -0.243 C  
HETATM   14  N   UNL     1      -7.111   8.935  65.527  1.00  0.00    -0.080 NA 
HETATM   15  C   UNL     1      -8.158  11.121  66.343  1.00  0.00    -0.159 C  
HETATM   16  C   UNL     1      -6.925  10.395  65.756  1.00  0.00    -0.136 C  
BRANCH  14  17
HETATM   17  C   UNL     1      -7.223   8.220  66.820  1.00  0.00    -0.082 C  
BRANCH  17  18
HETATM   18  C   UNL     1      -6.361   6.942  66.953  1.00  0.00    -0.045 C  
BRANCH  18  19
HETATM   19  O   UNL     1      -7.164   5.771  67.291  1.00  0.00    -0.073 OA 
BRANCH  19  20
HETATM   20  C   UNL     1      -6.958   4.733  66.442  1.00  0.00    -0.067 C  
HETATM   21  O   UNL     1      -5.982   3.985  66.529  1.00  0.00    -0.022 OA 
BRANCH  20  22
HETATM   22  C   UNL     1      -8.007   4.501  65.392  1.00  0.00    -0.098 A  
HETATM   23  C   UNL     1      -7.695   5.146  64.169  1.00  0.00    -0.084 A  
HETATM   24  C   UNL     1      -8.539   5.087  63.068  1.00  0.00    -0.109 A  
HETATM   25  C   UNL     1      -9.718   4.362  63.161  1.00  0.00    -0.012 A  
HETATM   26  C   UNL     1     -10.043   3.705  64.352  1.00  0.00    -0.203 A  
HETATM   27  C   UNL     1      -9.214   3.758  65.495  1.00  0.00    -0.153 A  
BRANCH  27  28
HETATM   28  N   UNL     1      -9.651   3.149  66.690  1.00  0.00    -0.408 NA 
HETATM   29  H   UNL     1     -10.074   2.232  66.541  1.00  0.00     0.000 HD 
BRANCH  28  30
HETATM   30  C   UNL     1      -9.627   3.540  68.060  1.00  0.00    -0.105 A  
HETATM   31  C   UNL     1     -10.021   4.855  68.408  1.00  0.00    -0.183 A  
HETATM   32  C   UNL     1     -10.721   5.673  67.507  1.00  0.00    -0.272 A  
HETATM   33  C   UNL     1     -10.986   7.006  67.799  1.00  0.00    -0.234 A  
HETATM   34  C   UNL     1     -10.529   7.564  68.991  1.00  0.00    -0.216 A  
HETATM   35  C   UNL     1      -9.938   6.711  69.946  1.00  0.00    -0.188 A  
HETATM   36  C   UNL     1     -10.640   9.058  69.195  1.00  0.00    -0.203 C  
HETATM   37  C   UNL     1      -9.715   5.355  69.695  1.00  0.00    -0.177 A  
HETATM   38  F   UNL     1     -11.184   9.699  68.117  1.00  0.00    -0.250 F  
HETATM   39  F   UNL     1     -11.410   9.412  70.257  1.00  0.00    -0.253 F  
HETATM   40  F   UNL     1      -9.428   9.649  69.387  1.00  0.00    -0.155 F  
HETATM   41  N   UNL     1      -9.190   4.565  70.644  1.00  0.00    -0.125 NA 
HETATM   42  C   UNL     1      -8.954   3.265  70.333  1.00  0.00    -0.101 A  
HETATM   43  C   UNL     1      -9.131   2.719  69.065  1.00  0.00    -0.202 A  
ENDBRANCH  28  30
ENDBRANCH  27  28
ENDBRANCH  20  22
ENDBRANCH  19  20
ENDBRANCH  18  19
ENDBRANCH  17  18
ENDBRANCH  14  17
ENDBRANCH   7  11
TORSDOF 8
ENDMDL
MODEL      172
REMARK 921   NORMALIZED FREE ENERGY PREDICTED BY IDOCK:   -4.98 KCAL/MOL
REMARK 922        TOTAL FREE ENERGY PREDICTED BY IDOCK:  -10.71 KCAL/MOL
REMARK 923 INTER-LIGAND FREE ENERGY PREDICTED BY IDOCK:   -9.02 KCAL/MOL
REMARK 924 INTRA-LIGAND FREE ENERGY PREDICTED BY IDOCK:   -1.69 KCAL/MOL
REMARK 927      BINDING AFFINITY PREDICTED BY RF-SCORE:    0.00 PKD
ROOT
HETATM    1  F   UNL     1     -10.239  18.562  69.246  1.00  0.00    -0.385 F  
HETATM    2  C   UNL     1     -10.071  18.514  67.895  1.00  0.00    -0.369 C  
HETATM    3  C   UNL     1     -10.488  17.205  67.271  1.00  0.00    -0.313 A  
HETATM    4  F   UNL     1     -10.759  19.577  67.393  1.00  0.00    -0.497 F  
HETATM    5  F   UNL     1      -8.754  18.789  67.676  1.00  0.00    -0.276 F  
HETATM    6  C   UNL     1     -10.993  16.145  68.053  1.00  0.00    -0.338 A  
HETATM    7  C   UNL     1     -11.278  14.901  67.481  1.00  0.00    -0.328 A  
HETATM    8  C   UNL     1     -10.321  17.025  65.890  1.00  0.00    -0.310 A  
HETATM    9  C   UNL     1     -11.115  14.768  66.091  1.00  0.00    -0.339 A  
HETATM   10  C   UNL     1     -10.645  15.812  65.298  1.00  0.00    -0.446 A  
ENDROOT
BRANCH   7  11
HETATM   11  N   UNL     1     -11.664  13.768  68.204  1.00  0.00    -0.338 NA 
HETATM   12  C   UNL     1     -12.261  12.480  70.235  1.00  0.00    -0.267 C  
HETATM   13  C   UNL     1     -11.547  13.744  69.676  1.00  0.00    -0.281 C  
HETATM   14  N   UNL     1     -11.809  11.181  69.662  1.00  0.00    -0.318 NA 
HETATM   15  C   UNL     1     -11.211  12.512  67.562  1.00  0.00    -0.291 C  
HETATM   16  C   UNL     1     -11.946  11.301  68.183  1.00  0.00    -0.110 C  
BRANCH  14  17
HETATM   17  C   UNL     1     -10.415  10.834  70.025  1.00  0.00     0.101 C  
BRANCH  17  18
HETATM   18  C   UNL     1     -10.096   9.322  70.080  1.00  0.00    -0.213 C  
BRANCH  18  19
HETATM   19  O   UNL     1      -8.685   9.068  70.357  1.00  0.00    -0.160 OA 
BRANCH  19  20
HETATM   20  C   UNL     1      -7.876   9.444  69.335  1.00  0.00    -0.087 C  
HETATM   21  O   UNL     1      -6.930  10.219  69.485  1.00  0.00    -0.069 OA 
BRANCH  20  22
HETATM   22  C   UNL     1      -8.159   8.835  67.991  1.00  0.00    -0.107 A  
HETATM   23  C   UNL     1      -8.545   9.806  67.033  1.00  0.00    -0.127 A  
HETATM   24  C   UNL     1      -8.878   9.462  65.729  1.00  0.00    -0.204 A  
HETATM   25  C   UNL     1      -8.818   8.130  65.347  1.00  0.00    -0.086 A  
HETATM   26  C   UNL     1      -8.428   7.154  66.269  1.00  0.00    -0.138 A  
HETATM   27  C   UNL     1      -8.097   7.469  67.606  1.00  0.00    -0.118 A  
BRANCH  27  28
HETATM   28  N   UNL     1      -7.803   6.422  68.505  1.00  0.00    -0.104 NA 
HETATM   29  H   UNL     1      -7.110   6.680  69.209  1.00  0.00     0.000 HD 
BRANCH  28  30
HETATM   30  C   UNL     1      -8.266   5.080  68.640  1.00  0.00    -0.085 A  
HETATM   31  C   UNL     1      -9.010   4.721  69.789  1.00  0.00    -0.139 A  
HETATM   32  C   UNL     1      -9.568   5.693  70.635  1.00  0.00    -0.213 A  
HETATM   33  C   UNL     1     -10.179   5.341  71.833  1.00  0.00    -0.264 A  
HETATM   34  C   UNL     1     -10.221   4.006  72.232  1.00  0.00    -0.227 A  
HETATM   35  C   UNL     1      -9.773   3.024  71.324  1.00  0.00    -0.208 A  
HETATM   36  C   UNL     1     -10.696   3.669  73.626  1.00  0.00    -0.221 C  
HETATM   37  C   UNL     1      -9.209   3.353  70.090  1.00  0.00    -0.155 A  
HETATM   38  F   UNL     1     -11.019   4.777  74.357  1.00  0.00    -0.324 F  
HETATM   39  F   UNL     1     -11.801   2.878  73.653  1.00  0.00    -0.313 F  
HETATM   40  F   UNL     1      -9.745   3.023  74.358  1.00  0.00    -0.110 F  
HETATM   41  N   UNL     1      -8.834   2.390  69.235  1.00  0.00    -0.083 NA 
HETATM   42  C   UNL     1      -8.251   2.764  68.068  1.00  0.00    -0.073 A  
HETATM   43  C   UNL     1      -7.928   4.078  67.740  1.00  0.00    -0.090 A  
ENDBRANCH  28  30
ENDBRANCH  27  28
ENDBRANCH  20  22
ENDBRANCH  19  20
ENDBRANCH  18  19
ENDBRANCH  17  18
ENDBRANCH  14  17
ENDBRANCH   7  11
TORSDOF 8
ENDMDL
MODEL      173
REMARK 921   NORMALIZED FREE ENERGY PREDICTED BY IDOCK:   -4.97 KCAL/MOL
REMARK 922        TOTAL FREE ENERGY PREDICTED BY IDOCK:  -10.70 KCAL/MOL
REMARK 923 INTER-LIGAND FREE ENERGY PREDICTED BY IDOCK:   -8.76 KCAL/MOL
REMARK 924 INTRA-LIGAND FREE ENERGY PREDICTED BY IDOCK:   -1.94 KCAL/MOL
REMARK 927      BINDING AFFINITY PREDICTED BY RF-SCORE:    0.00 PKD
ROOT
HETATM    1  F   UNL     1      -9.144   6.269  65.676  1.00  0.00    -0.161 F  
HETATM    2  C   UNL     1      -9.157   5.172  66.482  1.00  0.00    -0.127 C  
HETATM    3  C   UNL     1      -9.668   5.440  67.876  1.00  0.00    -0.165 A  
HETATM    4  F   UNL     1      -9.891   4.231  65.825  1.00  0.00    -0.160 F  
HETATM    5  F   UNL     1      -7.876   4.703  66.487  1.00  0.00    -0.094 F  
HETATM    6  C   UNL     1     -10.079   6.729  68.273  1.00  0.00    -0.173 A  
HETATM    7  C   UNL     1     -10.453   6.990  69.596  1.00  0.00    -0.223 A  
HETATM    8  C   UNL     1      -9.687   4.391  68.808  1.00  0.00    -0.200 A  
HETATM    9  C   UNL     1     -10.476   5.908  70.493  1.00  0.00    -0.319 A  
HETATM   10  C   UNL     1     -10.101   4.622  70.112  1.00  0.00    -0.283 A  
ENDROOT
BRANCH   7  11
HETATM   11  N   UNL     1     -10.754   8.260  70.097  1.00  0.00    -0.238 NA 
HETATM   12  C   UNL     1     -12.170   9.989  71.166  1.00  0.00    -0.380 C  
HETATM   13  C   UNL     1     -12.149   8.630  70.409  1.00  0.00     0.253 C  
HETATM   14  N   UNL     1     -11.479  11.117  70.480  1.00  0.00    -0.193 NA 
HETATM   15  C   UNL     1     -10.009   9.330  69.392  1.00  0.00    -0.181 C  
HETATM   16  C   UNL     1     -10.094  10.652  70.191  1.00  0.00     0.379 C  
BRANCH  14  17
HETATM   17  C   UNL     1     -12.152  11.543  69.231  1.00  0.00    -0.278 C  
BRANCH  17  18
HETATM   18  C   UNL     1     -12.147  13.065  68.954  1.00  0.00    -0.168 C  
BRANCH  18  19
HETATM   19  O   UNL     1     -11.326  13.794  69.915  1.00  0.00    -0.196 OA 
BRANCH  19  20
HETATM   20  C   UNL     1     -11.493  15.138  69.831  1.00  0.00    -0.288 C  
HETATM   21  O   UNL     1     -12.518  15.708  70.211  1.00  0.00    -0.410 OA 
BRANCH  20  22
HETATM   22  C   UNL     1     -10.340  15.929  69.280  1.00  0.00    -0.249 A  
HETATM   23  C   UNL     1     -10.673  17.290  69.073  1.00  0.00    -0.158 A  
HETATM   24  C   UNL     1      -9.764  18.199  68.546  1.00  0.00    -0.372 A  
HETATM   25  C   UNL     1      -8.486  17.765  68.226  1.00  0.00    -0.277 A  
HETATM   26  C   UNL     1      -8.128  16.429  68.433  1.00  0.00    -0.188 A  
HETATM   27  C   UNL     1      -9.033  15.477  68.953  1.00  0.00    -0.220 A  
BRANCH  27  28
HETATM   28  N   UNL     1      -8.631  14.128  69.048  1.00  0.00    -0.364 NA 
HETATM   29  H   UNL     1      -8.475  13.822  70.009  1.00  0.00     0.000 HD 
BRANCH  28  30
HETATM   30  C   UNL     1      -8.396  13.101  68.087  1.00  0.00    -0.161 A  
HETATM   31  C   UNL     1      -9.183  13.065  66.911  1.00  0.00    -0.236 A  
HETATM   32  C   UNL     1      -9.959  14.166  66.514  1.00  0.00    -0.289 A  
HETATM   33  C   UNL     1     -10.835  14.080  65.438  1.00  0.00    -0.331 A  
HETATM   34  C   UNL     1     -10.979  12.878  64.747  1.00  0.00    -0.344 A  
HETATM   35  C   UNL     1     -10.109  11.815  65.068  1.00  0.00    -0.302 A  
HETATM   36  C   UNL     1     -12.084  12.745  63.724  1.00  0.00    -0.517 C  
HETATM   37  C   UNL     1      -9.182  11.901  66.108  1.00  0.00    -0.199 A  
HETATM   38  F   UNL     1     -12.847  13.874  63.621  1.00  0.00    -0.213 F  
HETATM   39  F   UNL     1     -11.638  12.489  62.466  1.00  0.00     0.114 F  
HETATM   40  F   UNL     1     -12.959  11.748  64.030  1.00  0.00    -0.484 F  
HETATM   41  N   UNL     1      -8.342  10.884  66.356  1.00  0.00    -0.157 NA 
HETATM   42  C   UNL     1      -7.490  11.001  67.406  1.00  0.00    -0.106 A  
HETATM   43  C   UNL     1      -7.496  12.066  68.303  1.00  0.00    -0.106 A  
ENDBRANCH  28  30
ENDBRANCH  27  28
ENDBRANCH  20  22
ENDBRANCH  19  20
ENDBRANCH  18  19
ENDBRANCH  17  18
ENDBRANCH  14  17
ENDBRANCH   7  11
TORSDOF 8
ENDMDL
MODEL      174
REMARK 921   NORMALIZED FREE ENERGY PREDICTED BY IDOCK:   -4.94 KCAL/MOL
REMARK 922        TOTAL FREE ENERGY PREDICTED BY IDOCK:  -10.65 KCAL/MOL
REMARK 923 INTER-LIGAND FREE ENERGY PREDICTED BY IDOCK:   -8.76 KCAL/MOL
REMARK 924 INTRA-LIGAND FREE ENERGY PREDICTED BY IDOCK:   -1.89 KCAL/MOL
REMARK 927      BINDING AFFINITY PREDICTED BY RF-SCORE:    0.00 PKD
ROOT
HETATM    1  F   UNL     1     -12.487  13.711  71.092  1.00  0.00    -0.388 F  
HETATM    2  C   UNL     1     -11.820  14.897  71.033  1.00  0.00    -0.327 C  
HETATM    3  C   UNL     1     -11.520  15.363  69.630  1.00  0.00    -0.331 A  
HETATM    4  F   UNL     1     -12.577  15.788  71.732  1.00  0.00    -0.391 F  
HETATM    5  F   UNL     1     -10.686  14.720  71.768  1.00  0.00    -0.065 F  
HETATM    6  C   UNL     1     -11.905  14.604  68.505  1.00  0.00    -0.346 A  
HETATM    7  C   UNL     1     -11.531  14.992  67.213  1.00  0.00    -0.304 A  
HETATM    8  C   UNL     1     -10.800  16.553  69.447  1.00  0.00    -0.311 A  
HETATM    9  C   UNL     1     -10.826  16.201  67.072  1.00  0.00    -0.194 A  
HETATM   10  C   UNL     1     -10.463  16.977  68.169  1.00  0.00    -0.357 A  
ENDROOT
BRANCH   7  11
HETATM   11  N   UNL     1     -11.766  14.235  66.062  1.00  0.00    -0.368 NA 
HETATM   12  C   UNL     1     -12.295  12.184  64.776  1.00  0.00    -0.230 C  
HETATM   13  C   UNL     1     -11.777  12.760  66.126  1.00  0.00    -0.403 C  
HETATM   14  N   UNL     1     -11.564  12.640  63.561  1.00  0.00    -0.499 NA 
HETATM   15  C   UNL     1     -11.036  14.763  64.886  1.00  0.00    -0.412 C  
HETATM   16  C   UNL     1     -11.588  14.129  63.587  1.00  0.00     0.368 C  
BRANCH  14  17
HETATM   17  C   UNL     1     -10.168  12.148  63.498  1.00  0.00    -0.424 C  
BRANCH  17  18
HETATM   18  C   UNL     1      -9.984  10.630  63.730  1.00  0.00    -0.317 C  
BRANCH  18  19
HETATM   19  O   UNL     1      -8.610  10.292  64.090  1.00  0.00    -0.174 OA 
BRANCH  19  20
HETATM   20  C   UNL     1      -8.535   9.527  65.208  1.00  0.00    -0.148 C  
HETATM   21  O   UNL     1      -8.111   8.370  65.196  1.00  0.00    -0.130 OA 
BRANCH  20  22
HETATM   22  C   UNL     1      -8.963  10.170  66.497  1.00  0.00    -0.161 A  
HETATM   23  C   UNL     1      -8.522  11.513  66.599  1.00  0.00    -0.172 A  
HETATM   24  C   UNL     1      -8.784  12.290  67.720  1.00  0.00    -0.174 A  
HETATM   25  C   UNL     1      -9.512  11.743  68.766  1.00  0.00    -0.037 A  
HETATM   26  C   UNL     1      -9.970  10.424  68.684  1.00  0.00    -0.186 A  
HETATM   27  C   UNL     1      -9.709   9.602  67.565  1.00  0.00    -0.158 A  
BRANCH  27  28
HETATM   28  N   UNL     1     -10.122   8.253  67.592  1.00  0.00    -0.193 NA 
HETATM   29  H   UNL     1     -11.053   8.111  67.198  1.00  0.00     0.000 HD 
BRANCH  28  30
HETATM   30  C   UNL     1      -9.518   7.047  68.052  1.00  0.00    -0.125 A  
HETATM   31  C   UNL     1      -9.398   6.824  69.445  1.00  0.00    -0.148 A  
HETATM   32  C   UNL     1     -10.123   7.588  70.374  1.00  0.00    -0.196 A  
HETATM   33  C   UNL     1      -9.903   7.460  71.741  1.00  0.00    -0.187 A  
HETATM   34  C   UNL     1      -8.926   6.585  72.213  1.00  0.00    -0.138 A  
HETATM   35  C   UNL     1      -8.291   5.731  71.288  1.00  0.00    -0.127 A  
HETATM   36  C   UNL     1      -8.555   6.616  73.678  1.00  0.00    -0.123 C  
HETATM   37  C   UNL     1      -8.541   5.803  69.916  1.00  0.00    -0.127 A  
HETATM   38  F   UNL     1      -9.248   7.563  74.378  1.00  0.00    -0.264 F  
HETATM   39  F   UNL     1      -8.782   5.443  74.327  1.00  0.00    -0.117 F  
HETATM   40  F   UNL     1      -7.241   6.916  73.876  1.00  0.00    -0.089 F  
HETATM   41  N   UNL     1      -7.949   4.945  69.071  1.00  0.00    -0.076 NA 
HETATM   42  C   UNL     1      -8.193   5.086  67.743  1.00  0.00    -0.098 A  
HETATM   43  C   UNL     1      -8.942   6.123  67.191  1.00  0.00    -0.111 A  
ENDBRANCH  28  30
ENDBRANCH  27  28
ENDBRANCH  20  22
ENDBRANCH  19  20
ENDBRANCH  18  19
ENDBRANCH  17  18
ENDBRANCH  14  17
ENDBRANCH   7  11
TORSDOF 8
ENDMDL
MODEL      175
REMARK 921   NORMALIZED FREE ENERGY PREDICTED BY IDOCK:   -4.93 KCAL/MOL
REMARK 922        TOTAL FREE ENERGY PREDICTED BY IDOCK:  -10.64 KCAL/MOL
REMARK 923 INTER-LIGAND FREE ENERGY PREDICTED BY IDOCK:   -7.61 KCAL/MOL
REMARK 924 INTRA-LIGAND FREE ENERGY PREDICTED BY IDOCK:   -3.03 KCAL/MOL
REMARK 927      BINDING AFFINITY PREDICTED BY RF-SCORE:    0.00 PKD
ROOT
HETATM    1  F   UNL     1     -13.877   7.489  71.725  1.00  0.00    -0.375 F  
HETATM    2  C   UNL     1     -13.228   8.685  71.667  1.00  0.00    -0.346 C  
HETATM    3  C   UNL     1     -11.902   8.630  70.951  1.00  0.00    -0.257 A  
HETATM    4  F   UNL     1     -14.101   9.558  71.092  1.00  0.00    -0.363 F  
HETATM    5  F   UNL     1     -13.095   9.095  72.961  1.00  0.00    -0.433 F  
HETATM    6  C   UNL     1     -11.408   7.425  70.409  1.00  0.00    -0.273 A  
HETATM    7  C   UNL     1     -10.132   7.362  69.839  1.00  0.00    -0.195 A  
HETATM    8  C   UNL     1     -11.124   9.795  70.866  1.00  0.00    -0.428 A  
HETATM    9  C   UNL     1      -9.393   8.556  69.757  1.00  0.00    -0.161 A  
HETATM   10  C   UNL     1      -9.876   9.761  70.260  1.00  0.00    -0.296 A  
ENDROOT
BRANCH   7  11
HETATM   11  N   UNL     1      -9.522   6.185  69.392  1.00  0.00    -0.137 NA 
HETATM   12  C   UNL     1      -8.200   4.102  69.614  1.00  0.00    -0.058 C  
HETATM   13  C   UNL     1      -8.531   5.489  70.237  1.00  0.00    -0.121 C  
HETATM   14  N   UNL     1      -7.741   4.128  68.197  1.00  0.00    -0.071 NA 
HETATM   15  C   UNL     1      -9.122   6.267  67.968  1.00  0.00    -0.112 C  
HETATM   16  C   UNL     1      -8.787   4.857  67.427  1.00  0.00    -0.103 C  
BRANCH  14  17
HETATM   17  C   UNL     1      -6.422   4.777  68.019  1.00  0.00    -0.041 C  
BRANCH  17  18
HETATM   18  C   UNL     1      -6.425   6.078  67.182  1.00  0.00    -0.047 C  
BRANCH  18  19
HETATM   19  O   UNL     1      -5.245   6.898  67.437  1.00  0.00    -0.008 OA 
BRANCH  19  20
HETATM   20  C   UNL     1      -5.481   8.222  67.261  1.00  0.00    -0.038 C  
HETATM   21  O   UNL     1      -5.576   8.739  66.146  1.00  0.00    -0.040 OA 
BRANCH  20  22
HETATM   22  C   UNL     1      -5.663   9.047  68.503  1.00  0.00    -0.041 A  
HETATM   23  C   UNL     1      -5.132   8.411  69.653  1.00  0.00    -0.030 A  
HETATM   24  C   UNL     1      -5.213   8.984  70.915  1.00  0.00    -0.028 A  
HETATM   25  C   UNL     1      -5.820  10.223  71.056  1.00  0.00    -0.044 A  
HETATM   26  C   UNL     1      -6.342  10.878  69.935  1.00  0.00    -0.132 A  
HETATM   27  C   UNL     1      -6.288  10.316  68.640  1.00  0.00    -0.051 A  
BRANCH  27  28
HETATM   28  N   UNL     1      -6.917  10.991  67.572  1.00  0.00    -0.082 NA 
HETATM   29  H   UNL     1      -6.262  11.498  66.976  1.00  0.00     0.000 HD 
BRANCH  28  30
HETATM   30  C   UNL     1      -8.273  11.115  67.148  1.00  0.00    -0.137 A  
HETATM   31  C   UNL     1      -9.032  12.228  67.585  1.00  0.00    -0.181 A  
HETATM   32  C   UNL     1      -8.418  13.356  68.153  1.00  0.00    -0.172 A  
HETATM   33  C   UNL     1      -9.173  14.385  68.704  1.00  0.00    -0.181 A  
HETATM   34  C   UNL     1     -10.563  14.298  68.728  1.00  0.00    -0.255 A  
HETATM   35  C   UNL     1     -11.178  13.227  68.047  1.00  0.00    -0.307 A  
HETATM   36  C   UNL     1     -11.352  15.319  69.517  1.00  0.00    -0.288 C  
HETATM   37  C   UNL     1     -10.438  12.212  67.437  1.00  0.00    -0.213 A  
HETATM   38  F   UNL     1     -10.552  16.228  70.151  1.00  0.00    -0.292 F  
HETATM   39  F   UNL     1     -12.211  16.052  68.761  1.00  0.00    -0.358 F  
HETATM   40  F   UNL     1     -12.099  14.750  70.504  1.00  0.00    -0.286 F  
HETATM   41  N   UNL     1     -11.057  11.232  66.761  1.00  0.00    -0.278 NA 
HETATM   42  C   UNL     1     -10.294  10.246  66.223  1.00  0.00    -0.186 A  
HETATM   43  C   UNL     1      -8.918  10.134  66.407  1.00  0.00    -0.163 A  
ENDBRANCH  28  30
ENDBRANCH  27  28
ENDBRANCH  20  22
ENDBRANCH  19  20
ENDBRANCH  18  19
ENDBRANCH  17  18
ENDBRANCH  14  17
ENDBRANCH   7  11
TORSDOF 8
ENDMDL
MODEL      176
REMARK 921   NORMALIZED FREE ENERGY PREDICTED BY IDOCK:   -4.93 KCAL/MOL
REMARK 922        TOTAL FREE ENERGY PREDICTED BY IDOCK:  -10.64 KCAL/MOL
REMARK 923 INTER-LIGAND FREE ENERGY PREDICTED BY IDOCK:   -7.74 KCAL/MOL
REMARK 924 INTRA-LIGAND FREE ENERGY PREDICTED BY IDOCK:   -2.89 KCAL/MOL
REMARK 927      BINDING AFFINITY PREDICTED BY RF-SCORE:    0.00 PKD
ROOT
HETATM    1  F   UNL     1     -12.961   6.400  71.596  1.00  0.00    -0.326 F  
HETATM    2  C   UNL     1     -11.641   6.107  71.761  1.00  0.00    -0.275 C  
HETATM    3  C   UNL     1     -10.713   7.250  71.432  1.00  0.00    -0.247 A  
HETATM    4  F   UNL     1     -11.510   5.678  73.048  1.00  0.00    -0.309 F  
HETATM    5  F   UNL     1     -11.405   5.014  70.981  1.00  0.00     0.035 F  
HETATM    6  C   UNL     1     -11.207   8.494  70.987  1.00  0.00    -0.312 A  
HETATM    7  C   UNL     1     -10.335   9.512  70.584  1.00  0.00    -0.302 A  
HETATM    8  C   UNL     1      -9.327   7.051  71.525  1.00  0.00    -0.154 A  
HETATM    9  C   UNL     1      -8.955   9.278  70.712  1.00  0.00    -0.292 A  
HETATM   10  C   UNL     1      -8.449   8.067  71.176  1.00  0.00    -0.134 A  
ENDROOT
BRANCH   7  11
HETATM   11  N   UNL     1     -10.743  10.723  70.018  1.00  0.00    -0.167 NA 
HETATM   12  C   UNL     1     -12.374  12.439  69.287  1.00  0.00     0.137 C  
HETATM   13  C   UNL     1     -12.160  10.945  69.667  1.00  0.00    -0.329 C  
HETATM   14  N   UNL     1     -11.489  12.960  68.208  1.00  0.00    -0.288 NA 
HETATM   15  C   UNL     1      -9.802  11.200  68.977  1.00  0.00    -0.114 C  
HETATM   16  C   UNL     1     -10.091  12.681  68.637  1.00  0.00    -0.122 C  
BRANCH  14  17
HETATM   17  C   UNL     1     -11.756  12.349  66.885  1.00  0.00    -0.362 C  
BRANCH  17  18
HETATM   18  C   UNL     1     -11.593  13.291  65.669  1.00  0.00    -0.335 C  
BRANCH  18  19
HETATM   19  O   UNL     1     -10.237  13.821  65.564  1.00  0.00    -0.302 OA 
BRANCH  19  20
HETATM   20  C   UNL     1     -10.212  15.173  65.453  1.00  0.00    -0.372 C  
HETATM   21  O   UNL     1     -10.708  15.773  64.497  1.00  0.00    -0.449 OA 
BRANCH  20  22
HETATM   22  C   UNL     1      -9.578  15.932  66.584  1.00  0.00    -0.265 A  
HETATM   23  C   UNL     1     -10.334  17.070  66.958  1.00  0.00    -0.304 A  
HETATM   24  C   UNL     1      -9.919  17.931  67.966  1.00  0.00    -0.333 A  
HETATM   25  C   UNL     1      -8.737  17.662  68.639  1.00  0.00    -0.266 A  
HETATM   26  C   UNL     1      -7.979  16.537  68.298  1.00  0.00    -0.177 A  
HETATM   27  C   UNL     1      -8.364  15.650  67.268  1.00  0.00    -0.184 A  
BRANCH  27  28
HETATM   28  N   UNL     1      -7.503  14.589  66.917  1.00  0.00    -0.292 NA 
HETATM   29  H   UNL     1      -7.474  14.412  65.913  1.00  0.00     0.000 HD 
BRANCH  28  30
HETATM   30  C   UNL     1      -6.665  13.713  67.667  1.00  0.00    -0.174 A  
HETATM   31  C   UNL     1      -6.712  12.323  67.405  1.00  0.00    -0.150 A  
HETATM   32  C   UNL     1      -7.312  11.817  66.240  1.00  0.00     0.313 A  
HETATM   33  C   UNL     1      -7.478  10.450  66.051  1.00  0.00    -0.134 A  
HETATM   34  C   UNL     1      -7.076   9.552  67.039  1.00  0.00    -0.086 A  
HETATM   35  C   UNL     1      -6.363  10.055  68.147  1.00  0.00    -0.054 A  
HETATM   36  C   UNL     1      -7.457   8.095  66.910  1.00  0.00    -0.091 C  
HETATM   37  C   UNL     1      -6.134  11.421  68.327  1.00  0.00    -0.045 A  
HETATM   38  F   UNL     1      -8.202   7.841  65.793  1.00  0.00    -0.103 F  
HETATM   39  F   UNL     1      -6.392   7.254  66.838  1.00  0.00    -0.043 F  
HETATM   40  F   UNL     1      -8.218   7.662  67.954  1.00  0.00    -0.116 F  
HETATM   41  N   UNL     1      -5.414  11.857  69.372  1.00  0.00    -0.061 NA 
HETATM   42  C   UNL     1      -5.258  13.197  69.524  1.00  0.00    -0.077 A  
HETATM   43  C   UNL     1      -5.875  14.153  68.721  1.00  0.00    -0.085 A  
ENDBRANCH  28  30
ENDBRANCH  27  28
ENDBRANCH  20  22
ENDBRANCH  19  20
ENDBRANCH  18  19
ENDBRANCH  17  18
ENDBRANCH  14  17
ENDBRANCH   7  11
TORSDOF 8
ENDMDL
MODEL      177
REMARK 921   NORMALIZED FREE ENERGY PREDICTED BY IDOCK:   -4.93 KCAL/MOL
REMARK 922        TOTAL FREE ENERGY PREDICTED BY IDOCK:  -10.63 KCAL/MOL
REMARK 923 INTER-LIGAND FREE ENERGY PREDICTED BY IDOCK:   -8.34 KCAL/MOL
REMARK 924 INTRA-LIGAND FREE ENERGY PREDICTED BY IDOCK:   -2.29 KCAL/MOL
REMARK 927      BINDING AFFINITY PREDICTED BY RF-SCORE:    0.00 PKD
ROOT
HETATM    1  F   UNL     1     -10.531  10.177  64.878  1.00  0.00    -0.383 F  
HETATM    2  C   UNL     1     -10.869  11.456  65.203  1.00  0.00    -0.238 C  
HETATM    3  C   UNL     1     -11.142  11.664  66.672  1.00  0.00    -0.364 A  
HETATM    4  F   UNL     1      -9.856  12.240  64.740  1.00  0.00    -0.256 F  
HETATM    5  F   UNL     1     -11.952  11.759  64.433  1.00  0.00    -0.387 F  
HETATM    6  C   UNL     1     -11.053  10.601  67.595  1.00  0.00    -0.385 A  
HETATM    7  C   UNL     1     -11.409  10.781  68.936  1.00  0.00    -0.284 A  
HETATM    8  C   UNL     1     -11.539  12.934  67.117  1.00  0.00    -0.421 A  
HETATM    9  C   UNL     1     -11.784  12.074  69.345  1.00  0.00    -0.402 A  
HETATM   10  C   UNL     1     -11.849  13.142  68.454  1.00  0.00    -0.386 A  
ENDROOT
BRANCH   7  11
HETATM   11  N   UNL     1     -11.467   9.754  69.883  1.00  0.00    -0.188 NA 
HETATM   12  C   UNL     1     -12.157   8.672  72.002  1.00  0.00    -0.375 C  
HETATM   13  C   UNL     1     -11.976  10.018  71.243  1.00  0.00    -0.394 C  
HETATM   14  N   UNL     1     -10.948   7.803  72.064  1.00  0.00    -0.244 NA 
HETATM   15  C   UNL     1     -10.250   8.910  69.867  1.00  0.00    -0.200 C  
HETATM   16  C   UNL     1     -10.498   7.604  70.659  1.00  0.00    -0.216 C  
BRANCH  14  17
HETATM   17  C   UNL     1      -9.854   8.379  72.881  1.00  0.00    -0.162 C  
BRANCH  17  18
HETATM   18  C   UNL     1      -8.423   8.145  72.340  1.00  0.00    -0.179 C  
BRANCH  18  19
HETATM   19  O   UNL     1      -7.631   7.303  73.231  1.00  0.00    -0.081 OA 
BRANCH  19  20
HETATM   20  C   UNL     1      -7.136   6.204  72.608  1.00  0.00    -0.080 C  
HETATM   21  O   UNL     1      -5.951   6.096  72.288  1.00  0.00    -0.036 OA 
BRANCH  20  22
HETATM   22  C   UNL     1      -8.101   5.080  72.353  1.00  0.00    -0.109 A  
HETATM   23  C   UNL     1      -8.812   4.707  73.521  1.00  0.00    -0.105 A  
HETATM   24  C   UNL     1      -9.738   3.672  73.520  1.00  0.00    -0.144 A  
HETATM   25  C   UNL     1      -9.988   2.991  72.338  1.00  0.00    -0.235 A  
HETATM   26  C   UNL     1      -9.309   3.349  71.168  1.00  0.00    -0.208 A  
HETATM   27  C   UNL     1      -8.350   4.386  71.138  1.00  0.00    -0.089 A  
BRANCH  27  28
HETATM   28  N   UNL     1      -7.637   4.628  69.945  1.00  0.00    -0.054 NA 
HETATM   29  H   UNL     1      -6.836   4.008  69.823  1.00  0.00     0.000 HD 
BRANCH  28  30
HETATM   30  C   UNL     1      -7.798   5.555  68.874  1.00  0.00    -0.095 A  
HETATM   31  C   UNL     1      -8.414   5.122  67.675  1.00  0.00    -0.105 A  
HETATM   32  C   UNL     1      -9.143   3.923  67.617  1.00  0.00    -0.180 A  
HETATM   33  C   UNL     1      -9.629   3.433  66.410  1.00  0.00    -0.072 A  
HETATM   34  C   UNL     1      -9.372   4.116  65.223  1.00  0.00    -0.164 A  
HETATM   35  C   UNL     1      -8.751   5.380  65.301  1.00  0.00    -0.145 A  
HETATM   36  C   UNL     1      -9.723   3.462  63.906  1.00  0.00    -0.153 C  
HETATM   37  C   UNL     1      -8.306   5.917  66.510  1.00  0.00    -0.112 A  
HETATM   38  F   UNL     1     -10.254   2.212  64.062  1.00  0.00    -0.143 F  
HETATM   39  F   UNL     1     -10.631   4.157  63.173  1.00  0.00    -0.194 F  
HETATM   40  F   UNL     1      -8.635   3.289  63.105  1.00  0.00    -0.086 F  
HETATM   41  N   UNL     1      -7.758   7.141  66.550  1.00  0.00    -0.098 NA 
HETATM   42  C   UNL     1      -7.303   7.598  67.744  1.00  0.00    -0.099 A  
HETATM   43  C   UNL     1      -7.280   6.843  68.914  1.00  0.00    -0.091 A  
ENDBRANCH  28  30
ENDBRANCH  27  28
ENDBRANCH  20  22
ENDBRANCH  19  20
ENDBRANCH  18  19
ENDBRANCH  17  18
ENDBRANCH  14  17
ENDBRANCH   7  11
TORSDOF 8
ENDMDL
MODEL      178
REMARK 921   NORMALIZED FREE ENERGY PREDICTED BY IDOCK:   -4.93 KCAL/MOL
REMARK 922        TOTAL FREE ENERGY PREDICTED BY IDOCK:  -10.63 KCAL/MOL
REMARK 923 INTER-LIGAND FREE ENERGY PREDICTED BY IDOCK:   -8.85 KCAL/MOL
REMARK 924 INTRA-LIGAND FREE ENERGY PREDICTED BY IDOCK:   -1.78 KCAL/MOL
REMARK 927      BINDING AFFINITY PREDICTED BY RF-SCORE:    0.00 PKD
ROOT
HETATM    1  F   UNL     1     -10.528  17.550  69.209  1.00  0.00    -0.342 F  
HETATM    2  C   UNL     1     -10.187  17.613  67.892  1.00  0.00    -0.357 C  
HETATM    3  C   UNL     1     -10.401  16.323  67.140  1.00  0.00    -0.285 A  
HETATM    4  F   UNL     1     -10.899  18.650  67.370  1.00  0.00    -0.443 F  
HETATM    5  F   UNL     1      -8.883  18.010  67.867  1.00  0.00    -0.249 F  
HETATM    6  C   UNL     1     -10.904  15.172  67.782  1.00  0.00    -0.292 A  
HETATM    7  C   UNL     1     -11.001  13.953  67.102  1.00  0.00    -0.291 A  
HETATM    8  C   UNL     1     -10.046  16.257  65.785  1.00  0.00    -0.373 A  
HETATM    9  C   UNL     1     -10.652  13.935  65.740  1.00  0.00    -0.300 A  
HETATM   10  C   UNL     1     -10.181  15.068  65.082  1.00  0.00    -0.399 A  
ENDROOT
BRANCH   7  11
HETATM   11  N   UNL     1     -11.371  12.743  67.697  1.00  0.00    -0.290 NA 
HETATM   12  C   UNL     1     -12.380  11.298  69.439  1.00  0.00    -0.149 C  
HETATM   13  C   UNL     1     -11.802  12.705  69.109  1.00  0.00    -0.297 C  
HETATM   14  N   UNL     1     -11.479  10.149  69.145  1.00  0.00    -0.150 NA 
HETATM   15  C   UNL     1     -10.452  11.638  67.337  1.00  0.00    -0.210 C  
HETATM   16  C   UNL     1     -11.083  10.277  67.715  1.00  0.00    -0.269 C  
BRANCH  14  17
HETATM   17  C   UNL     1     -10.277  10.110  70.012  1.00  0.00    -0.220 C  
BRANCH  17  18
HETATM   18  C   UNL     1     -10.179   8.895  70.964  1.00  0.00    -0.254 C  
BRANCH  18  19
HETATM   19  O   UNL     1     -10.735   7.685  70.368  1.00  0.00    -0.227 OA 
BRANCH  19  20
HETATM   20  C   UNL     1     -11.483   6.967  71.243  1.00  0.00    -0.286 C  
HETATM   21  O   UNL     1     -12.541   7.387  71.715  1.00  0.00    -0.320 OA 
BRANCH  20  22
HETATM   22  C   UNL     1     -10.981   5.595  71.594  1.00  0.00    -0.277 A  
HETATM   23  C   UNL     1     -11.290   5.235  72.930  1.00  0.00    -0.368 A  
HETATM   24  C   UNL     1     -10.898   4.019  73.474  1.00  0.00    -0.336 A  
HETATM   25  C   UNL     1     -10.197   3.121  72.684  1.00  0.00    -0.229 A  
HETATM   26  C   UNL     1      -9.891   3.446  71.358  1.00  0.00    -0.204 A  
HETATM   27  C   UNL     1     -10.261   4.680  70.779  1.00  0.00    -0.144 A  
BRANCH  27  28
HETATM   28  N   UNL     1      -9.838   4.977  69.466  1.00  0.00    -0.192 NA 
HETATM   29  H   UNL     1     -10.569   5.403  68.895  1.00  0.00     0.000 HD 
BRANCH  28  30
HETATM   30  C   UNL     1      -8.607   4.809  68.767  1.00  0.00    -0.088 A  
HETATM   31  C   UNL     1      -8.015   5.929  68.135  1.00  0.00    -0.109 A  
HETATM   32  C   UNL     1      -8.425   7.239  68.430  1.00  0.00    -0.125 A  
HETATM   33  C   UNL     1      -7.941   8.326  67.711  1.00  0.00    -0.122 A  
HETATM   34  C   UNL     1      -7.054   8.126  66.654  1.00  0.00    -0.077 A  
HETATM   35  C   UNL     1      -6.549   6.826  66.443  1.00  0.00    -0.048 A  
HETATM   36  C   UNL     1      -6.707   9.290  65.755  1.00  0.00    -0.076 C  
HETATM   37  C   UNL     1      -6.980   5.730  67.192  1.00  0.00    -0.065 A  
HETATM   38  F   UNL     1      -7.359  10.439  66.102  1.00  0.00    -0.105 F  
HETATM   39  F   UNL     1      -5.385   9.606  65.752  1.00  0.00    -0.040 F  
HETATM   40  F   UNL     1      -7.049   9.064  64.456  1.00  0.00    -0.086 F  
HETATM   41  N   UNL     1      -6.444   4.516  66.991  1.00  0.00    -0.041 NA 
HETATM   42  C   UNL     1      -6.929   3.476  67.716  1.00  0.00    -0.051 A  
HETATM   43  C   UNL     1      -8.011   3.567  68.588  1.00  0.00    -0.066 A  
ENDBRANCH  28  30
ENDBRANCH  27  28
ENDBRANCH  20  22
ENDBRANCH  19  20
ENDBRANCH  18  19
ENDBRANCH  17  18
ENDBRANCH  14  17
ENDBRANCH   7  11
TORSDOF 8
ENDMDL
MODEL      179
REMARK 921   NORMALIZED FREE ENERGY PREDICTED BY IDOCK:   -4.91 KCAL/MOL
REMARK 922        TOTAL FREE ENERGY PREDICTED BY IDOCK:  -10.61 KCAL/MOL
REMARK 923 INTER-LIGAND FREE ENERGY PREDICTED BY IDOCK:   -7.98 KCAL/MOL
REMARK 924 INTRA-LIGAND FREE ENERGY PREDICTED BY IDOCK:   -2.63 KCAL/MOL
REMARK 927      BINDING AFFINITY PREDICTED BY RF-SCORE:    0.00 PKD
ROOT
HETATM    1  F   UNL     1     -11.406  11.356  66.194  1.00  0.00    -0.337 F  
HETATM    2  C   UNL     1     -11.042  11.886  64.993  1.00  0.00    -0.305 C  
HETATM    3  C   UNL     1     -10.017  11.068  64.248  1.00  0.00    -0.373 A  
HETATM    4  F   UNL     1     -12.197  12.049  64.289  1.00  0.00    -0.437 F  
HETATM    5  F   UNL     1     -10.595  13.145  65.265  1.00  0.00    -0.283 F  
HETATM    6  C   UNL     1      -9.499   9.871  64.785  1.00  0.00    -0.356 A  
HETATM    7  C   UNL     1      -8.473   9.176  64.135  1.00  0.00    -0.185 A  
HETATM    8  C   UNL     1      -9.535  11.538  63.017  1.00  0.00    -0.346 A  
HETATM    9  C   UNL     1      -8.033   9.670  62.894  1.00  0.00    -0.128 A  
HETATM   10  C   UNL     1      -8.552  10.834  62.335  1.00  0.00    -0.322 A  
ENDROOT
BRANCH   7  11
HETATM   11  N   UNL     1      -7.823   8.054  64.659  1.00  0.00    -0.133 NA 
HETATM   12  C   UNL     1      -6.988   5.721  64.659  1.00  0.00    -0.052 C  
HETATM   13  C   UNL     1      -7.998   6.728  64.034  1.00  0.00    -0.075 C  
HETATM   14  N   UNL     1      -7.038   5.601  66.143  1.00  0.00    -0.066 NA 
HETATM   15  C   UNL     1      -7.882   8.015  66.139  1.00  0.00    -0.093 C  
HETATM   16  C   UNL     1      -6.871   6.978  66.684  1.00  0.00    -0.068 C  
BRANCH  14  17
HETATM   17  C   UNL     1      -8.297   4.999  66.641  1.00  0.00    -0.107 C  
BRANCH  17  18
HETATM   18  C   UNL     1      -8.379   4.792  68.171  1.00  0.00    -0.098 C  
BRANCH  18  19
HETATM   19  O   UNL     1      -9.589   5.377  68.740  1.00  0.00    -0.123 OA 
BRANCH  19  20
HETATM   20  C   UNL     1      -9.328   6.432  69.552  1.00  0.00    -0.143 C  
HETATM   21  O   UNL     1      -8.199   6.907  69.686  1.00  0.00    -0.127 OA 
BRANCH  20  22
HETATM   22  C   UNL     1     -10.502   7.039  70.268  1.00  0.00    -0.227 A  
HETATM   23  C   UNL     1     -11.029   6.177  71.262  1.00  0.00    -0.340 A  
HETATM   24  C   UNL     1     -12.132   6.526  72.029  1.00  0.00    -0.358 A  
HETATM   25  C   UNL     1     -12.729   7.761  71.830  1.00  0.00    -0.354 A  
HETATM   26  C   UNL     1     -12.220   8.636  70.864  1.00  0.00    -0.123 A  
HETATM   27  C   UNL     1     -11.109   8.306  70.057  1.00  0.00    -0.147 A  
BRANCH  27  28
HETATM   28  N   UNL     1     -10.709   9.199  69.040  1.00  0.00    -0.349 NA 
HETATM   29  H   UNL     1     -11.130   8.990  68.134  1.00  0.00     0.000 HD 
BRANCH  28  30
HETATM   30  C   UNL     1      -9.843  10.331  69.009  1.00  0.00    -0.207 A  
HETATM   31  C   UNL     1     -10.372  11.611  69.303  1.00  0.00     0.034 A  
HETATM   32  C   UNL     1     -11.624  11.763  69.920  1.00  0.00    -0.351 A  
HETATM   33  C   UNL     1     -12.200  13.018  70.083  1.00  0.00    -0.342 A  
HETATM   34  C   UNL     1     -11.550  14.153  69.604  1.00  0.00    -0.349 A  
HETATM   35  C   UNL     1     -10.240  14.011  69.100  1.00  0.00    -0.025 A  
HETATM   36  C   UNL     1     -12.283  15.475  69.599  1.00  0.00    -0.270 C  
HETATM   37  C   UNL     1      -9.621  12.765  68.981  1.00  0.00     0.399 A  
HETATM   38  F   UNL     1     -13.562  15.372  70.070  1.00  0.00     0.028 F  
HETATM   39  F   UNL     1     -11.690  16.435  70.357  1.00  0.00    -0.326 F  
HETATM   40  F   UNL     1     -12.405  15.997  68.347  1.00  0.00    -0.140 F  
HETATM   41  N   UNL     1      -8.358  12.673  68.537  1.00  0.00    -0.109 NA 
HETATM   42  C   UNL     1      -7.818  11.435  68.400  1.00  0.00    -0.135 A  
HETATM   43  C   UNL     1      -8.519  10.249  68.599  1.00  0.00    -0.127 A  
ENDBRANCH  28  30
ENDBRANCH  27  28
ENDBRANCH  20  22
ENDBRANCH  19  20
ENDBRANCH  18  19
ENDBRANCH  17  18
ENDBRANCH  14  17
ENDBRANCH   7  11
TORSDOF 8
ENDMDL
MODEL      180
REMARK 921   NORMALIZED FREE ENERGY PREDICTED BY IDOCK:   -4.91 KCAL/MOL
REMARK 922        TOTAL FREE ENERGY PREDICTED BY IDOCK:  -10.60 KCAL/MOL
REMARK 923 INTER-LIGAND FREE ENERGY PREDICTED BY IDOCK:   -9.10 KCAL/MOL
REMARK 924 INTRA-LIGAND FREE ENERGY PREDICTED BY IDOCK:   -1.50 KCAL/MOL
REMARK 927      BINDING AFFINITY PREDICTED BY RF-SCORE:    0.00 PKD
ROOT
HETATM    1  F   UNL     1      -5.472  18.831  67.602  1.00  0.00    -0.162 F  
HETATM    2  C   UNL     1      -6.146  19.956  67.233  1.00  0.00    -0.183 C  
HETATM    3  C   UNL     1      -7.625  19.746  67.025  1.00  0.00    -0.290 A  
HETATM    4  F   UNL     1      -5.877  20.886  68.192  1.00  0.00    -0.271 F  
HETATM    5  F   UNL     1      -5.528  20.403  66.103  1.00  0.00    -0.182 F  
HETATM    6  C   UNL     1      -8.219  18.478  67.199  1.00  0.00    -0.256 A  
HETATM    7  C   UNL     1      -9.571  18.271  66.902  1.00  0.00    -0.296 A  
HETATM    8  C   UNL     1      -8.414  20.826  66.603  1.00  0.00     0.061 A  
HETATM    9  C   UNL     1     -10.330  19.384  66.500  1.00  0.00    -0.564 A  
HETATM   10  C   UNL     1      -9.767  20.648  66.351  1.00  0.00    -0.125 A  
ENDROOT
BRANCH   7  11
HETATM   11  N   UNL     1     -10.203  17.024  66.930  1.00  0.00    -0.299 NA 
HETATM   12  C   UNL     1     -11.639  15.239  67.875  1.00  0.00    -0.289 C  
HETATM   13  C   UNL     1     -10.803  16.516  68.180  1.00  0.00    -0.345 C  
HETATM   14  N   UNL     1     -10.908  14.147  67.174  1.00  0.00    -0.287 NA 
HETATM   15  C   UNL     1      -9.441  15.993  66.186  1.00  0.00    -0.336 C  
HETATM   16  C   UNL     1     -10.327  14.749  65.942  1.00  0.00    -0.320 C  
BRANCH  14  17
HETATM   17  C   UNL     1      -9.843  13.530  67.999  1.00  0.00    -0.238 C  
BRANCH  17  18
HETATM   18  C   UNL     1      -9.594  12.023  67.751  1.00  0.00    -0.193 C  
BRANCH  18  19
HETATM   19  O   UNL     1      -9.916  11.214  68.922  1.00  0.00    -0.201 OA 
BRANCH  19  20
HETATM   20  C   UNL     1     -11.215  10.826  68.949  1.00  0.00    -0.268 C  
HETATM   21  O   UNL     1     -11.966  10.944  67.978  1.00  0.00    -0.586 OA 
BRANCH  20  22
HETATM   22  C   UNL     1     -11.706  10.196  70.221  1.00  0.00    -0.361 A  
HETATM   23  C   UNL     1     -12.974  10.694  70.613  1.00  0.00    -0.343 A  
HETATM   24  C   UNL     1     -13.605  10.269  71.775  1.00  0.00    -0.281 A  
HETATM   25  C   UNL     1     -12.986   9.316  72.569  1.00  0.00    -0.384 A  
HETATM   26  C   UNL     1     -11.740   8.798  72.198  1.00  0.00    -0.433 A  
HETATM   27  C   UNL     1     -11.064   9.220  71.032  1.00  0.00    -0.326 A  
BRANCH  27  28
HETATM   28  N   UNL     1      -9.770   8.723  70.770  1.00  0.00    -0.192 NA 
HETATM   29  H   UNL     1      -9.529   8.735  69.778  1.00  0.00     0.000 HD 
BRANCH  28  30
HETATM   30  C   UNL     1      -8.728   8.208  71.595  1.00  0.00    -0.145 A  
HETATM   31  C   UNL     1      -8.667   6.814  71.838  1.00  0.00    -0.123 A  
HETATM   32  C   UNL     1      -9.394   5.902  71.056  1.00  0.00    -0.178 A  
HETATM   33  C   UNL     1      -9.440   4.551  71.381  1.00  0.00    -0.219 A  
HETATM   34  C   UNL     1      -8.784   4.082  72.518  1.00  0.00    -0.112 A  
HETATM   35  C   UNL     1      -7.954   4.976  73.227  1.00  0.00    -0.104 A  
HETATM   36  C   UNL     1      -9.020   2.659  72.970  1.00  0.00    -0.081 C  
HETATM   37  C   UNL     1      -7.849   6.325  72.882  1.00  0.00    -0.104 A  
HETATM   38  F   UNL     1      -9.909   1.993  72.175  1.00  0.00    -0.155 F  
HETATM   39  F   UNL     1      -7.896   1.895  72.984  1.00  0.00    -0.040 F  
HETATM   40  F   UNL     1      -9.544   2.593  74.226  1.00  0.00    -0.096 F  
HETATM   41  N   UNL     1      -7.016   7.135  73.553  1.00  0.00    -0.069 NA 
HETATM   42  C   UNL     1      -6.984   8.447  73.206  1.00  0.00    -0.075 A  
HETATM   43  C   UNL     1      -7.827   9.027  72.261  1.00  0.00     0.348 A  
ENDBRANCH  28  30
ENDBRANCH  27  28
ENDBRANCH  20  22
ENDBRANCH  19  20
ENDBRANCH  18  19
ENDBRANCH  17  18
ENDBRANCH  14  17
ENDBRANCH   7  11
TORSDOF 8
ENDMDL
MODEL      181
REMARK 921   NORMALIZED FREE ENERGY PREDICTED BY IDOCK:   -4.90 KCAL/MOL
REMARK 922        TOTAL FREE ENERGY PREDICTED BY IDOCK:  -10.59 KCAL/MOL
REMARK 923 INTER-LIGAND FREE ENERGY PREDICTED BY IDOCK:   -9.20 KCAL/MOL
REMARK 924 INTRA-LIGAND FREE ENERGY PREDICTED BY IDOCK:   -1.39 KCAL/MOL
REMARK 927      BINDING AFFINITY PREDICTED BY RF-SCORE:    0.00 PKD
ROOT
HETATM    1  F   UNL     1     -12.737   6.841  70.673  1.00  0.00    -0.408 F  
HETATM    2  C   UNL     1     -12.272   6.839  71.953  1.00  0.00    -0.335 C  
HETATM    3  C   UNL     1     -10.891   7.428  72.104  1.00  0.00    -0.273 A  
HETATM    4  F   UNL     1     -13.207   7.497  72.693  1.00  0.00     0.061 F  
HETATM    5  F   UNL     1     -12.323   5.540  72.362  1.00  0.00    -0.273 F  
HETATM    6  C   UNL     1     -10.174   7.918  70.993  1.00  0.00    -0.217 A  
HETATM    7  C   UNL     1      -8.855   8.365  71.128  1.00  0.00    -0.164 A  
HETATM    8  C   UNL     1     -10.292   7.441  73.373  1.00  0.00    -0.411 A  
HETATM    9  C   UNL     1      -8.299   8.379  72.419  1.00  0.00    -0.219 A  
HETATM   10  C   UNL     1      -9.002   7.926  73.533  1.00  0.00    -0.343 A  
ENDROOT
BRANCH   7  11
HETATM   11  N   UNL     1      -8.038   8.749  70.061  1.00  0.00    -0.104 NA 
HETATM   12  C   UNL     1      -6.379  10.161  68.880  1.00  0.00    -0.044 C  
HETATM   13  C   UNL     1      -7.414  10.087  70.039  1.00  0.00    -0.173 C  
HETATM   14  N   UNL     1      -6.903   9.816  67.529  1.00  0.00    -0.081 NA 
HETATM   15  C   UNL     1      -8.602   8.347  68.751  1.00  0.00    -0.135 C  
HETATM   16  C   UNL     1      -7.525   8.468  67.647  1.00  0.00    -0.094 C  
BRANCH  14  17
HETATM   17  C   UNL     1      -7.890  10.796  67.016  1.00  0.00    -0.121 C  
BRANCH  17  18
HETATM   18  C   UNL     1      -8.978  10.220  66.079  1.00  0.00    -0.152 C  
BRANCH  18  19
HETATM   19  O   UNL     1     -10.243  10.007  66.774  1.00  0.00    -0.217 OA 
BRANCH  19  20
HETATM   20  C   UNL     1     -11.038  11.107  66.762  1.00  0.00    -0.214 C  
HETATM   21  O   UNL     1     -11.413  11.647  65.719  1.00  0.00    -0.255 OA 
BRANCH  20  22
HETATM   22  C   UNL     1     -11.485  11.631  68.097  1.00  0.00    -0.382 A  
HETATM   23  C   UNL     1     -11.343  10.669  69.127  1.00  0.00    -0.338 A  
HETATM   24  C   UNL     1     -11.720  10.932  70.438  1.00  0.00    -0.444 A  
HETATM   25  C   UNL     1     -12.238  12.179  70.753  1.00  0.00    -0.367 A  
HETATM   26  C   UNL     1     -12.376  13.151  69.758  1.00  0.00    -0.164 A  
HETATM   27  C   UNL     1     -12.017  12.911  68.413  1.00  0.00    -0.248 A  
BRANCH  27  28
HETATM   28  N   UNL     1     -12.271  13.907  67.446  1.00  0.00    -0.491 NA 
HETATM   29  H   UNL     1     -13.261  14.135  67.356  1.00  0.00     0.000 HD 
BRANCH  28  30
HETATM   30  C   UNL     1     -11.439  14.661  66.567  1.00  0.00    -0.351 A  
HETATM   31  C   UNL     1     -10.085  14.880  66.919  1.00  0.00    -0.242 A  
HETATM   32  C   UNL     1      -9.460  14.129  67.928  1.00  0.00    -0.211 A  
HETATM   33  C   UNL     1      -8.176  14.437  68.365  1.00  0.00    -0.145 A  
HETATM   34  C   UNL     1      -7.495  15.526  67.823  1.00  0.00    -0.168 A  
HETATM   35  C   UNL     1      -8.074  16.197  66.726  1.00  0.00    -0.305 A  
HETATM   36  C   UNL     1      -6.197  15.971  68.455  1.00  0.00    -0.111 C  
HETATM   37  C   UNL     1      -9.339  15.866  66.234  1.00  0.00    -0.322 A  
HETATM   38  F   UNL     1      -5.855  15.220  69.545  1.00  0.00    -0.097 F  
HETATM   39  F   UNL     1      -5.128  15.907  67.617  1.00  0.00    -0.111 F  
HETATM   40  F   UNL     1      -6.252  17.254  68.909  1.00  0.00    -0.155 F  
HETATM   41  N   UNL     1      -9.838  16.499  65.162  1.00  0.00    -0.220 NA 
HETATM   42  C   UNL     1     -11.089  16.169  64.751  1.00  0.00    -0.333 A  
HETATM   43  C   UNL     1     -11.927  15.284  65.426  1.00  0.00     0.180 A  
ENDBRANCH  28  30
ENDBRANCH  27  28
ENDBRANCH  20  22
ENDBRANCH  19  20
ENDBRANCH  18  19
ENDBRANCH  17  18
ENDBRANCH  14  17
ENDBRANCH   7  11
TORSDOF 8
ENDMDL
MODEL      182
REMARK 921   NORMALIZED FREE ENERGY PREDICTED BY IDOCK:   -4.88 KCAL/MOL
REMARK 922        TOTAL FREE ENERGY PREDICTED BY IDOCK:  -10.56 KCAL/MOL
REMARK 923 INTER-LIGAND FREE ENERGY PREDICTED BY IDOCK:   -8.32 KCAL/MOL
REMARK 924 INTRA-LIGAND FREE ENERGY PREDICTED BY IDOCK:   -2.24 KCAL/MOL
REMARK 927      BINDING AFFINITY PREDICTED BY RF-SCORE:    0.00 PKD
ROOT
HETATM    1  F   UNL     1      -7.018  14.109  68.641  1.00  0.00    -0.085 F  
HETATM    2  C   UNL     1      -7.285  15.367  69.091  1.00  0.00    -0.171 C  
HETATM    3  C   UNL     1      -8.567  15.952  68.553  1.00  0.00    -0.190 A  
HETATM    4  F   UNL     1      -7.273  15.288  70.451  1.00  0.00    -0.056 F  
HETATM    5  F   UNL     1      -6.198  16.118  68.755  1.00  0.00    -0.109 F  
HETATM    6  C   UNL     1      -9.386  15.232  67.658  1.00  0.00    -0.199 A  
HETATM    7  C   UNL     1     -10.517  15.822  67.084  1.00  0.00    -0.309 A  
HETATM    8  C   UNL     1      -8.924  17.259  68.916  1.00  0.00    -0.173 A  
HETATM    9  C   UNL     1     -10.850  17.127  67.489  1.00  0.00    -0.203 A  
HETATM   10  C   UNL     1     -10.070  17.842  68.394  1.00  0.00    -0.385 A  
ENDROOT
BRANCH   7  11
HETATM   11  N   UNL     1     -11.308  15.222  66.099  1.00  0.00    -0.231 NA 
HETATM   12  C   UNL     1     -13.267  13.990  65.216  1.00  0.00     0.062 C  
HETATM   13  C   UNL     1     -12.414  14.319  66.475  1.00  0.00    -0.207 C  
HETATM   14  N   UNL     1     -12.515  13.429  64.059  1.00  0.00    -0.674 NA 
HETATM   15  C   UNL     1     -10.500  14.717  64.964  1.00  0.00    -0.416 C  
HETATM   16  C   UNL     1     -11.417  14.391  63.762  1.00  0.00     0.480 C  
BRANCH  14  17
HETATM   17  C   UNL     1     -11.963  12.079  64.318  1.00  0.00    -0.335 C  
BRANCH  17  18
HETATM   18  C   UNL     1     -10.563  11.804  63.719  1.00  0.00    -0.415 C  
BRANCH  18  19
HETATM   19  O   UNL     1     -10.024  10.519  64.153  1.00  0.00    -0.322 OA 
BRANCH  19  20
HETATM   20  C   UNL     1      -9.126  10.643  65.163  1.00  0.00    -0.201 C  
HETATM   21  O   UNL     1      -8.982  11.687  65.802  1.00  0.00    -0.170 OA 
BRANCH  20  22
HETATM   22  C   UNL     1      -8.323   9.420  65.506  1.00  0.00    -0.139 A  
HETATM   23  C   UNL     1      -7.063   9.406  64.857  1.00  0.00    -0.105 A  
HETATM   24  C   UNL     1      -6.167   8.356  65.012  1.00  0.00    -0.052 A  
HETATM   25  C   UNL     1      -6.507   7.295  65.837  1.00  0.00    -0.045 A  
HETATM   26  C   UNL     1      -7.739   7.291  66.499  1.00  0.00    -0.093 A  
HETATM   27  C   UNL     1      -8.679   8.336  66.352  1.00  0.00    -0.142 A  
BRANCH  27  28
HETATM   28  N   UNL     1      -9.939   8.219  66.977  1.00  0.00    -0.227 NA 
HETATM   29  H   UNL     1     -10.707   8.105  66.314  1.00  0.00     0.000 HD 
BRANCH  28  30
HETATM   30  C   UNL     1     -10.368   8.227  68.336  1.00  0.00    -0.199 A  
HETATM   31  C   UNL     1     -10.976   9.393  68.860  1.00  0.00    -0.081 A  
HETATM   32  C   UNL     1     -11.451  10.413  68.019  1.00  0.00    -0.161 A  
HETATM   33  C   UNL     1     -11.922  11.613  68.537  1.00  0.00    -0.284 A  
HETATM   34  C   UNL     1     -11.903  11.837  69.913  1.00  0.00    -0.423 A  
HETATM   35  C   UNL     1     -11.545  10.767  70.759  1.00  0.00    -0.322 A  
HETATM   36  C   UNL     1     -12.218  13.219  70.439  1.00  0.00    -0.332 C  
HETATM   37  C   UNL     1     -11.124   9.533  70.259  1.00  0.00    -0.271 A  
HETATM   38  F   UNL     1     -12.472  14.118  69.442  1.00  0.00    -0.368 F  
HETATM   39  F   UNL     1     -13.303  13.261  71.256  1.00  0.00    -0.365 F  
HETATM   40  F   UNL     1     -11.184  13.754  71.147  1.00  0.00     0.218 F  
HETATM   41  N   UNL     1     -10.833   8.524  71.095  1.00  0.00    -0.232 NA 
HETATM   42  C   UNL     1     -10.386   7.360  70.560  1.00  0.00    -0.214 A  
HETATM   43  C   UNL     1     -10.118   7.173  69.206  1.00  0.00    -0.178 A  
ENDBRANCH  28  30
ENDBRANCH  27  28
ENDBRANCH  20  22
ENDBRANCH  19  20
ENDBRANCH  18  19
ENDBRANCH  17  18
ENDBRANCH  14  17
ENDBRANCH   7  11
TORSDOF 8
ENDMDL
MODEL      183
REMARK 921   NORMALIZED FREE ENERGY PREDICTED BY IDOCK:   -4.88 KCAL/MOL
REMARK 922        TOTAL FREE ENERGY PREDICTED BY IDOCK:  -10.56 KCAL/MOL
REMARK 923 INTER-LIGAND FREE ENERGY PREDICTED BY IDOCK:   -8.57 KCAL/MOL
REMARK 924 INTRA-LIGAND FREE ENERGY PREDICTED BY IDOCK:   -1.99 KCAL/MOL
REMARK 927      BINDING AFFINITY PREDICTED BY RF-SCORE:    0.00 PKD
ROOT
HETATM    1  F   UNL     1      -9.883   5.715  66.691  1.00  0.00    -0.141 F  
HETATM    2  C   UNL     1      -9.479   4.653  67.443  1.00  0.00    -0.153 C  
HETATM    3  C   UNL     1      -9.868   4.747  68.897  1.00  0.00    -0.230 A  
HETATM    4  F   UNL     1      -9.989   3.546  66.833  1.00  0.00    -0.198 F  
HETATM    5  F   UNL     1      -8.128   4.576  67.278  1.00  0.00    -0.098 F  
HETATM    6  C   UNL     1     -10.580   5.857  69.398  1.00  0.00    -0.379 A  
HETATM    7  C   UNL     1     -10.844   5.984  70.766  1.00  0.00    -0.292 A  
HETATM    8  C   UNL     1      -9.469   3.729  69.776  1.00  0.00    -0.256 A  
HETATM    9  C   UNL     1     -10.444   4.933  71.610  1.00  0.00    -0.196 A  
HETATM   10  C   UNL     1      -9.766   3.816  71.129  1.00  0.00    -0.245 A  
ENDROOT
BRANCH   7  11
HETATM   11  N   UNL     1     -11.433   7.107  71.356  1.00  0.00    -0.261 NA 
HETATM   12  C   UNL     1     -13.288   8.455  72.295  1.00  0.00    -0.266 C  
HETATM   13  C   UNL     1     -12.901   7.257  71.379  1.00  0.00    -0.382 C  
HETATM   14  N   UNL     1     -12.643   9.755  71.958  1.00  0.00    -0.371 NA 
HETATM   15  C   UNL     1     -10.722   8.359  71.007  1.00  0.00    -0.223 C  
HETATM   16  C   UNL     1     -11.174   9.506  71.942  1.00  0.00    -0.030 C  
BRANCH  14  17
HETATM   17  C   UNL     1     -13.087  10.310  70.658  1.00  0.00    -0.226 C  
BRANCH  17  18
HETATM   18  C   UNL     1     -12.780  11.809  70.432  1.00  0.00     0.007 C  
BRANCH  18  19
HETATM   19  O   UNL     1     -11.512  12.011  69.738  1.00  0.00    -0.271 OA 
BRANCH  19  20
HETATM   20  C   UNL     1     -11.624  11.876  68.393  1.00  0.00    -0.317 C  
HETATM   21  O   UNL     1     -12.083  10.863  67.862  1.00  0.00    -0.527 OA 
BRANCH  20  22
HETATM   22  C   UNL     1     -11.195  13.049  67.558  1.00  0.00    -0.320 A  
HETATM   23  C   UNL     1     -12.122  13.343  66.528  1.00  0.00    -0.444 A  
HETATM   24  C   UNL     1     -11.913  14.373  65.620  1.00  0.00    -0.356 A  
HETATM   25  C   UNL     1     -10.769  15.148  65.733  1.00  0.00    -0.359 A  
HETATM   26  C   UNL     1      -9.844  14.887  66.749  1.00  0.00    -0.254 A  
HETATM   27  C   UNL     1     -10.019  13.838  67.678  1.00  0.00    -0.238 A  
BRANCH  27  28
HETATM   28  N   UNL     1      -9.000  13.575  68.617  1.00  0.00    -0.367 NA 
HETATM   29  H   UNL     1      -9.277  13.779  69.578  1.00  0.00     0.000 HD 
BRANCH  28  30
HETATM   30  C   UNL     1      -7.665  13.085  68.510  1.00  0.00    -0.111 A  
HETATM   31  C   UNL     1      -7.428  11.884  67.800  1.00  0.00    -0.121 A  
HETATM   32  C   UNL     1      -8.397  11.334  66.944  1.00  0.00    -0.155 A  
HETATM   33  C   UNL     1      -8.214  10.088  66.355  1.00  0.00    -0.119 A  
HETATM   34  C   UNL     1      -7.069   9.344  66.632  1.00  0.00    -0.085 A  
HETATM   35  C   UNL     1      -6.045   9.951  67.389  1.00  0.00    -0.058 A  
HETATM   36  C   UNL     1      -6.988   7.912  66.156  1.00  0.00    -0.062 C  
HETATM   37  C   UNL     1      -6.184  11.226  67.941  1.00  0.00    -0.050 A  
HETATM   38  F   UNL     1      -8.118   7.509  65.500  1.00  0.00    -0.101 F  
HETATM   39  F   UNL     1      -5.962   7.677  65.296  1.00  0.00    -0.036 F  
HETATM   40  F   UNL     1      -6.837   7.030  67.183  1.00  0.00    -0.056 F  
HETATM   41  N   UNL     1      -5.171  11.787  68.619  1.00  0.00    -0.046 NA 
HETATM   42  C   UNL     1      -5.374  13.010  69.173  1.00  0.00    -0.070 A  
HETATM   43  C   UNL     1      -6.595  13.679  69.165  1.00  0.00    -0.109 A  
ENDBRANCH  28  30
ENDBRANCH  27  28
ENDBRANCH  20  22
ENDBRANCH  19  20
ENDBRANCH  18  19
ENDBRANCH  17  18
ENDBRANCH  14  17
ENDBRANCH   7  11
TORSDOF 8
ENDMDL
MODEL      184
REMARK 921   NORMALIZED FREE ENERGY PREDICTED BY IDOCK:   -4.85 KCAL/MOL
REMARK 922        TOTAL FREE ENERGY PREDICTED BY IDOCK:  -10.51 KCAL/MOL
REMARK 923 INTER-LIGAND FREE ENERGY PREDICTED BY IDOCK:   -8.93 KCAL/MOL
REMARK 924 INTRA-LIGAND FREE ENERGY PREDICTED BY IDOCK:   -1.58 KCAL/MOL
REMARK 927      BINDING AFFINITY PREDICTED BY RF-SCORE:    0.00 PKD
ROOT
HETATM    1  F   UNL     1     -12.591  16.490  72.229  1.00  0.00    -0.426 F  
HETATM    2  C   UNL     1     -13.064  15.326  72.756  1.00  0.00    -0.461 C  
HETATM    3  C   UNL     1     -12.766  14.108  71.919  1.00  0.00    -0.406 A  
HETATM    4  F   UNL     1     -12.541  15.243  74.011  1.00  0.00    -0.548 F  
HETATM    5  F   UNL     1     -14.403  15.516  72.926  1.00  0.00    -0.523 F  
HETATM    6  C   UNL     1     -12.064  14.207  70.699  1.00  0.00    -0.421 A  
HETATM    7  C   UNL     1     -11.884  13.087  69.880  1.00  0.00    -0.307 A  
HETATM    8  C   UNL     1     -13.241  12.858  72.342  1.00  0.00    -0.447 A  
HETATM    9  C   UNL     1     -12.359  11.850  70.350  1.00  0.00    -0.334 A  
HETATM   10  C   UNL     1     -13.028  11.728  71.564  1.00  0.00    -0.446 A  
ENDROOT
BRANCH   7  11
HETATM   11  N   UNL     1     -11.310  13.125  68.605  1.00  0.00    -0.269 NA 
HETATM   12  C   UNL     1     -11.311  13.170  66.128  1.00  0.00    -0.312 C  
HETATM   13  C   UNL     1     -12.122  12.821  67.410  1.00  0.00    -0.158 C  
HETATM   14  N   UNL     1      -9.973  12.523  66.019  1.00  0.00    -0.254 NA 
HETATM   15  C   UNL     1      -9.969  12.495  68.576  1.00  0.00    -0.165 C  
HETATM   16  C   UNL     1      -9.235  12.867  67.266  1.00  0.00    -0.208 C  
BRANCH  14  17
HETATM   17  C   UNL     1     -10.045  11.053  65.850  1.00  0.00    -0.249 C  
BRANCH  17  18
HETATM   18  C   UNL     1      -9.030  10.444  64.854  1.00  0.00    -0.199 C  
BRANCH  18  19
HETATM   19  O   UNL     1      -7.685  10.373  65.416  1.00  0.00    -0.144 OA 
BRANCH  19  20
HETATM   20  C   UNL     1      -7.572   9.433  66.387  1.00  0.00    -0.097 C  
HETATM   21  O   UNL     1      -7.750   8.232  66.175  1.00  0.00    -0.092 OA 
BRANCH  20  22
HETATM   22  C   UNL     1      -7.176   9.917  67.753  1.00  0.00    -0.088 A  
HETATM   23  C   UNL     1      -5.892  10.516  67.759  1.00  0.00    -0.044 A  
HETATM   24  C   UNL     1      -5.316  11.011  68.922  1.00  0.00    -0.040 A  
HETATM   25  C   UNL     1      -6.023  10.931  70.112  1.00  0.00    -0.120 A  
HETATM   26  C   UNL     1      -7.298  10.356  70.131  1.00  0.00    -0.049 A  
HETATM   27  C   UNL     1      -7.906   9.830  68.969  1.00  0.00    -0.087 A  
BRANCH  27  28
HETATM   28  N   UNL     1      -9.155   9.182  69.081  1.00  0.00    -0.142 NA 
HETATM   29  H   UNL     1      -9.810   9.676  69.687  1.00  0.00     0.000 HD 
BRANCH  28  30
HETATM   30  C   UNL     1      -9.695   7.984  68.528  1.00  0.00    -0.159 A  
HETATM   31  C   UNL     1      -9.251   6.735  69.024  1.00  0.00    -0.136 A  
HETATM   32  C   UNL     1      -8.546   6.636  70.235  1.00  0.00    -0.140 A  
HETATM   33  C   UNL     1      -7.994   5.429  70.650  1.00  0.00    -0.105 A  
HETATM   34  C   UNL     1      -8.108   4.295  69.849  1.00  0.00    -0.061 A  
HETATM   35  C   UNL     1      -8.922   4.368  68.699  1.00  0.00    -0.153 A  
HETATM   36  C   UNL     1      -7.324   3.054  70.213  1.00  0.00    -0.040 C  
HETATM   37  C   UNL     1      -9.533   5.557  68.295  1.00  0.00    -0.115 A  
HETATM   38  F   UNL     1      -6.551   3.226  71.326  1.00  0.00    -0.026 F  
HETATM   39  F   UNL     1      -8.102   1.970  70.470  1.00  0.00    -0.042 F  
HETATM   40  F   UNL     1      -6.458   2.680  69.231  1.00  0.00    -0.027 F  
HETATM   41  N   UNL     1     -10.335   5.577  67.220  1.00  0.00    -0.221 NA 
HETATM   42  C   UNL     1     -10.870   6.767  66.845  1.00  0.00    -0.331 A  
HETATM   43  C   UNL     1     -10.565   7.986  67.445  1.00  0.00    -0.337 A  
ENDBRANCH  28  30
ENDBRANCH  27  28
ENDBRANCH  20  22
ENDBRANCH  19  20
ENDBRANCH  18  19
ENDBRANCH  17  18
ENDBRANCH  14  17
ENDBRANCH   7  11
TORSDOF 8
ENDMDL
MODEL      185
REMARK 921   NORMALIZED FREE ENERGY PREDICTED BY IDOCK:   -4.81 KCAL/MOL
REMARK 922        TOTAL FREE ENERGY PREDICTED BY IDOCK:  -10.47 KCAL/MOL
REMARK 923 INTER-LIGAND FREE ENERGY PREDICTED BY IDOCK:   -9.07 KCAL/MOL
REMARK 924 INTRA-LIGAND FREE ENERGY PREDICTED BY IDOCK:   -1.40 KCAL/MOL
REMARK 927      BINDING AFFINITY PREDICTED BY RF-SCORE:    0.00 PKD
ROOT
HETATM    1  F   UNL     1     -12.957   9.615  70.807  1.00  0.00    -0.330 F  
HETATM    2  C   UNL     1     -12.755   8.813  71.889  1.00  0.00    -0.374 C  
HETATM    3  C   UNL     1     -11.305   8.490  72.152  1.00  0.00    -0.442 A  
HETATM    4  F   UNL     1     -13.351   9.443  72.939  1.00  0.00    -0.440 F  
HETATM    5  F   UNL     1     -13.496   7.692  71.661  1.00  0.00    -0.350 F  
HETATM    6  C   UNL     1     -10.279   8.987  71.322  1.00  0.00    -0.384 A  
HETATM    7  C   UNL     1      -8.948   8.597  71.511  1.00  0.00    -0.234 A  
HETATM    8  C   UNL     1     -10.979   7.637  73.217  1.00  0.00    -0.331 A  
HETATM    9  C   UNL     1      -8.662   7.757  72.601  1.00  0.00    -0.198 A  
HETATM   10  C   UNL     1      -9.658   7.280  73.449  1.00  0.00    -0.272 A  
ENDROOT
BRANCH   7  11
HETATM   11  N   UNL     1      -7.894   8.946  70.661  1.00  0.00    -0.099 NA 
HETATM   12  C   UNL     1      -5.528   9.345  70.042  1.00  0.00    -0.031 C  
HETATM   13  C   UNL     1      -6.551   9.224  71.208  1.00  0.00    -0.056 C  
HETATM   14  N   UNL     1      -5.871  10.342  68.989  1.00  0.00    -0.037 NA 
HETATM   15  C   UNL     1      -8.312   9.913  69.619  1.00  0.00    -0.172 C  
HETATM   16  C   UNL     1      -7.238   9.996  68.509  1.00  0.00    -0.076 C  
BRANCH  14  17
HETATM   17  C   UNL     1      -5.832  11.742  69.472  1.00  0.00    -0.083 C  
BRANCH  17  18
HETATM   18  C   UNL     1      -7.198  12.462  69.544  1.00  0.00     0.345 C  
BRANCH  18  19
HETATM   19  O   UNL     1      -7.275  13.588  68.619  1.00  0.00    -0.100 OA 
BRANCH  19  20
HETATM   20  C   UNL     1      -7.623  14.746  69.232  1.00  0.00    -0.144 C  
HETATM   21  O   UNL     1      -7.068  15.151  70.256  1.00  0.00    -0.048 OA 
BRANCH  20  22
HETATM   22  C   UNL     1      -8.709  15.556  68.581  1.00  0.00    -0.188 A  
HETATM   23  C   UNL     1      -8.535  16.948  68.782  1.00  0.00    -0.244 A  
HETATM   24  C   UNL     1      -9.436  17.881  68.288  1.00  0.00    -0.300 A  
HETATM   25  C   UNL     1     -10.533  17.442  67.563  1.00  0.00    -0.354 A  
HETATM   26  C   UNL     1     -10.721  16.074  67.339  1.00  0.00    -0.306 A  
HETATM   27  C   UNL     1      -9.832  15.098  67.840  1.00  0.00    -0.216 A  
BRANCH  27  28
HETATM   28  N   UNL     1     -10.135  13.732  67.655  1.00  0.00    -0.239 NA 
HETATM   29  H   UNL     1     -10.374  13.252  68.523  1.00  0.00     0.000 HD 
BRANCH  28  30
HETATM   30  C   UNL     1     -10.179  12.880  66.513  1.00  0.00    -0.259 A  
HETATM   31  C   UNL     1     -10.361  11.488  66.698  1.00  0.00    -0.262 A  
HETATM   32  C   UNL     1     -10.807  10.965  67.922  1.00  0.00    -0.295 A  
HETATM   33  C   UNL     1     -10.855   9.593  68.145  1.00  0.00    -0.241 A  
HETATM   34  C   UNL     1     -10.426   8.709  67.156  1.00  0.00    -0.360 A  
HETATM   35  C   UNL     1     -10.099   9.232  65.888  1.00  0.00    -0.188 A  
HETATM   36  C   UNL     1     -10.285   7.241  67.492  1.00  0.00    -0.221 C  
HETATM   37  C   UNL     1     -10.101  10.604  65.626  1.00  0.00    -0.272 A  
HETATM   38  F   UNL     1     -10.592   6.966  68.795  1.00  0.00    -0.184 F  
HETATM   39  F   UNL     1     -11.082   6.430  66.748  1.00  0.00    -0.401 F  
HETATM   40  F   UNL     1      -9.011   6.789  67.322  1.00  0.00    -0.116 F  
HETATM   41  N   UNL     1      -9.826  11.061  64.395  1.00  0.00    -0.272 NA 
HETATM   42  C   UNL     1      -9.799  12.405  64.205  1.00  0.00    -0.102 A  
HETATM   43  C   UNL     1      -9.944  13.343  65.224  1.00  0.00    -0.195 A  
ENDBRANCH  28  30
ENDBRANCH  27  28
ENDBRANCH  20  22
ENDBRANCH  19  20
ENDBRANCH  18  19
ENDBRANCH  17  18
ENDBRANCH  14  17
ENDBRANCH   7  11
TORSDOF 8
ENDMDL
MODEL      186
REMARK 921   NORMALIZED FREE ENERGY PREDICTED BY IDOCK:   -4.81 KCAL/MOL
REMARK 922        TOTAL FREE ENERGY PREDICTED BY IDOCK:  -10.46 KCAL/MOL
REMARK 923 INTER-LIGAND FREE ENERGY PREDICTED BY IDOCK:   -9.23 KCAL/MOL
REMARK 924 INTRA-LIGAND FREE ENERGY PREDICTED BY IDOCK:   -1.23 KCAL/MOL
REMARK 927      BINDING AFFINITY PREDICTED BY RF-SCORE:    0.00 PKD
ROOT
HETATM    1  F   UNL     1      -7.063   1.492  65.543  1.00  0.00    -0.041 F  
HETATM    2  C   UNL     1      -7.000   2.436  64.563  1.00  0.00    -0.048 C  
HETATM    3  C   UNL     1      -7.535   3.785  64.974  1.00  0.00    -0.073 A  
HETATM    4  F   UNL     1      -5.695   2.485  64.173  1.00  0.00    -0.008 F  
HETATM    5  F   UNL     1      -7.682   1.915  63.504  1.00  0.00    -0.054 F  
HETATM    6  C   UNL     1      -8.056   4.007  66.266  1.00  0.00    -0.098 A  
HETATM    7  C   UNL     1      -8.645   5.230  66.604  1.00  0.00    -0.110 A  
HETATM    8  C   UNL     1      -7.559   4.824  64.032  1.00  0.00    -0.068 A  
HETATM    9  C   UNL     1      -8.631   6.251  65.637  1.00  0.00    -0.143 A  
HETATM   10  C   UNL     1      -8.096   6.060  64.366  1.00  0.00    -0.119 A  
ENDROOT
BRANCH   7  11
HETATM   11  N   UNL     1      -9.291   5.488  67.817  1.00  0.00    -0.111 NA 
HETATM   12  C   UNL     1     -11.152   6.239  69.270  1.00  0.00    -0.393 C  
HETATM   13  C   UNL     1     -10.515   6.314  67.852  1.00  0.00    -0.230 C  
HETATM   14  N   UNL     1     -10.251   6.605  70.399  1.00  0.00    -0.187 NA 
HETATM   15  C   UNL     1      -8.335   5.812  68.902  1.00  0.00    -0.101 C  
HETATM   16  C   UNL     1      -9.045   5.740  70.275  1.00  0.00    -0.145 C  
BRANCH  14  17
HETATM   17  C   UNL     1      -9.863   8.035  70.399  1.00  0.00    -0.183 C  
BRANCH  17  18
HETATM   18  C   UNL     1     -10.901   9.009  69.794  1.00  0.00    -0.205 C  
BRANCH  18  19
HETATM   19  O   UNL     1     -10.306  10.292  69.433  1.00  0.00    -0.208 OA 
BRANCH  19  20
HETATM   20  C   UNL     1     -11.000  10.936  68.461  1.00  0.00    -0.230 C  
HETATM   21  O   UNL     1     -11.993  11.627  68.698  1.00  0.00    -0.396 OA 
BRANCH  20  22
HETATM   22  C   UNL     1     -10.478  10.804  67.058  1.00  0.00    -0.297 A  
HETATM   23  C   UNL     1      -9.666   9.655  66.893  1.00  0.00    -0.240 A  
HETATM   24  C   UNL     1      -9.058   9.351  65.682  1.00  0.00    -0.258 A  
HETATM   25  C   UNL     1      -9.263  10.187  64.596  1.00  0.00    -0.300 A  
HETATM   26  C   UNL     1     -10.071  11.321  64.729  1.00  0.00    -0.338 A  
HETATM   27  C   UNL     1     -10.692  11.667  65.950  1.00  0.00    -0.278 A  
BRANCH  27  28
HETATM   28  N   UNL     1     -11.417  12.875  66.034  1.00  0.00    -0.324 NA 
HETATM   29  H   UNL     1     -12.198  12.829  66.689  1.00  0.00     0.000 HD 
BRANCH  28  30
HETATM   30  C   UNL     1     -11.290  14.145  65.399  1.00  0.00    -0.322 A  
HETATM   31  C   UNL     1     -10.459  15.129  65.987  1.00  0.00    -0.330 A  
HETATM   32  C   UNL     1      -9.525  14.800  66.983  1.00  0.00    -0.241 A  
HETATM   33  C   UNL     1      -8.809  15.785  67.653  1.00  0.00    -0.180 A  
HETATM   34  C   UNL     1      -9.032  17.130  67.365  1.00  0.00    -0.223 A  
HETATM   35  C   UNL     1      -9.875  17.450  66.281  1.00  0.00    -0.291 A  
HETATM   36  C   UNL     1      -8.404  18.186  68.246  1.00  0.00    -0.291 C  
HETATM   37  C   UNL     1     -10.560  16.472  65.557  1.00  0.00    -0.295 A  
HETATM   38  F   UNL     1      -7.681  17.652  69.276  1.00  0.00    -0.206 F  
HETATM   39  F   UNL     1      -7.550  19.013  67.588  1.00  0.00    -0.240 F  
HETATM   40  F   UNL     1      -9.333  18.987  68.839  1.00  0.00    -0.365 F  
HETATM   41  N   UNL     1     -11.319  16.812  64.504  1.00  0.00    -0.993 NA 
HETATM   42  C   UNL     1     -11.997  15.827  63.862  1.00  0.00     0.351 A  
HETATM   43  C   UNL     1     -12.033  14.499  64.281  1.00  0.00    -0.419 A  
ENDBRANCH  28  30
ENDBRANCH  27  28
ENDBRANCH  20  22
ENDBRANCH  19  20
ENDBRANCH  18  19
ENDBRANCH  17  18
ENDBRANCH  14  17
ENDBRANCH   7  11
TORSDOF 8
ENDMDL
MODEL      187
REMARK 921   NORMALIZED FREE ENERGY PREDICTED BY IDOCK:   -4.81 KCAL/MOL
REMARK 922        TOTAL FREE ENERGY PREDICTED BY IDOCK:  -10.46 KCAL/MOL
REMARK 923 INTER-LIGAND FREE ENERGY PREDICTED BY IDOCK:   -9.01 KCAL/MOL
REMARK 924 INTRA-LIGAND FREE ENERGY PREDICTED BY IDOCK:   -1.45 KCAL/MOL
REMARK 927      BINDING AFFINITY PREDICTED BY RF-SCORE:    0.00 PKD
ROOT
HETATM    1  F   UNL     1     -11.559   9.590  70.235  1.00  0.00    -0.269 F  
HETATM    2  C   UNL     1     -12.387  10.014  71.230  1.00  0.00    -0.398 C  
HETATM    3  C   UNL     1     -12.677  11.494  71.199  1.00  0.00    -0.458 A  
HETATM    4  F   UNL     1     -13.514   9.255  71.129  1.00  0.00    -0.364 F  
HETATM    5  F   UNL     1     -11.789   9.633  72.395  1.00  0.00    -0.279 F  
HETATM    6  C   UNL     1     -12.114  12.333  70.215  1.00  0.00    -0.376 A  
HETATM    7  C   UNL     1     -12.304  13.719  70.256  1.00  0.00    -0.337 A  
HETATM    8  C   UNL     1     -13.485  12.051  72.201  1.00  0.00    -0.338 A  
HETATM    9  C   UNL     1     -13.137  14.234  71.265  1.00  0.00    -0.425 A  
HETATM   10  C   UNL     1     -13.724  13.418  72.228  1.00  0.00    -0.705 A  
ENDROOT
BRANCH   7  11
HETATM   11  N   UNL     1     -11.683  14.628  69.394  1.00  0.00    -0.298 NA 
HETATM   12  C   UNL     1     -11.126  15.646  67.205  1.00  0.00    -0.238 C  
HETATM   13  C   UNL     1     -11.655  14.379  67.939  1.00  0.00    -0.345 C  
HETATM   14  N   UNL     1      -9.802  16.149  67.667  1.00  0.00    -0.234 NA 
HETATM   15  C   UNL     1     -10.389  15.112  69.930  1.00  0.00    -0.189 C  
HETATM   16  C   UNL     1      -9.917  16.354  69.138  1.00  0.00    -0.273 C  
BRANCH  14  17
HETATM   17  C   UNL     1      -8.685  15.225  67.361  1.00  0.00    -0.179 C  
BRANCH  17  18
HETATM   18  C   UNL     1      -9.093  13.857  66.764  1.00  0.00    -0.223 C  
BRANCH  18  19
HETATM   19  O   UNL     1      -8.972  12.776  67.736  1.00  0.00    -0.172 OA 
BRANCH  19  20
HETATM   20  C   UNL     1      -7.862  12.021  67.543  1.00  0.00    -0.155 C  
HETATM   21  O   UNL     1      -7.545  11.572  66.439  1.00  0.00    -0.091 OA 
BRANCH  20  22
HETATM   22  C   UNL     1      -6.993  11.778  68.744  1.00  0.00    -0.103 A  
HETATM   23  C   UNL     1      -6.396  12.970  69.224  1.00  0.00    -0.107 A  
HETATM   24  C   UNL     1      -5.532  12.975  70.312  1.00  0.00    -0.132 A  
HETATM   25  C   UNL     1      -5.257  11.781  70.960  1.00  0.00    -0.124 A  
HETATM   26  C   UNL     1      -5.844  10.592  70.514  1.00  0.00    -0.107 A  
HETATM   27  C   UNL     1      -6.713  10.550  69.402  1.00  0.00    -0.076 A  
BRANCH  27  28
HETATM   28  N   UNL     1      -7.194   9.302  68.952  1.00  0.00    -0.072 NA 
HETATM   29  H   UNL     1      -6.919   9.087  67.993  1.00  0.00     0.000 HD 
BRANCH  28  30
HETATM   30  C   UNL     1      -7.983   8.277  69.552  1.00  0.00    -0.112 A  
HETATM   31  C   UNL     1      -8.258   7.099  68.816  1.00  0.00    -0.122 A  
HETATM   32  C   UNL     1      -7.535   6.774  67.657  1.00  0.00    -0.098 A  
HETATM   33  C   UNL     1      -7.896   5.692  66.862  1.00  0.00    -0.101 A  
HETATM   34  C   UNL     1      -9.013   4.925  67.190  1.00  0.00    -0.110 A  
HETATM   35  C   UNL     1      -9.659   5.177  68.418  1.00  0.00    -0.185 A  
HETATM   36  C   UNL     1      -9.512   3.893  66.205  1.00  0.00    -0.188 C  
HETATM   37  C   UNL     1      -9.274   6.223  69.260  1.00  0.00    -0.133 A  
HETATM   38  F   UNL     1      -8.776   3.862  65.054  1.00  0.00    -0.110 F  
HETATM   39  F   UNL     1      -9.493   2.621  66.686  1.00  0.00    -0.148 F  
HETATM   40  F   UNL     1     -10.792   4.132  65.805  1.00  0.00    -0.157 F  
HETATM   41  N   UNL     1      -9.885   6.404  70.441  1.00  0.00    -0.168 NA 
HETATM   42  C   UNL     1      -9.503   7.462  71.201  1.00  0.00    -0.155 A  
HETATM   43  C   UNL     1      -8.585   8.426  70.795  1.00  0.00    -0.159 A  
ENDBRANCH  28  30
ENDBRANCH  27  28
ENDBRANCH  20  22
ENDBRANCH  19  20
ENDBRANCH  18  19
ENDBRANCH  17  18
ENDBRANCH  14  17
ENDBRANCH   7  11
TORSDOF 8
ENDMDL
MODEL      188
REMARK 921   NORMALIZED FREE ENERGY PREDICTED BY IDOCK:   -4.81 KCAL/MOL
REMARK 922        TOTAL FREE ENERGY PREDICTED BY IDOCK:  -10.45 KCAL/MOL
REMARK 923 INTER-LIGAND FREE ENERGY PREDICTED BY IDOCK:   -8.41 KCAL/MOL
REMARK 924 INTRA-LIGAND FREE ENERGY PREDICTED BY IDOCK:   -2.04 KCAL/MOL
REMARK 927      BINDING AFFINITY PREDICTED BY RF-SCORE:    0.00 PKD
ROOT
HETATM    1  F   UNL     1      -8.283  16.311  69.377  1.00  0.00    -0.236 F  
HETATM    2  C   UNL     1      -8.809  16.402  68.124  1.00  0.00    -0.192 C  
HETATM    3  C   UNL     1      -9.341  15.098  67.586  1.00  0.00    -0.189 A  
HETATM    4  F   UNL     1      -9.762  17.373  68.187  1.00  0.00    -0.255 F  
HETATM    5  F   UNL     1      -7.814  16.911  67.342  1.00  0.00    -0.165 F  
HETATM    6  C   UNL     1      -9.274  13.908  68.341  1.00  0.00    -0.194 A  
HETATM    7  C   UNL     1      -9.675  12.684  67.793  1.00  0.00    -0.206 A  
HETATM    8  C   UNL     1      -9.869  15.062  66.286  1.00  0.00    -0.307 A  
HETATM    9  C   UNL     1     -10.216  12.696  66.495  1.00  0.00    -0.255 A  
HETATM   10  C   UNL     1     -10.317  13.864  65.745  1.00  0.00    -0.326 A  
ENDROOT
BRANCH   7  11
HETATM   11  N   UNL     1      -9.526  11.448  68.428  1.00  0.00    -0.189 NA 
HETATM   12  C   UNL     1      -8.279   9.597  69.504  1.00  0.00    -0.136 C  
HETATM   13  C   UNL     1      -8.192  10.829  68.558  1.00  0.00    -0.136 C  
HETATM   14  N   UNL     1      -9.288   8.568  69.126  1.00  0.00    -0.153 NA 
HETATM   15  C   UNL     1     -10.580  10.485  68.032  1.00  0.00    -0.214 C  
HETATM   16  C   UNL     1     -10.591   9.279  69.002  1.00  0.00    -0.205 C  
BRANCH  14  17
HETATM   17  C   UNL     1      -8.962   7.863  67.864  1.00  0.00    -0.129 C  
BRANCH  17  18
HETATM   18  C   UNL     1     -10.054   6.905  67.333  1.00  0.00    -0.183 C  
BRANCH  18  19
HETATM   19  O   UNL     1     -10.152   5.688  68.132  1.00  0.00    -0.145 OA 
BRANCH  19  20
HETATM   20  C   UNL     1      -9.723   4.588  67.464  1.00  0.00    -0.169 C  
HETATM   21  O   UNL     1     -10.124   4.294  66.336  1.00  0.00    -0.227 OA 
BRANCH  20  22
HETATM   22  C   UNL     1      -8.688   3.742  68.150  1.00  0.00    -0.127 A  
HETATM   23  C   UNL     1      -7.754   3.191  67.238  1.00  0.00    -0.074 A  
HETATM   24  C   UNL     1      -6.725   2.355  67.653  1.00  0.00    -0.039 A  
HETATM   25  C   UNL     1      -6.597   2.062  69.002  1.00  0.00    -0.029 A  
HETATM   26  C   UNL     1      -7.498   2.604  69.925  1.00  0.00    -0.043 A  
HETATM   27  C   UNL     1      -8.564   3.444  69.534  1.00  0.00    -0.065 A  
BRANCH  27  28
HETATM   28  N   UNL     1      -9.488   3.878  70.508  1.00  0.00    -0.166 NA 
HETATM   29  H   UNL     1     -10.432   3.523  70.352  1.00  0.00     0.000 HD 
BRANCH  28  30
HETATM   30  C   UNL     1      -9.384   4.707  71.664  1.00  0.00    -0.143 A  
HETATM   31  C   UNL     1     -10.314   5.760  71.842  1.00  0.00    -0.263 A  
HETATM   32  C   UNL     1     -11.504   5.821  71.098  1.00  0.00    -0.039 A  
HETATM   33  C   UNL     1     -12.346   6.924  71.176  1.00  0.00    -0.419 A  
HETATM   34  C   UNL     1     -12.004   8.010  71.979  1.00  0.00    -0.375 A  
HETATM   35  C   UNL     1     -10.876   7.892  72.818  1.00  0.00    -0.451 A  
HETATM   36  C   UNL     1     -12.820   9.280  71.887  1.00  0.00    -0.404 C  
HETATM   37  C   UNL     1     -10.048   6.768  72.797  1.00  0.00    -0.178 A  
HETATM   38  F   UNL     1     -13.825   9.196  70.965  1.00  0.00    -0.361 F  
HETATM   39  F   UNL     1     -13.422   9.631  73.054  1.00  0.00    -0.238 F  
HETATM   40  F   UNL     1     -12.072  10.352  71.505  1.00  0.00    -0.430 F  
HETATM   41  N   UNL     1      -9.009   6.673  73.641  1.00  0.00    -0.128 NA 
HETATM   42  C   UNL     1      -8.211   5.579  73.549  1.00  0.00    -0.113 A  
HETATM   43  C   UNL     1      -8.342   4.594  72.574  1.00  0.00    -0.114 A  
ENDBRANCH  28  30
ENDBRANCH  27  28
ENDBRANCH  20  22
ENDBRANCH  19  20
ENDBRANCH  18  19
ENDBRANCH  17  18
ENDBRANCH  14  17
ENDBRANCH   7  11
TORSDOF 8
ENDMDL
MODEL      189
REMARK 921   NORMALIZED FREE ENERGY PREDICTED BY IDOCK:   -4.79 KCAL/MOL
REMARK 922        TOTAL FREE ENERGY PREDICTED BY IDOCK:  -10.43 KCAL/MOL
REMARK 923 INTER-LIGAND FREE ENERGY PREDICTED BY IDOCK:   -9.35 KCAL/MOL
REMARK 924 INTRA-LIGAND FREE ENERGY PREDICTED BY IDOCK:   -1.08 KCAL/MOL
REMARK 927      BINDING AFFINITY PREDICTED BY RF-SCORE:    0.00 PKD
ROOT
HETATM    1  F   UNL     1     -11.507   6.373  72.068  1.00  0.00    -0.282 F  
HETATM    2  C   UNL     1     -11.949   7.658  72.156  1.00  0.00    -0.302 C  
HETATM    3  C   UNL     1     -11.653   8.494  70.935  1.00  0.00    -0.295 A  
HETATM    4  F   UNL     1     -13.281   7.579  72.428  1.00  0.00    -0.152 F  
HETATM    5  F   UNL     1     -11.372   8.171  73.280  1.00  0.00    -0.390 F  
HETATM    6  C   UNL     1     -10.969   7.957  69.825  1.00  0.00    -0.148 A  
HETATM    7  C   UNL     1     -10.608   8.767  68.742  1.00  0.00    -0.145 A  
HETATM    8  C   UNL     1     -12.025   9.847  70.929  1.00  0.00    -0.434 A  
HETATM    9  C   UNL     1     -11.017  10.112  68.767  1.00  0.00    -0.264 A  
HETATM   10  C   UNL     1     -11.718  10.652  69.842  1.00  0.00    -0.395 A  
ENDROOT
BRANCH   7  11
HETATM   11  N   UNL     1      -9.826   8.342  67.664  1.00  0.00    -0.159 NA 
HETATM   12  C   UNL     1      -8.500   6.726  66.334  1.00  0.00    -0.126 C  
HETATM   13  C   UNL     1      -9.080   7.069  67.736  1.00  0.00    -0.126 C  
HETATM   14  N   UNL     1      -7.654   7.783  65.713  1.00  0.00    -0.081 NA 
HETATM   15  C   UNL     1      -9.037   9.448  67.074  1.00  0.00    -0.134 C  
HETATM   16  C   UNL     1      -8.475   9.026  65.696  1.00  0.00    -0.150 C  
BRANCH  14  17
HETATM   17  C   UNL     1      -6.381   8.015  66.435  1.00  0.00    -0.047 C  
BRANCH  17  18
HETATM   18  C   UNL     1      -6.447   9.037  67.594  1.00  0.00    -0.060 C  
BRANCH  18  19
HETATM   19  O   UNL     1      -5.366  10.014  67.526  1.00  0.00    -0.038 OA 
BRANCH  19  20
HETATM   20  C   UNL     1      -5.773  11.213  67.039  1.00  0.00    -0.078 C  
HETATM   21  O   UNL     1      -5.973  11.410  65.838  1.00  0.00    -0.086 OA 
BRANCH  20  22
HETATM   22  C   UNL     1      -6.014  12.304  68.043  1.00  0.00    -0.067 A  
HETATM   23  C   UNL     1      -5.200  12.164  69.194  1.00  0.00    -0.055 A  
HETATM   24  C   UNL     1      -5.275  13.048  70.262  1.00  0.00    -0.106 A  
HETATM   25  C   UNL     1      -6.164  14.111  70.196  1.00  0.00    -0.151 A  
HETATM   26  C   UNL     1      -6.970  14.280  69.065  1.00  0.00    -0.112 A  
HETATM   27  C   UNL     1      -6.928  13.390  67.969  1.00  0.00    -0.127 A  
BRANCH  27  28
HETATM   28  N   UNL     1      -7.836  13.569  66.903  1.00  0.00    -0.354 NA 
HETATM   29  H   UNL     1      -7.448  13.306  65.997  1.00  0.00     0.000 HD 
BRANCH  28  30
HETATM   30  C   UNL     1      -9.179  14.039  66.824  1.00  0.00    -0.265 A  
HETATM   31  C   UNL     1      -9.421  15.434  66.803  1.00  0.00    -0.260 A  
HETATM   32  C   UNL     1      -8.390  16.353  66.545  1.00  0.00    -0.337 A  
HETATM   33  C   UNL     1      -8.601  17.722  66.660  1.00  0.00    -0.280 A  
HETATM   34  C   UNL     1      -9.842  18.208  67.067  1.00  0.00    -0.324 A  
HETATM   35  C   UNL     1     -10.906  17.292  67.202  1.00  0.00    -0.085 A  
HETATM   36  C   UNL     1      -9.988  19.677  67.390  1.00  0.00    -0.385 C  
HETATM   37  C   UNL     1     -10.730  15.917  67.035  1.00  0.00    -0.292 A  
HETATM   38  F   UNL     1      -8.816  20.367  67.253  1.00  0.00    -0.386 F  
HETATM   39  F   UNL     1     -10.888  20.325  66.604  1.00  0.00    -0.467 F  
HETATM   40  F   UNL     1     -10.380  19.890  68.677  1.00  0.00    -0.515 F  
HETATM   41  N   UNL     1     -11.775  15.081  67.129  1.00  0.00    -0.281 NA 
HETATM   42  C   UNL     1     -11.541  13.750  67.001  1.00  0.00    -0.365 A  
HETATM   43  C   UNL     1     -10.274  13.187  66.872  1.00  0.00    -0.245 A  
ENDBRANCH  28  30
ENDBRANCH  27  28
ENDBRANCH  20  22
ENDBRANCH  19  20
ENDBRANCH  18  19
ENDBRANCH  17  18
ENDBRANCH  14  17
ENDBRANCH   7  11
TORSDOF 8
ENDMDL
MODEL      190
REMARK 921   NORMALIZED FREE ENERGY PREDICTED BY IDOCK:   -4.79 KCAL/MOL
REMARK 922        TOTAL FREE ENERGY PREDICTED BY IDOCK:  -10.42 KCAL/MOL
REMARK 923 INTER-LIGAND FREE ENERGY PREDICTED BY IDOCK:   -7.18 KCAL/MOL
REMARK 924 INTRA-LIGAND FREE ENERGY PREDICTED BY IDOCK:   -3.25 KCAL/MOL
REMARK 927      BINDING AFFINITY PREDICTED BY RF-SCORE:    0.00 PKD
ROOT
HETATM    1  F   UNL     1     -11.151  14.263  64.443  1.00  0.00    -0.370 F  
HETATM    2  C   UNL     1     -11.728  13.848  65.605  1.00  0.00    -0.354 C  
HETATM    3  C   UNL     1     -11.188  12.540  66.126  1.00  0.00    -0.362 A  
HETATM    4  F   UNL     1     -11.569  14.872  66.489  1.00  0.00    -0.354 F  
HETATM    5  F   UNL     1     -13.066  13.785  65.350  1.00  0.00    -0.517 F  
HETATM    6  C   UNL     1     -10.180  11.834  65.437  1.00  0.00    -0.301 A  
HETATM    7  C   UNL     1      -9.760  10.572  65.872  1.00  0.00    -0.217 A  
HETATM    8  C   UNL     1     -11.738  11.993  67.295  1.00  0.00    -0.339 A  
HETATM    9  C   UNL     1     -10.322  10.069  67.059  1.00  0.00    -0.305 A  
HETATM   10  C   UNL     1     -11.298  10.765  67.767  1.00  0.00    -0.354 A  
ENDROOT
BRANCH   7  11
HETATM   11  N   UNL     1      -8.858   9.757  65.180  1.00  0.00    -0.167 NA 
HETATM   12  C   UNL     1      -8.005   7.637  64.222  1.00  0.00    -0.112 C  
HETATM   13  C   UNL     1      -8.962   8.287  65.264  1.00  0.00     0.045 C  
HETATM   14  N   UNL     1      -6.579   8.058  64.311  1.00  0.00    -0.061 NA 
HETATM   15  C   UNL     1      -7.465  10.252  65.282  1.00  0.00    -0.141 C  
HETATM   16  C   UNL     1      -6.572   9.546  64.235  1.00  0.00    -0.100 C  
BRANCH  14  17
HETATM   17  C   UNL     1      -5.909   7.601  65.551  1.00  0.00    -0.038 C  
BRANCH  17  18
HETATM   18  C   UNL     1      -5.569   6.093  65.610  1.00  0.00    -0.017 C  
BRANCH  18  19
HETATM   19  O   UNL     1      -6.712   5.288  66.027  1.00  0.00    -0.050 OA 
BRANCH  19  20
HETATM   20  C   UNL     1      -6.511   4.671  67.218  1.00  0.00    -0.045 C  
HETATM   21  O   UNL     1      -5.528   4.897  67.928  1.00  0.00    -0.011 OA 
BRANCH  20  22
HETATM   22  C   UNL     1      -7.573   3.709  67.669  1.00  0.00    -0.070 A  
HETATM   23  C   UNL     1      -7.828   2.701  66.705  1.00  0.00    -0.076 A  
HETATM   24  C   UNL     1      -8.792   1.721  66.903  1.00  0.00    -0.140 A  
HETATM   25  C   UNL     1      -9.516   1.716  68.085  1.00  0.00    -0.219 A  
HETATM   26  C   UNL     1      -9.275   2.691  69.058  1.00  0.00    -0.216 A  
HETATM   27  C   UNL     1      -8.313   3.712  68.881  1.00  0.00    -0.072 A  
BRANCH  27  28
HETATM   28  N   UNL     1      -8.189   4.716  69.865  1.00  0.00    -0.067 NA 
HETATM   29  H   UNL     1      -7.303   4.676  70.370  1.00  0.00     0.000 HD 
BRANCH  28  30
HETATM   30  C   UNL     1      -9.038   5.774  70.304  1.00  0.00    -0.145 A  
HETATM   31  C   UNL     1      -8.735   7.103  69.921  1.00  0.00    -0.142 A  
HETATM   32  C   UNL     1      -7.828   7.379  68.885  1.00  0.00    -0.117 A  
HETATM   33  C   UNL     1      -7.431   8.681  68.603  1.00  0.00    -0.096 A  
HETATM   34  C   UNL     1      -7.908   9.740  69.372  1.00  0.00    -0.114 A  
HETATM   35  C   UNL     1      -8.911   9.474  70.327  1.00  0.00    -0.288 A  
HETATM   36  C   UNL     1      -7.303  11.114  69.190  1.00  0.00    -0.115 C  
HETATM   37  C   UNL     1      -9.367   8.179  70.585  1.00  0.00    -0.154 A  
HETATM   38  F   UNL     1      -6.302  11.131  68.259  1.00  0.00    -0.049 F  
HETATM   39  F   UNL     1      -8.195  12.056  68.785  1.00  0.00    -0.142 F  
HETATM   40  F   UNL     1      -6.737  11.589  70.333  1.00  0.00    -0.087 F  
HETATM   41  N   UNL     1     -10.354   7.970  71.470  1.00  0.00    -0.204 NA 
HETATM   42  C   UNL     1     -10.729   6.689  71.716  1.00  0.00    -0.227 A  
HETATM   43  C   UNL     1     -10.094   5.571  71.182  1.00  0.00    -0.267 A  
ENDBRANCH  28  30
ENDBRANCH  27  28
ENDBRANCH  20  22
ENDBRANCH  19  20
ENDBRANCH  18  19
ENDBRANCH  17  18
ENDBRANCH  14  17
ENDBRANCH   7  11
TORSDOF 8
ENDMDL
MODEL      191
REMARK 921   NORMALIZED FREE ENERGY PREDICTED BY IDOCK:   -4.77 KCAL/MOL
REMARK 922        TOTAL FREE ENERGY PREDICTED BY IDOCK:  -10.40 KCAL/MOL
REMARK 923 INTER-LIGAND FREE ENERGY PREDICTED BY IDOCK:   -8.39 KCAL/MOL
REMARK 924 INTRA-LIGAND FREE ENERGY PREDICTED BY IDOCK:   -2.01 KCAL/MOL
REMARK 927      BINDING AFFINITY PREDICTED BY RF-SCORE:    0.00 PKD
ROOT
HETATM    1  F   UNL     1     -12.332  13.562  70.878  1.00  0.00    -0.384 F  
HETATM    2  C   UNL     1     -11.827  14.827  70.906  1.00  0.00    -0.322 C  
HETATM    3  C   UNL     1     -11.468  15.374  69.547  1.00  0.00    -0.330 A  
HETATM    4  F   UNL     1     -12.755  15.588  71.551  1.00  0.00    -0.345 F  
HETATM    5  F   UNL     1     -10.748  14.775  71.738  1.00  0.00    -0.065 F  
HETATM    6  C   UNL     1     -11.647  14.610  68.375  1.00  0.00    -0.351 A  
HETATM    7  C   UNL     1     -11.215  15.086  67.132  1.00  0.00    -0.336 A  
HETATM    8  C   UNL     1     -10.899  16.653  69.456  1.00  0.00    -0.285 A  
HETATM    9  C   UNL     1     -10.668  16.380  67.082  1.00  0.00    -0.233 A  
HETATM   10  C   UNL     1     -10.510  17.161  68.224  1.00  0.00    -0.373 A  
ENDROOT
BRANCH   7  11
HETATM   11  N   UNL     1     -11.244  14.343  65.948  1.00  0.00    -0.318 NA 
HETATM   12  C   UNL     1     -12.286  12.972  64.166  1.00  0.00    -0.401 C  
HETATM   13  C   UNL     1     -12.404  13.486  65.630  1.00  0.00    -0.476 C  
HETATM   14  N   UNL     1     -11.017  12.264  63.835  1.00  0.00    -0.367 NA 
HETATM   15  C   UNL     1      -9.943  13.694  65.662  1.00  0.00    -0.243 C  
HETATM   16  C   UNL     1      -9.909  13.190  64.200  1.00  0.00     0.361 C  
BRANCH  14  17
HETATM   17  C   UNL     1     -10.865  10.972  64.542  1.00  0.00    -0.187 C  
BRANCH  17  18
HETATM   18  C   UNL     1      -9.575  10.181  64.220  1.00  0.00    -0.290 C  
BRANCH  18  19
HETATM   19  O   UNL     1      -9.135   9.365  65.347  1.00  0.00    -0.197 OA 
BRANCH  19  20
HETATM   20  C   UNL     1      -7.788   9.369  65.501  1.00  0.00    -0.103 C  
HETATM   21  O   UNL     1      -7.021   8.869  64.675  1.00  0.00    -0.083 OA 
BRANCH  20  22
HETATM   22  C   UNL     1      -7.250  10.054  66.726  1.00  0.00    -0.091 A  
HETATM   23  C   UNL     1      -6.354  11.104  66.404  1.00  0.00    -0.116 A  
HETATM   24  C   UNL     1      -5.719  11.856  67.383  1.00  0.00    -0.113 A  
HETATM   25  C   UNL     1      -5.978  11.582  68.718  1.00  0.00    -0.047 A  
HETATM   26  C   UNL     1      -6.867  10.559  69.062  1.00  0.00    -0.068 A  
HETATM   27  C   UNL     1      -7.518   9.766  68.091  1.00  0.00    -0.081 A  
BRANCH  27  28
HETATM   28  N   UNL     1      -8.330   8.692  68.513  1.00  0.00    -0.122 NA 
HETATM   29  H   UNL     1      -8.198   7.846  67.958  1.00  0.00     0.000 HD 
BRANCH  28  30
HETATM   30  C   UNL     1      -9.295   8.536  69.551  1.00  0.00    -0.161 A  
HETATM   31  C   UNL     1      -9.285   7.353  70.328  1.00  0.00    -0.154 A  
HETATM   32  C   UNL     1      -8.184   6.482  70.324  1.00  0.00    -0.126 A  
HETATM   33  C   UNL     1      -8.232   5.257  70.979  1.00  0.00    -0.116 A  
HETATM   34  C   UNL     1      -9.397   4.857  71.632  1.00  0.00    -0.192 A  
HETATM   35  C   UNL     1     -10.453   5.785  71.741  1.00  0.00    -0.281 A  
HETATM   36  C   UNL     1      -9.500   3.441  72.152  1.00  0.00    -0.128 C  
HETATM   37  C   UNL     1     -10.402   7.044  71.139  1.00  0.00    -0.206 A  
HETATM   38  F   UNL     1      -8.388   2.696  71.881  1.00  0.00    -0.055 F  
HETATM   39  F   UNL     1      -9.674   3.363  73.498  1.00  0.00    -0.113 F  
HETATM   40  F   UNL     1     -10.535   2.756  71.591  1.00  0.00    -0.127 F  
HETATM   41  N   UNL     1     -11.409   7.916  71.301  1.00  0.00    -0.256 NA 
HETATM   42  C   UNL     1     -11.330   9.109  70.659  1.00  0.00    -0.273 A  
HETATM   43  C   UNL     1     -10.317   9.451  69.766  1.00  0.00    -0.240 A  
ENDBRANCH  28  30
ENDBRANCH  27  28
ENDBRANCH  20  22
ENDBRANCH  19  20
ENDBRANCH  18  19
ENDBRANCH  17  18
ENDBRANCH  14  17
ENDBRANCH   7  11
TORSDOF 8
ENDMDL
MODEL      192
REMARK 921   NORMALIZED FREE ENERGY PREDICTED BY IDOCK:   -4.77 KCAL/MOL
REMARK 922        TOTAL FREE ENERGY PREDICTED BY IDOCK:  -10.40 KCAL/MOL
REMARK 923 INTER-LIGAND FREE ENERGY PREDICTED BY IDOCK:   -8.44 KCAL/MOL
REMARK 924 INTRA-LIGAND FREE ENERGY PREDICTED BY IDOCK:   -1.96 KCAL/MOL
REMARK 927      BINDING AFFINITY PREDICTED BY RF-SCORE:    0.00 PKD
ROOT
HETATM    1  F   UNL     1     -14.010  13.040  71.953  1.00  0.00    -0.422 F  
HETATM    2  C   UNL     1     -13.216  14.123  72.179  1.00  0.00    -0.420 C  
HETATM    3  C   UNL     1     -12.553  14.667  70.938  1.00  0.00    -0.410 A  
HETATM    4  F   UNL     1     -14.005  15.044  72.799  1.00  0.00    -0.507 F  
HETATM    5  F   UNL     1     -12.307  13.726  73.114  1.00  0.00    -0.098 F  
HETATM    6  C   UNL     1     -12.755  14.073  69.675  1.00  0.00     0.123 A  
HETATM    7  C   UNL     1     -12.055  14.520  68.549  1.00  0.00    -0.222 A  
HETATM    8  C   UNL     1     -11.678  15.758  71.056  1.00  0.00    -0.462 A  
HETATM    9  C   UNL     1     -11.203  15.627  68.706  1.00  0.00    -0.332 A  
HETATM   10  C   UNL     1     -11.012  16.245  69.940  1.00  0.00    -0.365 A  
ENDROOT
BRANCH   7  11
HETATM   11  N   UNL     1     -12.106  13.908  67.293  1.00  0.00    -0.400 NA 
HETATM   12  C   UNL     1     -12.123  12.006  65.706  1.00  0.00     0.070 C  
HETATM   13  C   UNL     1     -11.750  12.483  67.139  1.00  0.00    -0.355 C  
HETATM   14  N   UNL     1     -11.540  12.804  64.591  1.00  0.00    -0.322 NA 
HETATM   15  C   UNL     1     -11.541  14.769  66.228  1.00  0.00    -0.298 C  
HETATM   16  C   UNL     1     -11.932  14.220  64.835  1.00  0.00    -0.425 C  
BRANCH  14  17
HETATM   17  C   UNL     1     -10.066  12.686  64.495  1.00  0.00    -0.246 C  
BRANCH  17  18
HETATM   18  C   UNL     1      -9.539  11.355  63.909  1.00  0.00    -0.216 C  
BRANCH  18  19
HETATM   19  O   UNL     1      -8.556  10.722  64.783  1.00  0.00    -0.161 OA 
BRANCH  19  20
HETATM   20  C   UNL     1      -8.889   9.448  65.107  1.00  0.00    -0.195 C  
HETATM   21  O   UNL     1     -10.022   9.126  65.471  1.00  0.00    -0.159 OA 
BRANCH  20  22
HETATM   22  C   UNL     1      -7.810   8.412  64.966  1.00  0.00    -0.118 A  
HETATM   23  C   UNL     1      -7.997   7.593  63.825  1.00  0.00    -0.090 A  
HETATM   24  C   UNL     1      -7.131   6.553  63.514  1.00  0.00    -0.055 A  
HETATM   25  C   UNL     1      -6.040   6.315  64.337  1.00  0.00    -0.029 A  
HETATM   26  C   UNL     1      -5.825   7.117  65.463  1.00  0.00    -0.036 A  
HETATM   27  C   UNL     1      -6.695   8.173  65.815  1.00  0.00    -0.055 A  
BRANCH  27  28
HETATM   28  N   UNL     1      -6.468   8.879  67.015  1.00  0.00    -0.060 NA 
HETATM   29  H   UNL     1      -5.478   9.044  67.202  1.00  0.00     0.000 HD 
BRANCH  28  30
HETATM   30  C   UNL     1      -7.325   9.411  68.022  1.00  0.00    -0.079 A  
HETATM   31  C   UNL     1      -8.040   8.521  68.858  1.00  0.00    -0.119 A  
HETATM   32  C   UNL     1      -7.702   7.160  68.940  1.00  0.00    -0.113 A  
HETATM   33  C   UNL     1      -8.489   6.264  69.654  1.00  0.00    -0.129 A  
HETATM   34  C   UNL     1      -9.654   6.701  70.282  1.00  0.00    -0.169 A  
HETATM   35  C   UNL     1      -9.922   8.085  70.303  1.00  0.00    -0.189 A  
HETATM   36  C   UNL     1     -10.602   5.680  70.869  1.00  0.00    -0.258 C  
HETATM   37  C   UNL     1      -9.112   9.010  69.640  1.00  0.00    -0.154 A  
HETATM   38  F   UNL     1     -10.178   4.395  70.679  1.00  0.00    -0.286 F  
HETATM   39  F   UNL     1     -10.785   5.810  72.210  1.00  0.00    -0.232 F  
HETATM   40  F   UNL     1     -11.840   5.735  70.305  1.00  0.00    -0.179 F  
HETATM   41  N   UNL     1      -9.375  10.323  69.719  1.00  0.00    -0.150 NA 
HETATM   42  C   UNL     1      -8.583  11.176  69.021  1.00  0.00    -0.024 A  
HETATM   43  C   UNL     1      -7.573  10.771  68.151  1.00  0.00    -0.093 A  
ENDBRANCH  28  30
ENDBRANCH  27  28
ENDBRANCH  20  22
ENDBRANCH  19  20
ENDBRANCH  18  19
ENDBRANCH  17  18
ENDBRANCH  14  17
ENDBRANCH   7  11
TORSDOF 8
ENDMDL
MODEL      193
REMARK 921   NORMALIZED FREE ENERGY PREDICTED BY IDOCK:   -4.77 KCAL/MOL
REMARK 922        TOTAL FREE ENERGY PREDICTED BY IDOCK:  -10.40 KCAL/MOL
REMARK 923 INTER-LIGAND FREE ENERGY PREDICTED BY IDOCK:   -8.53 KCAL/MOL
REMARK 924 INTRA-LIGAND FREE ENERGY PREDICTED BY IDOCK:   -1.86 KCAL/MOL
REMARK 927      BINDING AFFINITY PREDICTED BY RF-SCORE:    0.00 PKD
ROOT
HETATM    1  F   UNL     1      -9.482   3.470  67.274  1.00  0.00    -0.191 F  
HETATM    2  C   UNL     1      -8.547   2.719  66.629  1.00  0.00    -0.110 C  
HETATM    3  C   UNL     1      -7.464   3.528  65.961  1.00  0.00    -0.076 A  
HETATM    4  F   UNL     1      -8.057   1.851  67.558  1.00  0.00    -0.062 F  
HETATM    5  F   UNL     1      -9.239   1.954  65.738  1.00  0.00    -0.127 F  
HETATM    6  C   UNL     1      -7.459   4.937  66.014  1.00  0.00    -0.082 A  
HETATM    7  C   UNL     1      -6.510   5.681  65.304  1.00  0.00    -0.039 A  
HETATM    8  C   UNL     1      -6.468   2.861  65.231  1.00  0.00    -0.035 A  
HETATM    9  C   UNL     1      -5.519   4.974  64.601  1.00  0.00    -0.013 A  
HETATM   10  C   UNL     1      -5.490   3.583  64.560  1.00  0.00    -0.010 A  
ENDROOT
BRANCH   7  11
HETATM   11  N   UNL     1      -6.511   7.076  65.206  1.00  0.00    -0.043 NA 
HETATM   12  C   UNL     1      -7.095   9.387  65.882  1.00  0.00    -0.091 C  
HETATM   13  C   UNL     1      -7.467   7.880  65.994  1.00  0.00    -0.078 C  
HETATM   14  N   UNL     1      -6.993   9.922  64.495  1.00  0.00    -0.126 NA 
HETATM   15  C   UNL     1      -6.373   7.539  63.806  1.00  0.00    -0.053 C  
HETATM   16  C   UNL     1      -6.027   9.046  63.775  1.00  0.00    -0.076 C  
BRANCH  14  17
HETATM   17  C   UNL     1      -8.291   9.955  63.783  1.00  0.00    -0.168 C  
BRANCH  17  18
HETATM   18  C   UNL     1      -9.539  10.149  64.676  1.00  0.00    -0.315 C  
BRANCH  18  19
HETATM   19  O   UNL     1      -9.507  11.419  65.394  1.00  0.00    -0.221 OA 
BRANCH  19  20
HETATM   20  C   UNL     1     -10.746  11.926  65.614  1.00  0.00    -0.280 C  
HETATM   21  O   UNL     1     -11.569  12.091  64.711  1.00  0.00    -0.324 OA 
BRANCH  20  22
HETATM   22  C   UNL     1     -11.099  12.252  67.038  1.00  0.00    -0.339 A  
HETATM   23  C   UNL     1     -11.724  13.518  67.160  1.00  0.00    -0.419 A  
HETATM   24  C   UNL     1     -12.113  14.032  68.390  1.00  0.00    -0.318 A  
HETATM   25  C   UNL     1     -11.897  13.279  69.534  1.00  0.00    -0.388 A  
HETATM   26  C   UNL     1     -11.294  12.020  69.440  1.00  0.00    -0.317 A  
HETATM   27  C   UNL     1     -10.873  11.475  68.206  1.00  0.00    -0.216 A  
BRANCH  27  28
HETATM   28  N   UNL     1     -10.188  10.242  68.198  1.00  0.00    -0.157 NA 
HETATM   29  H   UNL     1      -9.173  10.347  68.208  1.00  0.00     0.000 HD 
BRANCH  28  30
HETATM   30  C   UNL     1     -10.612   8.881  68.180  1.00  0.00    -0.157 A  
HETATM   31  C   UNL     1     -10.759   8.189  69.407  1.00  0.00    -0.164 A  
HETATM   32  C   UNL     1     -10.808   8.873  70.632  1.00  0.00    -0.286 A  
HETATM   33  C   UNL     1     -10.816   8.185  71.841  1.00  0.00    -0.333 A  
HETATM   34  C   UNL     1     -10.744   6.794  71.855  1.00  0.00    -0.250 A  
HETATM   35  C   UNL     1     -10.822   6.108  70.625  1.00  0.00    -0.355 A  
HETATM   36  C   UNL     1     -10.539   6.080  73.172  1.00  0.00    -0.246 C  
HETATM   37  C   UNL     1     -10.873   6.780  69.401  1.00  0.00    -0.271 A  
HETATM   38  F   UNL     1     -10.424   6.941  74.227  1.00  0.00    -0.385 F  
HETATM   39  F   UNL     1     -11.549   5.232  73.499  1.00  0.00    -0.319 F  
HETATM   40  F   UNL     1      -9.396   5.339  73.189  1.00  0.00    -0.134 F  
HETATM   41  N   UNL     1     -10.991   6.094  68.254  1.00  0.00    -0.324 NA 
HETATM   42  C   UNL     1     -10.993   6.793  67.090  1.00  0.00    -0.388 A  
HETATM   43  C   UNL     1     -10.785   8.167  67.002  1.00  0.00    -0.247 A  
ENDBRANCH  28  30
ENDBRANCH  27  28
ENDBRANCH  20  22
ENDBRANCH  19  20
ENDBRANCH  18  19
ENDBRANCH  17  18
ENDBRANCH  14  17
ENDBRANCH   7  11
TORSDOF 8
ENDMDL
MODEL      194
REMARK 921   NORMALIZED FREE ENERGY PREDICTED BY IDOCK:   -4.75 KCAL/MOL
REMARK 922        TOTAL FREE ENERGY PREDICTED BY IDOCK:  -10.37 KCAL/MOL
REMARK 923 INTER-LIGAND FREE ENERGY PREDICTED BY IDOCK:   -7.29 KCAL/MOL
REMARK 924 INTRA-LIGAND FREE ENERGY PREDICTED BY IDOCK:   -3.08 KCAL/MOL
REMARK 927      BINDING AFFINITY PREDICTED BY RF-SCORE:    0.00 PKD
ROOT
HETATM    1  F   UNL     1     -10.467  10.297  65.036  1.00  0.00    -0.384 F  
HETATM    2  C   UNL     1     -10.698  11.566  65.473  1.00  0.00    -0.272 C  
HETATM    3  C   UNL     1     -10.873  11.677  66.967  1.00  0.00    -0.311 A  
HETATM    4  F   UNL     1      -9.662  12.318  65.008  1.00  0.00    -0.248 F  
HETATM    5  F   UNL     1     -11.800  11.995  64.795  1.00  0.00    -0.395 F  
HETATM    6  C   UNL     1     -10.804  10.543  67.803  1.00  0.00    -0.347 A  
HETATM    7  C   UNL     1     -11.071  10.642  69.173  1.00  0.00    -0.255 A  
HETATM    8  C   UNL     1     -11.157  12.932  67.528  1.00  0.00    -0.302 A  
HETATM    9  C   UNL     1     -11.333  11.920  69.697  1.00  0.00    -0.266 A  
HETATM   10  C   UNL     1     -11.377  13.055  68.893  1.00  0.00    -0.333 A  
ENDROOT
BRANCH   7  11
HETATM   11  N   UNL     1     -11.145   9.550  70.044  1.00  0.00    -0.241 NA 
HETATM   12  C   UNL     1     -11.948   8.285  72.017  1.00  0.00    -0.348 C  
HETATM   13  C   UNL     1     -11.791   9.689  71.364  1.00  0.00    -0.406 C  
HETATM   14  N   UNL     1     -10.694   7.490  72.139  1.00  0.00    -0.224 NA 
HETATM   15  C   UNL     1      -9.876   8.786  70.091  1.00  0.00    -0.176 C  
HETATM   16  C   UNL     1     -10.106   7.416  70.772  1.00  0.00    -0.189 C  
BRANCH  14  17
HETATM   17  C   UNL     1      -9.719   8.075  73.089  1.00  0.00    -0.270 C  
BRANCH  17  18
HETATM   18  C   UNL     1      -8.239   7.697  72.846  1.00  0.00    -0.120 C  
BRANCH  18  19
HETATM   19  O   UNL     1      -7.727   6.794  73.872  1.00  0.00    -0.094 OA 
BRANCH  19  20
HETATM   20  C   UNL     1      -7.189   5.663  73.352  1.00  0.00    -0.087 C  
HETATM   21  O   UNL     1      -5.984   5.410  73.412  1.00  0.00    -0.030 OA 
BRANCH  20  22
HETATM   22  C   UNL     1      -8.143   4.689  72.721  1.00  0.00    -0.100 A  
HETATM   23  C   UNL     1      -9.059   4.151  73.658  1.00  0.00    -0.094 A  
HETATM   24  C   UNL     1     -10.015   3.210  73.296  1.00  0.00    -0.183 A  
HETATM   25  C   UNL     1     -10.087   2.796  71.975  1.00  0.00    -0.186 A  
HETATM   26  C   UNL     1      -9.203   3.322  71.027  1.00  0.00    -0.199 A  
HETATM   27  C   UNL     1      -8.209   4.267  71.365  1.00  0.00    -0.083 A  
BRANCH  27  28
HETATM   28  N   UNL     1      -7.293   4.684  70.376  1.00  0.00    -0.049 NA 
HETATM   29  H   UNL     1      -6.321   4.503  70.629  1.00  0.00     0.000 HD 
BRANCH  28  30
HETATM   30  C   UNL     1      -7.436   5.303  69.100  1.00  0.00    -0.069 A  
HETATM   31  C   UNL     1      -7.109   6.673  68.959  1.00  0.00    -0.089 A  
HETATM   32  C   UNL     1      -6.364   7.353  69.936  1.00  0.00    -0.031 A  
HETATM   33  C   UNL     1      -6.162   8.726  69.861  1.00  0.00    -0.034 A  
HETATM   34  C   UNL     1      -6.727   9.461  68.821  1.00  0.00    -0.052 A  
HETATM   35  C   UNL     1      -7.366   8.760  67.777  1.00  0.00    -0.088 A  
HETATM   36  C   UNL     1      -6.676  10.971  68.873  1.00  0.00    -0.074 C  
HETATM   37  C   UNL     1      -7.529   7.373  67.804  1.00  0.00    -0.101 A  
HETATM   38  F   UNL     1      -6.069  11.440  70.004  1.00  0.00    -0.085 F  
HETATM   39  F   UNL     1      -6.002  11.534  67.835  1.00  0.00    -0.043 F  
HETATM   40  F   UNL     1      -7.917  11.534  68.874  1.00  0.00    -0.138 F  
HETATM   41  N   UNL     1      -8.103   6.736  66.773  1.00  0.00    -0.108 NA 
HETATM   42  C   UNL     1      -8.277   5.393  66.869  1.00  0.00    -0.104 A  
HETATM   43  C   UNL     1      -7.984   4.645  68.007  1.00  0.00    -0.085 A  
ENDBRANCH  28  30
ENDBRANCH  27  28
ENDBRANCH  20  22
ENDBRANCH  19  20
ENDBRANCH  18  19
ENDBRANCH  17  18
ENDBRANCH  14  17
ENDBRANCH   7  11
TORSDOF 8
ENDMDL
MODEL      195
REMARK 921   NORMALIZED FREE ENERGY PREDICTED BY IDOCK:   -4.74 KCAL/MOL
REMARK 922        TOTAL FREE ENERGY PREDICTED BY IDOCK:  -10.36 KCAL/MOL
REMARK 923 INTER-LIGAND FREE ENERGY PREDICTED BY IDOCK:   -9.46 KCAL/MOL
REMARK 924 INTRA-LIGAND FREE ENERGY PREDICTED BY IDOCK:   -0.90 KCAL/MOL
REMARK 927      BINDING AFFINITY PREDICTED BY RF-SCORE:    0.00 PKD
ROOT
HETATM    1  F   UNL     1     -13.409  13.830  73.049  1.00  0.00    -0.588 F  
HETATM    2  C   UNL     1     -13.210  14.533  71.899  1.00  0.00    -0.359 C  
HETATM    3  C   UNL     1     -12.680  13.703  70.756  1.00  0.00    -0.338 A  
HETATM    4  F   UNL     1     -14.402  15.125  71.610  1.00  0.00    -0.474 F  
HETATM    5  F   UNL     1     -12.363  15.549  72.230  1.00  0.00    -0.346 F  
HETATM    6  C   UNL     1     -12.418  12.325  70.907  1.00  0.00    -0.371 A  
HETATM    7  C   UNL     1     -11.830  11.587  69.874  1.00  0.00    -0.355 A  
HETATM    8  C   UNL     1     -12.397  14.330  69.534  1.00  0.00    -0.272 A  
HETATM    9  C   UNL     1     -11.579  12.249  68.659  1.00  0.00    -0.372 A  
HETATM   10  C   UNL     1     -11.857  13.602  68.482  1.00  0.00    -0.406 A  
ENDROOT
BRANCH   7  11
HETATM   11  N   UNL     1     -11.427  10.253  69.987  1.00  0.00    -0.278 NA 
HETATM   12  C   UNL     1     -10.915   8.141  71.176  1.00  0.00    -0.237 C  
HETATM   13  C   UNL     1     -11.091   9.681  71.306  1.00  0.00    -0.355 C  
HETATM   14  N   UNL     1      -9.928   7.691  70.155  1.00  0.00    -0.185 NA 
HETATM   15  C   UNL     1     -10.473   9.864  68.922  1.00  0.00    -0.211 C  
HETATM   16  C   UNL     1     -10.333   8.325  68.869  1.00  0.00    -0.215 C  
BRANCH  14  17
HETATM   17  C   UNL     1      -8.531   8.052  70.491  1.00  0.00    -0.125 C  
BRANCH  17  18
HETATM   18  C   UNL     1      -8.285   9.546  70.808  1.00  0.00    -0.034 C  
BRANCH  18  19
HETATM   19  O   UNL     1      -6.881   9.823  71.092  1.00  0.00    -0.314 OA 
BRANCH  19  20
HETATM   20  C   UNL     1      -6.051   9.368  70.121  1.00  0.00    -0.042 C  
HETATM   21  O   UNL     1      -5.430   8.307  70.217  1.00  0.00    -0.023 OA 
BRANCH  20  22
HETATM   22  C   UNL     1      -5.944  10.205  68.877  1.00  0.00    -0.037 A  
HETATM   23  C   UNL     1      -5.482   9.458  67.765  1.00  0.00    -0.037 A  
HETATM   24  C   UNL     1      -5.284  10.038  66.519  1.00  0.00    -0.040 A  
HETATM   25  C   UNL     1      -5.562  11.386  66.351  1.00  0.00    -0.125 A  
HETATM   26  C   UNL     1      -6.032  12.143  67.430  1.00  0.00    -0.139 A  
HETATM   27  C   UNL     1      -6.229  11.587  68.713  1.00  0.00    -0.051 A  
BRANCH  27  28
HETATM   28  N   UNL     1      -6.616  12.432  69.775  1.00  0.00    -0.346 NA 
HETATM   29  H   UNL     1      -7.160  11.951  70.492  1.00  0.00     0.000 HD 
BRANCH  28  30
HETATM   30  C   UNL     1      -6.409  13.813  70.060  1.00  0.00    -0.084 A  
HETATM   31  C   UNL     1      -7.199  14.780  69.393  1.00  0.00    -0.168 A  
HETATM   32  C   UNL     1      -8.372  14.422  68.709  1.00  0.00    -0.126 A  
HETATM   33  C   UNL     1      -9.070  15.348  67.942  1.00  0.00    -0.178 A  
HETATM   34  C   UNL     1      -8.594  16.652  67.816  1.00  0.00    -0.194 A  
HETATM   35  C   UNL     1      -7.490  17.040  68.603  1.00  0.00    -0.229 A  
HETATM   36  C   UNL     1      -9.244  17.579  66.814  1.00  0.00    -0.265 C  
HETATM   37  C   UNL     1      -6.809  16.139  69.424  1.00  0.00    -0.214 A  
HETATM   38  F   UNL     1     -10.252  16.978  66.114  1.00  0.00    -0.295 F  
HETATM   39  F   UNL     1      -9.798  18.688  67.372  1.00  0.00    -0.294 F  
HETATM   40  F   UNL     1      -8.368  18.022  65.870  1.00  0.00    -0.223 F  
HETATM   41  N   UNL     1      -5.790  16.554  70.191  1.00  0.00    -0.201 NA 
HETATM   42  C   UNL     1      -5.135  15.630  70.938  1.00  0.00    -0.169 A  
HETATM   43  C   UNL     1      -5.389  14.261  70.889  1.00  0.00    -0.145 A  
ENDBRANCH  28  30
ENDBRANCH  27  28
ENDBRANCH  20  22
ENDBRANCH  19  20
ENDBRANCH  18  19
ENDBRANCH  17  18
ENDBRANCH  14  17
ENDBRANCH   7  11
TORSDOF 8
ENDMDL
MODEL      196
REMARK 921   NORMALIZED FREE ENERGY PREDICTED BY IDOCK:   -4.74 KCAL/MOL
REMARK 922        TOTAL FREE ENERGY PREDICTED BY IDOCK:  -10.36 KCAL/MOL
REMARK 923 INTER-LIGAND FREE ENERGY PREDICTED BY IDOCK:   -7.53 KCAL/MOL
REMARK 924 INTRA-LIGAND FREE ENERGY PREDICTED BY IDOCK:   -2.84 KCAL/MOL
REMARK 927      BINDING AFFINITY PREDICTED BY RF-SCORE:    0.00 PKD
ROOT
HETATM    1  F   UNL     1     -12.205   6.040  72.325  1.00  0.00    -0.369 F  
HETATM    2  C   UNL     1     -11.030   6.418  72.900  1.00  0.00    -0.250 C  
HETATM    3  C   UNL     1      -9.908   6.641  71.916  1.00  0.00    -0.174 A  
HETATM    4  F   UNL     1     -11.312   7.529  73.635  1.00  0.00    -0.292 F  
HETATM    5  F   UNL     1     -10.731   5.442  73.805  1.00  0.00    -0.244 F  
HETATM    6  C   UNL     1     -10.098   6.455  70.531  1.00  0.00    -0.221 A  
HETATM    7  C   UNL     1      -9.026   6.563  69.638  1.00  0.00    -0.141 A  
HETATM    8  C   UNL     1      -8.639   6.993  72.399  1.00  0.00    -0.130 A  
HETATM    9  C   UNL     1      -7.775   6.936  70.160  1.00  0.00    -0.101 A  
HETATM   10  C   UNL     1      -7.576   7.151  71.521  1.00  0.00    -0.088 A  
ENDROOT
BRANCH   7  11
HETATM   11  N   UNL     1      -9.104   6.275  68.272  1.00  0.00    -0.115 NA 
HETATM   12  C   UNL     1      -8.378   5.257  66.132  1.00  0.00    -0.115 C  
HETATM   13  C   UNL     1      -7.946   5.697  67.561  1.00  0.00    -0.102 C  
HETATM   14  N   UNL     1      -9.016   6.315  65.300  1.00  0.00     0.069 NA 
HETATM   15  C   UNL     1      -9.778   7.352  67.510  1.00  0.00    -0.148 C  
HETATM   16  C   UNL     1     -10.156   6.849  66.097  1.00  0.00     0.318 C  
BRANCH  14  17
HETATM   17  C   UNL     1      -8.088   7.409  64.930  1.00  0.00    -0.114 C  
BRANCH  17  18
HETATM   18  C   UNL     1      -8.755   8.704  64.410  1.00  0.00     0.029 C  
BRANCH  18  19
HETATM   19  O   UNL     1      -7.954   9.888  64.700  1.00  0.00    -0.129 OA 
BRANCH  19  20
HETATM   20  C   UNL     1      -8.623  10.802  65.446  1.00  0.00    -0.157 C  
HETATM   21  O   UNL     1      -9.836  10.991  65.338  1.00  0.00    -0.223 OA 
BRANCH  20  22
HETATM   22  C   UNL     1      -7.818  11.566  66.460  1.00  0.00    -0.071 A  
HETATM   23  C   UNL     1      -6.526  11.014  66.646  1.00  0.00    -0.129 A  
HETATM   24  C   UNL     1      -5.622  11.547  67.556  1.00  0.00    -0.062 A  
HETATM   25  C   UNL     1      -5.987  12.661  68.295  1.00  0.00    -0.068 A  
HETATM   26  C   UNL     1      -7.251  13.233  68.121  1.00  0.00    -0.112 A  
HETATM   27  C   UNL     1      -8.200  12.707  67.216  1.00  0.00    -0.184 A  
BRANCH  27  28
HETATM   28  N   UNL     1      -9.488  13.280  67.161  1.00  0.00    -0.231 NA 
HETATM   29  H   UNL     1      -9.856  13.350  66.211  1.00  0.00     0.000 HD 
BRANCH  28  30
HETATM   30  C   UNL     1     -10.385  13.780  68.149  1.00  0.00    -0.252 A  
HETATM   31  C   UNL     1     -10.969  12.878  69.070  1.00  0.00    -0.244 A  
HETATM   32  C   UNL     1     -10.464  11.579  69.244  1.00  0.00    -0.066 A  
HETATM   33  C   UNL     1     -11.119  10.652  70.046  1.00  0.00    -0.359 A  
HETATM   34  C   UNL     1     -12.318  10.992  70.672  1.00  0.00    -0.480 A  
HETATM   35  C   UNL     1     -12.754  12.331  70.597  1.00  0.00    -0.139 A  
HETATM   36  C   UNL     1     -13.120   9.913  71.362  1.00  0.00    -0.407 C  
HETATM   37  C   UNL     1     -12.078  13.293  69.843  1.00  0.00    -0.308 A  
HETATM   38  F   UNL     1     -12.544   8.678  71.257  1.00  0.00    -0.310 F  
HETATM   39  F   UNL     1     -13.293  10.124  72.693  1.00  0.00    -0.383 F  
HETATM   40  F   UNL     1     -14.367   9.772  70.831  1.00  0.00    -0.129 F  
HETATM   41  N   UNL     1     -12.500  14.567  69.830  1.00  0.00    -0.293 NA 
HETATM   42  C   UNL     1     -11.832  15.452  69.047  1.00  0.00    -0.335 A  
HETATM   43  C   UNL     1     -10.797  15.106  68.182  1.00  0.00    -0.266 A  
ENDBRANCH  28  30
ENDBRANCH  27  28
ENDBRANCH  20  22
ENDBRANCH  19  20
ENDBRANCH  18  19
ENDBRANCH  17  18
ENDBRANCH  14  17
ENDBRANCH   7  11
TORSDOF 8
ENDMDL
MODEL      197
REMARK 921   NORMALIZED FREE ENERGY PREDICTED BY IDOCK:   -4.67 KCAL/MOL
REMARK 922        TOTAL FREE ENERGY PREDICTED BY IDOCK:  -10.26 KCAL/MOL
REMARK 923 INTER-LIGAND FREE ENERGY PREDICTED BY IDOCK:   -8.60 KCAL/MOL
REMARK 924 INTRA-LIGAND FREE ENERGY PREDICTED BY IDOCK:   -1.66 KCAL/MOL
REMARK 927      BINDING AFFINITY PREDICTED BY RF-SCORE:    0.00 PKD
ROOT
HETATM    1  F   UNL     1      -8.884   4.723  63.024  1.00  0.00    -0.121 F  
HETATM    2  C   UNL     1      -9.190   3.519  63.583  1.00  0.00    -0.105 C  
HETATM    3  C   UNL     1      -8.755   3.382  65.021  1.00  0.00    -0.114 A  
HETATM    4  F   UNL     1     -10.534   3.362  63.423  1.00  0.00    -0.158 F  
HETATM    5  F   UNL     1      -8.610   2.582  62.780  1.00  0.00    -0.072 F  
HETATM    6  C   UNL     1      -8.086   4.427  65.690  1.00  0.00    -0.105 A  
HETATM    7  C   UNL     1      -7.594   4.252  66.988  1.00  0.00    -0.081 A  
HETATM    8  C   UNL     1      -8.980   2.168  65.687  1.00  0.00    -0.116 A  
HETATM    9  C   UNL     1      -7.858   3.028  67.627  1.00  0.00    -0.071 A  
HETATM   10  C   UNL     1      -8.542   1.995  66.993  1.00  0.00    -0.118 A  
ENDROOT
BRANCH   7  11
HETATM   11  N   UNL     1      -6.816   5.192  67.672  1.00  0.00    -0.059 NA 
HETATM   12  C   UNL     1      -5.196   5.972  69.377  1.00  0.00    -0.004 C  
HETATM   13  C   UNL     1      -6.187   4.845  68.962  1.00  0.00    -0.031 C  
HETATM   14  N   UNL     1      -5.774   7.344  69.438  1.00  0.00    -0.022 NA 
HETATM   15  C   UNL     1      -7.432   6.539  67.666  1.00  0.00    -0.097 C  
HETATM   16  C   UNL     1      -6.397   7.600  68.110  1.00  0.00    -0.049 C  
BRANCH  14  17
HETATM   17  C   UNL     1      -6.774   7.511  70.519  1.00  0.00    -0.047 C  
BRANCH  17  18
HETATM   18  C   UNL     1      -6.977   8.959  71.022  1.00  0.00    -0.085 C  
BRANCH  18  19
HETATM   19  O   UNL     1      -8.332   9.183  71.517  1.00  0.00    -0.336 OA 
BRANCH  19  20
HETATM   20  C   UNL     1      -9.190   9.565  70.539  1.00  0.00    -0.225 C  
HETATM   21  O   UNL     1      -8.811   9.911  69.418  1.00  0.00    -0.160 OA 
BRANCH  20  22
HETATM   22  C   UNL     1     -10.655   9.512  70.867  1.00  0.00    -0.395 A  
HETATM   23  C   UNL     1     -11.036   8.266  71.423  1.00  0.00    -0.302 A  
HETATM   24  C   UNL     1     -12.350   7.989  71.777  1.00  0.00    -0.352 A  
HETATM   25  C   UNL     1     -13.318   8.965  71.596  1.00  0.00    -0.414 A  
HETATM   26  C   UNL     1     -12.966  10.209  71.061  1.00  0.00    -0.473 A  
HETATM   27  C   UNL     1     -11.642  10.517  70.677  1.00  0.00    -0.352 A  
BRANCH  27  28
HETATM   28  N   UNL     1     -11.378  11.758  70.058  1.00  0.00    -0.501 NA 
HETATM   29  H   UNL     1     -11.237  12.517  70.726  1.00  0.00     0.000 HD 
BRANCH  28  30
HETATM   30  C   UNL     1     -11.266  12.176  68.700  1.00  0.00    -0.269 A  
HETATM   31  C   UNL     1     -10.794  13.481  68.419  1.00  0.00    -0.286 A  
HETATM   32  C   UNL     1     -10.147  14.254  69.396  1.00  0.00     0.111 A  
HETATM   33  C   UNL     1      -9.808  15.581  69.159  1.00  0.00    -0.246 A  
HETATM   34  C   UNL     1     -10.137  16.180  67.944  1.00  0.00    -0.244 A  
HETATM   35  C   UNL     1     -10.672  15.368  66.922  1.00  0.00    -0.314 A  
HETATM   36  C   UNL     1      -9.953  17.672  67.785  1.00  0.00    -0.315 C  
HETATM   37  C   UNL     1     -10.966  14.018  67.122  1.00  0.00    -0.296 A  
HETATM   38  F   UNL     1      -9.484  18.270  68.921  1.00  0.00    -0.314 F  
HETATM   39  F   UNL     1      -9.079  18.016  66.803  1.00  0.00    -0.244 F  
HETATM   40  F   UNL     1     -11.121  18.312  67.500  1.00  0.00    -0.403 F  
HETATM   41  N   UNL     1     -11.434  13.268  66.113  1.00  0.00    -0.317 NA 
HETATM   42  C   UNL     1     -11.745  11.972  66.371  1.00  0.00    -0.252 A  
HETATM   43  C   UNL     1     -11.700  11.395  67.638  1.00  0.00    -0.246 A  
ENDBRANCH  28  30
ENDBRANCH  27  28
ENDBRANCH  20  22
ENDBRANCH  19  20
ENDBRANCH  18  19
ENDBRANCH  17  18
ENDBRANCH  14  17
ENDBRANCH   7  11
TORSDOF 8
ENDMDL
MODEL      198
REMARK 921   NORMALIZED FREE ENERGY PREDICTED BY IDOCK:   -4.67 KCAL/MOL
REMARK 922        TOTAL FREE ENERGY PREDICTED BY IDOCK:  -10.25 KCAL/MOL
REMARK 923 INTER-LIGAND FREE ENERGY PREDICTED BY IDOCK:   -8.94 KCAL/MOL
REMARK 924 INTRA-LIGAND FREE ENERGY PREDICTED BY IDOCK:   -1.31 KCAL/MOL
REMARK 927      BINDING AFFINITY PREDICTED BY RF-SCORE:    0.00 PKD
ROOT
HETATM    1  F   UNL     1      -8.504  19.820  65.759  1.00  0.00    -0.348 F  
HETATM    2  C   UNL     1      -9.683  19.573  66.394  1.00  0.00    -0.401 C  
HETATM    3  C   UNL     1      -9.617  18.443  67.392  1.00  0.00    -0.292 A  
HETATM    4  F   UNL     1     -10.059  20.753  66.961  1.00  0.00    -0.584 F  
HETATM    5  F   UNL     1     -10.591  19.332  65.406  1.00  0.00    -0.472 F  
HETATM    6  C   UNL     1      -8.424  17.725  67.612  1.00  0.00    -0.229 A  
HETATM    7  C   UNL     1      -8.400  16.613  68.461  1.00  0.00    -0.228 A  
HETATM    8  C   UNL     1     -10.784  18.071  68.077  1.00  0.00    -0.301 A  
HETATM    9  C   UNL     1      -9.585  16.286  69.143  1.00  0.00    -0.251 A  
HETATM   10  C   UNL     1     -10.765  17.001  68.960  1.00  0.00    -0.271 A  
ENDROOT
BRANCH   7  11
HETATM   11  N   UNL     1      -7.292  15.778  68.638  1.00  0.00    -0.131 NA 
HETATM   12  C   UNL     1      -5.183  14.654  67.983  1.00  0.00    -0.104 C  
HETATM   13  C   UNL     1      -6.470  15.372  67.481  1.00  0.00    -0.144 C  
HETATM   14  N   UNL     1      -5.408  13.492  68.888  1.00  0.00    -0.072 NA 
HETATM   15  C   UNL     1      -7.575  14.664  69.574  1.00  0.00    -0.042 C  
HETATM   16  C   UNL     1      -6.254  13.987  70.009  1.00  0.00    -0.142 C  
BRANCH  14  17
HETATM   17  C   UNL     1      -6.061  12.344  68.216  1.00  0.00    -0.055 C  
BRANCH  17  18
HETATM   18  C   UNL     1      -5.890  10.976  68.916  1.00  0.00    -0.040 C  
BRANCH  18  19
HETATM   19  O   UNL     1      -7.134  10.212  68.937  1.00  0.00    -0.064 OA 
BRANCH  19  20
HETATM   20  C   UNL     1      -7.561   9.942  70.196  1.00  0.00    -0.175 C  
HETATM   21  O   UNL     1      -6.805   9.942  71.171  1.00  0.00    -0.337 OA 
BRANCH  20  22
HETATM   22  C   UNL     1      -9.029   9.677  70.369  1.00  0.00    -0.239 A  
HETATM   23  C   UNL     1      -9.315   9.006  71.584  1.00  0.00    -0.254 A  
HETATM   24  C   UNL     1     -10.607   8.638  71.937  1.00  0.00    -0.411 A  
HETATM   25  C   UNL     1     -11.653   8.949  71.082  1.00  0.00    -0.360 A  
HETATM   26  C   UNL     1     -11.400   9.623  69.882  1.00  0.00    -0.200 A  
HETATM   27  C   UNL     1     -10.097   9.997  69.487  1.00  0.00    -0.227 A  
BRANCH  27  28
HETATM   28  N   UNL     1      -9.907  10.591  68.221  1.00  0.00    -0.146 NA 
HETATM   29  H   UNL     1     -10.173  11.576  68.196  1.00  0.00     0.000 HD 
BRANCH  28  30
HETATM   30  C   UNL     1      -9.422  10.108  66.971  1.00  0.00    -0.167 A  
HETATM   31  C   UNL     1      -9.531   8.728  66.676  1.00  0.00    -0.263 A  
HETATM   32  C   UNL     1     -10.368   7.883  67.423  1.00  0.00    -0.349 A  
HETATM   33  C   UNL     1     -10.369   6.507  67.220  1.00  0.00    -0.283 A  
HETATM   34  C   UNL     1      -9.508   5.937  66.284  1.00  0.00    -0.161 A  
HETATM   35  C   UNL     1      -8.763   6.797  65.451  1.00  0.00     0.005 A  
HETATM   36  C   UNL     1      -9.372   4.433  66.229  1.00  0.00    -0.160 C  
HETATM   37  C   UNL     1      -8.792   8.185  65.599  1.00  0.00    -0.120 A  
HETATM   38  F   UNL     1     -10.135   3.799  67.169  1.00  0.00    -0.202 F  
HETATM   39  F   UNL     1      -9.736   3.892  65.037  1.00  0.00    -0.150 F  
HETATM   40  F   UNL     1      -8.096   4.017  66.465  1.00  0.00    -0.095 F  
HETATM   41  N   UNL     1      -8.103   8.973  64.760  1.00  0.00    -0.135 NA 
HETATM   42  C   UNL     1      -8.130  10.313  64.975  1.00  0.00    -0.146 A  
HETATM   43  C   UNL     1      -8.748  10.918  66.066  1.00  0.00    -0.192 A  
ENDBRANCH  28  30
ENDBRANCH  27  28
ENDBRANCH  20  22
ENDBRANCH  19  20
ENDBRANCH  18  19
ENDBRANCH  17  18
ENDBRANCH  14  17
ENDBRANCH   7  11
TORSDOF 8
ENDMDL
MODEL      199
REMARK 921   NORMALIZED FREE ENERGY PREDICTED BY IDOCK:   -4.65 KCAL/MOL
REMARK 922        TOTAL FREE ENERGY PREDICTED BY IDOCK:  -10.22 KCAL/MOL
REMARK 923 INTER-LIGAND FREE ENERGY PREDICTED BY IDOCK:   -8.01 KCAL/MOL
REMARK 924 INTRA-LIGAND FREE ENERGY PREDICTED BY IDOCK:   -2.21 KCAL/MOL
REMARK 927      BINDING AFFINITY PREDICTED BY RF-SCORE:    0.00 PKD
ROOT
HETATM    1  F   UNL     1     -10.458  15.672  70.382  1.00  0.00    -0.303 F  
HETATM    2  C   UNL     1     -11.457  15.505  69.471  1.00  0.00    -0.333 C  
HETATM    3  C   UNL     1     -11.213  14.384  68.492  1.00  0.00    -0.286 A  
HETATM    4  F   UNL     1     -12.598  15.333  70.194  1.00  0.00    -0.365 F  
HETATM    5  F   UNL     1     -11.593  16.710  68.848  1.00  0.00    -0.269 F  
HETATM    6  C   UNL     1     -10.038  13.606  68.542  1.00  0.00    -0.219 A  
HETATM    7  C   UNL     1      -9.774  12.638  67.566  1.00  0.00    -0.196 A  
HETATM    8  C   UNL     1     -12.157  14.146  67.481  1.00  0.00    -0.363 A  
HETATM    9  C   UNL     1     -10.754  12.418  66.582  1.00  0.00    -0.263 A  
HETATM   10  C   UNL     1     -11.933  13.157  66.534  1.00  0.00    -0.459 A  
ENDROOT
BRANCH   7  11
HETATM   11  N   UNL     1      -8.582  11.913  67.475  1.00  0.00    -0.153 NA 
HETATM   12  C   UNL     1      -7.181   9.911  67.062  1.00  0.00    -0.090 C  
HETATM   13  C   UNL     1      -8.606  10.439  67.397  1.00  0.00    -0.125 C  
HETATM   14  N   UNL     1      -6.098  10.360  67.982  1.00  0.00    -0.048 NA 
HETATM   15  C   UNL     1      -7.539  12.433  68.390  1.00  0.00    -0.129 C  
HETATM   16  C   UNL     1      -6.158  11.848  68.011  1.00  0.00    -0.055 C  
BRANCH  14  17
HETATM   17  C   UNL     1      -6.228   9.811  69.352  1.00  0.00    -0.044 C  
BRANCH  17  18
HETATM   18  C   UNL     1      -5.762   8.347  69.532  1.00  0.00    -0.030 C  
BRANCH  18  19
HETATM   19  O   UNL     1      -6.726   7.553  70.286  1.00  0.00    -0.045 OA 
BRANCH  19  20
HETATM   20  C   UNL     1      -6.698   6.239  69.950  1.00  0.00    -0.056 C  
HETATM   21  O   UNL     1      -5.868   5.451  70.410  1.00  0.00    -0.019 OA 
BRANCH  20  22
HETATM   22  C   UNL     1      -7.764   5.761  69.006  1.00  0.00    -0.090 A  
HETATM   23  C   UNL     1      -7.483   6.104  67.660  1.00  0.00    -0.088 A  
HETATM   24  C   UNL     1      -8.347   5.783  66.622  1.00  0.00    -0.109 A  
HETATM   25  C   UNL     1      -9.515   5.092  66.906  1.00  0.00    -0.148 A  
HETATM   26  C   UNL     1      -9.810   4.729  68.225  1.00  0.00    -0.181 A  
HETATM   27  C   UNL     1      -8.960   5.054  69.305  1.00  0.00    -0.096 A  
BRANCH  27  28
HETATM   28  N   UNL     1      -9.367   4.738  70.619  1.00  0.00    -0.144 NA 
HETATM   29  H   UNL     1      -9.467   3.735  70.777  1.00  0.00     0.000 HD 
BRANCH  28  30
HETATM   30  C   UNL     1      -9.669   5.521  71.771  1.00  0.00    -0.163 A  
HETATM   31  C   UNL     1     -10.479   6.673  71.628  1.00  0.00    -0.232 A  
HETATM   32  C   UNL     1     -11.242   6.893  70.470  1.00  0.00    -0.353 A  
HETATM   33  C   UNL     1     -11.928   8.087  70.275  1.00  0.00     0.278 A  
HETATM   34  C   UNL     1     -11.842   9.106  71.223  1.00  0.00    -0.396 A  
HETATM   35  C   UNL     1     -11.180   8.834  72.438  1.00  0.00    -0.251 A  
HETATM   36  C   UNL     1     -12.416  10.465  70.896  1.00  0.00    -0.381 C  
HETATM   37  C   UNL     1     -10.534   7.620  72.677  1.00  0.00    -0.287 A  
HETATM   38  F   UNL     1     -12.953  10.524  69.640  1.00  0.00    -0.239 F  
HETATM   39  F   UNL     1     -13.409  10.858  71.737  1.00  0.00    -0.482 F  
HETATM   40  F   UNL     1     -11.474  11.449  70.928  1.00  0.00    -0.258 F  
HETATM   41  N   UNL     1      -9.951   7.382  73.862  1.00  0.00    -0.274 NA 
HETATM   42  C   UNL     1      -9.299   6.202  74.028  1.00  0.00    -0.140 A  
HETATM   43  C   UNL     1      -9.113   5.263  73.017  1.00  0.00    -0.125 A  
ENDBRANCH  28  30
ENDBRANCH  27  28
ENDBRANCH  20  22
ENDBRANCH  19  20
ENDBRANCH  18  19
ENDBRANCH  17  18
ENDBRANCH  14  17
ENDBRANCH   7  11
TORSDOF 8
ENDMDL
MODEL      200
REMARK 921   NORMALIZED FREE ENERGY PREDICTED BY IDOCK:   -4.61 KCAL/MOL
REMARK 922        TOTAL FREE ENERGY PREDICTED BY IDOCK:  -10.17 KCAL/MOL
REMARK 923 INTER-LIGAND FREE ENERGY PREDICTED BY IDOCK:   -9.05 KCAL/MOL
REMARK 924 INTRA-LIGAND FREE ENERGY PREDICTED BY IDOCK:   -1.12 KCAL/MOL
REMARK 927      BINDING AFFINITY PREDICTED BY RF-SCORE:    0.00 PKD
ROOT
HETATM    1  F   UNL     1     -12.815  14.536  72.542  1.00  0.00    -0.364 F  
HETATM    2  C   UNL     1     -12.849  15.078  71.293  1.00  0.00    -0.367 C  
HETATM    3  C   UNL     1     -12.505  14.106  70.192  1.00  0.00    -0.391 A  
HETATM    4  F   UNL     1     -14.094  15.614  71.150  1.00  0.00    -0.543 F  
HETATM    5  F   UNL     1     -11.993  16.138  71.326  1.00  0.00    -0.406 F  
HETATM    6  C   UNL     1     -12.174  12.764  70.473  1.00  0.00    -0.389 A  
HETATM    7  C   UNL     1     -11.755  11.898  69.457  1.00  0.00    -0.345 A  
HETATM    8  C   UNL     1     -12.467  14.563  68.866  1.00  0.00     0.067 A  
HETATM    9  C   UNL     1     -11.749  12.390  68.140  1.00  0.00    -0.408 A  
HETATM   10  C   UNL     1     -12.101  13.704  67.840  1.00  0.00    -0.318 A  
ENDROOT
BRANCH   7  11
HETATM   11  N   UNL     1     -11.293  10.595  69.669  1.00  0.00    -0.271 NA 
HETATM   12  C   UNL     1     -10.050   8.802  70.844  1.00  0.00    -0.219 C  
HETATM   13  C   UNL     1     -10.197  10.336  70.624  1.00  0.00     0.346 C  
HETATM   14  N   UNL     1      -9.860   7.992  69.609  1.00  0.00    -0.181 NA 
HETATM   15  C   UNL     1     -11.159   9.836  68.404  1.00  0.00    -0.088 C  
HETATM   16  C   UNL     1     -10.994   8.327  68.704  1.00  0.00     0.212 C  
BRANCH  14  17
HETATM   17  C   UNL     1      -8.566   8.249  68.933  1.00  0.00    -0.132 C  
BRANCH  17  18
HETATM   18  C   UNL     1      -8.216   9.738  68.705  1.00  0.00    -0.108 C  
BRANCH  18  19
HETATM   19  O   UNL     1      -7.496   9.948  67.454  1.00  0.00    -0.090 OA 
BRANCH  19  20
HETATM   20  C   UNL     1      -8.228   9.602  66.365  1.00  0.00    -0.119 C  
HETATM   21  O   UNL     1      -8.315   8.441  65.962  1.00  0.00    -0.112 OA 
BRANCH  20  22
HETATM   22  C   UNL     1      -8.975  10.708  65.675  1.00  0.00    -0.203 A  
HETATM   23  C   UNL     1      -9.557  10.283  64.455  1.00  0.00    -0.378 A  
HETATM   24  C   UNL     1     -10.273  11.150  63.639  1.00  0.00    -0.444 A  
HETATM   25  C   UNL     1     -10.438  12.468  64.036  1.00  0.00    -0.449 A  
HETATM   26  C   UNL     1      -9.885  12.910  65.243  1.00  0.00    -0.111 A  
HETATM   27  C   UNL     1      -9.138  12.058  66.087  1.00  0.00    -0.129 A  
BRANCH  27  28
HETATM   28  N   UNL     1      -8.532  12.596  67.242  1.00  0.00    -0.186 NA 
HETATM   29  H   UNL     1      -8.924  12.229  68.110  1.00  0.00     0.000 HD 
BRANCH  28  30
HETATM   30  C   UNL     1      -7.488  13.544  67.455  1.00  0.00    -0.167 A  
HETATM   31  C   UNL     1      -7.812  14.919  67.538  1.00  0.00    -0.206 A  
HETATM   32  C   UNL     1      -9.135  15.350  67.730  1.00  0.00    -0.178 A  
HETATM   33  C   UNL     1      -9.469  16.698  67.674  1.00  0.00    -0.226 A  
HETATM   34  C   UNL     1      -8.490  17.650  67.394  1.00  0.00    -0.227 A  
HETATM   35  C   UNL     1      -7.147  17.228  67.327  1.00  0.00    -0.192 A  
HETATM   36  C   UNL     1      -8.908  19.079  67.128  1.00  0.00    -0.288 C  
HETATM   37  C   UNL     1      -6.783  15.884  67.438  1.00  0.00    -0.194 A  
HETATM   38  F   UNL     1     -10.262  19.252  67.180  1.00  0.00    -0.366 F  
HETATM   39  F   UNL     1      -8.390  19.974  68.010  1.00  0.00    -0.331 F  
HETATM   40  F   UNL     1      -8.540  19.506  65.888  1.00  0.00    -0.332 F  
HETATM   41  N   UNL     1      -5.491  15.525  67.413  1.00  0.00    -0.341 NA 
HETATM   42  C   UNL     1      -5.194  14.202  67.481  1.00  0.00     0.236 A  
HETATM   43  C   UNL     1      -6.146  13.185  67.480  1.00  0.00    -0.112 A  
ENDBRANCH  28  30
ENDBRANCH  27  28
ENDBRANCH  20  22
ENDBRANCH  19  20
ENDBRANCH  18  19
ENDBRANCH  17  18
ENDBRANCH  14  17
ENDBRANCH   7  11
TORSDOF 8
ENDMDL
MODEL      201
REMARK 921   NORMALIZED FREE ENERGY PREDICTED BY IDOCK:   -4.58 KCAL/MOL
REMARK 922        TOTAL FREE ENERGY PREDICTED BY IDOCK:  -10.12 KCAL/MOL
REMARK 923 INTER-LIGAND FREE ENERGY PREDICTED BY IDOCK:   -8.64 KCAL/MOL
REMARK 924 INTRA-LIGAND FREE ENERGY PREDICTED BY IDOCK:   -1.47 KCAL/MOL
REMARK 927      BINDING AFFINITY PREDICTED BY RF-SCORE:    0.00 PKD
ROOT
HETATM    1  F   UNL     1      -7.776  20.531  67.103  1.00  0.00    -0.319 F  
HETATM    2  C   UNL     1      -6.778  20.010  67.869  1.00  0.00    -0.260 C  
HETATM    3  C   UNL     1      -7.024  18.590  68.314  1.00  0.00    -0.261 A  
HETATM    4  F   UNL     1      -5.636  20.141  67.137  1.00  0.00    -0.164 F  
HETATM    5  F   UNL     1      -6.639  20.861  68.925  1.00  0.00    -0.267 F  
HETATM    6  C   UNL     1      -8.200  17.900  67.955  1.00  0.00    -0.246 A  
HETATM    7  C   UNL     1      -8.467  16.622  68.459  1.00  0.00    -0.233 A  
HETATM    8  C   UNL     1      -6.081  17.963  69.143  1.00  0.00    -0.225 A  
HETATM    9  C   UNL     1      -7.488  16.022  69.270  1.00  0.00    -0.228 A  
HETATM   10  C   UNL     1      -6.308  16.676  69.612  1.00  0.00    -0.217 A  
ENDROOT
BRANCH   7  11
HETATM   11  N   UNL     1      -9.661  15.924  68.251  1.00  0.00    -0.207 NA 
HETATM   12  C   UNL     1     -12.063  15.411  68.575  1.00  0.00    -0.054 C  
HETATM   13  C   UNL     1     -10.804  16.107  69.167  1.00  0.00    -0.298 C  
HETATM   14  N   UNL     1     -11.900  13.969  68.238  1.00  0.00    -0.360 NA 
HETATM   15  C   UNL     1      -9.425  14.507  67.887  1.00  0.00    -0.212 C  
HETATM   16  C   UNL     1     -10.724  13.878  67.329  1.00  0.00    -0.284 C  
BRANCH  14  17
HETATM   17  C   UNL     1     -11.703  13.108  69.427  1.00  0.00    -0.327 C  
BRANCH  17  18
HETATM   18  C   UNL     1     -11.984  11.602  69.215  1.00  0.00    -0.317 C  
BRANCH  18  19
HETATM   19  O   UNL     1     -11.602  10.804  70.376  1.00  0.00    -0.304 OA 
BRANCH  19  20
HETATM   20  C   UNL     1     -10.510  10.033  70.145  1.00  0.00    -0.284 C  
HETATM   21  O   UNL     1      -9.530  10.438  69.516  1.00  0.00    -0.205 OA 
BRANCH  20  22
HETATM   22  C   UNL     1     -10.523   8.650  70.731  1.00  0.00    -0.249 A  
HETATM   23  C   UNL     1     -11.493   8.509  71.754  1.00  0.00    -0.378 A  
HETATM   24  C   UNL     1     -11.661   7.319  72.450  1.00  0.00    -0.278 A  
HETATM   25  C   UNL     1     -10.867   6.230  72.126  1.00  0.00    -0.281 A  
HETATM   26  C   UNL     1      -9.910   6.339  71.112  1.00  0.00    -0.203 A  
HETATM   27  C   UNL     1      -9.704   7.538  70.395  1.00  0.00    -0.179 A  
BRANCH  27  28
HETATM   28  N   UNL     1      -8.658   7.602  69.449  1.00  0.00    -0.135 NA 
HETATM   29  H   UNL     1      -8.014   8.377  69.614  1.00  0.00     0.000 HD 
BRANCH  28  30
HETATM   30  C   UNL     1      -8.309   6.815  68.313  1.00  0.00    -0.118 A  
HETATM   31  C   UNL     1      -8.060   7.460  67.078  1.00  0.00    -0.113 A  
HETATM   32  C   UNL     1      -7.840   8.845  67.006  1.00  0.00    -0.102 A  
HETATM   33  C   UNL     1      -7.732   9.495  65.782  1.00  0.00    -0.100 A  
HETATM   34  C   UNL     1      -7.873   8.779  64.595  1.00  0.00    -0.127 A  
HETATM   35  C   UNL     1      -7.968   7.374  64.669  1.00  0.00    -0.127 A  
HETATM   36  C   UNL     1      -7.965   9.532  63.287  1.00  0.00    -0.143 C  
HETATM   37  C   UNL     1      -8.020   6.696  65.889  1.00  0.00    -0.112 A  
HETATM   38  F   UNL     1      -7.916  10.887  63.454  1.00  0.00    -0.078 F  
HETATM   39  F   UNL     1      -6.969   9.234  62.412  1.00  0.00    -0.101 F  
HETATM   40  F   UNL     1      -9.135   9.294  62.631  1.00  0.00    -0.245 F  
HETATM   41  N   UNL     1      -8.067   5.355  65.920  1.00  0.00    -0.106 NA 
HETATM   42  C   UNL     1      -8.160   4.747  67.130  1.00  0.00    -0.102 A  
HETATM   43  C   UNL     1      -8.306   5.426  68.338  1.00  0.00    -0.094 A  
ENDBRANCH  28  30
ENDBRANCH  27  28
ENDBRANCH  20  22
ENDBRANCH  19  20
ENDBRANCH  18  19
ENDBRANCH  17  18
ENDBRANCH  14  17
ENDBRANCH   7  11
TORSDOF 8
ENDMDL
MODEL      202
REMARK 921   NORMALIZED FREE ENERGY PREDICTED BY IDOCK:   -4.52 KCAL/MOL
REMARK 922        TOTAL FREE ENERGY PREDICTED BY IDOCK:  -10.04 KCAL/MOL
REMARK 923 INTER-LIGAND FREE ENERGY PREDICTED BY IDOCK:   -8.85 KCAL/MOL
REMARK 924 INTRA-LIGAND FREE ENERGY PREDICTED BY IDOCK:   -1.19 KCAL/MOL
REMARK 927      BINDING AFFINITY PREDICTED BY RF-SCORE:    0.00 PKD
ROOT
HETATM    1  F   UNL     1     -10.570  20.234  67.552  1.00  0.00    -0.480 F  
HETATM    2  C   UNL     1     -10.141  19.304  66.654  1.00  0.00    -0.399 C  
HETATM    3  C   UNL     1     -10.433  17.880  67.058  1.00  0.00    -0.345 A  
HETATM    4  F   UNL     1     -10.712  19.640  65.464  1.00  0.00    -0.572 F  
HETATM    5  F   UNL     1      -8.805  19.529  66.499  1.00  0.00    -0.296 F  
HETATM    6  C   UNL     1     -11.087  17.579  68.270  1.00  0.00     0.053 A  
HETATM    7  C   UNL     1     -11.260  16.253  68.685  1.00  0.00    -0.354 A  
HETATM    8  C   UNL     1      -9.999  16.834  66.229  1.00  0.00    -0.336 A  
HETATM    9  C   UNL     1     -10.829  15.236  67.816  1.00  0.00    -0.295 A  
HETATM   10  C   UNL     1     -10.207  15.514  66.602  1.00  0.00    -0.280 A  
ENDROOT
BRANCH   7  11
HETATM   11  N   UNL     1     -11.786  15.875  69.924  1.00  0.00    -0.336 NA 
HETATM   12  C   UNL     1     -11.738  14.855  72.181  1.00  0.00    -0.263 C  
HETATM   13  C   UNL     1     -11.066  14.910  70.779  1.00  0.00    -0.120 C  
HETATM   14  N   UNL     1     -13.197  14.555  72.183  1.00  0.00    -0.341 NA 
HETATM   15  C   UNL     1     -13.245  15.626  69.861  1.00  0.00     0.712 C  
HETATM   16  C   UNL     1     -13.836  15.561  71.289  1.00  0.00    -0.346 C  
BRANCH  14  17
HETATM   17  C   UNL     1     -13.514  13.182  71.725  1.00  0.00    -0.335 C  
BRANCH  17  18
HETATM   18  C   UNL     1     -12.296  12.258  71.493  1.00  0.00     0.163 C  
BRANCH  18  19
HETATM   19  O   UNL     1     -11.924  12.182  70.084  1.00  0.00    -0.339 OA 
BRANCH  19  20
HETATM   20  C   UNL     1     -11.416  10.972  69.741  1.00  0.00    -0.311 C  
HETATM   21  O   UNL     1     -11.214  10.077  70.564  1.00  0.00    -0.287 OA 
BRANCH  20  22
HETATM   22  C   UNL     1     -11.138  10.745  68.282  1.00  0.00    -0.327 A  
HETATM   23  C   UNL     1     -11.364  11.908  67.505  1.00  0.00    -0.381 A  
HETATM   24  C   UNL     1     -11.194  11.918  66.127  1.00  0.00    -0.387 A  
HETATM   25  C   UNL     1     -10.775  10.759  65.491  1.00  0.00    -0.145 A  
HETATM   26  C   UNL     1     -10.532   9.600  66.237  1.00  0.00    -0.149 A  
HETATM   27  C   UNL     1     -10.710   9.553  67.637  1.00  0.00    -0.250 A  
BRANCH  27  28
HETATM   28  N   UNL     1     -10.536   8.325  68.311  1.00  0.00    -0.387 NA 
HETATM   29  H   UNL     1     -11.414   7.915  68.631  1.00  0.00     0.000 HD 
BRANCH  28  30
HETATM   30  C   UNL     1      -9.395   7.536  68.639  1.00  0.00    -0.143 A  
HETATM   31  C   UNL     1      -9.140   6.355  67.901  1.00  0.00    -0.112 A  
HETATM   32  C   UNL     1      -9.778   6.104  66.675  1.00  0.00    -0.196 A  
HETATM   33  C   UNL     1      -9.630   4.886  66.022  1.00  0.00    -0.185 A  
HETATM   34  C   UNL     1      -8.861   3.874  66.594  1.00  0.00    -0.127 A  
HETATM   35  C   UNL     1      -8.122   4.173  67.758  1.00  0.00    -0.094 A  
HETATM   36  C   UNL     1      -8.885   2.493  65.979  1.00  0.00    -0.132 C  
HETATM   37  C   UNL     1      -8.212   5.411  68.398  1.00  0.00    -0.094 A  
HETATM   38  F   UNL     1      -9.717   2.411  64.898  1.00  0.00    -0.136 F  
HETATM   39  F   UNL     1      -7.671   2.068  65.539  1.00  0.00    -0.066 F  
HETATM   40  F   UNL     1      -9.332   1.544  66.848  1.00  0.00    -0.130 F  
HETATM   41  N   UNL     1      -7.461   5.673  69.479  1.00  0.00    -0.070 NA 
HETATM   42  C   UNL     1      -7.619   6.875  70.089  1.00  0.00    -0.099 A  
HETATM   43  C   UNL     1      -8.577   7.818  69.725  1.00  0.00    -0.134 A  
ENDBRANCH  28  30
ENDBRANCH  27  28
ENDBRANCH  20  22
ENDBRANCH  19  20
ENDBRANCH  18  19
ENDBRANCH  17  18
ENDBRANCH  14  17
ENDBRANCH   7  11
TORSDOF 8
ENDMDL
MODEL      203
REMARK 921   NORMALIZED FREE ENERGY PREDICTED BY IDOCK:   -4.51 KCAL/MOL
REMARK 922        TOTAL FREE ENERGY PREDICTED BY IDOCK:  -10.02 KCAL/MOL
REMARK 923 INTER-LIGAND FREE ENERGY PREDICTED BY IDOCK:   -8.12 KCAL/MOL
REMARK 924 INTRA-LIGAND FREE ENERGY PREDICTED BY IDOCK:   -1.90 KCAL/MOL
REMARK 927      BINDING AFFINITY PREDICTED BY RF-SCORE:    0.00 PKD
ROOT
HETATM    1  F   UNL     1     -10.179  15.107  64.334  1.00  0.00    -0.194 F  
HETATM    2  C   UNL     1     -11.062  15.360  65.340  1.00  0.00    -0.326 C  
HETATM    3  C   UNL     1     -11.109  14.288  66.400  1.00  0.00    -0.325 A  
HETATM    4  F   UNL     1     -10.721  16.580  65.840  1.00  0.00    -0.318 F  
HETATM    5  F   UNL     1     -12.271  15.534  64.734  1.00  0.00    -0.191 F  
HETATM    6  C   UNL     1     -10.299  13.136  66.318  1.00  0.00    -0.291 A  
HETATM    7  C   UNL     1     -10.425  12.100  67.250  1.00  0.00    -0.218 A  
HETATM    8  C   UNL     1     -12.013  14.422  67.464  1.00  0.00    -0.389 A  
HETATM    9  C   UNL     1     -11.329  12.282  68.311  1.00  0.00    -0.339 A  
HETATM   10  C   UNL     1     -12.116  13.425  68.425  1.00  0.00    -0.270 A  
ENDROOT
BRANCH   7  11
HETATM   11  N   UNL     1      -9.750  10.878  67.169  1.00  0.00    -0.172 NA 
HETATM   12  C   UNL     1      -9.120   8.593  67.891  1.00  0.00    -0.140 C  
HETATM   13  C   UNL     1      -9.719   9.962  68.326  1.00  0.00    -0.144 C  
HETATM   14  N   UNL     1      -7.778   8.655  67.248  1.00  0.00    -0.096 NA 
HETATM   15  C   UNL     1      -8.440  11.006  66.489  1.00  0.00    -0.161 C  
HETATM   16  C   UNL     1      -7.899   9.608  66.109  1.00  0.00    -0.101 C  
BRANCH  14  17
HETATM   17  C   UNL     1      -6.705   9.090  68.172  1.00  0.00    -0.065 C  
BRANCH  17  18
HETATM   18  C   UNL     1      -6.784   8.514  69.606  1.00  0.00    -0.040 C  
BRANCH  18  19
HETATM   19  O   UNL     1      -7.110   9.539  70.592  1.00  0.00    -0.111 OA 
BRANCH  19  20
HETATM   20  C   UNL     1      -6.271   9.525  71.657  1.00  0.00     0.079 C  
HETATM   21  O   UNL     1      -5.384  10.366  71.818  1.00  0.00    -0.232 OA 
BRANCH  20  22
HETATM   22  C   UNL     1      -6.492   8.445  72.678  1.00  0.00    -0.099 A  
HETATM   23  C   UNL     1      -5.282   7.825  73.075  1.00  0.00    -0.037 A  
HETATM   24  C   UNL     1      -5.255   6.782  73.992  1.00  0.00    -0.042 A  
HETATM   25  C   UNL     1      -6.447   6.342  74.548  1.00  0.00    -0.074 A  
HETATM   26  C   UNL     1      -7.654   6.946  74.183  1.00  0.00    -0.116 A  
HETATM   27  C   UNL     1      -7.718   7.999  73.243  1.00  0.00    -0.157 A  
BRANCH  27  28
HETATM   28  N   UNL     1      -8.979   8.497  72.854  1.00  0.00    -0.340 NA 
HETATM   29  H   UNL     1      -9.084   9.498  73.019  1.00  0.00     0.000 HD 
BRANCH  28  30
HETATM   30  C   UNL     1     -10.139   7.899  72.279  1.00  0.00    -0.236 A  
HETATM   31  C   UNL     1      -9.981   6.919  71.270  1.00  0.00    -0.189 A  
HETATM   32  C   UNL     1      -8.743   6.297  71.039  1.00  0.00    -0.136 A  
HETATM   33  C   UNL     1      -8.557   5.439  69.962  1.00  0.00    -0.124 A  
HETATM   34  C   UNL     1      -9.599   5.203  69.067  1.00  0.00    -0.204 A  
HETATM   35  C   UNL     1     -10.872   5.728  69.372  1.00  0.00    -0.393 A  
HETATM   36  C   UNL     1      -9.317   4.441  67.793  1.00  0.00    -0.153 C  
HETATM   37  C   UNL     1     -11.094   6.546  70.481  1.00  0.00    -0.319 A  
HETATM   38  F   UNL     1      -8.004   4.083  67.671  1.00  0.00    -0.086 F  
HETATM   39  F   UNL     1     -10.024   3.285  67.677  1.00  0.00    -0.182 F  
HETATM   40  F   UNL     1      -9.594   5.172  66.677  1.00  0.00    -0.126 F  
HETATM   41  N   UNL     1     -12.328   6.991  70.763  1.00  0.00    -0.322 NA 
HETATM   42  C   UNL     1     -12.481   7.818  71.828  1.00  0.00    -0.320 A  
HETATM   43  C   UNL     1     -11.427   8.313  72.592  1.00  0.00    -0.423 A  
ENDBRANCH  28  30
ENDBRANCH  27  28
ENDBRANCH  20  22
ENDBRANCH  19  20
ENDBRANCH  18  19
ENDBRANCH  17  18
ENDBRANCH  14  17
ENDBRANCH   7  11
TORSDOF 8
ENDMDL
MODEL      204
REMARK 921   NORMALIZED FREE ENERGY PREDICTED BY IDOCK:   -4.50 KCAL/MOL
REMARK 922        TOTAL FREE ENERGY PREDICTED BY IDOCK:  -10.01 KCAL/MOL
REMARK 923 INTER-LIGAND FREE ENERGY PREDICTED BY IDOCK:   -7.60 KCAL/MOL
REMARK 924 INTRA-LIGAND FREE ENERGY PREDICTED BY IDOCK:   -2.41 KCAL/MOL
REMARK 927      BINDING AFFINITY PREDICTED BY RF-SCORE:    0.00 PKD
ROOT
HETATM    1  F   UNL     1     -10.917  10.958  64.644  1.00  0.00    -0.364 F  
HETATM    2  C   UNL     1     -11.258  12.268  64.804  1.00  0.00    -0.318 C  
HETATM    3  C   UNL     1     -11.420  12.688  66.243  1.00  0.00    -0.415 A  
HETATM    4  F   UNL     1     -10.302  12.986  64.151  1.00  0.00    -0.384 F  
HETATM    5  F   UNL     1     -12.404  12.441  64.087  1.00  0.00    -0.450 F  
HETATM    6  C   UNL     1     -11.236  11.775  67.302  1.00  0.00    -0.364 A  
HETATM    7  C   UNL     1     -11.491  12.148  68.627  1.00  0.00    -0.296 A  
HETATM    8  C   UNL     1     -11.811  14.006  66.528  1.00  0.00    -0.439 A  
HETATM    9  C   UNL     1     -11.862  13.482  68.870  1.00  0.00    -0.384 A  
HETATM   10  C   UNL     1     -12.021  14.405  67.840  1.00  0.00    -0.348 A  
ENDROOT
BRANCH   7  11
HETATM   11  N   UNL     1     -11.451  11.272  69.716  1.00  0.00    -0.297 NA 
HETATM   12  C   UNL     1     -10.434   9.594  71.229  1.00  0.00    -0.146 C  
HETATM   13  C   UNL     1     -10.380  10.261  69.824  1.00  0.00    -0.246 C  
HETATM   14  N   UNL     1     -11.746   8.996  71.605  1.00  0.00    -0.335 NA 
HETATM   15  C   UNL     1     -12.792  10.741  70.056  1.00  0.00    -0.012 C  
HETATM   16  C   UNL     1     -12.762  10.074  71.452  1.00  0.00    -0.415 C  
BRANCH  14  17
HETATM   17  C   UNL     1     -12.112   7.820  70.781  1.00  0.00    -0.100 C  
BRANCH  17  18
HETATM   18  C   UNL     1     -11.885   6.442  71.445  1.00  0.00    -0.281 C  
BRANCH  18  19
HETATM   19  O   UNL     1     -10.520   6.287  71.937  1.00  0.00    -0.202 OA 
BRANCH  19  20
HETATM   20  C   UNL     1      -9.618   6.128  70.936  1.00  0.00    -0.173 C  
HETATM   21  O   UNL     1      -9.951   5.951  69.762  1.00  0.00    -0.163 OA 
BRANCH  20  22
HETATM   22  C   UNL     1      -8.167   6.215  71.313  1.00  0.00    -0.123 A  
HETATM   23  C   UNL     1      -7.971   6.892  72.543  1.00  0.00    -0.099 A  
HETATM   24  C   UNL     1      -6.705   7.110  73.071  1.00  0.00    -0.065 A  
HETATM   25  C   UNL     1      -5.598   6.638  72.383  1.00  0.00    -0.037 A  
HETATM   26  C   UNL     1      -5.764   5.954  71.174  1.00  0.00    -0.018 A  
HETATM   27  C   UNL     1      -7.036   5.730  70.602  1.00  0.00    -0.058 A  
BRANCH  27  28
HETATM   28  N   UNL     1      -7.121   5.115  69.335  1.00  0.00    -0.055 NA 
HETATM   29  H   UNL     1      -7.830   4.383  69.290  1.00  0.00     0.000 HD 
BRANCH  28  30
HETATM   30  C   UNL     1      -6.427   5.300  68.103  1.00  0.00    -0.048 A  
HETATM   31  C   UNL     1      -6.589   6.516  67.397  1.00  0.00    -0.061 A  
HETATM   32  C   UNL     1      -7.148   7.650  68.008  1.00  0.00    -0.085 A  
HETATM   33  C   UNL     1      -7.431   8.797  67.276  1.00  0.00    -0.089 A  
HETATM   34  C   UNL     1      -7.190   8.829  65.904  1.00  0.00    -0.084 A  
HETATM   35  C   UNL     1      -6.514   7.739  65.319  1.00  0.00    -0.041 A  
HETATM   36  C   UNL     1      -7.698  10.000  65.094  1.00  0.00    -0.137 C  
HETATM   37  C   UNL     1      -6.168   6.600  66.049  1.00  0.00    -0.041 A  
HETATM   38  F   UNL     1      -8.382  10.909  65.851  1.00  0.00    -0.153 F  
HETATM   39  F   UNL     1      -6.717  10.705  64.473  1.00  0.00    -0.091 F  
HETATM   40  F   UNL     1      -8.571   9.618  64.120  1.00  0.00    -0.145 F  
HETATM   41  N   UNL     1      -5.487   5.600  65.468  1.00  0.00    -0.013 NA 
HETATM   42  C   UNL     1      -5.215   4.497  66.211  1.00  0.00    -0.009 A  
HETATM   43  C   UNL     1      -5.677   4.293  67.509  1.00  0.00    -0.022 A  
ENDBRANCH  28  30
ENDBRANCH  27  28
ENDBRANCH  20  22
ENDBRANCH  19  20
ENDBRANCH  18  19
ENDBRANCH  17  18
ENDBRANCH  14  17
ENDBRANCH   7  11
TORSDOF 8
ENDMDL
MODEL      205
REMARK 921   NORMALIZED FREE ENERGY PREDICTED BY IDOCK:   -4.46 KCAL/MOL
REMARK 922        TOTAL FREE ENERGY PREDICTED BY IDOCK:   -9.95 KCAL/MOL
REMARK 923 INTER-LIGAND FREE ENERGY PREDICTED BY IDOCK:   -7.24 KCAL/MOL
REMARK 924 INTRA-LIGAND FREE ENERGY PREDICTED BY IDOCK:   -2.71 KCAL/MOL
REMARK 927      BINDING AFFINITY PREDICTED BY RF-SCORE:    0.00 PKD
ROOT
HETATM    1  F   UNL     1     -10.307  14.230  67.691  1.00  0.00    -0.239 F  
HETATM    2  C   UNL     1     -11.382  14.312  66.857  1.00  0.00    -0.343 C  
HETATM    3  C   UNL     1     -11.309  13.384  65.670  1.00  0.00    -0.316 A  
HETATM    4  F   UNL     1     -12.477  14.086  67.634  1.00  0.00    -0.357 F  
HETATM    5  F   UNL     1     -11.459  15.620  66.481  1.00  0.00    -0.210 F  
HETATM    6  C   UNL     1     -10.205  12.529  65.471  1.00  0.00    -0.295 A  
HETATM    7  C   UNL     1     -10.098  11.749  64.314  1.00  0.00    -0.290 A  
HETATM    8  C   UNL     1     -12.341  13.411  64.720  1.00  0.00    -0.444 A  
HETATM    9  C   UNL     1     -11.163  11.791  63.397  1.00  0.00    -0.440 A  
HETATM   10  C   UNL     1     -12.274  12.607  63.591  1.00  0.00    -0.624 A  
ENDROOT
BRANCH   7  11
HETATM   11  N   UNL     1      -8.983  10.972  63.985  1.00  0.00    -0.100 NA 
HETATM   12  C   UNL     1      -7.741   9.199  62.780  1.00  0.00    -0.118 C  
HETATM   13  C   UNL     1      -9.141   9.727  63.207  1.00  0.00    -0.237 C  
HETATM   14  N   UNL     1      -6.767   8.993  63.888  1.00  0.00    -0.088 NA 
HETATM   15  C   UNL     1      -8.041  10.836  65.121  1.00  0.00     0.004 C  
HETATM   16  C   UNL     1      -6.684  10.285  64.623  1.00  0.00    -0.084 C  
BRANCH  14  17
HETATM   17  C   UNL     1      -7.152   7.898  64.810  1.00  0.00    -0.071 C  
BRANCH  17  18
HETATM   18  C   UNL     1      -6.160   7.617  65.963  1.00  0.00    -0.038 C  
BRANCH  18  19
HETATM   19  O   UNL     1      -6.705   7.999  67.262  1.00  0.00    -0.062 OA 
BRANCH  19  20
HETATM   20  C   UNL     1      -6.993   6.928  68.043  1.00  0.00    -0.083 C  
HETATM   21  O   UNL     1      -6.168   6.416  68.803  1.00  0.00    -0.027 OA 
BRANCH  20  22
HETATM   22  C   UNL     1      -8.399   6.401  67.976  1.00  0.00    -0.115 A  
HETATM   23  C   UNL     1      -8.546   5.386  66.999  1.00  0.00    -0.109 A  
HETATM   24  C   UNL     1      -9.768   4.775  66.749  1.00  0.00    -0.203 A  
HETATM   25  C   UNL     1     -10.877   5.159  67.487  1.00  0.00     0.224 A  
HETATM   26  C   UNL     1     -10.756   6.150  68.467  1.00  0.00    -0.365 A  
HETATM   27  C   UNL     1      -9.532   6.801  68.735  1.00  0.00    -0.130 A  
BRANCH  27  28
HETATM   28  N   UNL     1      -9.506   7.855  69.673  1.00  0.00    -0.160 NA 
HETATM   29  H   UNL     1     -10.436   8.185  69.932  1.00  0.00     0.000 HD 
BRANCH  28  30
HETATM   30  C   UNL     1      -8.457   8.558  70.335  1.00  0.00    -0.137 A  
HETATM   31  C   UNL     1      -8.085   9.842  69.867  1.00  0.00    -0.192 A  
HETATM   32  C   UNL     1      -8.907  10.568  68.990  1.00  0.00    -0.174 A  
HETATM   33  C   UNL     1      -8.479  11.765  68.427  1.00  0.00    -0.155 A  
HETATM   34  C   UNL     1      -7.202  12.251  68.703  1.00  0.00    -0.105 A  
HETATM   35  C   UNL     1      -6.431  11.586  69.679  1.00  0.00    -0.129 A  
HETATM   36  C   UNL     1      -6.679  13.434  67.920  1.00  0.00    -0.150 C  
HETATM   37  C   UNL     1      -6.867  10.414  70.300  1.00  0.00    -0.126 A  
HETATM   38  F   UNL     1      -7.566  13.879  66.981  1.00  0.00    -0.160 F  
HETATM   39  F   UNL     1      -6.386  14.515  68.690  1.00  0.00    -0.079 F  
HETATM   40  F   UNL     1      -5.544  13.137  67.228  1.00  0.00    -0.107 F  
HETATM   41  N   UNL     1      -6.124   9.834  71.255  1.00  0.00    -0.233 NA 
HETATM   42  C   UNL     1      -6.574   8.673  71.796  1.00  0.00    -0.075 A  
HETATM   43  C   UNL     1      -7.707   7.993  71.358  1.00  0.00    -0.092 A  
ENDBRANCH  28  30
ENDBRANCH  27  28
ENDBRANCH  20  22
ENDBRANCH  19  20
ENDBRANCH  18  19
ENDBRANCH  17  18
ENDBRANCH  14  17
ENDBRANCH   7  11
TORSDOF 8
ENDMDL
MODEL      206
REMARK 921   NORMALIZED FREE ENERGY PREDICTED BY IDOCK:   -4.37 KCAL/MOL
REMARK 922        TOTAL FREE ENERGY PREDICTED BY IDOCK:   -9.82 KCAL/MOL
REMARK 923 INTER-LIGAND FREE ENERGY PREDICTED BY IDOCK:   -8.04 KCAL/MOL
REMARK 924 INTRA-LIGAND FREE ENERGY PREDICTED BY IDOCK:   -1.78 KCAL/MOL
REMARK 927      BINDING AFFINITY PREDICTED BY RF-SCORE:    0.00 PKD
ROOT
HETATM    1  F   UNL     1      -7.792   3.298  67.343  1.00  0.00    -0.074 F  
HETATM    2  C   UNL     1      -7.677   3.575  66.015  1.00  0.00    -0.082 C  
HETATM    3  C   UNL     1      -7.679   5.049  65.693  1.00  0.00    -0.087 A  
HETATM    4  F   UNL     1      -6.542   2.948  65.597  1.00  0.00    -0.032 F  
HETATM    5  F   UNL     1      -8.707   2.918  65.409  1.00  0.00    -0.104 F  
HETATM    6  C   UNL     1      -7.799   6.023  66.706  1.00  0.00    -0.101 A  
HETATM    7  C   UNL     1      -7.905   7.382  66.389  1.00  0.00    -0.102 A  
HETATM    8  C   UNL     1      -7.607   5.454  64.352  1.00  0.00    -0.075 A  
HETATM    9  C   UNL     1      -7.809   7.746  65.035  1.00  0.00    -0.125 A  
HETATM   10  C   UNL     1      -7.661   6.801  64.023  1.00  0.00    -0.112 A  
ENDROOT
BRANCH   7  11
HETATM   11  N   UNL     1      -8.149   8.394  67.322  1.00  0.00    -0.105 NA 
HETATM   12  C   UNL     1      -8.941  10.612  68.094  1.00  0.00    -0.141 C  
HETATM   13  C   UNL     1      -8.486   9.760  66.874  1.00  0.00    -0.120 C  
HETATM   14  N   UNL     1      -7.980  10.666  69.232  1.00  0.00    -0.150 NA 
HETATM   15  C   UNL     1      -7.179   8.370  68.442  1.00  0.00    -0.085 C  
HETATM   16  C   UNL     1      -7.686   9.254  69.605  1.00  0.00    -0.087 C  
BRANCH  14  17
HETATM   17  C   UNL     1      -6.727  11.386  68.906  1.00  0.00    -0.080 C  
BRANCH  17  18
HETATM   18  C   UNL     1      -6.531  12.744  69.620  1.00  0.00    -0.046 C  
BRANCH  18  19
HETATM   19  O   UNL     1      -5.830  13.709  68.780  1.00  0.00    -0.078 OA 
BRANCH  19  20
HETATM   20  C   UNL     1      -6.673  14.561  68.145  1.00  0.00    -0.125 C  
HETATM   21  O   UNL     1      -7.416  14.202  67.229  1.00  0.00    -0.167 OA 
BRANCH  20  22
HETATM   22  C   UNL     1      -6.697  15.980  68.636  1.00  0.00    -0.125 A  
HETATM   23  C   UNL     1      -5.426  16.412  69.093  1.00  0.00    -0.121 A  
HETATM   24  C   UNL     1      -5.224  17.683  69.615  1.00  0.00    -0.187 A  
HETATM   25  C   UNL     1      -6.293  18.564  69.677  1.00  0.00    -0.217 A  
HETATM   26  C   UNL     1      -7.554  18.168  69.220  1.00  0.00     0.054 A  
HETATM   27  C   UNL     1      -7.797  16.878  68.699  1.00  0.00    -0.244 A  
BRANCH  27  28
HETATM   28  N   UNL     1      -9.114  16.517  68.344  1.00  0.00    -0.215 NA 
HETATM   29  H   UNL     1      -9.606  16.014  69.083  1.00  0.00     0.000 HD 
BRANCH  28  30
HETATM   30  C   UNL     1      -9.904  16.706  67.172  1.00  0.00    -0.257 A  
HETATM   31  C   UNL     1     -10.392  15.571  66.480  1.00  0.00    -0.293 A  
HETATM   32  C   UNL     1     -10.390  14.297  67.069  1.00  0.00    -0.267 A  
HETATM   33  C   UNL     1     -10.741  13.166  66.341  1.00  0.00    -0.293 A  
HETATM   34  C   UNL     1     -11.073  13.277  64.992  1.00  0.00    -0.327 A  
HETATM   35  C   UNL     1     -11.195  14.569  64.439  1.00  0.00    -0.208 A  
HETATM   36  C   UNL     1     -11.242  12.021  64.169  1.00  0.00    -0.373 C  
HETATM   37  C   UNL     1     -10.903  15.722  65.170  1.00  0.00    -0.428 A  
HETATM   38  F   UNL     1     -11.014  10.883  64.890  1.00  0.00    -0.328 F  
HETATM   39  F   UNL     1     -12.485  11.876  63.638  1.00  0.00    -0.554 F  
HETATM   40  F   UNL     1     -10.370  11.962  63.124  1.00  0.00    -0.386 F  
HETATM   41  N   UNL     1     -11.072  16.936  64.623  1.00  0.00    -0.990 NA 
HETATM   42  C   UNL     1     -10.733  18.022  65.362  1.00  0.00     0.163 A  
HETATM   43  C   UNL     1     -10.131  17.958  66.617  1.00  0.00    -0.362 A  
ENDBRANCH  28  30
ENDBRANCH  27  28
ENDBRANCH  20  22
ENDBRANCH  19  20
ENDBRANCH  18  19
ENDBRANCH  17  18
ENDBRANCH  14  17
ENDBRANCH   7  11
TORSDOF 8
ENDMDL
MODEL      207
REMARK 921   NORMALIZED FREE ENERGY PREDICTED BY IDOCK:   -4.35 KCAL/MOL
REMARK 922        TOTAL FREE ENERGY PREDICTED BY IDOCK:   -9.78 KCAL/MOL
REMARK 923 INTER-LIGAND FREE ENERGY PREDICTED BY IDOCK:   -7.89 KCAL/MOL
REMARK 924 INTRA-LIGAND FREE ENERGY PREDICTED BY IDOCK:   -1.89 KCAL/MOL
REMARK 927      BINDING AFFINITY PREDICTED BY RF-SCORE:    0.00 PKD
ROOT
HETATM    1  F   UNL     1      -8.848   8.500  70.038  1.00  0.00    -0.130 F  
HETATM    2  C   UNL     1      -9.836   8.665  70.961  1.00  0.00    -0.210 C  
HETATM    3  C   UNL     1     -10.785   9.795  70.647  1.00  0.00    -0.394 A  
HETATM    4  F   UNL     1     -10.466   7.461  71.055  1.00  0.00    -0.211 F  
HETATM    5  F   UNL     1      -9.202   8.844  72.154  1.00  0.00    -0.318 F  
HETATM    6  C   UNL     1     -10.624  10.593  69.496  1.00  0.00    -0.265 A  
HETATM    7  C   UNL     1     -11.446  11.703  69.269  1.00  0.00    -0.300 A  
HETATM    8  C   UNL     1     -11.820  10.085  71.549  1.00  0.00    -0.406 A  
HETATM    9  C   UNL     1     -12.482  11.947  70.187  1.00  0.00    -0.151 A  
HETATM   10  C   UNL     1     -12.675  11.153  71.314  1.00  0.00    -0.531 A  
ENDROOT
BRANCH   7  11
HETATM   11  N   UNL     1     -11.274  12.612  68.221  1.00  0.00    -0.252 NA 
HETATM   12  C   UNL     1     -11.906  13.823  66.154  1.00  0.00    -0.398 C  
HETATM   13  C   UNL     1     -12.157  12.568  67.039  1.00  0.00    -0.077 C  
HETATM   14  N   UNL     1     -10.494  14.039  65.732  1.00  0.00    -0.298 NA 
HETATM   15  C   UNL     1      -9.846  12.805  67.876  1.00  0.00    -0.223 C  
HETATM   16  C   UNL     1      -9.678  14.054  66.978  1.00  0.00    -0.256 C  
BRANCH  14  17
HETATM   17  C   UNL     1      -9.995  13.001  64.800  1.00  0.00    -0.125 C  
BRANCH  17  18
HETATM   18  C   UNL     1     -10.943  11.801  64.568  1.00  0.00    -0.324 C  
BRANCH  18  19
HETATM   19  O   UNL     1     -10.316  10.530  64.918  1.00  0.00    -0.328 OA 
BRANCH  19  20
HETATM   20  C   UNL     1      -9.384  10.140  64.013  1.00  0.00    -0.287 C  
HETATM   21  O   UNL     1      -9.573  10.194  62.796  1.00  0.00    -0.302 OA 
BRANCH  20  22
HETATM   22  C   UNL     1      -8.068   9.664  64.561  1.00  0.00    -0.143 A  
HETATM   23  C   UNL     1      -7.014  10.571  64.291  1.00  0.00     0.121 A  
HETATM   24  C   UNL     1      -5.706  10.319  64.685  1.00  0.00    -0.132 A  
HETATM   25  C   UNL     1      -5.424   9.151  65.377  1.00  0.00    -0.038 A  
HETATM   26  C   UNL     1      -6.448   8.245  65.668  1.00  0.00    -0.052 A  
HETATM   27  C   UNL     1      -7.786   8.464  65.268  1.00  0.00    -0.098 A  
BRANCH  27  28
HETATM   28  N   UNL     1      -8.749   7.463  65.515  1.00  0.00    -0.327 NA 
HETATM   29  H   UNL     1      -9.013   6.945  64.677  1.00  0.00     0.000 HD 
BRANCH  28  30
HETATM   30  C   UNL     1      -9.431   7.020  66.686  1.00  0.00    -0.165 A  
HETATM   31  C   UNL     1      -8.806   6.072  67.531  1.00  0.00    -0.109 A  
HETATM   32  C   UNL     1      -7.433   5.793  67.430  1.00  0.00    -0.081 A  
HETATM   33  C   UNL     1      -6.851   4.767  68.165  1.00  0.00    -0.056 A  
HETATM   34  C   UNL     1      -7.634   3.972  69.000  1.00  0.00    -0.054 A  
HETATM   35  C   UNL     1      -8.983   4.335  69.194  1.00  0.00    -0.157 A  
HETATM   36  C   UNL     1      -7.026   2.736  69.622  1.00  0.00    -0.034 C  
HETATM   37  C   UNL     1      -9.573   5.398  68.509  1.00  0.00    -0.129 A  
HETATM   38  F   UNL     1      -5.727   2.540  69.247  1.00  0.00    -0.018 F  
HETATM   39  F   UNL     1      -7.016   2.754  70.981  1.00  0.00    -0.030 F  
HETATM   40  F   UNL     1      -7.679   1.596  69.259  1.00  0.00    -0.042 F  
HETATM   41  N   UNL     1     -10.848   5.740  68.753  1.00  0.00    -0.255 NA 
HETATM   42  C   UNL     1     -11.386   6.754  68.028  1.00  0.00     0.085 A  
HETATM   43  C   UNL     1     -10.734   7.401  66.982  1.00  0.00    -0.389 A  
ENDBRANCH  28  30
ENDBRANCH  27  28
ENDBRANCH  20  22
ENDBRANCH  19  20
ENDBRANCH  18  19
ENDBRANCH  17  18
ENDBRANCH  14  17
ENDBRANCH   7  11
TORSDOF 8
ENDMDL
MODEL      208
REMARK 921   NORMALIZED FREE ENERGY PREDICTED BY IDOCK:   -4.34 KCAL/MOL
REMARK 922        TOTAL FREE ENERGY PREDICTED BY IDOCK:   -9.77 KCAL/MOL
REMARK 923 INTER-LIGAND FREE ENERGY PREDICTED BY IDOCK:   -6.66 KCAL/MOL
REMARK 924 INTRA-LIGAND FREE ENERGY PREDICTED BY IDOCK:   -3.12 KCAL/MOL
REMARK 927      BINDING AFFINITY PREDICTED BY RF-SCORE:    0.00 PKD
ROOT
HETATM    1  F   UNL     1     -11.532   4.054  74.046  1.00  0.00    -0.221 F  
HETATM    2  C   UNL     1     -10.661   3.335  73.285  1.00  0.00    -0.182 C  
HETATM    3  C   UNL     1      -9.869   4.167  72.307  1.00  0.00    -0.228 A  
HETATM    4  F   UNL     1      -9.867   2.658  74.162  1.00  0.00    -0.107 F  
HETATM    5  F   UNL     1     -11.413   2.386  72.659  1.00  0.00    -0.020 F  
HETATM    6  C   UNL     1     -10.051   5.563  72.213  1.00  0.00    -0.225 A  
HETATM    7  C   UNL     1      -9.388   6.310  71.232  1.00  0.00    -0.156 A  
HETATM    8  C   UNL     1      -8.969   3.528  71.441  1.00  0.00    -0.158 A  
HETATM    9  C   UNL     1      -8.481   5.634  70.397  1.00  0.00    -0.127 A  
HETATM   10  C   UNL     1      -8.267   4.262  70.495  1.00  0.00    -0.073 A  
ENDROOT
BRANCH   7  11
HETATM   11  N   UNL     1      -9.607   7.670  70.994  1.00  0.00    -0.163 NA 
HETATM   12  C   UNL     1     -10.811   9.829  71.165  1.00  0.00    -0.263 C  
HETATM   13  C   UNL     1     -10.917   8.281  71.292  1.00  0.00    -0.243 C  
HETATM   14  N   UNL     1     -10.293  10.332  69.862  1.00  0.00    -0.254 NA 
HETATM   15  C   UNL     1      -9.038   8.110  69.699  1.00  0.00    -0.151 C  
HETATM   16  C   UNL     1      -8.986   9.655  69.637  1.00  0.00    -0.203 C  
BRANCH  14  17
HETATM   17  C   UNL     1     -11.210  10.073  68.727  1.00  0.00    -0.122 C  
BRANCH  17  18
HETATM   18  C   UNL     1     -11.737  11.329  67.994  1.00  0.00    -0.233 C  
BRANCH  18  19
HETATM   19  O   UNL     1     -10.901  11.689  66.853  1.00  0.00    -0.250 OA 
BRANCH  19  20
HETATM   20  C   UNL     1     -10.065  12.722  67.123  1.00  0.00    -0.234 C  
HETATM   21  O   UNL     1     -10.457  13.885  67.240  1.00  0.00    -0.268 OA 
BRANCH  20  22
HETATM   22  C   UNL     1      -8.614  12.383  67.317  1.00  0.00    -0.185 A  
HETATM   23  C   UNL     1      -8.056  13.034  68.445  1.00  0.00    -0.131 A  
HETATM   24  C   UNL     1      -6.721  12.884  68.796  1.00  0.00    -0.093 A  
HETATM   25  C   UNL     1      -5.910  12.060  68.031  1.00  0.00    -0.055 A  
HETATM   26  C   UNL     1      -6.439  11.395  66.920  1.00  0.00    -0.138 A  
HETATM   27  C   UNL     1      -7.789  11.538  66.526  1.00  0.00    -0.071 A  
BRANCH  27  28
HETATM   28  N   UNL     1      -8.229  10.910  65.342  1.00  0.00    -0.336 NA 
HETATM   29  H   UNL     1      -9.015  11.390  64.902  1.00  0.00     0.000 HD 
BRANCH  28  30
HETATM   30  C   UNL     1      -7.809   9.750  64.628  1.00  0.00    -0.136 A  
HETATM   31  C   UNL     1      -8.323   8.486  65.005  1.00  0.00    -0.175 A  
HETATM   32  C   UNL     1      -9.451   8.371  65.835  1.00  0.00    -0.169 A  
HETATM   33  C   UNL     1      -9.870   7.135  66.313  1.00  0.00    -0.021 A  
HETATM   34  C   UNL     1      -9.153   5.983  65.998  1.00  0.00    -0.143 A  
HETATM   35  C   UNL     1      -8.099   6.085  65.066  1.00  0.00    -0.133 A  
HETATM   36  C   UNL     1      -9.497   4.687  66.696  1.00  0.00    -0.166 C  
HETATM   37  C   UNL     1      -7.699   7.310  64.529  1.00  0.00    -0.113 A  
HETATM   38  F   UNL     1     -10.506   4.830  67.607  1.00  0.00    -0.178 F  
HETATM   39  F   UNL     1      -9.902   3.701  65.854  1.00  0.00    -0.179 F  
HETATM   40  F   UNL     1      -8.448   4.181  67.402  1.00  0.00    -0.098 F  
HETATM   41  N   UNL     1      -6.721   7.363  63.612  1.00  0.00    -0.052 NA 
HETATM   42  C   UNL     1      -6.340   8.583  63.153  1.00  0.00    -0.086 A  
HETATM   43  C   UNL     1      -6.832   9.791  63.642  1.00  0.00    -0.118 A  
ENDBRANCH  28  30
ENDBRANCH  27  28
ENDBRANCH  20  22
ENDBRANCH  19  20
ENDBRANCH  18  19
ENDBRANCH  17  18
ENDBRANCH  14  17
ENDBRANCH   7  11
TORSDOF 8
ENDMDL
MODEL      209
REMARK 921   NORMALIZED FREE ENERGY PREDICTED BY IDOCK:   -4.26 KCAL/MOL
REMARK 922        TOTAL FREE ENERGY PREDICTED BY IDOCK:   -9.66 KCAL/MOL
REMARK 923 INTER-LIGAND FREE ENERGY PREDICTED BY IDOCK:   -7.68 KCAL/MOL
REMARK 924 INTRA-LIGAND FREE ENERGY PREDICTED BY IDOCK:   -1.97 KCAL/MOL
REMARK 927      BINDING AFFINITY PREDICTED BY RF-SCORE:    0.00 PKD
ROOT
HETATM    1  F   UNL     1     -11.825  13.007  65.161  1.00  0.00    -0.337 F  
HETATM    2  C   UNL     1     -12.229  14.045  65.945  1.00  0.00    -0.456 C  
HETATM    3  C   UNL     1     -11.986  13.832  67.419  1.00  0.00    -0.423 A  
HETATM    4  F   UNL     1     -11.592  15.149  65.462  1.00  0.00    -0.338 F  
HETATM    5  F   UNL     1     -13.550  14.228  65.664  1.00  0.00    -0.378 F  
HETATM    6  C   UNL     1     -11.400  12.645  67.903  1.00  0.00    -0.337 A  
HETATM    7  C   UNL     1     -11.275  12.413  69.278  1.00  0.00    -0.201 A  
HETATM    8  C   UNL     1     -12.400  14.819  68.326  1.00  0.00     0.078 A  
HETATM    9  C   UNL     1     -11.684  13.434  70.153  1.00  0.00    -0.266 A  
HETATM   10  C   UNL     1     -12.239  14.625  69.691  1.00  0.00    -0.325 A  
ENDROOT
BRANCH   7  11
HETATM   11  N   UNL     1     -10.820  11.216  69.839  1.00  0.00    -0.105 NA 
HETATM   12  C   UNL     1      -9.195   9.393  70.262  1.00  0.00    -0.245 C  
HETATM   13  C   UNL     1      -9.607  10.557  69.314  1.00  0.00    -0.181 C  
HETATM   14  N   UNL     1     -10.254   8.381  70.532  1.00  0.00    -0.193 NA 
HETATM   15  C   UNL     1     -11.927  10.269  70.113  1.00  0.00    -0.234 C  
HETATM   16  C   UNL     1     -11.437   9.131  71.039  1.00  0.00    -0.306 C  
BRANCH  14  17
HETATM   17  C   UNL     1     -10.621   7.583  69.339  1.00  0.00    -0.223 C  
BRANCH  17  18
HETATM   18  C   UNL     1     -11.533   6.363  69.605  1.00  0.00    -0.378 C  
BRANCH  18  19
HETATM   19  O   UNL     1     -10.858   5.100  69.323  1.00  0.00    -0.057 OA 
BRANCH  19  20
HETATM   20  C   UNL     1     -10.145   5.135  68.169  1.00  0.00    -0.129 C  
HETATM   21  O   UNL     1     -10.657   5.395  67.078  1.00  0.00    -0.254 OA 
BRANCH  20  22
HETATM   22  C   UNL     1      -8.669   4.878  68.278  1.00  0.00    -0.109 A  
HETATM   23  C   UNL     1      -8.201   4.994  69.611  1.00  0.00    -0.088 A  
HETATM   24  C   UNL     1      -6.863   4.822  69.939  1.00  0.00    -0.048 A  
HETATM   25  C   UNL     1      -5.957   4.512  68.936  1.00  0.00    -0.026 A  
HETATM   26  C   UNL     1      -6.395   4.378  67.614  1.00  0.00    -0.037 A  
HETATM   27  C   UNL     1      -7.746   4.562  67.245  1.00  0.00    -0.089 A  
BRANCH  27  28
HETATM   28  N   UNL     1      -8.099   4.504  65.880  1.00  0.00    -0.102 NA 
HETATM   29  H   UNL     1      -8.786   3.778  65.674  1.00  0.00     0.000 HD 
BRANCH  28  30
HETATM   30  C   UNL     1      -7.701   5.242  64.728  1.00  0.00    -0.087 A  
HETATM   31  C   UNL     1      -8.015   6.621  64.650  1.00  0.00    -0.113 A  
HETATM   32  C   UNL     1      -8.420   7.345  65.783  1.00  0.00    -0.149 A  
HETATM   33  C   UNL     1      -8.858   8.660  65.679  1.00  0.00    -0.227 A  
HETATM   34  C   UNL     1      -8.932   9.276  64.431  1.00  0.00    -0.163 A  
HETATM   35  C   UNL     1      -8.408   8.591  63.316  1.00  0.00    -0.107 A  
HETATM   36  C   UNL     1      -9.608  10.623  64.314  1.00  0.00    -0.296 C  
HETATM   37  C   UNL     1      -7.909   7.290  63.409  1.00  0.00    -0.110 A  
HETATM   38  F   UNL     1     -10.101  11.072  65.507  1.00  0.00    -0.260 F  
HETATM   39  F   UNL     1      -8.790  11.610  63.862  1.00  0.00     0.064 F  
HETATM   40  F   UNL     1     -10.679  10.597  63.472  1.00  0.00    -0.311 F  
HETATM   41  N   UNL     1      -7.379   6.686  62.335  1.00  0.00    -0.051 NA 
HETATM   42  C   UNL     1      -6.948   5.406  62.469  1.00  0.00    -0.036 A  
HETATM   43  C   UNL     1      -7.107   4.644  63.624  1.00  0.00    -0.049 A  
ENDBRANCH  28  30
ENDBRANCH  27  28
ENDBRANCH  20  22
ENDBRANCH  19  20
ENDBRANCH  18  19
ENDBRANCH  17  18
ENDBRANCH  14  17
ENDBRANCH   7  11
TORSDOF 8
ENDMDL
MODEL      210
REMARK 921   NORMALIZED FREE ENERGY PREDICTED BY IDOCK:   -4.25 KCAL/MOL
REMARK 922        TOTAL FREE ENERGY PREDICTED BY IDOCK:   -9.64 KCAL/MOL
REMARK 923 INTER-LIGAND FREE ENERGY PREDICTED BY IDOCK:   -8.94 KCAL/MOL
REMARK 924 INTRA-LIGAND FREE ENERGY PREDICTED BY IDOCK:   -0.70 KCAL/MOL
REMARK 927      BINDING AFFINITY PREDICTED BY RF-SCORE:    0.00 PKD
ROOT
HETATM    1  F   UNL     1      -7.047   4.209  62.997  1.00  0.00    -0.040 F  
HETATM    2  C   UNL     1      -6.598   3.058  63.571  1.00  0.00    -0.031 C  
HETATM    3  C   UNL     1      -6.316   3.178  65.048  1.00  0.00    -0.024 A  
HETATM    4  F   UNL     1      -7.534   2.109  63.290  1.00  0.00    -0.047 F  
HETATM    5  F   UNL     1      -5.488   2.702  62.864  1.00  0.00    -0.006 F  
HETATM    6  C   UNL     1      -6.505   4.395  65.736  1.00  0.00    -0.037 A  
HETATM    7  C   UNL     1      -6.142   4.524  67.081  1.00  0.00    -0.031 A  
HETATM    8  C   UNL     1      -5.809   2.066  65.737  1.00  0.00    -0.018 A  
HETATM    9  C   UNL     1      -5.656   3.381  67.740  1.00  0.00    -0.021 A  
HETATM   10  C   UNL     1      -5.490   2.164  67.084  1.00  0.00    -0.017 A  
ENDROOT
BRANCH   7  11
HETATM   11  N   UNL     1      -6.182   5.723  67.799  1.00  0.00    -0.028 NA 
HETATM   12  C   UNL     1      -5.305   7.486  69.303  1.00  0.00    -0.015 C  
HETATM   13  C   UNL     1      -5.175   6.006  68.841  1.00  0.00    -0.004 C  
HETATM   14  N   UNL     1      -6.658   7.896  69.771  1.00  0.00    -0.034 NA 
HETATM   15  C   UNL     1      -7.560   6.088  68.203  1.00  0.00    -0.094 C  
HETATM   16  C   UNL     1      -7.605   7.562  68.670  1.00  0.00    -0.110 C  
BRANCH  14  17
HETATM   17  C   UNL     1      -7.071   7.229  71.028  1.00  0.00    -0.064 C  
BRANCH  17  18
HETATM   18  C   UNL     1      -7.615   8.165  72.133  1.00  0.00    -0.115 C  
BRANCH  18  19
HETATM   19  O   UNL     1      -9.070   8.114  72.228  1.00  0.00    -0.157 OA 
BRANCH  19  20
HETATM   20  C   UNL     1      -9.680   8.974  71.375  1.00  0.00    -0.299 C  
HETATM   21  O   UNL     1      -9.095   9.497  70.424  1.00  0.00    -0.238 OA 
BRANCH  20  22
HETATM   22  C   UNL     1     -11.139   9.242  71.615  1.00  0.00    -0.438 A  
HETATM   23  C   UNL     1     -11.764   8.199  72.342  1.00  0.00    -0.461 A  
HETATM   24  C   UNL     1     -13.118   8.226  72.653  1.00  0.00    -0.037 A  
HETATM   25  C   UNL     1     -13.879   9.314  72.255  1.00  0.00    -0.492 A  
HETATM   26  C   UNL     1     -13.284  10.363  71.547  1.00  0.00    -0.485 A  
HETATM   27  C   UNL     1     -11.914  10.359  71.201  1.00  0.00    -0.362 A  
BRANCH  27  28
HETATM   28  N   UNL     1     -11.403  11.407  70.406  1.00  0.00    -0.453 NA 
HETATM   29  H   UNL     1     -10.514  11.177  69.962  1.00  0.00     0.000 HD 
BRANCH  28  30
HETATM   30  C   UNL     1     -11.865  12.718  70.091  1.00  0.00    -0.251 A  
HETATM   31  C   UNL     1     -11.843  13.151  68.743  1.00  0.00    -0.361 A  
HETATM   32  C   UNL     1     -11.683  12.242  67.684  1.00  0.00    -0.403 A  
HETATM   33  C   UNL     1     -11.526  12.682  66.375  1.00  0.00    -0.409 A  
HETATM   34  C   UNL     1     -11.494  14.047  66.094  1.00  0.00    -0.350 A  
HETATM   35  C   UNL     1     -11.780  14.950  67.138  1.00  0.00    -0.292 A  
HETATM   36  C   UNL     1     -11.111  14.504  64.705  1.00  0.00    -0.391 C  
HETATM   37  C   UNL     1     -11.999  14.525  68.451  1.00  0.00    -0.274 A  
HETATM   38  F   UNL     1     -10.811  13.464  63.871  1.00  0.00    -0.378 F  
HETATM   39  F   UNL     1     -12.084  15.211  64.073  1.00  0.00    -0.438 F  
HETATM   40  F   UNL     1     -10.001  15.294  64.705  1.00  0.00    -0.311 F  
HETATM   41  N   UNL     1     -12.311  15.411  69.409  1.00  0.00    -0.198 NA 
HETATM   42  C   UNL     1     -12.471  14.951  70.676  1.00  0.00    -0.352 A  
HETATM   43  C   UNL     1     -12.238  13.634  71.065  1.00  0.00    -0.374 A  
ENDBRANCH  28  30
ENDBRANCH  27  28
ENDBRANCH  20  22
ENDBRANCH  19  20
ENDBRANCH  18  19
ENDBRANCH  17  18
ENDBRANCH  14  17
ENDBRANCH   7  11
TORSDOF 8
ENDMDL
MODEL      211
REMARK 921   NORMALIZED FREE ENERGY PREDICTED BY IDOCK:   -4.24 KCAL/MOL
REMARK 922        TOTAL FREE ENERGY PREDICTED BY IDOCK:   -9.63 KCAL/MOL
REMARK 923 INTER-LIGAND FREE ENERGY PREDICTED BY IDOCK:   -8.20 KCAL/MOL
REMARK 924 INTRA-LIGAND FREE ENERGY PREDICTED BY IDOCK:   -1.43 KCAL/MOL
REMARK 927      BINDING AFFINITY PREDICTED BY RF-SCORE:    0.00 PKD
ROOT
HETATM    1  F   UNL     1      -7.636   2.140  71.801  1.00  0.00    -0.037 F  
HETATM    2  C   UNL     1      -6.865   2.676  72.788  1.00  0.00    -0.026 C  
HETATM    3  C   UNL     1      -7.140   4.134  73.058  1.00  0.00    -0.067 A  
HETATM    4  F   UNL     1      -7.061   1.893  73.885  1.00  0.00    -0.021 F  
HETATM    5  F   UNL     1      -5.574   2.460  72.405  1.00  0.00    -0.006 F  
HETATM    6  C   UNL     1      -8.112   4.847  72.326  1.00  0.00    -0.111 A  
HETATM    7  C   UNL     1      -8.287   6.223  72.511  1.00  0.00    -0.113 A  
HETATM    8  C   UNL     1      -6.376   4.804  74.025  1.00  0.00    -0.056 A  
HETATM    9  C   UNL     1      -7.515   6.852  73.504  1.00  0.00    -0.084 A  
HETATM   10  C   UNL     1      -6.570   6.159  74.256  1.00  0.00    -0.075 A  
ENDROOT
BRANCH   7  11
HETATM   11  N   UNL     1      -9.139   7.022  71.743  1.00  0.00    -0.138 NA 
HETATM   12  C   UNL     1     -10.092   9.148  70.900  1.00  0.00    -0.287 C  
HETATM   13  C   UNL     1      -9.286   8.461  72.040  1.00  0.00    -0.262 C  
HETATM   14  N   UNL     1     -11.422   8.546  70.601  1.00  0.00    -0.260 NA 
HETATM   15  C   UNL     1     -10.428   6.350  71.454  1.00  0.00    -0.218 C  
HETATM   16  C   UNL     1     -11.180   7.102  70.331  1.00  0.00    -0.287 C  
BRANCH  14  17
HETATM   17  C   UNL     1     -12.400   8.709  71.702  1.00  0.00    -0.333 C  
BRANCH  17  18
HETATM   18  C   UNL     1     -12.639  10.163  72.173  1.00  0.00    -0.138 C  
BRANCH  18  19
HETATM   19  O   UNL     1     -13.570  10.876  71.305  1.00  0.00     0.008 OA 
BRANCH  19  20
HETATM   20  C   UNL     1     -12.950  11.771  70.496  1.00  0.00     0.206 C  
HETATM   21  O   UNL     1     -12.444  11.454  69.417  1.00  0.00    -0.213 OA 
BRANCH  20  22
HETATM   22  C   UNL     1     -12.937  13.201  70.955  1.00  0.00    -0.141 A  
HETATM   23  C   UNL     1     -13.515  13.358  72.239  1.00  0.00    -0.683 A  
HETATM   24  C   UNL     1     -13.630  14.601  72.848  1.00  0.00    -0.463 A  
HETATM   25  C   UNL     1     -13.153  15.723  72.187  1.00  0.00    -0.517 A  
HETATM   26  C   UNL     1     -12.567  15.593  70.924  1.00  0.00    -0.503 A  
HETATM   27  C   UNL     1     -12.448  14.346  70.271  1.00  0.00    -0.354 A  
BRANCH  27  28
HETATM   28  N   UNL     1     -11.930  14.305  68.959  1.00  0.00    -0.395 NA 
HETATM   29  H   UNL     1     -12.649  14.165  68.248  1.00  0.00     0.000 HD 
BRANCH  28  30
HETATM   30  C   UNL     1     -10.617  14.417  68.415  1.00  0.00    -0.247 A  
HETATM   31  C   UNL     1     -10.087  13.338  67.667  1.00  0.00    -0.229 A  
HETATM   32  C   UNL     1     -10.909  12.307  67.184  1.00  0.00    -0.282 A  
HETATM   33  C   UNL     1     -10.370  11.182  66.571  1.00  0.00    -0.290 A  
HETATM   34  C   UNL     1      -8.988  11.045  66.452  1.00  0.00    -0.190 A  
HETATM   35  C   UNL     1      -8.174  12.136  66.823  1.00  0.00    -0.085 A  
HETATM   36  C   UNL     1      -8.416   9.728  65.978  1.00  0.00    -0.124 C  
HETATM   37  C   UNL     1      -8.701  13.299  67.389  1.00  0.00    -0.206 A  
HETATM   38  F   UNL     1      -9.380   8.791  65.736  1.00  0.00    -0.244 F  
HETATM   39  F   UNL     1      -7.701   9.823  64.826  1.00  0.00    -0.108 F  
HETATM   40  F   UNL     1      -7.587   9.160  66.898  1.00  0.00    -0.088 F  
HETATM   41  N   UNL     1      -7.900  14.332  67.689  1.00  0.00    -0.163 NA 
HETATM   42  C   UNL     1      -8.457  15.422  68.277  1.00  0.00    -0.159 A  
HETATM   43  C   UNL     1      -9.789  15.501  68.675  1.00  0.00    -0.207 A  
ENDBRANCH  28  30
ENDBRANCH  27  28
ENDBRANCH  20  22
ENDBRANCH  19  20
ENDBRANCH  18  19
ENDBRANCH  17  18
ENDBRANCH  14  17
ENDBRANCH   7  11
TORSDOF 8
ENDMDL
MODEL      212
REMARK 921   NORMALIZED FREE ENERGY PREDICTED BY IDOCK:   -4.22 KCAL/MOL
REMARK 922        TOTAL FREE ENERGY PREDICTED BY IDOCK:   -9.59 KCAL/MOL
REMARK 923 INTER-LIGAND FREE ENERGY PREDICTED BY IDOCK:   -7.63 KCAL/MOL
REMARK 924 INTRA-LIGAND FREE ENERGY PREDICTED BY IDOCK:   -1.96 KCAL/MOL
REMARK 927      BINDING AFFINITY PREDICTED BY RF-SCORE:    0.00 PKD
ROOT
HETATM    1  F   UNL     1     -12.745   6.205  71.897  1.00  0.00    -0.336 F  
HETATM    2  C   UNL     1     -12.197   7.425  71.641  1.00  0.00    -0.330 C  
HETATM    3  C   UNL     1     -11.425   7.493  70.347  1.00  0.00    -0.219 A  
HETATM    4  F   UNL     1     -13.226   8.316  71.686  1.00  0.00    -0.313 F  
HETATM    5  F   UNL     1     -11.414   7.711  72.720  1.00  0.00    -0.339 F  
HETATM    6  C   UNL     1     -11.298   6.367  69.507  1.00  0.00    -0.460 A  
HETATM    7  C   UNL     1     -10.494   6.410  68.362  1.00  0.00    -0.222 A  
HETATM    8  C   UNL     1     -10.781   8.690  70.000  1.00  0.00    -0.233 A  
HETATM    9  C   UNL     1      -9.882   7.634  68.040  1.00  0.00    -0.188 A  
HETATM   10  C   UNL     1     -10.019   8.764  68.842  1.00  0.00    -0.200 A  
ENDROOT
BRANCH   7  11
HETATM   11  N   UNL     1     -10.219   5.308  67.548  1.00  0.00    -0.187 NA 
HETATM   12  C   UNL     1      -9.304   3.068  67.011  1.00  0.00    -0.128 C  
HETATM   13  C   UNL     1      -9.239   4.289  67.974  1.00  0.00    -0.142 C  
HETATM   14  N   UNL     1      -9.125   3.381  65.566  1.00  0.00    -0.144 NA 
HETATM   15  C   UNL     1     -10.086   5.685  66.121  1.00  0.00    -0.048 C  
HETATM   16  C   UNL     1     -10.137   4.421  65.230  1.00  0.00    -0.201 C  
BRANCH  14  17
HETATM   17  C   UNL     1      -7.763   3.859  65.234  1.00  0.00    -0.082 C  
BRANCH  17  18
HETATM   18  C   UNL     1      -7.412   5.279  65.738  1.00  0.00    -0.082 C  
BRANCH  18  19
HETATM   19  O   UNL     1      -5.974   5.524  65.729  1.00  0.00    -0.024 OA 
BRANCH  19  20
HETATM   20  C   UNL     1      -5.669   6.846  65.691  1.00  0.00    -0.031 C  
HETATM   21  O   UNL     1      -5.288   7.412  64.664  1.00  0.00    -0.028 OA 
BRANCH  20  22
HETATM   22  C   UNL     1      -5.854   7.619  66.966  1.00  0.00    -0.039 A  
HETATM   23  C   UNL     1      -5.675   6.809  68.115  1.00  0.00    -0.017 A  
HETATM   24  C   UNL     1      -5.825   7.313  69.401  1.00  0.00    -0.026 A  
HETATM   25  C   UNL     1      -6.144   8.652  69.568  1.00  0.00    -0.033 A  
HETATM   26  C   UNL     1      -6.314   9.475  68.450  1.00  0.00    -0.052 A  
HETATM   27  C   UNL     1      -6.184   8.991  67.129  1.00  0.00    -0.059 A  
BRANCH  27  28
HETATM   28  N   UNL     1      -6.460   9.857  66.050  1.00  0.00    -0.079 NA 
HETATM   29  H   UNL     1      -5.623  10.289  65.657  1.00  0.00     0.000 HD 
BRANCH  28  30
HETATM   30  C   UNL     1      -7.660  10.258  65.392  1.00  0.00    -0.146 A  
HETATM   31  C   UNL     1      -8.617  11.018  66.107  1.00  0.00    -0.175 A  
HETATM   32  C   UNL     1      -8.294  11.649  67.319  1.00  0.00    -0.158 A  
HETATM   33  C   UNL     1      -9.269  12.279  68.085  1.00  0.00    -0.197 A  
HETATM   34  C   UNL     1     -10.600  12.267  67.672  1.00  0.00    -0.238 A  
HETATM   35  C   UNL     1     -10.899  11.744  66.396  1.00  0.00    -0.325 A  
HETATM   36  C   UNL     1     -11.669  12.767  68.616  1.00  0.00    -0.324 C  
HETATM   37  C   UNL     1      -9.924  11.158  65.586  1.00  0.00    -0.249 A  
HETATM   38  F   UNL     1     -11.164  13.166  69.822  1.00  0.00    -0.257 F  
HETATM   39  F   UNL     1     -12.366  13.832  68.140  1.00  0.00    -0.387 F  
HETATM   40  F   UNL     1     -12.589  11.808  68.914  1.00  0.00    -0.151 F  
HETATM   41  N   UNL     1     -10.238  10.710  64.360  1.00  0.00    -0.354 NA 
HETATM   42  C   UNL     1      -9.263  10.111  63.631  1.00  0.00    -0.282 A  
HETATM   43  C   UNL     1      -7.982   9.844  64.106  1.00  0.00    -0.150 A  
ENDBRANCH  28  30
ENDBRANCH  27  28
ENDBRANCH  20  22
ENDBRANCH  19  20
ENDBRANCH  18  19
ENDBRANCH  17  18
ENDBRANCH  14  17
ENDBRANCH   7  11
TORSDOF 8
ENDMDL
MODEL      213
REMARK 921   NORMALIZED FREE ENERGY PREDICTED BY IDOCK:   -4.18 KCAL/MOL
REMARK 922        TOTAL FREE ENERGY PREDICTED BY IDOCK:   -9.54 KCAL/MOL
REMARK 923 INTER-LIGAND FREE ENERGY PREDICTED BY IDOCK:   -6.45 KCAL/MOL
REMARK 924 INTRA-LIGAND FREE ENERGY PREDICTED BY IDOCK:   -3.09 KCAL/MOL
REMARK 927      BINDING AFFINITY PREDICTED BY RF-SCORE:    0.00 PKD
ROOT
HETATM    1  F   UNL     1     -11.398   7.438  72.553  1.00  0.00    -0.270 F  
HETATM    2  C   UNL     1     -12.312   8.310  72.043  1.00  0.00    -0.349 C  
HETATM    3  C   UNL     1     -11.758   9.232  70.986  1.00  0.00    -0.378 A  
HETATM    4  F   UNL     1     -13.344   7.547  71.586  1.00  0.00    -0.349 F  
HETATM    5  F   UNL     1     -12.806   8.995  73.113  1.00  0.00    -0.321 F  
HETATM    6  C   UNL     1     -10.405   9.172  70.594  1.00  0.00    -0.306 A  
HETATM    7  C   UNL     1      -9.876  10.100  69.689  1.00  0.00    -0.225 A  
HETATM    8  C   UNL     1     -12.599  10.201  70.419  1.00  0.00    -0.215 A  
HETATM    9  C   UNL     1     -10.757  11.043  69.130  1.00  0.00    -0.274 A  
HETATM   10  C   UNL     1     -12.102  11.099  69.484  1.00  0.00    -0.396 A  
ENDROOT
BRANCH   7  11
HETATM   11  N   UNL     1      -8.523  10.185  69.344  1.00  0.00    -0.162 NA 
HETATM   12  C   UNL     1      -6.573  10.955  68.025  1.00  0.00    -0.062 C  
HETATM   13  C   UNL     1      -8.117  10.761  68.047  1.00  0.00    -0.114 C  
HETATM   14  N   UNL     1      -5.769   9.736  68.321  1.00  0.00    -0.043 NA 
HETATM   15  C   UNL     1      -7.778   8.954  69.697  1.00  0.00    -0.078 C  
HETATM   16  C   UNL     1      -6.255   9.217  69.630  1.00  0.00    -0.039 C  
BRANCH  14  17
HETATM   17  C   UNL     1      -5.882   8.691  67.277  1.00  0.00    -0.043 C  
BRANCH  17  18
HETATM   18  C   UNL     1      -5.971   9.207  65.822  1.00  0.00    -0.051 C  
BRANCH  18  19
HETATM   19  O   UNL     1      -6.077   8.117  64.858  1.00  0.00    -0.048 OA 
BRANCH  19  20
HETATM   20  C   UNL     1      -7.363   7.822  64.542  1.00  0.00    -0.089 C  
HETATM   21  O   UNL     1      -8.198   8.688  64.270  1.00  0.00    -0.159 OA 
BRANCH  20  22
HETATM   22  C   UNL     1      -7.730   6.366  64.496  1.00  0.00    -0.108 A  
HETATM   23  C   UNL     1      -7.756   5.860  63.173  1.00  0.00    -0.094 A  
HETATM   24  C   UNL     1      -8.096   4.542  62.895  1.00  0.00    -0.082 A  
HETATM   25  C   UNL     1      -8.406   3.690  63.944  1.00  0.00    -0.090 A  
HETATM   26  C   UNL     1      -8.376   4.161  65.261  1.00  0.00    -0.109 A  
HETATM   27  C   UNL     1      -8.049   5.499  65.576  1.00  0.00    -0.120 A  
BRANCH  27  28
HETATM   28  N   UNL     1      -8.129   5.927  66.918  1.00  0.00    -0.102 NA 
HETATM   29  H   UNL     1      -7.224   6.192  67.310  1.00  0.00     0.000 HD 
BRANCH  28  30
HETATM   30  C   UNL     1      -9.204   6.069  67.844  1.00  0.00    -0.111 A  
HETATM   31  C   UNL     1      -9.075   5.513  69.139  1.00  0.00    -0.127 A  
HETATM   32  C   UNL     1      -7.828   5.108  69.643  1.00  0.00    -0.072 A  
HETATM   33  C   UNL     1      -7.724   4.439  70.857  1.00  0.00    -0.060 A  
HETATM   34  C   UNL     1      -8.870   4.129  71.586  1.00  0.00    -0.147 A  
HETATM   35  C   UNL     1     -10.105   4.646  71.140  1.00  0.00    -0.243 A  
HETATM   36  C   UNL     1      -8.755   3.220  72.788  1.00  0.00    -0.085 C  
HETATM   37  C   UNL     1     -10.223   5.370  69.953  1.00  0.00    -0.281 A  
HETATM   38  F   UNL     1      -7.478   2.783  73.000  1.00  0.00    -0.040 F  
HETATM   39  F   UNL     1      -9.141   3.802  73.954  1.00  0.00    -0.091 F  
HETATM   40  F   UNL     1      -9.503   2.089  72.659  1.00  0.00    -0.097 F  
HETATM   41  N   UNL     1     -11.407   5.883  69.584  1.00  0.00    -0.270 NA 
HETATM   42  C   UNL     1     -11.476   6.542  68.399  1.00  0.00     0.144 A  
HETATM   43  C   UNL     1     -10.421   6.640  67.495  1.00  0.00    -0.299 A  
ENDBRANCH  28  30
ENDBRANCH  27  28
ENDBRANCH  20  22
ENDBRANCH  19  20
ENDBRANCH  18  19
ENDBRANCH  17  18
ENDBRANCH  14  17
ENDBRANCH   7  11
TORSDOF 8
ENDMDL
MODEL      214
REMARK 921   NORMALIZED FREE ENERGY PREDICTED BY IDOCK:   -4.17 KCAL/MOL
REMARK 922        TOTAL FREE ENERGY PREDICTED BY IDOCK:   -9.51 KCAL/MOL
REMARK 923 INTER-LIGAND FREE ENERGY PREDICTED BY IDOCK:   -8.64 KCAL/MOL
REMARK 924 INTRA-LIGAND FREE ENERGY PREDICTED BY IDOCK:   -0.87 KCAL/MOL
REMARK 927      BINDING AFFINITY PREDICTED BY RF-SCORE:    0.00 PKD
ROOT
HETATM    1  F   UNL     1     -10.983   6.813  67.838  1.00  0.00    -0.264 F  
HETATM    2  C   UNL     1      -9.645   6.876  67.593  1.00  0.00    -0.126 C  
HETATM    3  C   UNL     1      -9.227   8.068  66.769  1.00  0.00    -0.206 A  
HETATM    4  F   UNL     1      -9.038   6.842  68.812  1.00  0.00    -0.132 F  
HETATM    5  F   UNL     1      -9.324   5.697  66.988  1.00  0.00    -0.116 F  
HETATM    6  C   UNL     1     -10.171   9.008  66.304  1.00  0.00    -0.237 A  
HETATM    7  C   UNL     1      -9.788  10.051  65.454  1.00  0.00    -0.314 A  
HETATM    8  C   UNL     1      -7.876   8.214  66.418  1.00  0.00    -0.093 A  
HETATM    9  C   UNL     1      -8.422  10.173  65.142  1.00  0.00    -0.167 A  
HETATM   10  C   UNL     1      -7.473   9.272  65.615  1.00  0.00    -0.094 A  
ENDROOT
BRANCH   7  11
HETATM   11  N   UNL     1     -10.678  10.947  64.853  1.00  0.00    -0.234 NA 
HETATM   12  C   UNL     1     -11.552  12.385  63.035  1.00  0.00     0.010 C  
HETATM   13  C   UNL     1     -10.307  11.648  63.607  1.00  0.00    -0.419 C  
HETATM   14  N   UNL     1     -12.229  13.325  63.972  1.00  0.00    -0.580 NA 
HETATM   15  C   UNL     1     -11.339  11.828  65.844  1.00  0.00    -0.263 C  
HETATM   16  C   UNL     1     -12.549  12.542  65.197  1.00  0.00    -0.281 C  
BRANCH  14  17
HETATM   17  C   UNL     1     -11.403  14.507  64.315  1.00  0.00    -0.119 C  
BRANCH  17  18
HETATM   18  C   UNL     1     -12.182  15.742  64.824  1.00  0.00     0.342 C  
BRANCH  18  19
HETATM   19  O   UNL     1     -11.371  16.954  64.793  1.00  0.00    -0.645 OA 
BRANCH  19  20
HETATM   20  C   UNL     1     -10.411  16.966  65.751  1.00  0.00    -0.283 C  
HETATM   21  O   UNL     1      -9.661  16.009  65.955  1.00  0.00    -0.316 OA 
BRANCH  20  22
HETATM   22  C   UNL     1     -10.266  18.232  66.547  1.00  0.00    -0.409 A  
HETATM   23  C   UNL     1     -10.286  19.387  65.727  1.00  0.00    -0.346 A  
HETATM   24  C   UNL     1     -10.142  20.665  66.251  1.00  0.00     0.006 A  
HETATM   25  C   UNL     1      -9.989  20.819  67.621  1.00  0.00    -0.297 A  
HETATM   26  C   UNL     1      -9.980  19.695  68.454  1.00  0.00    -0.543 A  
HETATM   27  C   UNL     1     -10.109  18.381  67.951  1.00  0.00    -0.362 A  
BRANCH  27  28
HETATM   28  N   UNL     1      -9.997  17.292  68.841  1.00  0.00    -0.309 NA 
HETATM   29  H   UNL     1      -9.479  17.519  69.691  1.00  0.00     0.000 HD 
BRANCH  28  30
HETATM   30  C   UNL     1     -10.453  15.942  68.806  1.00  0.00    -0.237 A  
HETATM   31  C   UNL     1      -9.511  14.893  68.939  1.00  0.00    -0.209 A  
HETATM   32  C   UNL     1      -8.211  15.131  69.412  1.00  0.00    -0.197 A  
HETATM   33  C   UNL     1      -7.249  14.128  69.412  1.00  0.00    -0.011 A  
HETATM   34  C   UNL     1      -7.556  12.864  68.911  1.00  0.00     0.054 A  
HETATM   35  C   UNL     1      -8.894  12.593  68.555  1.00  0.00    -0.044 A  
HETATM   36  C   UNL     1      -6.445  11.856  68.724  1.00  0.00    -0.071 C  
HETATM   37  C   UNL     1      -9.888  13.572  68.602  1.00  0.00    -0.125 A  
HETATM   38  F   UNL     1      -5.219  12.351  69.070  1.00  0.00    -0.055 F  
HETATM   39  F   UNL     1      -6.603  10.723  69.457  1.00  0.00    -0.054 F  
HETATM   40  F   UNL     1      -6.317  11.458  67.427  1.00  0.00    -0.058 F  
HETATM   41  N   UNL     1     -11.159  13.266  68.298  1.00  0.00    -0.253 NA 
HETATM   42  C   UNL     1     -12.078  14.264  68.317  1.00  0.00    -0.243 A  
HETATM   43  C   UNL     1     -11.774  15.605  68.540  1.00  0.00    -0.339 A  
ENDBRANCH  28  30
ENDBRANCH  27  28
ENDBRANCH  20  22
ENDBRANCH  19  20
ENDBRANCH  18  19
ENDBRANCH  17  18
ENDBRANCH  14  17
ENDBRANCH   7  11
TORSDOF 8
ENDMDL
MODEL      215
REMARK 921   NORMALIZED FREE ENERGY PREDICTED BY IDOCK:   -4.13 KCAL/MOL
REMARK 922        TOTAL FREE ENERGY PREDICTED BY IDOCK:   -9.47 KCAL/MOL
REMARK 923 INTER-LIGAND FREE ENERGY PREDICTED BY IDOCK:   -7.26 KCAL/MOL
REMARK 924 INTRA-LIGAND FREE ENERGY PREDICTED BY IDOCK:   -2.21 KCAL/MOL
REMARK 927      BINDING AFFINITY PREDICTED BY RF-SCORE:    0.00 PKD
ROOT
HETATM    1  F   UNL     1      -7.500   9.051  64.282  1.00  0.00    -0.098 F  
HETATM    2  C   UNL     1      -8.266  10.002  63.678  1.00  0.00    -0.160 C  
HETATM    3  C   UNL     1      -9.320  10.601  64.576  1.00  0.00    -0.284 A  
HETATM    4  F   UNL     1      -7.397  10.933  63.194  1.00  0.00    -0.036 F  
HETATM    5  F   UNL     1      -8.809   9.398  62.583  1.00  0.00    -0.193 F  
HETATM    6  C   UNL     1      -9.472  10.182  65.914  1.00  0.00    -0.249 A  
HETATM    7  C   UNL     1     -10.518  10.668  66.707  1.00  0.00    -0.247 A  
HETATM    8  C   UNL     1     -10.197  11.562  64.050  1.00  0.00    -0.394 A  
HETATM    9  C   UNL     1     -11.362  11.643  66.147  1.00  0.00    -0.275 A  
HETATM   10  C   UNL     1     -11.210  12.091  64.838  1.00  0.00    -0.374 A  
ENDROOT
BRANCH   7  11
HETATM   11  N   UNL     1     -10.810  10.212  67.996  1.00  0.00    -0.258 NA 
HETATM   12  C   UNL     1     -11.283  10.437  70.418  1.00  0.00    -0.321 C  
HETATM   13  C   UNL     1     -10.671  11.114  69.157  1.00  0.00    -0.221 C  
HETATM   14  N   UNL     1     -10.745   9.087  70.747  1.00  0.00    -0.223 NA 
HETATM   15  C   UNL     1     -10.275   8.853  68.244  1.00  0.00    -0.201 C  
HETATM   16  C   UNL     1     -10.910   8.256  69.522  1.00  0.00    -0.116 C  
BRANCH  14  17
HETATM   17  C   UNL     1      -9.324   9.109  71.168  1.00  0.00    -0.243 C  
BRANCH  17  18
HETATM   18  C   UNL     1      -8.399   8.098  70.450  1.00  0.00    -0.120 C  
BRANCH  18  19
HETATM   19  O   UNL     1      -7.433   7.495  71.363  1.00  0.00    -0.077 OA 
BRANCH  19  20
HETATM   20  C   UNL     1      -7.632   6.163  71.529  1.00  0.00    -0.099 C  
HETATM   21  O   UNL     1      -6.799   5.318  71.194  1.00  0.00    -0.042 OA 
BRANCH  20  22
HETATM   22  C   UNL     1      -8.919   5.749  72.186  1.00  0.00    -0.137 A  
HETATM   23  C   UNL     1      -8.912   5.994  73.581  1.00  0.00    -0.127 A  
HETATM   24  C   UNL     1      -9.990   5.664  74.392  1.00  0.00    -0.262 A  
HETATM   25  C   UNL     1     -11.115   5.091  73.818  1.00  0.00    -0.256 A  
HETATM   26  C   UNL     1     -11.152   4.851  72.441  1.00  0.00    -0.112 A  
HETATM   27  C   UNL     1     -10.067   5.160  71.591  1.00  0.00    -0.200 A  
BRANCH  27  28
HETATM   28  N   UNL     1     -10.140   4.805  70.227  1.00  0.00    -0.247 NA 
HETATM   29  H   UNL     1     -10.784   5.389  69.694  1.00  0.00     0.000 HD 
BRANCH  28  30
HETATM   30  C   UNL     1      -9.504   3.803  69.436  1.00  0.00    -0.187 A  
HETATM   31  C   UNL     1      -9.068   4.131  68.130  1.00  0.00    -0.175 A  
HETATM   32  C   UNL     1      -8.956   5.466  67.708  1.00  0.00    -0.108 A  
HETATM   33  C   UNL     1      -8.660   5.782  66.387  1.00  0.00    -0.125 A  
HETATM   34  C   UNL     1      -8.499   4.768  65.445  1.00  0.00    -0.129 A  
HETATM   35  C   UNL     1      -8.488   3.432  65.896  1.00  0.00    -0.110 A  
HETATM   36  C   UNL     1      -8.390   5.133  63.982  1.00  0.00    -0.132 C  
HETATM   37  C   UNL     1      -8.726   3.095  67.230  1.00  0.00    -0.123 A  
HETATM   38  F   UNL     1      -8.491   6.478  63.764  1.00  0.00    -0.041 F  
HETATM   39  F   UNL     1      -7.217   4.756  63.408  1.00  0.00    -0.045 F  
HETATM   40  F   UNL     1      -9.380   4.574  63.231  1.00  0.00    -0.145 F  
HETATM   41  N   UNL     1      -8.664   1.816  67.631  1.00  0.00    -0.091 NA 
HETATM   42  C   UNL     1      -8.946   1.539  68.929  1.00  0.00    -0.095 A  
HETATM   43  C   UNL     1      -9.388   2.483  69.852  1.00  0.00    -0.182 A  
ENDBRANCH  28  30
ENDBRANCH  27  28
ENDBRANCH  20  22
ENDBRANCH  19  20
ENDBRANCH  18  19
ENDBRANCH  17  18
ENDBRANCH  14  17
ENDBRANCH   7  11
TORSDOF 8
ENDMDL
MODEL      216
REMARK 921   NORMALIZED FREE ENERGY PREDICTED BY IDOCK:   -4.08 KCAL/MOL
REMARK 922        TOTAL FREE ENERGY PREDICTED BY IDOCK:   -9.38 KCAL/MOL
REMARK 923 INTER-LIGAND FREE ENERGY PREDICTED BY IDOCK:   -7.46 KCAL/MOL
REMARK 924 INTRA-LIGAND FREE ENERGY PREDICTED BY IDOCK:   -1.92 KCAL/MOL
REMARK 927      BINDING AFFINITY PREDICTED BY RF-SCORE:    0.00 PKD
ROOT
HETATM    1  F   UNL     1     -11.098   4.832  71.901  1.00  0.00    -0.160 F  
HETATM    2  C   UNL     1     -10.415   4.226  72.911  1.00  0.00    -0.176 C  
HETATM    3  C   UNL     1      -8.932   4.503  72.903  1.00  0.00    -0.125 A  
HETATM    4  F   UNL     1     -11.018   4.626  74.065  1.00  0.00    -0.310 F  
HETATM    5  F   UNL     1     -10.688   2.895  72.795  1.00  0.00    -0.233 F  
HETATM    6  C   UNL     1      -8.342   5.318  71.914  1.00  0.00    -0.122 A  
HETATM    7  C   UNL     1      -6.954   5.484  71.854  1.00  0.00    -0.076 A  
HETATM    8  C   UNL     1      -8.120   3.897  73.874  1.00  0.00    -0.087 A  
HETATM    9  C   UNL     1      -6.178   4.875  72.856  1.00  0.00    -0.037 A  
HETATM   10  C   UNL     1      -6.746   4.092  73.857  1.00  0.00    -0.053 A  
ENDROOT
BRANCH   7  11
HETATM   11  N   UNL     1      -6.284   6.171  70.837  1.00  0.00    -0.038 NA 
HETATM   12  C   UNL     1      -5.217   8.130  69.757  1.00  0.00    -0.023 C  
HETATM   13  C   UNL     1      -6.211   7.646  70.853  1.00  0.00    -0.035 C  
HETATM   14  N   UNL     1      -5.497   7.643  68.377  1.00  0.00    -0.026 NA 
HETATM   15  C   UNL     1      -6.581   5.615  69.496  1.00  0.00    -0.050 C  
HETATM   16  C   UNL     1      -5.570   6.158  68.459  1.00  0.00    -0.012 C  
BRANCH  14  17
HETATM   17  C   UNL     1      -6.750   8.191  67.806  1.00  0.00    -0.065 C  
BRANCH  17  18
HETATM   18  C   UNL     1      -7.670   7.163  67.105  1.00  0.00    -0.108 C  
BRANCH  18  19
HETATM   19  O   UNL     1      -8.991   7.099  67.721  1.00  0.00    -0.123 OA 
BRANCH  19  20
HETATM   20  C   UNL     1      -9.701   8.243  67.555  1.00  0.00    -0.165 C  
HETATM   21  O   UNL     1      -9.858   8.777  66.455  1.00  0.00    -0.249 OA 
BRANCH  20  22
HETATM   22  C   UNL     1     -10.338   8.828  68.784  1.00  0.00    -0.234 A  
HETATM   23  C   UNL     1     -10.785   7.829  69.684  1.00  0.00    -0.223 A  
HETATM   24  C   UNL     1     -11.427   8.144  70.875  1.00  0.00    -0.288 A  
HETATM   25  C   UNL     1     -11.623   9.477  71.203  1.00  0.00    -0.439 A  
HETATM   26  C   UNL     1     -11.179  10.483  70.338  1.00  0.00    -0.378 A  
HETATM   27  C   UNL     1     -10.537  10.196  69.112  1.00  0.00    -0.224 A  
BRANCH  27  28
HETATM   28  N   UNL     1     -10.200  11.259  68.248  1.00  0.00    -0.179 NA 
HETATM   29  H   UNL     1     -10.949  11.501  67.598  1.00  0.00     0.000 HD 
BRANCH  28  30
HETATM   30  C   UNL     1      -9.037  12.068  68.090  1.00  0.00    -0.191 A  
HETATM   31  C   UNL     1      -9.174  13.477  68.080  1.00  0.00    -0.209 A  
HETATM   32  C   UNL     1     -10.349  14.102  68.528  1.00  0.00    -0.249 A  
HETATM   33  C   UNL     1     -10.533  15.473  68.390  1.00  0.00    -0.240 A  
HETATM   34  C   UNL     1      -9.557  16.252  67.771  1.00  0.00    -0.223 A  
HETATM   35  C   UNL     1      -8.329  15.643  67.438  1.00  0.00    -0.198 A  
HETATM   36  C   UNL     1      -9.865  17.695  67.441  1.00  0.00    -0.305 C  
HETATM   37  C   UNL     1      -8.102  14.277  67.621  1.00  0.00    -0.179 A  
HETATM   38  F   UNL     1     -11.134  18.057  67.793  1.00  0.00    -0.373 F  
HETATM   39  F   UNL     1      -9.045  18.586  68.058  1.00  0.00    -0.279 F  
HETATM   40  F   UNL     1      -9.776  17.953  66.107  1.00  0.00    -0.303 F  
HETATM   41  N   UNL     1      -6.906  13.742  67.332  1.00  0.00    -0.206 NA 
HETATM   42  C   UNL     1      -6.752  12.402  67.488  1.00  0.00    -0.146 A  
HETATM   43  C   UNL     1      -7.781  11.531  67.837  1.00  0.00    -0.120 A  
ENDBRANCH  28  30
ENDBRANCH  27  28
ENDBRANCH  20  22
ENDBRANCH  19  20
ENDBRANCH  18  19
ENDBRANCH  17  18
ENDBRANCH  14  17
ENDBRANCH   7  11
TORSDOF 8
ENDMDL
MODEL      217
REMARK 921   NORMALIZED FREE ENERGY PREDICTED BY IDOCK:   -4.02 KCAL/MOL
REMARK 922        TOTAL FREE ENERGY PREDICTED BY IDOCK:   -9.30 KCAL/MOL
REMARK 923 INTER-LIGAND FREE ENERGY PREDICTED BY IDOCK:   -9.62 KCAL/MOL
REMARK 924 INTRA-LIGAND FREE ENERGY PREDICTED BY IDOCK:    0.32 KCAL/MOL
REMARK 927      BINDING AFFINITY PREDICTED BY RF-SCORE:    0.00 PKD
ROOT
HETATM    1  F   UNL     1      -8.119   5.251  71.872  1.00  0.00    -0.104 F  
HETATM    2  C   UNL     1      -9.418   5.395  71.487  1.00  0.00    -0.149 C  
HETATM    3  C   UNL     1      -9.589   5.818  70.049  1.00  0.00    -0.206 A  
HETATM    4  F   UNL     1     -10.024   4.206  71.760  1.00  0.00    -0.221 F  
HETATM    5  F   UNL     1      -9.962   6.295  72.355  1.00  0.00    -0.172 F  
HETATM    6  C   UNL     1      -8.477   6.044  69.212  1.00  0.00    -0.115 A  
HETATM    7  C   UNL     1      -8.643   6.537  67.913  1.00  0.00    -0.117 A  
HETATM    8  C   UNL     1     -10.883   6.038  69.554  1.00  0.00    -0.439 A  
HETATM    9  C   UNL     1      -9.957   6.725  67.448  1.00  0.00    -0.192 A  
HETATM   10  C   UNL     1     -11.068   6.481  68.251  1.00  0.00    -0.332 A  
ENDROOT
BRANCH   7  11
HETATM   11  N   UNL     1      -7.593   6.902  67.066  1.00  0.00    -0.100 NA 
HETATM   12  C   UNL     1      -5.387   7.874  66.492  1.00  0.00    -0.025 C  
HETATM   13  C   UNL     1      -6.545   7.832  67.531  1.00  0.00    -0.063 C  
HETATM   14  N   UNL     1      -5.788   8.209  65.097  1.00  0.00    -0.044 NA 
HETATM   15  C   UNL     1      -8.057   7.187  65.688  1.00  0.00    -0.133 C  
HETATM   16  C   UNL     1      -6.852   7.237  64.719  1.00  0.00    -0.050 C  
BRANCH  14  17
HETATM   17  C   UNL     1      -6.281   9.598  64.946  1.00  0.00    -0.085 C  
BRANCH  17  18
HETATM   18  C   UNL     1      -7.337   9.815  63.837  1.00  0.00    -0.127 C  
BRANCH  18  19
HETATM   19  O   UNL     1      -8.163  10.992  64.088  1.00  0.00     0.141 OA 
BRANCH  19  20
HETATM   20  C   UNL     1      -9.399  10.674  64.549  1.00  0.00    -0.243 C  
HETATM   21  O   UNL     1      -9.702   9.536  64.914  1.00  0.00    -0.214 OA 
BRANCH  20  22
HETATM   22  C   UNL     1     -10.396  11.794  64.637  1.00  0.00    -0.336 A  
HETATM   23  C   UNL     1     -11.566  11.532  63.882  1.00  0.00    -0.305 A  
HETATM   24  C   UNL     1     -12.609  12.445  63.800  1.00  0.00    -0.541 A  
HETATM   25  C   UNL     1     -12.512  13.644  64.490  1.00  0.00    -0.335 A  
HETATM   26  C   UNL     1     -11.373  13.922  65.253  1.00  0.00    -0.316 A  
HETATM   27  C   UNL     1     -10.288  13.022  65.345  1.00  0.00    -0.300 A  
BRANCH  27  28
HETATM   28  N   UNL     1      -9.133  13.409  66.057  1.00  0.00    -0.451 NA 
HETATM   29  H   UNL     1      -8.281  12.965  65.712  1.00  0.00     0.000 HD 
BRANCH  28  30
HETATM   30  C   UNL     1      -8.903  14.288  67.156  1.00  0.00    -0.229 A  
HETATM   31  C   UNL     1      -9.256  15.653  67.031  1.00  0.00    -0.239 A  
HETATM   32  C   UNL     1     -10.099  16.101  66.001  1.00  0.00    -0.372 A  
HETATM   33  C   UNL     1     -10.333  17.456  65.800  1.00  0.00    -0.226 A  
HETATM   34  C   UNL     1      -9.705  18.403  66.608  1.00  0.00    -0.342 A  
HETATM   35  C   UNL     1      -8.962  17.947  67.716  1.00  0.00    -0.254 A  
HETATM   36  C   UNL     1      -9.803  19.866  66.241  1.00  0.00    -0.461 C  
HETATM   37  C   UNL     1      -8.762  16.588  67.970  1.00  0.00    -0.189 A  
HETATM   38  F   UNL     1     -10.516  20.076  65.094  1.00  0.00    -0.405 F  
HETATM   39  F   UNL     1     -10.404  20.630  67.191  1.00  0.00    -0.520 F  
HETATM   40  F   UNL     1      -8.584  20.428  66.012  1.00  0.00    -0.261 F  
HETATM   41  N   UNL     1      -8.085  16.192  69.059  1.00  0.00    -0.228 NA 
HETATM   42  C   UNL     1      -7.882  14.861  69.235  1.00  0.00    -0.158 A  
HETATM   43  C   UNL     1      -8.246  13.885  68.311  1.00  0.00    -0.158 A  
ENDBRANCH  28  30
ENDBRANCH  27  28
ENDBRANCH  20  22
ENDBRANCH  19  20
ENDBRANCH  18  19
ENDBRANCH  17  18
ENDBRANCH  14  17
ENDBRANCH   7  11
TORSDOF 8
ENDMDL
MODEL      218
REMARK 921   NORMALIZED FREE ENERGY PREDICTED BY IDOCK:   -4.00 KCAL/MOL
REMARK 922        TOTAL FREE ENERGY PREDICTED BY IDOCK:   -9.27 KCAL/MOL
REMARK 923 INTER-LIGAND FREE ENERGY PREDICTED BY IDOCK:   -8.49 KCAL/MOL
REMARK 924 INTRA-LIGAND FREE ENERGY PREDICTED BY IDOCK:   -0.79 KCAL/MOL
REMARK 927      BINDING AFFINITY PREDICTED BY RF-SCORE:    0.00 PKD
ROOT
HETATM    1  F   UNL     1      -7.172   7.574  73.640  1.00  0.00    -0.085 F  
HETATM    2  C   UNL     1      -8.185   6.664  73.661  1.00  0.00    -0.113 C  
HETATM    3  C   UNL     1      -8.534   6.104  72.304  1.00  0.00    -0.116 A  
HETATM    4  F   UNL     1      -7.806   5.700  74.545  1.00  0.00    -0.096 F  
HETATM    5  F   UNL     1      -9.242   7.301  74.239  1.00  0.00    -0.238 F  
HETATM    6  C   UNL     1      -7.854   6.518  71.140  1.00  0.00    -0.103 A  
HETATM    7  C   UNL     1      -8.254   6.072  69.875  1.00  0.00    -0.118 A  
HETATM    8  C   UNL     1      -9.592   5.188  72.197  1.00  0.00    -0.189 A  
HETATM    9  C   UNL     1      -9.306   5.140  69.814  1.00  0.00    -0.182 A  
HETATM   10  C   UNL     1      -9.970   4.698  70.955  1.00  0.00    -0.273 A  
ENDROOT
BRANCH   7  11
HETATM   11  N   UNL     1      -7.714   6.528  68.669  1.00  0.00    -0.100 NA 
HETATM   12  C   UNL     1      -7.011   8.227  67.009  1.00  0.00    -0.071 C  
HETATM   13  C   UNL     1      -7.906   7.930  68.246  1.00  0.00    -0.120 C  
HETATM   14  N   UNL     1      -7.194   7.310  65.849  1.00  0.00    -0.072 NA 
HETATM   15  C   UNL     1      -7.903   5.555  67.568  1.00  0.00    -0.101 C  
HETATM   16  C   UNL     1      -7.000   5.928  66.368  1.00  0.00    -0.060 C  
BRANCH  14  17
HETATM   17  C   UNL     1      -8.523   7.438  65.205  1.00  0.00    -0.022 C  
BRANCH  17  18
HETATM   18  C   UNL     1      -9.362   8.661  65.643  1.00  0.00    -0.103 C  
BRANCH  18  19
HETATM   19  O   UNL     1      -9.391   9.702  64.621  1.00  0.00    -0.260 OA 
BRANCH  19  20
HETATM   20  C   UNL     1      -9.696  10.924  65.127  1.00  0.00    -0.262 C  
HETATM   21  O   UNL     1     -10.656  11.588  64.732  1.00  0.00    -0.277 OA 
BRANCH  20  22
HETATM   22  C   UNL     1      -8.822  11.431  66.239  1.00  0.00    -0.196 A  
HETATM   23  C   UNL     1      -7.445  11.209  65.984  1.00  0.00     0.036 A  
HETATM   24  C   UNL     1      -6.460  11.576  66.891  1.00  0.00    -0.144 A  
HETATM   25  C   UNL     1      -6.830  12.192  68.077  1.00  0.00    -0.081 A  
HETATM   26  C   UNL     1      -8.181  12.434  68.347  1.00  0.00    -0.144 A  
HETATM   27  C   UNL     1      -9.209  12.060  67.453  1.00  0.00    -0.180 A  
BRANCH  27  28
HETATM   28  N   UNL     1     -10.554  12.252  67.834  1.00  0.00    -0.206 NA 
HETATM   29  H   UNL     1     -11.175  11.515  67.497  1.00  0.00     0.000 HD 
BRANCH  28  30
HETATM   30  C   UNL     1     -11.230  13.255  68.588  1.00  0.00    -0.274 A  
HETATM   31  C   UNL     1     -11.084  14.612  68.215  1.00  0.00    -0.283 A  
HETATM   32  C   UNL     1     -10.561  14.977  66.964  1.00  0.00    -0.293 A  
HETATM   33  C   UNL     1     -10.291  16.305  66.655  1.00  0.00    -0.302 A  
HETATM   34  C   UNL     1     -10.510  17.303  67.603  1.00  0.00    -0.363 A  
HETATM   35  C   UNL     1     -11.150  16.949  68.809  1.00  0.00    -0.160 A  
HETATM   36  C   UNL     1     -10.014  18.704  67.326  1.00  0.00    -0.329 C  
HETATM   37  C   UNL     1     -11.482  15.628  69.115  1.00  0.00    -0.359 A  
HETATM   38  F   UNL     1      -9.364  18.807  66.128  1.00  0.00    -0.309 F  
HETATM   39  F   UNL     1     -11.000  19.637  67.290  1.00  0.00    -0.563 F  
HETATM   40  F   UNL     1      -9.116  19.131  68.257  1.00  0.00    -0.319 F  
HETATM   41  N   UNL     1     -12.130  15.336  70.253  1.00  0.00    -0.325 NA 
HETATM   42  C   UNL     1     -12.391  14.031  70.523  1.00  0.00    -0.367 A  
HETATM   43  C   UNL     1     -11.946  12.967  69.743  1.00  0.00    -0.365 A  
ENDBRANCH  28  30
ENDBRANCH  27  28
ENDBRANCH  20  22
ENDBRANCH  19  20
ENDBRANCH  18  19
ENDBRANCH  17  18
ENDBRANCH  14  17
ENDBRANCH   7  11
TORSDOF 8
ENDMDL
MODEL      219
REMARK 921   NORMALIZED FREE ENERGY PREDICTED BY IDOCK:   -4.00 KCAL/MOL
REMARK 922        TOTAL FREE ENERGY PREDICTED BY IDOCK:   -9.27 KCAL/MOL
REMARK 923 INTER-LIGAND FREE ENERGY PREDICTED BY IDOCK:   -7.21 KCAL/MOL
REMARK 924 INTRA-LIGAND FREE ENERGY PREDICTED BY IDOCK:   -2.05 KCAL/MOL
REMARK 927      BINDING AFFINITY PREDICTED BY RF-SCORE:    0.00 PKD
ROOT
HETATM    1  F   UNL     1      -7.080   3.856  67.001  1.00  0.00    -0.058 F  
HETATM    2  C   UNL     1      -6.593   3.750  65.733  1.00  0.00    -0.040 C  
HETATM    3  C   UNL     1      -6.090   5.051  65.158  1.00  0.00    -0.030 A  
HETATM    4  F   UNL     1      -5.628   2.790  65.782  1.00  0.00    -0.014 F  
HETATM    5  F   UNL     1      -7.606   3.220  64.991  1.00  0.00    -0.071 F  
HETATM    6  C   UNL     1      -6.145   6.252  65.896  1.00  0.00    -0.033 A  
HETATM    7  C   UNL     1      -5.773   7.470  65.317  1.00  0.00    -0.037 A  
HETATM    8  C   UNL     1      -5.603   5.071  63.843  1.00  0.00    -0.017 A  
HETATM    9  C   UNL     1      -5.273   7.443  64.003  1.00  0.00    -0.029 A  
HETATM   10  C   UNL     1      -5.184   6.264  63.269  1.00  0.00    -0.018 A  
ENDROOT
BRANCH   7  11
HETATM   11  N   UNL     1      -5.914   8.715  65.937  1.00  0.00    -0.047 NA 
HETATM   12  C   UNL     1      -6.480  10.269  67.783  1.00  0.00    -0.062 C  
HETATM   13  C   UNL     1      -6.685   8.844  67.190  1.00  0.00    -0.066 C  
HETATM   14  N   UNL     1      -6.798  11.398  66.865  1.00  0.00    -0.135 NA 
HETATM   15  C   UNL     1      -6.196   9.797  64.964  1.00  0.00    -0.094 C  
HETATM   16  C   UNL     1      -5.994  11.178  65.630  1.00  0.00     0.113 C  
BRANCH  14  17
HETATM   17  C   UNL     1      -8.238  11.495  66.532  1.00  0.00    -0.129 C  
BRANCH  17  18
HETATM   18  C   UNL     1      -9.211  11.344  67.725  1.00  0.00    -0.159 C  
BRANCH  18  19
HETATM   19  O   UNL     1      -9.671  12.635  68.225  1.00  0.00    -0.217 OA 
BRANCH  19  20
HETATM   20  C   UNL     1     -11.019  12.773  68.154  1.00  0.00    -0.247 C  
HETATM   21  O   UNL     1     -11.639  12.712  67.090  1.00  0.00    -0.327 OA 
BRANCH  20  22
HETATM   22  C   UNL     1     -11.748  12.970  69.453  1.00  0.00    -0.386 A  
HETATM   23  C   UNL     1     -12.409  14.222  69.514  1.00  0.00    -0.272 A  
HETATM   24  C   UNL     1     -13.123  14.624  70.635  1.00  0.00    -0.323 A  
HETATM   25  C   UNL     1     -13.207  13.769  71.723  1.00  0.00    -0.467 A  
HETATM   26  C   UNL     1     -12.575  12.522  71.683  1.00  0.00    -0.189 A  
HETATM   27  C   UNL     1     -11.828  12.089  70.565  1.00  0.00    -0.121 A  
BRANCH  27  28
HETATM   28  N   UNL     1     -11.141  10.859  70.632  1.00  0.00    -0.312 NA 
HETATM   29  H   UNL     1     -10.149  10.940  70.406  1.00  0.00     0.000 HD 
BRANCH  28  30
HETATM   30  C   UNL     1     -11.536   9.526  70.950  1.00  0.00    -0.326 A  
HETATM   31  C   UNL     1     -11.077   8.460  70.140  1.00  0.00    -0.183 A  
HETATM   32  C   UNL     1     -10.011   8.629  69.241  1.00  0.00    -0.195 A  
HETATM   33  C   UNL     1      -9.652   7.622  68.352  1.00  0.00    -0.155 A  
HETATM   34  C   UNL     1     -10.372   6.429  68.319  1.00  0.00    -0.228 A  
HETATM   35  C   UNL     1     -11.357   6.215  69.305  1.00  0.00    -0.361 A  
HETATM   36  C   UNL     1     -10.104   5.439  67.208  1.00  0.00    -0.193 C  
HETATM   37  C   UNL     1     -11.693   7.192  70.244  1.00  0.00    -0.182 A  
HETATM   38  F   UNL     1      -9.157   5.877  66.327  1.00  0.00    -0.133 F  
HETATM   39  F   UNL     1      -9.665   4.229  67.646  1.00  0.00    -0.182 F  
HETATM   40  F   UNL     1     -11.210   5.194  66.452  1.00  0.00    -0.232 F  
HETATM   41  N   UNL     1     -12.606   6.936  71.195  1.00  0.00    -0.361 NA 
HETATM   42  C   UNL     1     -12.927   7.934  72.056  1.00  0.00    -0.246 A  
HETATM   43  C   UNL     1     -12.443   9.236  71.961  1.00  0.00    -0.451 A  
ENDBRANCH  28  30
ENDBRANCH  27  28
ENDBRANCH  20  22
ENDBRANCH  19  20
ENDBRANCH  18  19
ENDBRANCH  17  18
ENDBRANCH  14  17
ENDBRANCH   7  11
TORSDOF 8
ENDMDL
MODEL      220
REMARK 921   NORMALIZED FREE ENERGY PREDICTED BY IDOCK:   -3.98 KCAL/MOL
REMARK 922        TOTAL FREE ENERGY PREDICTED BY IDOCK:   -9.25 KCAL/MOL
REMARK 923 INTER-LIGAND FREE ENERGY PREDICTED BY IDOCK:   -7.45 KCAL/MOL
REMARK 924 INTRA-LIGAND FREE ENERGY PREDICTED BY IDOCK:   -1.80 KCAL/MOL
REMARK 927      BINDING AFFINITY PREDICTED BY RF-SCORE:    0.00 PKD
ROOT
HETATM    1  F   UNL     1      -7.578   2.610  71.000  1.00  0.00    -0.036 F  
HETATM    2  C   UNL     1      -7.060   2.890  72.228  1.00  0.00    -0.038 C  
HETATM    3  C   UNL     1      -7.276   4.314  72.676  1.00  0.00    -0.071 A  
HETATM    4  F   UNL     1      -7.609   1.982  73.082  1.00  0.00    -0.036 F  
HETATM    5  F   UNL     1      -5.736   2.572  72.152  1.00  0.00    -0.007 F  
HETATM    6  C   UNL     1      -7.952   5.246  71.861  1.00  0.00    -0.113 A  
HETATM    7  C   UNL     1      -8.055   6.590  72.239  1.00  0.00    -0.106 A  
HETATM    8  C   UNL     1      -6.749   4.728  73.908  1.00  0.00    -0.072 A  
HETATM    9  C   UNL     1      -7.531   6.959  73.490  1.00  0.00    -0.084 A  
HETATM   10  C   UNL     1      -6.886   6.046  74.321  1.00  0.00    -0.080 A  
ENDROOT
BRANCH   7  11
HETATM   11  N   UNL     1      -8.599   7.597  71.436  1.00  0.00    -0.118 NA 
HETATM   12  C   UNL     1     -10.410   8.854  70.306  1.00  0.00    -0.206 C  
HETATM   13  C   UNL     1      -9.996   7.508  70.966  1.00  0.00    -0.186 C  
HETATM   14  N   UNL     1      -9.526   9.327  69.203  1.00  0.00    -0.154 NA 
HETATM   15  C   UNL     1      -7.656   8.043  70.383  1.00  0.00    -0.081 C  
HETATM   16  C   UNL     1      -8.145   9.371  69.759  1.00  0.00    -0.133 C  
BRANCH  14  17
HETATM   17  C   UNL     1      -9.573   8.461  68.002  1.00  0.00    -0.149 C  
BRANCH  17  18
HETATM   18  C   UNL     1      -9.397   9.187  66.648  1.00  0.00    -0.177 C  
BRANCH  18  19
HETATM   19  O   UNL     1      -8.054   9.015  66.103  1.00  0.00    -0.107 OA 
BRANCH  19  20
HETATM   20  C   UNL     1      -7.472  10.193  65.767  1.00  0.00    -0.131 C  
HETATM   21  O   UNL     1      -7.422  10.605  64.606  1.00  0.00    -0.005 OA 
BRANCH  20  22
HETATM   22  C   UNL     1      -6.911  11.015  66.893  1.00  0.00    -0.121 A  
HETATM   23  C   UNL     1      -5.803  10.387  67.516  1.00  0.00    -0.045 A  
HETATM   24  C   UNL     1      -5.146  10.959  68.597  1.00  0.00    -0.041 A  
HETATM   25  C   UNL     1      -5.574  12.188  69.075  1.00  0.00    -0.059 A  
HETATM   26  C   UNL     1      -6.657  12.835  68.469  1.00  0.00    -0.086 A  
HETATM   27  C   UNL     1      -7.357  12.274  67.378  1.00  0.00    -0.151 A  
BRANCH  27  28
HETATM   28  N   UNL     1      -8.496  12.939  66.878  1.00  0.00    -0.375 NA 
HETATM   29  H   UNL     1      -8.547  12.938  65.859  1.00  0.00     0.000 HD 
BRANCH  28  30
HETATM   30  C   UNL     1      -9.592  13.613  67.494  1.00  0.00    -0.220 A  
HETATM   31  C   UNL     1      -9.786  14.991  67.236  1.00  0.00    -0.228 A  
HETATM   32  C   UNL     1      -9.139  15.635  66.169  1.00  0.00    -0.378 A  
HETATM   33  C   UNL     1      -9.224  17.012  66.000  1.00  0.00    -0.177 A  
HETATM   34  C   UNL     1      -9.935  17.787  66.915  1.00  0.00    -0.332 A  
HETATM   35  C   UNL     1     -10.685  17.125  67.910  1.00  0.00    -0.355 A  
HETATM   36  C   UNL     1      -9.839  19.294  66.837  1.00  0.00    -0.342 C  
HETATM   37  C   UNL     1     -10.659  15.737  68.060  1.00  0.00    -0.279 A  
HETATM   38  F   UNL     1      -9.007  19.718  65.839  1.00  0.00    -0.377 F  
HETATM   39  F   UNL     1     -11.029  19.908  66.607  1.00  0.00    -0.574 F  
HETATM   40  F   UNL     1      -9.338  19.843  67.978  1.00  0.00    -0.385 F  
HETATM   41  N   UNL     1     -11.420  15.140  68.991  1.00  0.00    -0.290 NA 
HETATM   42  C   UNL     1     -11.325  13.793  69.124  1.00  0.00    -0.281 A  
HETATM   43  C   UNL     1     -10.420  12.999  68.424  1.00  0.00    -0.261 A  
ENDBRANCH  28  30
ENDBRANCH  27  28
ENDBRANCH  20  22
ENDBRANCH  19  20
ENDBRANCH  18  19
ENDBRANCH  17  18
ENDBRANCH  14  17
ENDBRANCH   7  11
TORSDOF 8
ENDMDL
MODEL      221
REMARK 921   NORMALIZED FREE ENERGY PREDICTED BY IDOCK:   -3.97 KCAL/MOL
REMARK 922        TOTAL FREE ENERGY PREDICTED BY IDOCK:   -9.23 KCAL/MOL
REMARK 923 INTER-LIGAND FREE ENERGY PREDICTED BY IDOCK:   -7.57 KCAL/MOL
REMARK 924 INTRA-LIGAND FREE ENERGY PREDICTED BY IDOCK:   -1.66 KCAL/MOL
REMARK 927      BINDING AFFINITY PREDICTED BY RF-SCORE:    0.00 PKD
ROOT
HETATM    1  F   UNL     1     -11.600   3.085  73.784  1.00  0.00    -0.302 F  
HETATM    2  C   UNL     1     -10.618   2.480  73.060  1.00  0.00    -0.153 C  
HETATM    3  C   UNL     1      -9.752   3.438  72.280  1.00  0.00    -0.221 A  
HETATM    4  F   UNL     1      -9.905   1.731  73.947  1.00  0.00    -0.090 F  
HETATM    5  F   UNL     1     -11.254   1.587  72.249  1.00  0.00    -0.190 F  
HETATM    6  C   UNL     1      -9.977   4.830  72.316  1.00  0.00    -0.234 A  
HETATM    7  C   UNL     1      -9.237   5.700  71.508  1.00  0.00    -0.143 A  
HETATM    8  C   UNL     1      -8.733   2.924  71.463  1.00  0.00    -0.112 A  
HETATM    9  C   UNL     1      -8.213   5.147  70.719  1.00  0.00    -0.105 A  
HETATM   10  C   UNL     1      -7.957   3.778  70.692  1.00  0.00    -0.055 A  
ENDROOT
BRANCH   7  11
HETATM   11  N   UNL     1      -9.480   7.072  71.394  1.00  0.00    -0.159 NA 
HETATM   12  C   UNL     1     -10.757   9.173  71.702  1.00  0.00    -0.371 C  
HETATM   13  C   UNL     1     -10.825   7.619  71.666  1.00  0.00    -0.227 C  
HETATM   14  N   UNL     1     -10.173   9.819  70.493  1.00  0.00    -0.281 NA 
HETATM   15  C   UNL     1      -8.844   7.655  70.190  1.00  0.00    -0.146 C  
HETATM   16  C   UNL     1      -8.835   9.199  70.288  1.00  0.00    -0.213 C  
BRANCH  14  17
HETATM   17  C   UNL     1     -11.009   9.656  69.281  1.00  0.00    -0.168 C  
BRANCH  17  18
HETATM   18  C   UNL     1     -11.927  10.853  68.936  1.00  0.00    -0.206 C  
BRANCH  18  19
HETATM   19  O   UNL     1     -11.262  11.823  68.073  1.00  0.00    -0.225 OA 
BRANCH  19  20
HETATM   20  C   UNL     1     -11.096  13.029  68.672  1.00  0.00    -0.269 C  
HETATM   21  O   UNL     1     -11.627  13.318  69.746  1.00  0.00    -0.276 OA 
BRANCH  20  22
HETATM   22  C   UNL     1     -10.189  14.007  67.980  1.00  0.00    -0.238 A  
HETATM   23  C   UNL     1     -10.870  14.773  67.002  1.00  0.00    -0.315 A  
HETATM   24  C   UNL     1     -10.219  15.720  66.223  1.00  0.00    -0.317 A  
HETATM   25  C   UNL     1      -8.863  15.937  66.418  1.00  0.00    -0.368 A  
HETATM   26  C   UNL     1      -8.169  15.204  67.386  1.00  0.00    -0.215 A  
HETATM   27  C   UNL     1      -8.799  14.222  68.184  1.00  0.00    -0.183 A  
BRANCH  27  28
HETATM   28  N   UNL     1      -8.017  13.457  69.075  1.00  0.00    -0.336 NA 
HETATM   29  H   UNL     1      -8.172  13.699  70.055  1.00  0.00     0.000 HD 
BRANCH  28  30
HETATM   30  C   UNL     1      -7.057  12.418  68.900  1.00  0.00    -0.078 A  
HETATM   31  C   UNL     1      -7.200  11.525  67.811  1.00  0.00    -0.094 A  
HETATM   32  C   UNL     1      -8.058  11.810  66.736  1.00  0.00    -0.133 A  
HETATM   33  C   UNL     1      -8.300  10.873  65.738  1.00  0.00    -0.133 A  
HETATM   34  C   UNL     1      -7.712   9.611  65.806  1.00  0.00    -0.106 A  
HETATM   35  C   UNL     1      -6.756   9.373  66.815  1.00  0.00    -0.072 A  
HETATM   36  C   UNL     1      -8.152   8.541  64.833  1.00  0.00    -0.145 C  
HETATM   37  C   UNL     1      -6.455  10.323  67.794  1.00  0.00    -0.062 A  
HETATM   38  F   UNL     1      -9.134   8.969  63.986  1.00  0.00    -0.186 F  
HETATM   39  F   UNL     1      -7.153   8.082  64.034  1.00  0.00    -0.073 F  
HETATM   40  F   UNL     1      -8.672   7.450  65.461  1.00  0.00    -0.150 F  
HETATM   41  N   UNL     1      -5.508  10.076  68.712  1.00  0.00    -0.036 NA 
HETATM   42  C   UNL     1      -5.286  11.015  69.667  1.00  0.00    -0.041 A  
HETATM   43  C   UNL     1      -6.040  12.176  69.814  1.00  0.00    -0.143 A  
ENDBRANCH  28  30
ENDBRANCH  27  28
ENDBRANCH  20  22
ENDBRANCH  19  20
ENDBRANCH  18  19
ENDBRANCH  17  18
ENDBRANCH  14  17
ENDBRANCH   7  11
TORSDOF 8
ENDMDL
MODEL      222
REMARK 921   NORMALIZED FREE ENERGY PREDICTED BY IDOCK:   -3.93 KCAL/MOL
REMARK 922        TOTAL FREE ENERGY PREDICTED BY IDOCK:   -9.17 KCAL/MOL
REMARK 923 INTER-LIGAND FREE ENERGY PREDICTED BY IDOCK:   -8.09 KCAL/MOL
REMARK 924 INTRA-LIGAND FREE ENERGY PREDICTED BY IDOCK:   -1.08 KCAL/MOL
REMARK 927      BINDING AFFINITY PREDICTED BY RF-SCORE:    0.00 PKD
ROOT
HETATM    1  F   UNL     1     -11.958   9.767  70.063  1.00  0.00    -0.233 F  
HETATM    2  C   UNL     1     -12.633  10.258  71.139  1.00  0.00    -0.400 C  
HETATM    3  C   UNL     1     -12.800  11.758  71.126  1.00  0.00    -0.365 A  
HETATM    4  F   UNL     1     -13.824   9.597  71.169  1.00  0.00    -0.401 F  
HETATM    5  F   UNL     1     -11.944   9.829  72.234  1.00  0.00    -0.355 F  
HETATM    6  C   UNL     1     -12.281  12.547  70.079  1.00  0.00    -0.262 A  
HETATM    7  C   UNL     1     -12.350  13.944  70.128  1.00  0.00    -0.334 A  
HETATM    8  C   UNL     1     -13.444  12.380  72.206  1.00  0.00    -0.428 A  
HETATM    9  C   UNL     1     -13.020  14.527  71.218  1.00  0.00    -0.403 A  
HETATM   10  C   UNL     1     -13.564  13.762  72.247  1.00  0.00    -0.656 A  
ENDROOT
BRANCH   7  11
HETATM   11  N   UNL     1     -11.754  14.797  69.195  1.00  0.00    -0.297 NA 
HETATM   12  C   UNL     1     -11.345  15.753  66.946  1.00  0.00     0.050 C  
HETATM   13  C   UNL     1     -11.888  14.535  67.748  1.00  0.00    -0.357 C  
HETATM   14  N   UNL     1      -9.949  16.162  67.268  1.00  0.00    -0.243 NA 
HETATM   15  C   UNL     1     -10.382  15.191  69.593  1.00  0.00    -0.227 C  
HETATM   16  C   UNL     1      -9.903  16.389  68.739  1.00  0.00    -0.250 C  
BRANCH  14  17
HETATM   17  C   UNL     1      -8.936  15.157  66.868  1.00  0.00    -0.252 C  
BRANCH  17  18
HETATM   18  C   UNL     1      -9.492  13.766  66.484  1.00  0.00    -0.269 C  
BRANCH  18  19
HETATM   19  O   UNL     1      -9.284  12.781  67.541  1.00  0.00    -0.177 OA 
BRANCH  19  20
HETATM   20  C   UNL     1      -8.170  12.032  67.346  1.00  0.00    -0.168 C  
HETATM   21  O   UNL     1      -7.926  11.466  66.279  1.00  0.00    -0.134 OA 
BRANCH  20  22
HETATM   22  C   UNL     1      -7.204  11.947  68.494  1.00  0.00    -0.100 A  
HETATM   23  C   UNL     1      -6.720  13.221  68.884  1.00  0.00    -0.110 A  
HETATM   24  C   UNL     1      -5.796  13.376  69.909  1.00  0.00    -0.127 A  
HETATM   25  C   UNL     1      -5.343  12.252  70.583  1.00  0.00    -0.153 A  
HETATM   26  C   UNL     1      -5.815  10.984  70.227  1.00  0.00    -0.128 A  
HETATM   27  C   UNL     1      -6.743  10.791  69.180  1.00  0.00    -0.074 A  
BRANCH  27  28
HETATM   28  N   UNL     1      -7.103   9.477  68.815  1.00  0.00    -0.067 NA 
HETATM   29  H   UNL     1      -7.743   9.037  69.477  1.00  0.00     0.000 HD 
BRANCH  28  30
HETATM   30  C   UNL     1      -6.763   8.631  67.718  1.00  0.00    -0.066 A  
HETATM   31  C   UNL     1      -7.432   7.393  67.570  1.00  0.00    -0.100 A  
HETATM   32  C   UNL     1      -8.617   7.112  68.270  1.00  0.00    -0.122 A  
HETATM   33  C   UNL     1      -9.196   5.848  68.228  1.00  0.00    -0.117 A  
HETATM   34  C   UNL     1      -8.586   4.822  67.508  1.00  0.00    -0.104 A  
HETATM   35  C   UNL     1      -7.469   5.140  66.708  1.00  0.00    -0.087 A  
HETATM   36  C   UNL     1      -9.111   3.412  67.648  1.00  0.00    -0.169 C  
HETATM   37  C   UNL     1      -6.906   6.418  66.691  1.00  0.00    -0.066 A  
HETATM   38  F   UNL     1     -10.156   3.321  68.524  1.00  0.00    -0.035 F  
HETATM   39  F   UNL     1      -9.563   2.877  66.483  1.00  0.00    -0.144 F  
HETATM   40  F   UNL     1      -8.169   2.551  68.125  1.00  0.00    -0.058 F  
HETATM   41  N   UNL     1      -5.870   6.694  65.884  1.00  0.00    -0.025 NA 
HETATM   42  C   UNL     1      -5.333   7.939  65.937  1.00  0.00    -0.028 A  
HETATM   43  C   UNL     1      -5.725   8.922  66.843  1.00  0.00    -0.045 A  
ENDBRANCH  28  30
ENDBRANCH  27  28
ENDBRANCH  20  22
ENDBRANCH  19  20
ENDBRANCH  18  19
ENDBRANCH  17  18
ENDBRANCH  14  17
ENDBRANCH   7  11
TORSDOF 8
ENDMDL
MODEL      223
REMARK 921   NORMALIZED FREE ENERGY PREDICTED BY IDOCK:   -3.93 KCAL/MOL
REMARK 922        TOTAL FREE ENERGY PREDICTED BY IDOCK:   -9.16 KCAL/MOL
REMARK 923 INTER-LIGAND FREE ENERGY PREDICTED BY IDOCK:   -7.45 KCAL/MOL
REMARK 924 INTRA-LIGAND FREE ENERGY PREDICTED BY IDOCK:   -1.71 KCAL/MOL
REMARK 927      BINDING AFFINITY PREDICTED BY RF-SCORE:    0.00 PKD
ROOT
HETATM    1  F   UNL     1      -9.356   5.620  65.809  1.00  0.00    -0.166 F  
HETATM    2  C   UNL     1      -8.184   5.096  66.266  1.00  0.00    -0.109 C  
HETATM    3  C   UNL     1      -7.994   5.226  67.756  1.00  0.00    -0.099 A  
HETATM    4  F   UNL     1      -8.163   3.801  65.844  1.00  0.00    -0.098 F  
HETATM    5  F   UNL     1      -7.200   5.729  65.566  1.00  0.00    -0.066 F  
HETATM    6  C   UNL     1      -8.962   5.850  68.570  1.00  0.00    -0.113 A  
HETATM    7  C   UNL     1      -8.730   6.059  69.934  1.00  0.00    -0.131 A  
HETATM    8  C   UNL     1      -6.804   4.759  68.334  1.00  0.00    -0.055 A  
HETATM    9  C   UNL     1      -7.533   5.558  70.477  1.00  0.00    -0.080 A  
HETATM   10  C   UNL     1      -6.578   4.915  69.695  1.00  0.00    -0.039 A  
ENDROOT
BRANCH   7  11
HETATM   11  N   UNL     1      -9.582   6.775  70.781  1.00  0.00    -0.169 NA 
HETATM   12  C   UNL     1     -11.571   7.121  72.217  1.00  0.00    -0.271 C  
HETATM   13  C   UNL     1     -10.938   6.272  71.076  1.00  0.00    -0.283 C  
HETATM   14  N   UNL     1     -11.608   8.591  71.978  1.00  0.00    -0.336 NA 
HETATM   15  C   UNL     1      -9.544   8.231  70.511  1.00  0.00    -0.167 C  
HETATM   16  C   UNL     1     -10.210   9.005  71.673  1.00  0.00    -0.348 C  
BRANCH  14  17
HETATM   17  C   UNL     1     -12.514   8.983  70.873  1.00  0.00    -0.074 C  
BRANCH  17  18
HETATM   18  C   UNL     1     -12.951  10.466  70.861  1.00  0.00    -0.387 C  
BRANCH  18  19
HETATM   19  O   UNL     1     -11.873  11.352  70.433  1.00  0.00    -0.336 OA 
BRANCH  19  20
HETATM   20  C   UNL     1     -11.692  11.344  69.089  1.00  0.00    -0.342 C  
HETATM   21  O   UNL     1     -12.099  10.431  68.367  1.00  0.00    -0.214 OA 
BRANCH  20  22
HETATM   22  C   UNL     1     -10.993  12.533  68.494  1.00  0.00    -0.280 A  
HETATM   23  C   UNL     1     -11.895  13.430  67.870  1.00  0.00    -0.392 A  
HETATM   24  C   UNL     1     -11.463  14.585  67.232  1.00  0.00    -0.381 A  
HETATM   25  C   UNL     1     -10.108  14.881  67.218  1.00  0.00    -0.235 A  
HETATM   26  C   UNL     1      -9.197  14.019  67.838  1.00  0.00    -0.195 A  
HETATM   27  C   UNL     1      -9.603  12.829  68.482  1.00  0.00    -0.110 A  
BRANCH  27  28
HETATM   28  N   UNL     1      -8.620  11.962  69.005  1.00  0.00    -0.355 NA 
HETATM   29  H   UNL     1      -8.764  11.740  69.991  1.00  0.00     0.000 HD 
BRANCH  28  30
HETATM   30  C   UNL     1      -7.469  11.330  68.450  1.00  0.00    -0.108 A  
HETATM   31  C   UNL     1      -7.533  10.815  67.133  1.00  0.00    -0.102 A  
HETATM   32  C   UNL     1      -8.568  11.176  66.255  1.00  0.00    -0.180 A  
HETATM   33  C   UNL     1      -8.705  10.565  65.014  1.00  0.00    -0.193 A  
HETATM   34  C   UNL     1      -7.826   9.554  64.630  1.00  0.00    -0.122 A  
HETATM   35  C   UNL     1      -6.717   9.284  65.459  1.00  0.00    -0.073 A  
HETATM   36  C   UNL     1      -8.118   8.761  63.377  1.00  0.00    -0.170 C  
HETATM   37  C   UNL     1      -6.529   9.927  66.684  1.00  0.00    -0.071 A  
HETATM   38  F   UNL     1      -9.277   9.147  62.765  1.00  0.00    -0.233 F  
HETATM   39  F   UNL     1      -7.151   8.861  62.427  1.00  0.00    -0.098 F  
HETATM   40  F   UNL     1      -8.272   7.431  63.628  1.00  0.00    -0.129 F  
HETATM   41  N   UNL     1      -5.439   9.675  67.424  1.00  0.00    -0.036 NA 
HETATM   42  C   UNL     1      -5.326  10.294  68.626  1.00  0.00    -0.038 A  
HETATM   43  C   UNL     1      -6.313  11.102  69.186  1.00  0.00    -0.064 A  
ENDBRANCH  28  30
ENDBRANCH  27  28
ENDBRANCH  20  22
ENDBRANCH  19  20
ENDBRANCH  18  19
ENDBRANCH  17  18
ENDBRANCH  14  17
ENDBRANCH   7  11
TORSDOF 8
ENDMDL
MODEL      224
REMARK 921   NORMALIZED FREE ENERGY PREDICTED BY IDOCK:   -3.89 KCAL/MOL
REMARK 922        TOTAL FREE ENERGY PREDICTED BY IDOCK:   -9.11 KCAL/MOL
REMARK 923 INTER-LIGAND FREE ENERGY PREDICTED BY IDOCK:   -7.78 KCAL/MOL
REMARK 924 INTRA-LIGAND FREE ENERGY PREDICTED BY IDOCK:   -1.32 KCAL/MOL
REMARK 927      BINDING AFFINITY PREDICTED BY RF-SCORE:    0.00 PKD
ROOT
HETATM    1  F   UNL     1      -9.817  17.899  68.077  1.00  0.00    -0.274 F  
HETATM    2  C   UNL     1     -10.050  17.802  66.739  1.00  0.00    -0.349 C  
HETATM    3  C   UNL     1     -10.651  16.485  66.314  1.00  0.00    -0.223 A  
HETATM    4  F   UNL     1     -10.837  18.867  66.417  1.00  0.00    -0.431 F  
HETATM    5  F   UNL     1      -8.849  18.035  66.137  1.00  0.00    -0.272 F  
HETATM    6  C   UNL     1     -10.925  15.466  67.250  1.00  0.00    -0.317 A  
HETATM    7  C   UNL     1     -11.384  14.212  66.834  1.00  0.00    -0.331 A  
HETATM    8  C   UNL     1     -10.897  16.256  64.952  1.00  0.00    -0.315 A  
HETATM    9  C   UNL     1     -11.635  14.030  65.462  1.00  0.00    -0.333 A  
HETATM   10  C   UNL     1     -11.399  15.034  64.527  1.00  0.00    -0.294 A  
ENDROOT
BRANCH   7  11
HETATM   11  N   UNL     1     -11.561  13.114  67.681  1.00  0.00    -0.327 NA 
HETATM   12  C   UNL     1     -11.846  11.962  69.856  1.00  0.00    -0.343 C  
HETATM   13  C   UNL     1     -11.354  13.251  69.137  1.00  0.00    -0.282 C  
HETATM   14  N   UNL     1     -11.249  10.687  69.370  1.00  0.00    -0.250 NA 
HETATM   15  C   UNL     1     -10.974  11.874  67.121  1.00  0.00    -0.269 C  
HETATM   16  C   UNL     1     -11.490  10.641  67.900  1.00  0.00    -0.181 C  
BRANCH  14  17
HETATM   17  C   UNL     1      -9.801  10.570  69.659  1.00  0.00    -0.080 C  
BRANCH  17  18
HETATM   18  C   UNL     1      -9.164   9.197  69.338  1.00  0.00    -0.156 C  
BRANCH  18  19
HETATM   19  O   UNL     1     -10.107   8.098  69.523  1.00  0.00    -0.184 OA 
BRANCH  19  20
HETATM   20  C   UNL     1     -10.442   7.910  70.823  1.00  0.00    -0.210 C  
HETATM   21  O   UNL     1     -11.584   8.092  71.251  1.00  0.00    -0.264 OA 
BRANCH  20  22
HETATM   22  C   UNL     1      -9.354   7.421  71.737  1.00  0.00    -0.161 A  
HETATM   23  C   UNL     1      -9.186   8.259  72.868  1.00  0.00    -0.329 A  
HETATM   24  C   UNL     1      -8.217   8.010  73.831  1.00  0.00    -0.306 A  
HETATM   25  C   UNL     1      -7.398   6.899  73.693  1.00  0.00    -0.083 A  
HETATM   26  C   UNL     1      -7.553   6.049  72.594  1.00  0.00    -0.099 A  
HETATM   27  C   UNL     1      -8.517   6.282  71.588  1.00  0.00    -0.129 A  
BRANCH  27  28
HETATM   28  N   UNL     1      -8.553   5.434  70.461  1.00  0.00    -0.120 NA 
HETATM   29  H   UNL     1      -9.501   5.228  70.144  1.00  0.00     0.000 HD 
BRANCH  28  30
HETATM   30  C   UNL     1      -7.548   4.805  69.670  1.00  0.00    -0.055 A  
HETATM   31  C   UNL     1      -7.344   5.243  68.340  1.00  0.00    -0.071 A  
HETATM   32  C   UNL     1      -7.869   6.462  67.880  1.00  0.00    -0.104 A  
HETATM   33  C   UNL     1      -7.784   6.824  66.541  1.00  0.00    -0.102 A  
HETATM   34  C   UNL     1      -7.197   5.960  65.618  1.00  0.00    -0.075 A  
HETATM   35  C   UNL     1      -6.561   4.798  66.102  1.00  0.00    -0.045 A  
HETATM   36  C   UNL     1      -7.304   6.274  64.143  1.00  0.00    -0.071 C  
HETATM   37  C   UNL     1      -6.585   4.445  67.453  1.00  0.00    -0.047 A  
HETATM   38  F   UNL     1      -8.018   7.413  63.897  1.00  0.00    -0.124 F  
HETATM   39  F   UNL     1      -6.104   6.455  63.533  1.00  0.00    -0.022 F  
HETATM   40  F   UNL     1      -7.944   5.293  63.448  1.00  0.00    -0.071 F  
HETATM   41  N   UNL     1      -5.932   3.354  67.882  1.00  0.00    -0.026 NA 
HETATM   42  C   UNL     1      -6.023   3.032  69.197  1.00  0.00    -0.024 A  
HETATM   43  C   UNL     1      -6.827   3.704  70.114  1.00  0.00    -0.034 A  
ENDBRANCH  28  30
ENDBRANCH  27  28
ENDBRANCH  20  22
ENDBRANCH  19  20
ENDBRANCH  18  19
ENDBRANCH  17  18
ENDBRANCH  14  17
ENDBRANCH   7  11
TORSDOF 8
ENDMDL
MODEL      225
REMARK 921   NORMALIZED FREE ENERGY PREDICTED BY IDOCK:   -3.87 KCAL/MOL
REMARK 922        TOTAL FREE ENERGY PREDICTED BY IDOCK:   -9.08 KCAL/MOL
REMARK 923 INTER-LIGAND FREE ENERGY PREDICTED BY IDOCK:   -7.00 KCAL/MOL
REMARK 924 INTRA-LIGAND FREE ENERGY PREDICTED BY IDOCK:   -2.08 KCAL/MOL
REMARK 927      BINDING AFFINITY PREDICTED BY RF-SCORE:    0.00 PKD
ROOT
HETATM    1  F   UNL     1     -10.167  17.672  68.298  1.00  0.00    -0.294 F  
HETATM    2  C   UNL     1     -10.148  17.398  66.964  1.00  0.00    -0.313 C  
HETATM    3  C   UNL     1     -10.645  16.017  66.614  1.00  0.00    -0.297 A  
HETATM    4  F   UNL     1     -10.873  18.385  66.368  1.00  0.00    -0.357 F  
HETATM    5  F   UNL     1      -8.859  17.594  66.565  1.00  0.00    -0.249 F  
HETATM    6  C   UNL     1     -11.076  15.116  67.610  1.00  0.00    -0.318 A  
HETATM    7  C   UNL     1     -11.437  13.804  67.285  1.00  0.00    -0.341 A  
HETATM    8  C   UNL     1     -10.632  15.609  65.272  1.00  0.00    -0.448 A  
HETATM    9  C   UNL     1     -11.428  13.441  65.927  1.00  0.00    -0.344 A  
HETATM   10  C   UNL     1     -11.033  14.325  64.927  1.00  0.00    -0.413 A  
ENDROOT
BRANCH   7  11
HETATM   11  N   UNL     1     -11.755  12.817  68.223  1.00  0.00    -0.329 NA 
HETATM   12  C   UNL     1     -12.119  11.891  70.492  1.00  0.00    -0.331 C  
HETATM   13  C   UNL     1     -11.450  13.018  69.654  1.00  0.00    -0.183 C  
HETATM   14  N   UNL     1     -11.778  10.499  70.084  1.00  0.00    -0.299 NA 
HETATM   15  C   UNL     1     -11.422  11.457  67.740  1.00  0.00    -0.281 C  
HETATM   16  C   UNL     1     -12.101  10.393  68.634  1.00  0.00     0.493 C  
BRANCH  14  17
HETATM   17  C   UNL     1     -10.359  10.149  70.324  1.00  0.00    -0.174 C  
BRANCH  17  18
HETATM   18  C   UNL     1      -9.891   8.804  69.720  1.00  0.00    -0.186 C  
BRANCH  18  19
HETATM   19  O   UNL     1      -8.437   8.677  69.723  1.00  0.00    -0.123 OA 
BRANCH  19  20
HETATM   20  C   UNL     1      -7.808   9.872  69.856  1.00  0.00    -0.173 C  
HETATM   21  O   UNL     1      -7.213  10.200  70.885  1.00  0.00    -0.291 OA 
BRANCH  20  22
HETATM   22  C   UNL     1      -7.831  10.784  68.663  1.00  0.00    -0.122 A  
HETATM   23  C   UNL     1      -7.893  12.151  69.033  1.00  0.00     0.167 A  
HETATM   24  C   UNL     1      -7.950  13.167  68.088  1.00  0.00    -0.154 A  
HETATM   25  C   UNL     1      -7.929  12.838  66.741  1.00  0.00     0.154 A  
HETATM   26  C   UNL     1      -7.855  11.498  66.350  1.00  0.00    -0.020 A  
HETATM   27  C   UNL     1      -7.812  10.439  67.284  1.00  0.00    -0.106 A  
BRANCH  27  28
HETATM   28  N   UNL     1      -7.831   9.108  66.816  1.00  0.00    -0.100 NA 
HETATM   29  H   UNL     1      -7.757   8.419  67.565  1.00  0.00     0.000 HD 
BRANCH  28  30
HETATM   30  C   UNL     1      -7.933   8.522  65.521  1.00  0.00    -0.110 A  
HETATM   31  C   UNL     1      -8.355   7.176  65.405  1.00  0.00    -0.122 A  
HETATM   32  C   UNL     1      -8.968   6.505  66.476  1.00  0.00    -0.152 A  
HETATM   33  C   UNL     1      -9.256   5.147  66.406  1.00  0.00    -0.141 A  
HETATM   34  C   UNL     1      -8.910   4.416  65.271  1.00  0.00    -0.135 A  
HETATM   35  C   UNL     1      -8.410   5.115  64.153  1.00  0.00    -0.137 A  
HETATM   36  C   UNL     1      -9.036   2.910  65.298  1.00  0.00    -0.149 C  
HETATM   37  C   UNL     1      -8.167   6.490  64.183  1.00  0.00     0.029 A  
HETATM   38  F   UNL     1      -9.477   2.439  66.503  1.00  0.00    -0.111 F  
HETATM   39  F   UNL     1      -9.900   2.415  64.373  1.00  0.00    -0.144 F  
HETATM   40  F   UNL     1      -7.846   2.284  65.084  1.00  0.00    -0.072 F  
HETATM   41  N   UNL     1      -7.733   7.128  63.085  1.00  0.00    -0.115 NA 
HETATM   42  C   UNL     1      -7.471   8.456  63.180  1.00  0.00    -0.110 A  
HETATM   43  C   UNL     1      -7.533   9.183  64.367  1.00  0.00    -0.101 A  
ENDBRANCH  28  30
ENDBRANCH  27  28
ENDBRANCH  20  22
ENDBRANCH  19  20
ENDBRANCH  18  19
ENDBRANCH  17  18
ENDBRANCH  14  17
ENDBRANCH   7  11
TORSDOF 8
ENDMDL
MODEL      226
REMARK 921   NORMALIZED FREE ENERGY PREDICTED BY IDOCK:   -3.85 KCAL/MOL
REMARK 922        TOTAL FREE ENERGY PREDICTED BY IDOCK:   -9.05 KCAL/MOL
REMARK 923 INTER-LIGAND FREE ENERGY PREDICTED BY IDOCK:   -7.43 KCAL/MOL
REMARK 924 INTRA-LIGAND FREE ENERGY PREDICTED BY IDOCK:   -1.63 KCAL/MOL
REMARK 927      BINDING AFFINITY PREDICTED BY RF-SCORE:    0.00 PKD
ROOT
HETATM    1  F   UNL     1     -10.266  14.115  67.550  1.00  0.00    -0.234 F  
HETATM    2  C   UNL     1     -11.303  14.211  66.672  1.00  0.00    -0.344 C  
HETATM    3  C   UNL     1     -11.207  13.263  65.503  1.00  0.00    -0.307 A  
HETATM    4  F   UNL     1     -12.435  14.025  67.407  1.00  0.00    -0.395 F  
HETATM    5  F   UNL     1     -11.331  15.514  66.274  1.00  0.00    -0.289 F  
HETATM    6  C   UNL     1     -10.118  12.377  65.362  1.00  0.00    -0.289 A  
HETATM    7  C   UNL     1      -9.985  11.577  64.222  1.00  0.00    -0.271 A  
HETATM    8  C   UNL     1     -12.199  13.301  64.512  1.00  0.00    -0.456 A  
HETATM    9  C   UNL     1     -11.011  11.631  63.261  1.00  0.00    -0.361 A  
HETATM   10  C   UNL     1     -12.107  12.478  63.398  1.00  0.00    -0.621 A  
ENDROOT
BRANCH   7  11
HETATM   11  N   UNL     1      -8.878  10.767  63.950  1.00  0.00    -0.152 NA 
HETATM   12  C   UNL     1      -7.679   8.838  62.960  1.00  0.00    -0.118 C  
HETATM   13  C   UNL     1      -9.060   9.415  63.384  1.00  0.00    -0.017 C  
HETATM   14  N   UNL     1      -6.639   8.813  64.026  1.00  0.00    -0.079 NA 
HETATM   15  C   UNL     1      -7.869  10.815  65.034  1.00  0.00     0.112 C  
HETATM   16  C   UNL     1      -6.534  10.204  64.547  1.00  0.00    -0.124 C  
BRANCH  14  17
HETATM   17  C   UNL     1      -6.951   7.872  65.127  1.00  0.00    -0.059 C  
BRANCH  17  18
HETATM   18  C   UNL     1      -5.827   7.669  66.171  1.00  0.00    -0.037 C  
BRANCH  18  19
HETATM   19  O   UNL     1      -6.356   7.498  67.520  1.00  0.00    -0.052 OA 
BRANCH  19  20
HETATM   20  C   UNL     1      -7.244   8.466  67.860  1.00  0.00    -0.091 C  
HETATM   21  O   UNL     1      -8.439   8.409  67.563  1.00  0.00    -0.127 OA 
BRANCH  20  22
HETATM   22  C   UNL     1      -6.711   9.618  68.664  1.00  0.00    -0.052 A  
HETATM   23  C   UNL     1      -5.991  10.542  67.866  1.00  0.00    -0.043 A  
HETATM   24  C   UNL     1      -5.389  11.671  68.408  1.00  0.00    -0.045 A  
HETATM   25  C   UNL     1      -5.508  11.911  69.769  1.00  0.00    -0.087 A  
HETATM   26  C   UNL     1      -6.225  11.022  70.576  1.00  0.00    -0.053 A  
HETATM   27  C   UNL     1      -6.836   9.857  70.059  1.00  0.00    -0.110 A  
BRANCH  27  28
HETATM   28  N   UNL     1      -7.463   8.958  70.948  1.00  0.00    -0.090 NA 
HETATM   29  H   UNL     1      -6.857   8.664  71.715  1.00  0.00     0.000 HD 
BRANCH  28  30
HETATM   30  C   UNL     1      -8.762   8.374  71.003  1.00  0.00    -0.156 A  
HETATM   31  C   UNL     1      -8.905   6.988  70.750  1.00  0.00    -0.149 A  
HETATM   32  C   UNL     1      -7.798   6.124  70.757  1.00  0.00    -0.103 A  
HETATM   33  C   UNL     1      -7.921   4.793  70.375  1.00  0.00    -0.065 A  
HETATM   34  C   UNL     1      -9.151   4.299  69.945  1.00  0.00    -0.173 A  
HETATM   35  C   UNL     1     -10.283   5.133  70.060  1.00  0.00    -0.354 A  
HETATM   36  C   UNL     1      -9.218   2.917  69.336  1.00  0.00    -0.142 C  
HETATM   37  C   UNL     1     -10.190   6.456  70.496  1.00  0.00    -0.189 A  
HETATM   38  F   UNL     1      -7.995   2.312  69.263  1.00  0.00    -0.046 F  
HETATM   39  F   UNL     1     -10.014   2.053  70.020  1.00  0.00    -0.085 F  
HETATM   40  F   UNL     1      -9.684   2.936  68.056  1.00  0.00    -0.256 F  
HETATM   41  N   UNL     1     -11.294   7.206  70.633  1.00  0.00    -0.282 NA 
HETATM   42  C   UNL     1     -11.145   8.498  71.020  1.00  0.00    -0.260 A  
HETATM   43  C   UNL     1      -9.913   9.126  71.192  1.00  0.00    -0.377 A  
ENDBRANCH  28  30
ENDBRANCH  27  28
ENDBRANCH  20  22
ENDBRANCH  19  20
ENDBRANCH  18  19
ENDBRANCH  17  18
ENDBRANCH  14  17
ENDBRANCH   7  11
TORSDOF 8
ENDMDL
MODEL      227
REMARK 921   NORMALIZED FREE ENERGY PREDICTED BY IDOCK:   -3.80 KCAL/MOL
REMARK 922        TOTAL FREE ENERGY PREDICTED BY IDOCK:   -8.98 KCAL/MOL
REMARK 923 INTER-LIGAND FREE ENERGY PREDICTED BY IDOCK:   -7.29 KCAL/MOL
REMARK 924 INTRA-LIGAND FREE ENERGY PREDICTED BY IDOCK:   -1.70 KCAL/MOL
REMARK 927      BINDING AFFINITY PREDICTED BY RF-SCORE:    0.00 PKD
ROOT
HETATM    1  F   UNL     1     -10.964  13.256  63.267  1.00  0.00    -0.144 F  
HETATM    2  C   UNL     1     -11.781  13.788  64.219  1.00  0.00    -0.395 C  
HETATM    3  C   UNL     1     -11.351  13.490  65.633  1.00  0.00    -0.312 A  
HETATM    4  F   UNL     1     -11.840  15.124  63.958  1.00  0.00    -0.345 F  
HETATM    5  F   UNL     1     -13.027  13.304  63.949  1.00  0.00    -0.162 F  
HETATM    6  C   UNL     1     -10.203  12.717  65.906  1.00  0.00    -0.290 A  
HETATM    7  C   UNL     1      -9.872  12.358  67.217  1.00  0.00    -0.207 A  
HETATM    8  C   UNL     1     -12.141  13.952  66.697  1.00  0.00    -0.485 A  
HETATM    9  C   UNL     1     -10.678  12.858  68.255  1.00  0.00    -0.261 A  
HETATM   10  C   UNL     1     -11.799  13.647  68.007  1.00  0.00    -0.397 A  
ENDROOT
BRANCH   7  11
HETATM   11  N   UNL     1      -8.826  11.496  67.560  1.00  0.00    -0.152 NA 
HETATM   12  C   UNL     1      -7.785   9.319  68.122  1.00  0.00    -0.088 C  
HETATM   13  C   UNL     1      -9.110  10.132  68.048  1.00  0.00    -0.131 C  
HETATM   14  N   UNL     1      -6.697   9.938  68.930  1.00  0.00    -0.053 NA 
HETATM   15  C   UNL     1      -7.765  12.184  68.333  1.00  0.00    -0.134 C  
HETATM   16  C   UNL     1      -6.490  11.308  68.382  1.00  0.00    -0.057 C  
BRANCH  14  17
HETATM   17  C   UNL     1      -7.006  10.002  70.378  1.00  0.00    -0.131 C  
BRANCH  17  18
HETATM   18  C   UNL     1      -6.984   8.648  71.126  1.00  0.00    -0.078 C  
BRANCH  18  19
HETATM   19  O   UNL     1      -8.297   8.011  71.147  1.00  0.00    -0.105 OA 
BRANCH  19  20
HETATM   20  C   UNL     1      -8.645   7.571  72.382  1.00  0.00    -0.122 C  
HETATM   21  O   UNL     1      -9.259   8.270  73.190  1.00  0.00    -0.260 OA 
BRANCH  20  22
HETATM   22  C   UNL     1      -8.279   6.154  72.721  1.00  0.00    -0.117 A  
HETATM   23  C   UNL     1      -7.047   6.068  73.416  1.00  0.00    -0.085 A  
HETATM   24  C   UNL     1      -6.504   4.851  73.806  1.00  0.00    -0.062 A  
HETATM   25  C   UNL     1      -7.195   3.683  73.521  1.00  0.00    -0.056 A  
HETATM   26  C   UNL     1      -8.419   3.740  72.848  1.00  0.00    -0.094 A  
HETATM   27  C   UNL     1      -8.991   4.960  72.424  1.00  0.00    -0.129 A  
BRANCH  27  28
HETATM   28  N   UNL     1     -10.183   4.934  71.668  1.00  0.00    -0.204 NA 
HETATM   29  H   UNL     1     -10.979   4.561  72.187  1.00  0.00     0.000 HD 
BRANCH  28  30
HETATM   30  C   UNL     1     -10.511   5.319  70.335  1.00  0.00    -0.251 A  
HETATM   31  C   UNL     1      -9.924   4.622  69.253  1.00  0.00    -0.231 A  
HETATM   32  C   UNL     1      -9.285   3.385  69.438  1.00  0.00    -0.222 A  
HETATM   33  C   UNL     1      -8.591   2.770  68.401  1.00  0.00    -0.110 A  
HETATM   34  C   UNL     1      -8.493   3.393  67.159  1.00  0.00    -0.107 A  
HETATM   35  C   UNL     1      -9.239   4.570  66.941  1.00  0.00    -0.142 A  
HETATM   36  C   UNL     1      -7.563   2.815  66.116  1.00  0.00    -0.076 C  
HETATM   37  C   UNL     1      -9.989   5.173  67.952  1.00  0.00    -0.152 A  
HETATM   38  F   UNL     1      -6.891   1.712  66.562  1.00  0.00    -0.034 F  
HETATM   39  F   UNL     1      -8.191   2.425  64.976  1.00  0.00    -0.079 F  
HETATM   40  F   UNL     1      -6.595   3.695  65.738  1.00  0.00    -0.036 F  
HETATM   41  N   UNL     1     -10.720   6.269  67.695  1.00  0.00    -0.277 NA 
HETATM   42  C   UNL     1     -11.396   6.840  68.724  1.00  0.00    -0.021 A  
HETATM   43  C   UNL     1     -11.306   6.421  70.049  1.00  0.00    -0.496 A  
ENDBRANCH  28  30
ENDBRANCH  27  28
ENDBRANCH  20  22
ENDBRANCH  19  20
ENDBRANCH  18  19
ENDBRANCH  17  18
ENDBRANCH  14  17
ENDBRANCH   7  11
TORSDOF 8
ENDMDL
MODEL      228
REMARK 921   NORMALIZED FREE ENERGY PREDICTED BY IDOCK:   -3.77 KCAL/MOL
REMARK 922        TOTAL FREE ENERGY PREDICTED BY IDOCK:   -8.93 KCAL/MOL
REMARK 923 INTER-LIGAND FREE ENERGY PREDICTED BY IDOCK:   -7.15 KCAL/MOL
REMARK 924 INTRA-LIGAND FREE ENERGY PREDICTED BY IDOCK:   -1.78 KCAL/MOL
REMARK 927      BINDING AFFINITY PREDICTED BY RF-SCORE:    0.00 PKD
ROOT
HETATM    1  F   UNL     1      -8.336  16.798  69.020  1.00  0.00    -0.230 F  
HETATM    2  C   UNL     1      -8.783  16.976  67.745  1.00  0.00    -0.222 C  
HETATM    3  C   UNL     1      -9.397  15.742  67.132  1.00  0.00    -0.224 A  
HETATM    4  F   UNL     1      -9.651  18.025  67.796  1.00  0.00    -0.261 F  
HETATM    5  F   UNL     1      -7.707  17.421  67.035  1.00  0.00    -0.192 F  
HETATM    6  C   UNL     1      -9.474  14.528  67.844  1.00  0.00    -0.212 A  
HETATM    7  C   UNL     1      -9.949  13.363  67.231  1.00  0.00    -0.232 A  
HETATM    8  C   UNL     1      -9.854  15.796  65.807  1.00  0.00    -0.383 A  
HETATM    9  C   UNL     1     -10.416  13.465  65.908  1.00  0.00    -0.287 A  
HETATM   10  C   UNL     1     -10.374  14.662  65.199  1.00  0.00    -0.431 A  
ENDROOT
BRANCH   7  11
HETATM   11  N   UNL     1      -9.943  12.098  67.826  1.00  0.00    -0.193 NA 
HETATM   12  C   UNL     1      -8.956  10.179  69.044  1.00  0.00    -0.167 C  
HETATM   13  C   UNL     1      -8.668  11.449  68.192  1.00  0.00    -0.154 C  
HETATM   14  N   UNL     1      -9.879   9.187  68.425  1.00  0.00    -0.159 NA 
HETATM   15  C   UNL     1     -10.906  11.173  67.184  1.00  0.00    -0.273 C  
HETATM   16  C   UNL     1     -11.123   9.928  68.076  1.00  0.00    -0.158 C  
BRANCH  14  17
HETATM   17  C   UNL     1      -9.314   8.531  67.223  1.00  0.00    -0.149 C  
BRANCH  17  18
HETATM   18  C   UNL     1     -10.259   7.550  66.491  1.00  0.00    -0.095 C  
BRANCH  18  19
HETATM   19  O   UNL     1     -10.249   6.222  67.097  1.00  0.00    -0.153 OA 
BRANCH  19  20
HETATM   20  C   UNL     1      -9.960   5.242  66.205  1.00  0.00    -0.165 C  
HETATM   21  O   UNL     1     -10.770   4.369  65.888  1.00  0.00    -0.192 OA 
BRANCH  20  22
HETATM   22  C   UNL     1      -8.597   5.284  65.573  1.00  0.00    -0.146 A  
HETATM   23  C   UNL     1      -8.656   5.173  64.162  1.00  0.00    -0.101 A  
HETATM   24  C   UNL     1      -7.511   5.164  63.376  1.00  0.00    -0.053 A  
HETATM   25  C   UNL     1      -6.272   5.281  63.987  1.00  0.00    -0.022 A  
HETATM   26  C   UNL     1      -6.187   5.405  65.378  1.00  0.00    -0.034 A  
HETATM   27  C   UNL     1      -7.331   5.403  66.207  1.00  0.00    -0.082 A  
BRANCH  27  28
HETATM   28  N   UNL     1      -7.164   5.438  67.608  1.00  0.00    -0.071 NA 
HETATM   29  H   UNL     1      -7.345   4.539  68.056  1.00  0.00     0.000 HD 
BRANCH  28  30
HETATM   30  C   UNL     1      -6.795   6.460  68.530  1.00  0.00    -0.071 A  
HETATM   31  C   UNL     1      -7.529   6.601  69.732  1.00  0.00    -0.092 A  
HETATM   32  C   UNL     1      -8.390   5.589  70.188  1.00  0.00    -0.116 A  
HETATM   33  C   UNL     1      -9.210   5.784  71.293  1.00  0.00    -0.161 A  
HETATM   34  C   UNL     1      -9.213   7.011  71.954  1.00  0.00    -0.147 A  
HETATM   35  C   UNL     1      -8.259   7.978  71.573  1.00  0.00    -0.135 A  
HETATM   36  C   UNL     1     -10.259   7.275  73.014  1.00  0.00    -0.268 C  
HETATM   37  C   UNL     1      -7.386   7.779  70.501  1.00  0.00    -0.072 A  
HETATM   38  F   UNL     1     -11.121   6.227  73.176  1.00  0.00    -0.260 F  
HETATM   39  F   UNL     1      -9.742   7.518  74.247  1.00  0.00    -0.275 F  
HETATM   40  F   UNL     1     -11.047   8.343  72.711  1.00  0.00    -0.413 F  
HETATM   41  N   UNL     1      -6.463   8.703  70.195  1.00  0.00    -0.037 NA 
HETATM   42  C   UNL     1      -5.668   8.480  69.118  1.00  0.00    -0.039 A  
HETATM   43  C   UNL     1      -5.810   7.399  68.252  1.00  0.00    -0.027 A  
ENDBRANCH  28  30
ENDBRANCH  27  28
ENDBRANCH  20  22
ENDBRANCH  19  20
ENDBRANCH  18  19
ENDBRANCH  17  18
ENDBRANCH  14  17
ENDBRANCH   7  11
TORSDOF 8
ENDMDL
MODEL      229
REMARK 921   NORMALIZED FREE ENERGY PREDICTED BY IDOCK:   -3.68 KCAL/MOL
REMARK 922        TOTAL FREE ENERGY PREDICTED BY IDOCK:   -8.79 KCAL/MOL
REMARK 923 INTER-LIGAND FREE ENERGY PREDICTED BY IDOCK:   -6.91 KCAL/MOL
REMARK 924 INTRA-LIGAND FREE ENERGY PREDICTED BY IDOCK:   -1.88 KCAL/MOL
REMARK 927      BINDING AFFINITY PREDICTED BY RF-SCORE:    0.00 PKD
ROOT
HETATM    1  F   UNL     1      -8.801  16.420  66.411  1.00  0.00    -0.234 F  
HETATM    2  C   UNL     1     -10.099  16.220  66.047  1.00  0.00    -0.356 C  
HETATM    3  C   UNL     1     -10.568  14.795  66.206  1.00  0.00    -0.306 A  
HETATM    4  F   UNL     1     -10.834  17.100  66.783  1.00  0.00    -0.265 F  
HETATM    5  F   UNL     1     -10.191  16.650  64.757  1.00  0.00    -0.022 F  
HETATM    6  C   UNL     1      -9.706  13.786  66.683  1.00  0.00    -0.293 A  
HETATM    7  C   UNL     1     -10.119  12.449  66.727  1.00  0.00    -0.214 A  
HETATM    8  C   UNL     1     -11.876  14.463  65.823  1.00  0.00    -0.365 A  
HETATM    9  C   UNL     1     -11.443  12.162  66.353  1.00  0.00    -0.430 A  
HETATM   10  C   UNL     1     -12.317  13.149  65.907  1.00  0.00    -0.462 A  
ENDROOT
BRANCH   7  11
HETATM   11  N   UNL     1      -9.289  11.377  67.069  1.00  0.00    -0.172 NA 
HETATM   12  C   UNL     1      -7.229  10.299  67.924  1.00  0.00    -0.085 C  
HETATM   13  C   UNL     1      -7.854  11.598  67.339  1.00  0.00    -0.147 C  
HETATM   14  N   UNL     1      -7.415   9.070  67.102  1.00  0.00    -0.087 NA 
HETATM   15  C   UNL     1      -9.550  10.180  66.236  1.00  0.00    -0.193 C  
HETATM   16  C   UNL     1      -8.879   8.937  66.867  1.00  0.00    -0.127 C  
BRANCH  14  17
HETATM   17  C   UNL     1      -6.687   9.113  65.812  1.00  0.00    -0.072 C  
BRANCH  17  18
HETATM   18  C   UNL     1      -6.131   7.758  65.314  1.00  0.00    -0.038 C  
BRANCH  18  19
HETATM   19  O   UNL     1      -6.718   6.628  66.027  1.00  0.00    -0.046 OA 
BRANCH  19  20
HETATM   20  C   UNL     1      -6.308   5.431  65.538  1.00  0.00    -0.035 C  
HETATM   21  O   UNL     1      -5.133   5.195  65.250  1.00  0.00    -0.008 OA 
BRANCH  20  22
HETATM   22  C   UNL     1      -7.358   4.366  65.393  1.00  0.00    -0.073 A  
HETATM   23  C   UNL     1      -8.012   4.424  64.137  1.00  0.00    -0.091 A  
HETATM   24  C   UNL     1      -9.036   3.548  63.799  1.00  0.00    -0.095 A  
HETATM   25  C   UNL     1      -9.421   2.577  64.710  1.00  0.00    -0.102 A  
HETATM   26  C   UNL     1      -8.783   2.490  65.952  1.00  0.00    -0.125 A  
HETATM   27  C   UNL     1      -7.749   3.375  66.333  1.00  0.00    -0.078 A  
BRANCH  27  28
HETATM   28  N   UNL     1      -7.216   3.286  67.636  1.00  0.00    -0.054 NA 
HETATM   29  H   UNL     1      -7.018   2.328  67.925  1.00  0.00     0.000 HD 
BRANCH  28  30
HETATM   30  C   UNL     1      -6.894   4.251  68.635  1.00  0.00    -0.047 A  
HETATM   31  C   UNL     1      -7.942   4.951  69.280  1.00  0.00    -0.075 A  
HETATM   32  C   UNL     1      -9.274   4.515  69.198  1.00  0.00    -0.194 A  
HETATM   33  C   UNL     1     -10.315   5.277  69.715  1.00  0.00    -0.369 A  
HETATM   34  C   UNL     1     -10.053   6.514  70.302  1.00  0.00    -0.208 A  
HETATM   35  C   UNL     1      -8.707   6.889  70.494  1.00  0.00    -0.150 A  
HETATM   36  C   UNL     1     -11.209   7.417  70.664  1.00  0.00    -0.270 C  
HETATM   37  C   UNL     1      -7.644   6.110  70.034  1.00  0.00    -0.095 A  
HETATM   38  F   UNL     1     -12.422   6.882  70.330  1.00  0.00    -0.367 F  
HETATM   39  F   UNL     1     -11.288   7.704  71.990  1.00  0.00    -0.255 F  
HETATM   40  F   UNL     1     -11.156   8.614  70.015  1.00  0.00    -0.248 F  
HETATM   41  N   UNL     1      -6.376   6.479  70.274  1.00  0.00    -0.038 NA 
HETATM   42  C   UNL     1      -5.380   5.709  69.767  1.00  0.00    -0.004 A  
HETATM   43  C   UNL     1      -5.586   4.613  68.933  1.00  0.00    -0.012 A  
ENDBRANCH  28  30
ENDBRANCH  27  28
ENDBRANCH  20  22
ENDBRANCH  19  20
ENDBRANCH  18  19
ENDBRANCH  17  18
ENDBRANCH  14  17
ENDBRANCH   7  11
TORSDOF 8
ENDMDL
MODEL      230
REMARK 921   NORMALIZED FREE ENERGY PREDICTED BY IDOCK:   -3.66 KCAL/MOL
REMARK 922        TOTAL FREE ENERGY PREDICTED BY IDOCK:   -8.77 KCAL/MOL
REMARK 923 INTER-LIGAND FREE ENERGY PREDICTED BY IDOCK:   -7.47 KCAL/MOL
REMARK 924 INTRA-LIGAND FREE ENERGY PREDICTED BY IDOCK:   -1.30 KCAL/MOL
REMARK 927      BINDING AFFINITY PREDICTED BY RF-SCORE:    0.00 PKD
ROOT
HETATM    1  F   UNL     1      -7.634  19.778  67.543  1.00  0.00    -0.273 F  
HETATM    2  C   UNL     1      -6.607  19.141  68.171  1.00  0.00    -0.230 C  
HETATM    3  C   UNL     1      -6.939  17.740  68.622  1.00  0.00    -0.247 A  
HETATM    4  F   UNL     1      -5.556  19.179  67.305  1.00  0.00    -0.165 F  
HETATM    5  F   UNL     1      -6.256  19.945  69.214  1.00  0.00    -0.287 F  
HETATM    6  C   UNL     1      -8.214  17.179  68.402  1.00  0.00    -0.253 A  
HETATM    7  C   UNL     1      -8.544  15.920  68.916  1.00  0.00    -0.221 A  
HETATM    8  C   UNL     1      -5.970  17.001  69.318  1.00  0.00    -0.204 A  
HETATM    9  C   UNL     1      -7.539  15.205  69.590  1.00  0.00    -0.163 A  
HETATM   10  C   UNL     1      -6.266  15.731  69.792  1.00  0.00    -0.172 A  
ENDROOT
BRANCH   7  11
HETATM   11  N   UNL     1      -9.819  15.348  68.848  1.00  0.00    -0.205 NA 
HETATM   12  C   UNL     1     -12.184  15.017  69.507  1.00  0.00    -0.232 C  
HETATM   13  C   UNL     1     -10.788  15.547  69.944  1.00  0.00    -0.302 C  
HETATM   14  N   UNL     1     -12.217  13.602  69.043  1.00  0.00    -0.296 NA 
HETATM   15  C   UNL     1      -9.781  13.955  68.347  1.00  0.00    -0.226 C  
HETATM   16  C   UNL     1     -11.204  13.491  67.956  1.00  0.00    -0.271 C  
BRANCH  14  17
HETATM   17  C   UNL     1     -11.928  12.625  70.119  1.00  0.00    -0.299 C  
BRANCH  17  18
HETATM   18  C   UNL     1     -12.247  11.149  69.784  1.00  0.00    -0.300 C  
BRANCH  18  19
HETATM   19  O   UNL     1     -11.780  10.237  70.823  1.00  0.00    -0.307 OA 
BRANCH  19  20
HETATM   20  C   UNL     1     -10.788   9.418  70.392  1.00  0.00    -0.269 C  
HETATM   21  O   UNL     1      -9.862   9.810  69.679  1.00  0.00    -0.194 OA 
BRANCH  20  22
HETATM   22  C   UNL     1     -10.840   7.991  70.860  1.00  0.00    -0.248 A  
HETATM   23  C   UNL     1     -11.695   7.823  71.977  1.00  0.00    -0.349 A  
HETATM   24  C   UNL     1     -11.873   6.589  72.589  1.00  0.00    -0.067 A  
HETATM   25  C   UNL     1     -11.207   5.483  72.084  1.00  0.00    -0.247 A  
HETATM   26  C   UNL     1     -10.367   5.619  70.973  1.00  0.00    -0.297 A  
HETATM   27  C   UNL     1     -10.153   6.862  70.337  1.00  0.00    -0.187 A  
BRANCH  27  28
HETATM   28  N   UNL     1      -9.221   6.941  69.281  1.00  0.00    -0.139 NA 
HETATM   29  H   UNL     1      -9.546   7.513  68.501  1.00  0.00     0.000 HD 
BRANCH  28  30
HETATM   30  C   UNL     1      -7.922   6.393  69.071  1.00  0.00    -0.111 A  
HETATM   31  C   UNL     1      -7.530   6.030  67.760  1.00  0.00    -0.085 A  
HETATM   32  C   UNL     1      -8.242   6.474  66.634  1.00  0.00    -0.112 A  
HETATM   33  C   UNL     1      -7.939   6.007  65.360  1.00  0.00    -0.118 A  
HETATM   34  C   UNL     1      -6.934   5.058  65.183  1.00  0.00    -0.061 A  
HETATM   35  C   UNL     1      -6.140   4.711  66.296  1.00  0.00    -0.031 A  
HETATM   36  C   UNL     1      -6.764   4.409  63.828  1.00  0.00    -0.043 C  
HETATM   37  C   UNL     1      -6.391   5.213  67.574  1.00  0.00    -0.040 A  
HETATM   38  F   UNL     1      -7.681   4.847  62.914  1.00  0.00    -0.055 F  
HETATM   39  F   UNL     1      -5.548   4.631  63.263  1.00  0.00    -0.014 F  
HETATM   40  F   UNL     1      -6.924   3.057  63.876  1.00  0.00    -0.039 F  
HETATM   41  N   UNL     1      -5.588   4.893  68.601  1.00  0.00    -0.015 NA 
HETATM   42  C   UNL     1      -5.902   5.373  69.831  1.00  0.00    -0.017 A  
HETATM   43  C   UNL     1      -7.056   6.099  70.117  1.00  0.00    -0.074 A  
ENDBRANCH  28  30
ENDBRANCH  27  28
ENDBRANCH  20  22
ENDBRANCH  19  20
ENDBRANCH  18  19
ENDBRANCH  17  18
ENDBRANCH  14  17
ENDBRANCH   7  11
TORSDOF 8
ENDMDL
MODEL      231
REMARK 921   NORMALIZED FREE ENERGY PREDICTED BY IDOCK:   -3.66 KCAL/MOL
REMARK 922        TOTAL FREE ENERGY PREDICTED BY IDOCK:   -8.77 KCAL/MOL
REMARK 923 INTER-LIGAND FREE ENERGY PREDICTED BY IDOCK:   -7.73 KCAL/MOL
REMARK 924 INTRA-LIGAND FREE ENERGY PREDICTED BY IDOCK:   -1.03 KCAL/MOL
REMARK 927      BINDING AFFINITY PREDICTED BY RF-SCORE:    0.00 PKD
ROOT
HETATM    1  F   UNL     1      -7.334   7.262  70.745  1.00  0.00    -0.066 F  
HETATM    2  C   UNL     1      -8.162   6.196  70.930  1.00  0.00    -0.126 C  
HETATM    3  C   UNL     1      -8.377   5.364  69.690  1.00  0.00    -0.100 A  
HETATM    4  F   UNL     1      -7.628   5.480  71.957  1.00  0.00    -0.090 F  
HETATM    5  F   UNL     1      -9.329   6.714  71.408  1.00  0.00    -0.151 F  
HETATM    6  C   UNL     1      -7.764   5.697  68.465  1.00  0.00    -0.089 A  
HETATM    7  C   UNL     1      -8.052   4.981  67.297  1.00  0.00    -0.107 A  
HETATM    8  C   UNL     1      -9.245   4.263  69.751  1.00  0.00    -0.207 A  
HETATM    9  C   UNL     1      -8.912   3.874  67.406  1.00  0.00    -0.153 A  
HETATM   10  C   UNL     1      -9.504   3.512  68.613  1.00  0.00    -0.209 A  
ENDROOT
BRANCH   7  11
HETATM   11  N   UNL     1      -7.584   5.322  66.025  1.00  0.00    -0.086 NA 
HETATM   12  C   UNL     1      -6.327   6.666  64.366  1.00  0.00    -0.038 C  
HETATM   13  C   UNL     1      -6.970   6.643  65.783  1.00  0.00    -0.057 C  
HETATM   14  N   UNL     1      -7.237   6.309  63.242  1.00  0.00    -0.053 NA 
HETATM   15  C   UNL     1      -8.521   4.908  64.954  1.00  0.00    -0.144 C  
HETATM   16  C   UNL     1      -7.820   4.980  63.577  1.00  0.00    -0.081 C  
BRANCH  14  17
HETATM   17  C   UNL     1      -8.313   7.303  63.020  1.00  0.00     0.143 C  
BRANCH  17  18
HETATM   18  C   UNL     1      -8.042   8.718  63.585  1.00  0.00    -0.169 C  
BRANCH  18  19
HETATM   19  O   UNL     1      -9.103   9.163  64.483  1.00  0.00    -0.159 OA 
BRANCH  19  20
HETATM   20  C   UNL     1      -9.010  10.481  64.789  1.00  0.00    -0.205 C  
HETATM   21  O   UNL     1      -9.578  11.359  64.136  1.00  0.00    -0.229 OA 
BRANCH  20  22
HETATM   22  C   UNL     1      -8.202  10.837  66.005  1.00  0.00    -0.164 A  
HETATM   23  C   UNL     1      -7.287   9.814  66.360  1.00  0.00    -0.095 A  
HETATM   24  C   UNL     1      -6.457   9.921  67.468  1.00  0.00    -0.068 A  
HETATM   25  C   UNL     1      -6.512  11.069  68.244  1.00  0.00    -0.057 A  
HETATM   26  C   UNL     1      -7.396  12.099  67.908  1.00  0.00    -0.108 A  
HETATM   27  C   UNL     1      -8.265  12.015  66.797  1.00  0.00    -0.110 A  
BRANCH  27  28
HETATM   28  N   UNL     1      -9.195  13.052  66.573  1.00  0.00    -0.379 NA 
HETATM   29  H   UNL     1      -9.161  13.424  65.623  1.00  0.00     0.000 HD 
BRANCH  28  30
HETATM   30  C   UNL     1     -10.173  13.690  67.390  1.00  0.00    -0.241 A  
HETATM   31  C   UNL     1     -10.358  15.089  67.278  1.00  0.00    -0.249 A  
HETATM   32  C   UNL     1      -9.845  15.811  66.188  1.00  0.00    -0.341 A  
HETATM   33  C   UNL     1      -9.909  17.199  66.148  1.00  0.00    -0.280 A  
HETATM   34  C   UNL     1     -10.462  17.905  67.216  1.00  0.00    -0.373 A  
HETATM   35  C   UNL     1     -11.087  17.174  68.247  1.00  0.00    -0.118 A  
HETATM   36  C   UNL     1     -10.330  19.411  67.250  1.00  0.00    -0.442 C  
HETATM   37  C   UNL     1     -11.085  15.778  68.277  1.00  0.00    -0.342 A  
HETATM   38  F   UNL     1      -9.632  19.904  66.185  1.00  0.00    -0.406 F  
HETATM   39  F   UNL     1     -11.521  20.065  67.243  1.00  0.00    -0.284 F  
HETATM   40  F   UNL     1      -9.659  19.849  68.352  1.00  0.00    -0.400 F  
HETATM   41  N   UNL     1     -11.727  15.117  69.252  1.00  0.00    -0.311 NA 
HETATM   42  C   UNL     1     -11.657  13.762  69.258  1.00  0.00    -0.312 A  
HETATM   43  C   UNL     1     -10.884  13.014  68.373  1.00  0.00    -0.280 A  
ENDBRANCH  28  30
ENDBRANCH  27  28
ENDBRANCH  20  22
ENDBRANCH  19  20
ENDBRANCH  18  19
ENDBRANCH  17  18
ENDBRANCH  14  17
ENDBRANCH   7  11
TORSDOF 8
ENDMDL
MODEL      232
REMARK 921   NORMALIZED FREE ENERGY PREDICTED BY IDOCK:   -3.65 KCAL/MOL
REMARK 922        TOTAL FREE ENERGY PREDICTED BY IDOCK:   -8.76 KCAL/MOL
REMARK 923 INTER-LIGAND FREE ENERGY PREDICTED BY IDOCK:   -7.57 KCAL/MOL
REMARK 924 INTRA-LIGAND FREE ENERGY PREDICTED BY IDOCK:   -1.18 KCAL/MOL
REMARK 927      BINDING AFFINITY PREDICTED BY RF-SCORE:    0.00 PKD
ROOT
HETATM    1  F   UNL     1      -6.240  17.035  66.690  1.00  0.00    -0.191 F  
HETATM    2  C   UNL     1      -6.779  17.689  67.757  1.00  0.00    -0.183 C  
HETATM    3  C   UNL     1      -8.246  17.408  67.972  1.00  0.00    -0.229 A  
HETATM    4  F   UNL     1      -6.016  17.348  68.832  1.00  0.00    -0.159 F  
HETATM    5  F   UNL     1      -6.538  19.013  67.538  1.00  0.00    -0.191 F  
HETATM    6  C   UNL     1      -8.962  16.544  67.117  1.00  0.00    -0.221 A  
HETATM    7  C   UNL     1     -10.343  16.372  67.262  1.00  0.00    -0.287 A  
HETATM    8  C   UNL     1      -8.918  18.060  69.017  1.00  0.00    -0.028 A  
HETATM    9  C   UNL     1     -10.975  17.028  68.333  1.00  0.00    -0.263 A  
HETATM   10  C   UNL     1     -10.279  17.861  69.204  1.00  0.00    -0.187 A  
ENDROOT
BRANCH   7  11
HETATM   11  N   UNL     1     -11.144  15.633  66.385  1.00  0.00    -0.197 NA 
HETATM   12  C   UNL     1     -12.478  13.682  65.645  1.00  0.00    -0.496 C  
HETATM   13  C   UNL     1     -11.374  14.193  66.614  1.00  0.00    -0.344 C  
HETATM   14  N   UNL     1     -12.232  13.939  64.198  1.00  0.00    -0.613 NA 
HETATM   15  C   UNL     1     -10.870  15.963  64.966  1.00  0.00    -0.426 C  
HETATM   16  C   UNL     1     -11.995  15.403  64.064  1.00  0.00     0.024 C  
BRANCH  14  17
HETATM   17  C   UNL     1     -11.082  13.178  63.655  1.00  0.00    -0.132 C  
BRANCH  17  18
HETATM   18  C   UNL     1     -11.305  11.657  63.491  1.00  0.00    -0.354 C  
BRANCH  18  19
HETATM   19  O   UNL     1     -10.047  10.924  63.394  1.00  0.00    -0.332 OA 
BRANCH  19  20
HETATM   20  C   UNL     1      -9.794  10.172  64.494  1.00  0.00    -0.264 C  
HETATM   21  O   UNL     1     -10.609  10.033  65.409  1.00  0.00    -0.050 OA 
BRANCH  20  22
HETATM   22  C   UNL     1      -8.468   9.466  64.539  1.00  0.00    -0.189 A  
HETATM   23  C   UNL     1      -7.690   9.711  63.381  1.00  0.00    -0.128 A  
HETATM   24  C   UNL     1      -6.438   9.137  63.200  1.00  0.00    -0.090 A  
HETATM   25  C   UNL     1      -5.926   8.311  64.189  1.00  0.00    -0.065 A  
HETATM   26  C   UNL     1      -6.668   8.063  65.348  1.00  0.00    -0.055 A  
HETATM   27  C   UNL     1      -7.950   8.619  65.556  1.00  0.00    -0.108 A  
BRANCH  27  28
HETATM   28  N   UNL     1      -8.680   8.251  66.707  1.00  0.00    -0.129 NA 
HETATM   29  H   UNL     1      -9.135   7.342  66.619  1.00  0.00     0.000 HD 
BRANCH  28  30
HETATM   30  C   UNL     1      -8.915   8.878  67.965  1.00  0.00    -0.140 A  
HETATM   31  C   UNL     1      -8.364   8.303  69.135  1.00  0.00    -0.123 A  
HETATM   32  C   UNL     1      -7.350   7.334  69.067  1.00  0.00    -0.091 A  
HETATM   33  C   UNL     1      -6.907   6.674  70.208  1.00  0.00    -0.058 A  
HETATM   34  C   UNL     1      -7.490   6.945  71.444  1.00  0.00    -0.082 A  
HETATM   35  C   UNL     1      -8.416   8.005  71.528  1.00  0.00    -0.147 A  
HETATM   36  C   UNL     1      -7.146   6.071  72.629  1.00  0.00    -0.084 C  
HETATM   37  C   UNL     1      -8.832   8.720  70.402  1.00  0.00    -0.168 A  
HETATM   38  F   UNL     1      -6.279   5.064  72.308  1.00  0.00    -0.025 F  
HETATM   39  F   UNL     1      -6.562   6.743  73.656  1.00  0.00    -0.066 F  
HETATM   40  F   UNL     1      -8.239   5.448  73.151  1.00  0.00    -0.111 F  
HETATM   41  N   UNL     1      -9.682   9.750  70.527  1.00  0.00    -0.208 NA 
HETATM   42  C   UNL     1     -10.088  10.384  69.397  1.00  0.00    -0.229 A  
HETATM   43  C   UNL     1      -9.755   9.975  68.108  1.00  0.00    -0.156 A  
ENDBRANCH  28  30
ENDBRANCH  27  28
ENDBRANCH  20  22
ENDBRANCH  19  20
ENDBRANCH  18  19
ENDBRANCH  17  18
ENDBRANCH  14  17
ENDBRANCH   7  11
TORSDOF 8
ENDMDL
MODEL      233
REMARK 921   NORMALIZED FREE ENERGY PREDICTED BY IDOCK:   -3.64 KCAL/MOL
REMARK 922        TOTAL FREE ENERGY PREDICTED BY IDOCK:   -8.74 KCAL/MOL
REMARK 923 INTER-LIGAND FREE ENERGY PREDICTED BY IDOCK:   -7.42 KCAL/MOL
REMARK 924 INTRA-LIGAND FREE ENERGY PREDICTED BY IDOCK:   -1.33 KCAL/MOL
REMARK 927      BINDING AFFINITY PREDICTED BY RF-SCORE:    0.00 PKD
ROOT
HETATM    1  F   UNL     1      -5.429   5.815  68.492  1.00  0.00    -0.006 F  
HETATM    2  C   UNL     1      -6.011   4.941  67.624  1.00  0.00    -0.023 C  
HETATM    3  C   UNL     1      -7.507   4.830  67.776  1.00  0.00    -0.078 A  
HETATM    4  F   UNL     1      -5.637   5.346  66.378  1.00  0.00    -0.014 F  
HETATM    5  F   UNL     1      -5.385   3.747  67.827  1.00  0.00    -0.012 F  
HETATM    6  C   UNL     1      -8.205   5.576  68.748  1.00  0.00    -0.102 A  
HETATM    7  C   UNL     1      -9.577   5.388  68.951  1.00  0.00    -0.141 A  
HETATM    8  C   UNL     1      -8.209   3.929  66.962  1.00  0.00    -0.099 A  
HETATM    9  C   UNL     1     -10.246   4.489  68.102  1.00  0.00     0.061 A  
HETATM   10  C   UNL     1      -9.579   3.766  67.117  1.00  0.00    -0.218 A  
ENDROOT
BRANCH   7  11
HETATM   11  N   UNL     1     -10.315   5.995  69.972  1.00  0.00    -0.209 NA 
HETATM   12  C   UNL     1     -12.368   6.792  71.108  1.00  0.00    -0.333 C  
HETATM   13  C   UNL     1     -11.728   6.367  69.755  1.00  0.00    -0.191 C  
HETATM   14  N   UNL     1     -11.657   7.877  71.841  1.00  0.00    -0.277 NA 
HETATM   15  C   UNL     1      -9.538   7.038  70.680  1.00  0.00    -0.165 C  
HETATM   16  C   UNL     1     -10.246   7.426  72.000  1.00  0.00    -0.191 C  
BRANCH  14  17
HETATM   17  C   UNL     1     -11.705   9.184  71.145  1.00  0.00    -0.313 C  
BRANCH  17  18
HETATM   18  C   UNL     1     -10.351   9.710  70.616  1.00  0.00    -0.297 C  
BRANCH  18  19
HETATM   19  O   UNL     1     -10.493  10.978  69.908  1.00  0.00    -0.052 OA 
BRANCH  19  20
HETATM   20  C   UNL     1     -11.145  10.846  68.725  1.00  0.00    -0.256 C  
HETATM   21  O   UNL     1     -12.256  11.339  68.519  1.00  0.00    -0.588 OA 
BRANCH  20  22
HETATM   22  C   UNL     1     -10.429  10.093  67.640  1.00  0.00    -0.293 A  
HETATM   23  C   UNL     1     -10.823   8.733  67.580  1.00  0.00    -0.092 A  
HETATM   24  C   UNL     1     -10.270   7.846  66.666  1.00  0.00    -0.303 A  
HETATM   25  C   UNL     1      -9.313   8.305  65.774  1.00  0.00    -0.101 A  
HETATM   26  C   UNL     1      -8.916   9.646  65.804  1.00  0.00    -0.207 A  
HETATM   27  C   UNL     1      -9.448  10.571  66.730  1.00  0.00    -0.163 A  
BRANCH  27  28
HETATM   28  N   UNL     1      -8.933  11.884  66.762  1.00  0.00    -0.192 NA 
HETATM   29  H   UNL     1      -9.180  12.433  65.938  1.00  0.00     0.000 HD 
BRANCH  28  30
HETATM   30  C   UNL     1      -8.141  12.608  67.701  1.00  0.00    -0.173 A  
HETATM   31  C   UNL     1      -8.005  14.009  67.552  1.00  0.00    -0.199 A  
HETATM   32  C   UNL     1      -8.860  14.744  66.714  1.00  0.00    -0.281 A  
HETATM   33  C   UNL     1      -8.640  16.093  66.464  1.00  0.00    -0.341 A  
HETATM   34  C   UNL     1      -7.537  16.737  67.023  1.00  0.00    -0.235 A  
HETATM   35  C   UNL     1      -6.755  16.031  67.960  1.00  0.00    -0.140 A  
HETATM   36  C   UNL     1      -7.197  18.139  66.571  1.00  0.00    -0.233 C  
HETATM   37  C   UNL     1      -6.994  14.691  68.269  1.00  0.00    -0.113 A  
HETATM   38  F   UNL     1      -8.049  18.606  65.610  1.00  0.00    -0.156 F  
HETATM   39  F   UNL     1      -7.232  19.061  67.570  1.00  0.00    -0.217 F  
HETATM   40  F   UNL     1      -5.955  18.221  66.019  1.00  0.00    -0.174 F  
HETATM   41  N   UNL     1      -6.256  14.064  69.198  1.00  0.00    -0.097 NA 
HETATM   42  C   UNL     1      -6.502  12.750  69.429  1.00  0.00    -0.096 A  
HETATM   43  C   UNL     1      -7.406  11.982  68.699  1.00  0.00    -0.111 A  
ENDBRANCH  28  30
ENDBRANCH  27  28
ENDBRANCH  20  22
ENDBRANCH  19  20
ENDBRANCH  18  19
ENDBRANCH  17  18
ENDBRANCH  14  17
ENDBRANCH   7  11
TORSDOF 8
ENDMDL
MODEL      234
REMARK 921   NORMALIZED FREE ENERGY PREDICTED BY IDOCK:   -3.62 KCAL/MOL
REMARK 922        TOTAL FREE ENERGY PREDICTED BY IDOCK:   -8.72 KCAL/MOL
REMARK 923 INTER-LIGAND FREE ENERGY PREDICTED BY IDOCK:   -8.08 KCAL/MOL
REMARK 924 INTRA-LIGAND FREE ENERGY PREDICTED BY IDOCK:   -0.63 KCAL/MOL
REMARK 927      BINDING AFFINITY PREDICTED BY RF-SCORE:    0.00 PKD
ROOT
HETATM    1  F   UNL     1      -6.586   3.835  64.139  1.00  0.00    -0.036 F  
HETATM    2  C   UNL     1      -6.838   4.951  63.400  1.00  0.00    -0.038 C  
HETATM    3  C   UNL     1      -7.511   6.059  64.172  1.00  0.00    -0.079 A  
HETATM    4  F   UNL     1      -5.641   5.330  62.873  1.00  0.00    -0.013 F  
HETATM    5  F   UNL     1      -7.591   4.532  62.344  1.00  0.00    -0.049 F  
HETATM    6  C   UNL     1      -7.841   5.910  65.535  1.00  0.00    -0.103 A  
HETATM    7  C   UNL     1      -8.557   6.902  66.215  1.00  0.00    -0.136 A  
HETATM    8  C   UNL     1      -7.857   7.242  63.503  1.00  0.00    -0.108 A  
HETATM    9  C   UNL     1      -8.868   8.080  65.513  1.00  0.00    -0.102 A  
HETATM   10  C   UNL     1      -8.525   8.257  64.175  1.00  0.00     0.021 A  
ENDROOT
BRANCH   7  11
HETATM   11  N   UNL     1      -9.028   6.780  67.525  1.00  0.00    -0.116 NA 
HETATM   12  C   UNL     1     -10.746   6.551  69.296  1.00  0.00    -0.280 C  
HETATM   13  C   UNL     1     -10.459   6.979  67.828  1.00  0.00    -0.223 C  
HETATM   14  N   UNL     1      -9.904   7.210  70.333  1.00  0.00    -0.176 NA 
HETATM   15  C   UNL     1      -8.127   7.428  68.507  1.00  0.00    -0.125 C  
HETATM   16  C   UNL     1      -8.487   6.973  69.941  1.00  0.00    -0.140 C  
BRANCH  14  17
HETATM   17  C   UNL     1     -10.167   8.662  70.465  1.00  0.00    -0.197 C  
BRANCH  17  18
HETATM   18  C   UNL     1     -10.901   9.319  69.273  1.00  0.00    -0.152 C  
BRANCH  18  19
HETATM   19  O   UNL     1     -11.216  10.721  69.527  1.00  0.00    -0.239 OA 
BRANCH  19  20
HETATM   20  C   UNL     1     -10.905  11.525  68.479  1.00  0.00    -0.215 C  
HETATM   21  O   UNL     1     -11.747  12.203  67.886  1.00  0.00    -0.334 OA 
BRANCH  20  22
HETATM   22  C   UNL     1      -9.456  11.590  68.084  1.00  0.00    -0.184 A  
HETATM   23  C   UNL     1      -8.600  11.727  69.205  1.00  0.00     0.371 A  
HETATM   24  C   UNL     1      -7.222  11.832  69.070  1.00  0.00    -0.080 A  
HETATM   25  C   UNL     1      -6.663  11.786  67.802  1.00  0.00    -0.082 A  
HETATM   26  C   UNL     1      -7.485  11.638  66.680  1.00  0.00    -0.037 A  
HETATM   27  C   UNL     1      -8.891  11.544  66.781  1.00  0.00    -0.183 A  
BRANCH  27  28
HETATM   28  N   UNL     1      -9.663  11.490  65.601  1.00  0.00    -0.227 NA 
HETATM   29  H   UNL     1      -9.624  10.582  65.137  1.00  0.00     0.000 HD 
BRANCH  28  30
HETATM   30  C   UNL     1     -10.486  12.434  64.919  1.00  0.00    -0.298 A  
HETATM   31  C   UNL     1     -10.336  13.812  65.207  1.00  0.00    -0.378 A  
HETATM   32  C   UNL     1      -9.213  14.300  65.893  1.00  0.00     0.060 A  
HETATM   33  C   UNL     1      -9.134  15.630  66.293  1.00  0.00    -0.376 A  
HETATM   34  C   UNL     1     -10.194  16.500  66.042  1.00  0.00    -0.372 A  
HETATM   35  C   UNL     1     -11.262  16.039  65.245  1.00  0.00    -0.115 A  
HETATM   36  C   UNL     1     -10.180  17.876  66.668  1.00  0.00    -0.371 C  
HETATM   37  C   UNL     1     -11.332  14.723  64.784  1.00  0.00    -0.397 A  
HETATM   38  F   UNL     1      -9.083  18.088  67.455  1.00  0.00    -0.243 F  
HETATM   39  F   UNL     1     -10.183  18.890  65.763  1.00  0.00    -0.400 F  
HETATM   40  F   UNL     1     -11.251  18.087  67.483  1.00  0.00    -0.304 F  
HETATM   41  N   UNL     1     -12.343  14.333  63.992  1.00  0.00    -0.727 NA 
HETATM   42  C   UNL     1     -12.387  13.032  63.607  1.00  0.00    -0.417 A  
HETATM   43  C   UNL     1     -11.506  12.052  64.058  1.00  0.00    -0.484 A  
ENDBRANCH  28  30
ENDBRANCH  27  28
ENDBRANCH  20  22
ENDBRANCH  19  20
ENDBRANCH  18  19
ENDBRANCH  17  18
ENDBRANCH  14  17
ENDBRANCH   7  11
TORSDOF 8
ENDMDL
MODEL      235
REMARK 921   NORMALIZED FREE ENERGY PREDICTED BY IDOCK:   -3.62 KCAL/MOL
REMARK 922        TOTAL FREE ENERGY PREDICTED BY IDOCK:   -8.71 KCAL/MOL
REMARK 923 INTER-LIGAND FREE ENERGY PREDICTED BY IDOCK:   -7.02 KCAL/MOL
REMARK 924 INTRA-LIGAND FREE ENERGY PREDICTED BY IDOCK:   -1.69 KCAL/MOL
REMARK 927      BINDING AFFINITY PREDICTED BY RF-SCORE:    0.00 PKD
ROOT
HETATM    1  F   UNL     1     -11.296  12.107  65.373  1.00  0.00    -0.339 F  
HETATM    2  C   UNL     1     -11.758  13.213  66.022  1.00  0.00    -0.379 C  
HETATM    3  C   UNL     1     -11.743  13.092  67.526  1.00  0.00    -0.421 A  
HETATM    4  F   UNL     1     -11.004  14.254  65.571  1.00  0.00    -0.292 F  
HETATM    5  F   UNL     1     -13.013  13.428  65.538  1.00  0.00    -0.511 F  
HETATM    6  C   UNL     1     -11.292  11.918  68.165  1.00  0.00    -0.350 A  
HETATM    7  C   UNL     1     -11.380  11.777  69.555  1.00  0.00    -0.248 A  
HETATM    8  C   UNL     1     -12.235  14.154  68.299  1.00  0.00    -0.196 A  
HETATM    9  C   UNL     1     -11.861  12.872  70.294  1.00  0.00    -0.291 A  
HETATM   10  C   UNL     1     -12.283  14.049  69.682  1.00  0.00    -0.383 A  
ENDROOT
BRANCH   7  11
HETATM   11  N   UNL     1     -11.071  10.604  70.250  1.00  0.00    -0.278 NA 
HETATM   12  C   UNL     1      -9.583   8.951  71.342  1.00  0.00    -0.289 C  
HETATM   13  C   UNL     1      -9.677  10.121  70.320  1.00  0.00     0.080 C  
HETATM   14  N   UNL     1     -10.511   7.811  71.101  1.00  0.00    -0.208 NA 
HETATM   15  C   UNL     1     -12.052   9.524  69.991  1.00  0.00     0.273 C  
HETATM   16  C   UNL     1     -11.882   8.390  71.029  1.00  0.00    -0.252 C  
BRANCH  14  17
HETATM   17  C   UNL     1     -10.204   7.057  69.863  1.00  0.00    -0.201 C  
BRANCH  17  18
HETATM   18  C   UNL     1     -11.369   6.221  69.283  1.00  0.00    -0.341 C  
BRANCH  18  19
HETATM   19  O   UNL     1     -11.085   5.746  67.932  1.00  0.00    -0.176 OA 
BRANCH  19  20
HETATM   20  C   UNL     1     -10.501   6.694  67.157  1.00  0.00    -0.288 C  
HETATM   21  O   UNL     1     -10.823   7.883  67.201  1.00  0.00    -0.296 OA 
BRANCH  20  22
HETATM   22  C   UNL     1      -9.396   6.236  66.248  1.00  0.00    -0.155 A  
HETATM   23  C   UNL     1      -9.518   4.867  65.901  1.00  0.00    -0.171 A  
HETATM   24  C   UNL     1      -8.590   4.227  65.090  1.00  0.00    -0.123 A  
HETATM   25  C   UNL     1      -7.518   4.951  64.590  1.00  0.00    -0.072 A  
HETATM   26  C   UNL     1      -7.381   6.307  64.907  1.00  0.00    -0.075 A  
HETATM   27  C   UNL     1      -8.299   6.984  65.741  1.00  0.00    -0.143 A  
BRANCH  27  28
HETATM   28  N   UNL     1      -8.046   8.327  66.092  1.00  0.00    -0.106 NA 
HETATM   29  H   UNL     1      -8.553   8.995  65.510  1.00  0.00     0.000 HD 
BRANCH  28  30
HETATM   30  C   UNL     1      -7.235   8.949  67.085  1.00  0.00    -0.083 A  
HETATM   31  C   UNL     1      -6.876   8.214  68.241  1.00  0.00    -0.069 A  
HETATM   32  C   UNL     1      -7.023   6.818  68.297  1.00  0.00    -0.080 A  
HETATM   33  C   UNL     1      -6.800   6.117  69.476  1.00  0.00    -0.065 A  
HETATM   34  C   UNL     1      -6.452   6.799  70.640  1.00  0.00    -0.051 A  
HETATM   35  C   UNL     1      -6.183   8.181  70.550  1.00  0.00    -0.036 A  
HETATM   36  C   UNL     1      -6.421   6.049  71.952  1.00  0.00    -0.054 C  
HETATM   37  C   UNL     1      -6.346   8.894  69.361  1.00  0.00    -0.044 A  
HETATM   38  F   UNL     1      -6.779   4.736  71.818  1.00  0.00    -0.035 F  
HETATM   39  F   UNL     1      -5.201   6.037  72.550  1.00  0.00    -0.020 F  
HETATM   40  F   UNL     1      -7.290   6.564  72.866  1.00  0.00    -0.083 F  
HETATM   41  N   UNL     1      -6.038  10.199  69.304  1.00  0.00    -0.037 NA 
HETATM   42  C   UNL     1      -6.256  10.855  68.135  1.00  0.00    -0.049 A  
HETATM   43  C   UNL     1      -6.866  10.286  67.020  1.00  0.00    -0.084 A  
ENDBRANCH  28  30
ENDBRANCH  27  28
ENDBRANCH  20  22
ENDBRANCH  19  20
ENDBRANCH  18  19
ENDBRANCH  17  18
ENDBRANCH  14  17
ENDBRANCH   7  11
TORSDOF 8
ENDMDL
MODEL      236
REMARK 921   NORMALIZED FREE ENERGY PREDICTED BY IDOCK:   -3.52 KCAL/MOL
REMARK 922        TOTAL FREE ENERGY PREDICTED BY IDOCK:   -8.57 KCAL/MOL
REMARK 923 INTER-LIGAND FREE ENERGY PREDICTED BY IDOCK:   -7.51 KCAL/MOL
REMARK 924 INTRA-LIGAND FREE ENERGY PREDICTED BY IDOCK:   -1.07 KCAL/MOL
REMARK 927      BINDING AFFINITY PREDICTED BY RF-SCORE:    0.00 PKD
ROOT
HETATM    1  F   UNL     1     -10.890   3.810  72.497  1.00  0.00    -0.207 F  
HETATM    2  C   UNL     1     -10.091   3.003  73.251  1.00  0.00    -0.121 C  
HETATM    3  C   UNL     1      -8.695   2.839  72.705  1.00  0.00    -0.085 A  
HETATM    4  F   UNL     1     -10.105   3.530  74.507  1.00  0.00    -0.149 F  
HETATM    5  F   UNL     1     -10.749   1.813  73.342  1.00  0.00    -0.157 F  
HETATM    6  C   UNL     1      -8.292   3.473  71.511  1.00  0.00    -0.085 A  
HETATM    7  C   UNL     1      -7.030   3.232  70.957  1.00  0.00    -0.033 A  
HETATM    8  C   UNL     1      -7.795   1.997  73.376  1.00  0.00    -0.042 A  
HETATM    9  C   UNL     1      -6.153   2.396  71.671  1.00  0.00    -0.014 A  
HETATM   10  C   UNL     1      -6.522   1.784  72.866  1.00  0.00    -0.013 A  
ENDROOT
BRANCH   7  11
HETATM   11  N   UNL     1      -6.603   3.722  69.720  1.00  0.00    -0.033 NA 
HETATM   12  C   UNL     1      -6.037   5.468  68.055  1.00  0.00    -0.022 C  
HETATM   13  C   UNL     1      -6.812   5.140  69.364  1.00  0.00    -0.053 C  
HETATM   14  N   UNL     1      -6.347   4.595  66.889  1.00  0.00    -0.036 NA 
HETATM   15  C   UNL     1      -6.913   2.790  68.611  1.00  0.00    -0.048 C  
HETATM   16  C   UNL     1      -6.126   3.193  67.341  1.00  0.00    -0.028 C  
BRANCH  14  17
HETATM   17  C   UNL     1      -7.730   4.762  66.383  1.00  0.00    -0.091 C  
BRANCH  17  18
HETATM   18  C   UNL     1      -8.675   3.560  66.612  1.00  0.00    -0.124 C  
BRANCH  18  19
HETATM   19  O   UNL     1      -9.746   3.874  67.552  1.00  0.00    -0.187 OA 
BRANCH  19  20
HETATM   20  C   UNL     1     -10.351   5.057  67.279  1.00  0.00    -0.134 C  
HETATM   21  O   UNL     1     -10.751   5.356  66.151  1.00  0.00    -0.229 OA 
BRANCH  20  22
HETATM   22  C   UNL     1     -10.557   5.994  68.435  1.00  0.00    -0.322 A  
HETATM   23  C   UNL     1     -10.525   5.322  69.683  1.00  0.00    -0.320 A  
HETATM   24  C   UNL     1     -10.718   5.991  70.884  1.00  0.00    -0.329 A  
HETATM   25  C   UNL     1     -10.935   7.360  70.867  1.00  0.00    -0.271 A  
HETATM   26  C   UNL     1     -10.958   8.049  69.650  1.00  0.00    -0.106 A  
HETATM   27  C   UNL     1     -10.780   7.397  68.409  1.00  0.00    -0.096 A  
BRANCH  27  28
HETATM   28  N   UNL     1     -10.909   8.141  67.217  1.00  0.00    -0.494 NA 
HETATM   29  H   UNL     1     -11.830   8.052  66.786  1.00  0.00     0.000 HD 
BRANCH  28  30
HETATM   30  C   UNL     1     -10.027   8.990  66.487  1.00  0.00    -0.285 A  
HETATM   31  C   UNL     1     -10.145  10.393  66.632  1.00  0.00    -0.279 A  
HETATM   32  C   UNL     1     -10.876  10.962  67.688  1.00  0.00    -0.317 A  
HETATM   33  C   UNL     1     -11.104  12.332  67.750  1.00  0.00    -0.304 A  
HETATM   34  C   UNL     1     -10.632  13.167  66.739  1.00  0.00    -0.267 A  
HETATM   35  C   UNL     1      -9.795  12.610  65.749  1.00  0.00    -0.236 A  
HETATM   36  C   UNL     1     -11.070  14.614  66.713  1.00  0.00    -0.335 C  
HETATM   37  C   UNL     1      -9.506  11.245  65.702  1.00  0.00    -0.229 A  
HETATM   38  F   UNL     1     -11.933  14.922  67.728  1.00  0.00    -0.364 F  
HETATM   39  F   UNL     1     -10.045  15.499  66.823  1.00  0.00    -0.245 F  
HETATM   40  F   UNL     1     -11.735  14.936  65.569  1.00  0.00    -0.347 F  
HETATM   41  N   UNL     1      -8.670  10.759  64.771  1.00  0.00    -0.150 NA 
HETATM   42  C   UNL     1      -8.457   9.419  64.742  1.00  0.00    -0.167 A  
HETATM   43  C   UNL     1      -9.121   8.503  65.554  1.00  0.00    -0.150 A  
ENDBRANCH  28  30
ENDBRANCH  27  28
ENDBRANCH  20  22
ENDBRANCH  19  20
ENDBRANCH  18  19
ENDBRANCH  17  18
ENDBRANCH  14  17
ENDBRANCH   7  11
TORSDOF 8
ENDMDL
MODEL      237
REMARK 921   NORMALIZED FREE ENERGY PREDICTED BY IDOCK:   -3.51 KCAL/MOL
REMARK 922        TOTAL FREE ENERGY PREDICTED BY IDOCK:   -8.56 KCAL/MOL
REMARK 923 INTER-LIGAND FREE ENERGY PREDICTED BY IDOCK:   -7.79 KCAL/MOL
REMARK 924 INTRA-LIGAND FREE ENERGY PREDICTED BY IDOCK:   -0.77 KCAL/MOL
REMARK 927      BINDING AFFINITY PREDICTED BY RF-SCORE:    0.00 PKD
ROOT
HETATM    1  F   UNL     1     -11.740   3.125  73.459  1.00  0.00    -0.318 F  
HETATM    2  C   UNL     1     -10.593   2.622  72.922  1.00  0.00    -0.132 C  
HETATM    3  C   UNL     1      -9.683   3.669  72.329  1.00  0.00    -0.223 A  
HETATM    4  F   UNL     1      -9.995   1.909  73.917  1.00  0.00    -0.096 F  
HETATM    5  F   UNL     1     -10.990   1.704  71.996  1.00  0.00    -0.155 F  
HETATM    6  C   UNL     1     -10.029   5.036  72.340  1.00  0.00    -0.226 A  
HETATM    7  C   UNL     1      -9.229   5.986  71.695  1.00  0.00    -0.145 A  
HETATM    8  C   UNL     1      -8.491   3.263  71.710  1.00  0.00    -0.087 A  
HETATM    9  C   UNL     1      -8.034   5.541  71.104  1.00  0.00    -0.111 A  
HETATM   10  C   UNL     1      -7.662   4.199  71.108  1.00  0.00    -0.066 A  
ENDROOT
BRANCH   7  11
HETATM   11  N   UNL     1      -9.563   7.337  71.556  1.00  0.00    -0.157 NA 
HETATM   12  C   UNL     1     -11.031   9.328  71.704  1.00  0.00    -0.363 C  
HETATM   13  C   UNL     1     -10.970   7.774  71.655  1.00  0.00    -0.235 C  
HETATM   14  N   UNL     1     -10.351  10.033  70.582  1.00  0.00    -0.188 NA 
HETATM   15  C   UNL     1      -8.828   7.983  70.444  1.00  0.00    -0.141 C  
HETATM   16  C   UNL     1      -8.952   9.522  70.547  1.00  0.00    -0.211 C  
BRANCH  14  17
HETATM   17  C   UNL     1     -11.011   9.821  69.272  1.00  0.00    -0.193 C  
BRANCH  17  18
HETATM   18  C   UNL     1     -12.140  10.819  68.924  1.00  0.00    -0.037 C  
BRANCH  18  19
HETATM   19  O   UNL     1     -11.620  12.138  68.578  1.00  0.00    -0.270 OA 
BRANCH  19  20
HETATM   20  C   UNL     1     -11.613  12.991  69.633  1.00  0.00    -0.253 C  
HETATM   21  O   UNL     1     -11.978  12.657  70.762  1.00  0.00    -0.253 OA 
BRANCH  20  22
HETATM   22  C   UNL     1     -11.096  14.378  69.377  1.00  0.00    -0.294 A  
HETATM   23  C   UNL     1     -12.142  15.315  69.189  1.00  0.00    -0.266 A  
HETATM   24  C   UNL     1     -11.891  16.653  68.914  1.00  0.00     0.419 A  
HETATM   25  C   UNL     1     -10.578  17.091  68.835  1.00  0.00    -0.328 A  
HETATM   26  C   UNL     1      -9.527  16.189  69.029  1.00  0.00    -0.246 A  
HETATM   27  C   UNL     1      -9.747  14.819  69.296  1.00  0.00    -0.091 A  
BRANCH  27  28
HETATM   28  N   UNL     1      -8.639  13.951  69.389  1.00  0.00    -0.066 NA 
HETATM   29  H   UNL     1      -8.075  14.108  70.225  1.00  0.00     0.000 HD 
BRANCH  28  30
HETATM   30  C   UNL     1      -8.140  12.901  68.564  1.00  0.00    -0.080 A  
HETATM   31  C   UNL     1      -8.663  12.742  67.258  1.00  0.00    -0.200 A  
HETATM   32  C   UNL     1      -9.415  13.755  66.642  1.00  0.00    -0.289 A  
HETATM   33  C   UNL     1     -10.041  13.545  65.419  1.00  0.00    -0.279 A  
HETATM   34  C   UNL     1      -9.956  12.303  64.793  1.00  0.00    -0.215 A  
HETATM   35  C   UNL     1      -9.098  11.332  65.351  1.00  0.00    -0.162 A  
HETATM   36  C   UNL     1     -10.813  12.030  63.578  1.00  0.00    -0.444 C  
HETATM   37  C   UNL     1      -8.414  11.544  66.550  1.00  0.00    -0.160 A  
HETATM   38  F   UNL     1     -11.616  13.085  63.250  1.00  0.00    -0.519 F  
HETATM   39  F   UNL     1     -10.100  11.749  62.456  1.00  0.00    -0.194 F  
HETATM   40  F   UNL     1     -11.661  10.980  63.766  1.00  0.00    -0.272 F  
HETATM   41  N   UNL     1      -7.574  10.613  67.027  1.00  0.00    -0.106 NA 
HETATM   42  C   UNL     1      -6.967  10.851  68.218  1.00  0.00    -0.069 A  
HETATM   43  C   UNL     1      -7.233  11.955  69.024  1.00  0.00    -0.068 A  
ENDBRANCH  28  30
ENDBRANCH  27  28
ENDBRANCH  20  22
ENDBRANCH  19  20
ENDBRANCH  18  19
ENDBRANCH  17  18
ENDBRANCH  14  17
ENDBRANCH   7  11
TORSDOF 8
ENDMDL
MODEL      238
REMARK 921   NORMALIZED FREE ENERGY PREDICTED BY IDOCK:   -3.50 KCAL/MOL
REMARK 922        TOTAL FREE ENERGY PREDICTED BY IDOCK:   -8.54 KCAL/MOL
REMARK 923 INTER-LIGAND FREE ENERGY PREDICTED BY IDOCK:   -5.47 KCAL/MOL
REMARK 924 INTRA-LIGAND FREE ENERGY PREDICTED BY IDOCK:   -3.07 KCAL/MOL
REMARK 927      BINDING AFFINITY PREDICTED BY RF-SCORE:    0.00 PKD
ROOT
HETATM    1  F   UNL     1     -12.785  11.309  68.795  1.00  0.00    -0.080 F  
HETATM    2  C   UNL     1     -11.859  12.126  68.221  1.00  0.00    -0.301 C  
HETATM    3  C   UNL     1     -10.433  11.768  68.554  1.00  0.00    -0.233 A  
HETATM    4  F   UNL     1     -12.110  12.095  66.882  1.00  0.00    -0.390 F  
HETATM    5  F   UNL     1     -12.179  13.388  68.626  1.00  0.00    -0.374 F  
HETATM    6  C   UNL     1     -10.126  10.680  69.398  1.00  0.00    -0.199 A  
HETATM    7  C   UNL     1      -8.806  10.420  69.785  1.00  0.00     0.066 A  
HETATM    8  C   UNL     1      -9.394  12.567  68.052  1.00  0.00    -0.205 A  
HETATM    9  C   UNL     1      -7.794  11.232  69.244  1.00  0.00     0.040 A  
HETATM   10  C   UNL     1      -8.076  12.293  68.387  1.00  0.00    -0.151 A  
ENDROOT
BRANCH   7  11
HETATM   11  N   UNL     1      -8.433   9.441  70.711  1.00  0.00    -0.251 NA 
HETATM   12  C   UNL     1      -7.158   7.485  71.541  1.00  0.00    -0.062 C  
HETATM   13  C   UNL     1      -7.631   8.276  70.287  1.00  0.00    -0.072 C  
HETATM   14  N   UNL     1      -8.238   7.054  72.472  1.00  0.00    -0.108 NA 
HETATM   15  C   UNL     1      -9.543   9.084  71.626  1.00  0.00    -0.248 C  
HETATM   16  C   UNL     1      -9.001   8.281  72.832  1.00  0.00    -0.254 C  
BRANCH  14  17
HETATM   17  C   UNL     1      -9.143   6.036  71.889  1.00  0.00    -0.141 C  
BRANCH  17  18
HETATM   18  C   UNL     1      -8.482   5.038  70.909  1.00  0.00    -0.120 C  
BRANCH  18  19
HETATM   19  O   UNL     1      -8.987   5.188  69.549  1.00  0.00    -0.097 OA 
BRANCH  19  20
HETATM   20  C   UNL     1      -8.019   5.030  68.611  1.00  0.00    -0.085 C  
HETATM   21  O   UNL     1      -6.817   5.085  68.879  1.00  0.00    -0.048 OA 
BRANCH  20  22
HETATM   22  C   UNL     1      -8.477   4.743  67.209  1.00  0.00    -0.105 A  
HETATM   23  C   UNL     1      -9.573   3.846  67.176  1.00  0.00    -0.226 A  
HETATM   24  C   UNL     1     -10.141   3.421  65.982  1.00  0.00     0.441 A  
HETATM   25  C   UNL     1      -9.632   3.901  64.784  1.00  0.00    -0.177 A  
HETATM   26  C   UNL     1      -8.559   4.798  64.790  1.00  0.00    -0.146 A  
HETATM   27  C   UNL     1      -7.948   5.237  65.986  1.00  0.00    -0.104 A  
BRANCH  27  28
HETATM   28  N   UNL     1      -6.811   6.069  65.912  1.00  0.00    -0.055 NA 
HETATM   29  H   UNL     1      -6.001   5.605  65.501  1.00  0.00     0.000 HD 
BRANCH  28  30
HETATM   30  C   UNL     1      -6.553   7.420  66.288  1.00  0.00    -0.049 A  
HETATM   31  C   UNL     1      -7.462   8.431  65.892  1.00  0.00    -0.081 A  
HETATM   32  C   UNL     1      -8.747   8.118  65.420  1.00  0.00    -0.128 A  
HETATM   33  C   UNL     1      -9.584   9.100  64.904  1.00  0.00     0.199 A  
HETATM   34  C   UNL     1      -9.145  10.420  64.819  1.00  0.00    -0.247 A  
HETATM   35  C   UNL     1      -7.906  10.751  65.407  1.00  0.00    -0.001 A  
HETATM   36  C   UNL     1      -9.982  11.427  64.064  1.00  0.00    -0.297 C  
HETATM   37  C   UNL     1      -7.075   9.788  65.982  1.00  0.00    -0.101 A  
HETATM   38  F   UNL     1     -11.108  10.876  63.520  1.00  0.00    -0.348 F  
HETATM   39  F   UNL     1     -10.415  12.464  64.830  1.00  0.00    -0.283 F  
HETATM   40  F   UNL     1      -9.311  11.980  63.015  1.00  0.00    -0.324 F  
HETATM   41  N   UNL     1      -5.924  10.147  66.571  1.00  0.00    -0.059 NA 
HETATM   42  C   UNL     1      -5.132   9.167  67.076  1.00  0.00    -0.035 A  
HETATM   43  C   UNL     1      -5.389   7.806  66.940  1.00  0.00    -0.031 A  
ENDBRANCH  28  30
ENDBRANCH  27  28
ENDBRANCH  20  22
ENDBRANCH  19  20
ENDBRANCH  18  19
ENDBRANCH  17  18
ENDBRANCH  14  17
ENDBRANCH   7  11
TORSDOF 8
ENDMDL
MODEL      239
REMARK 921   NORMALIZED FREE ENERGY PREDICTED BY IDOCK:   -3.41 KCAL/MOL
REMARK 922        TOTAL FREE ENERGY PREDICTED BY IDOCK:   -8.41 KCAL/MOL
REMARK 923 INTER-LIGAND FREE ENERGY PREDICTED BY IDOCK:   -8.09 KCAL/MOL
REMARK 924 INTRA-LIGAND FREE ENERGY PREDICTED BY IDOCK:   -0.32 KCAL/MOL
REMARK 927      BINDING AFFINITY PREDICTED BY RF-SCORE:    0.00 PKD
ROOT
HETATM    1  F   UNL     1     -13.329  13.227  72.659  1.00  0.00    -0.586 F  
HETATM    2  C   UNL     1     -12.904  14.488  72.370  1.00  0.00    -0.360 C  
HETATM    3  C   UNL     1     -12.256  14.623  71.014  1.00  0.00    -0.399 A  
HETATM    4  F   UNL     1     -13.993  15.293  72.515  1.00  0.00    -0.483 F  
HETATM    5  F   UNL     1     -12.055  14.832  73.380  1.00  0.00    -0.415 F  
HETATM    6  C   UNL     1     -12.115  13.515  70.154  1.00  0.00    -0.425 A  
HETATM    7  C   UNL     1     -11.420  13.627  68.944  1.00  0.00    -0.303 A  
HETATM    8  C   UNL     1     -11.742  15.869  70.626  1.00  0.00    -0.411 A  
HETATM    9  C   UNL     1     -10.937  14.898  68.584  1.00  0.00    -0.263 A  
HETATM   10  C   UNL     1     -11.093  16.009  69.407  1.00  0.00    -0.331 A  
ENDROOT
BRANCH   7  11
HETATM   11  N   UNL     1     -11.131  12.554  68.096  1.00  0.00    -0.228 NA 
HETATM   12  C   UNL     1     -11.279  10.221  67.274  1.00  0.00    -0.011 C  
HETATM   13  C   UNL     1     -11.490  11.175  68.485  1.00  0.00    -0.302 C  
HETATM   14  N   UNL     1      -9.919  10.246  66.667  1.00  0.00    -0.207 NA 
HETATM   15  C   UNL     1      -9.778  12.659  67.502  1.00  0.00    -0.196 C  
HETATM   16  C   UNL     1      -9.635  11.668  66.323  1.00  0.00    -0.221 C  
BRANCH  14  17
HETATM   17  C   UNL     1      -8.867   9.712  67.563  1.00  0.00    -0.125 C  
BRANCH  17  18
HETATM   18  C   UNL     1      -7.519   9.373  66.884  1.00  0.00    -0.091 C  
BRANCH  18  19
HETATM   19  O   UNL     1      -7.197   7.953  66.981  1.00  0.00    -0.085 OA 
BRANCH  19  20
HETATM   20  C   UNL     1      -8.097   7.263  67.725  1.00  0.00    -0.115 C  
HETATM   21  O   UNL     1      -8.444   7.620  68.853  1.00  0.00    -0.128 OA 
BRANCH  20  22
HETATM   22  C   UNL     1      -8.699   6.039  67.093  1.00  0.00    -0.109 A  
HETATM   23  C   UNL     1      -9.775   6.355  66.228  1.00  0.00    -0.082 A  
HETATM   24  C   UNL     1     -10.493   5.374  65.557  1.00  0.00     0.359 A  
HETATM   25  C   UNL     1     -10.139   4.044  65.727  1.00  0.00    -0.112 A  
HETATM   26  C   UNL     1      -9.072   3.706  66.566  1.00  0.00    -0.168 A  
HETATM   27  C   UNL     1      -8.331   4.678  67.274  1.00  0.00    -0.105 A  
BRANCH  27  28
HETATM   28  N   UNL     1      -7.328   4.257  68.173  1.00  0.00    -0.064 NA 
HETATM   29  H   UNL     1      -6.859   3.400  67.878  1.00  0.00     0.000 HD 
BRANCH  28  30
HETATM   30  C   UNL     1      -6.832   4.773  69.406  1.00  0.00    -0.049 A  
HETATM   31  C   UNL     1      -7.746   5.078  70.443  1.00  0.00    -0.070 A  
HETATM   32  C   UNL     1      -9.068   4.604  70.417  1.00  0.00    -0.167 A  
HETATM   33  C   UNL     1     -10.000   5.016  71.364  1.00  0.00    -0.259 A  
HETATM   34  C   UNL     1      -9.640   5.939  72.344  1.00  0.00    -0.168 A  
HETATM   35  C   UNL     1      -8.284   6.314  72.443  1.00  0.00    -0.107 A  
HETATM   36  C   UNL     1     -10.714   6.533  73.227  1.00  0.00    -0.274 C  
HETATM   37  C   UNL     1      -7.320   5.866  71.537  1.00  0.00    -0.088 A  
HETATM   38  F   UNL     1     -11.964   6.077  72.915  1.00  0.00    -0.209 F  
HETATM   39  F   UNL     1     -10.546   6.267  74.549  1.00  0.00    -0.289 F  
HETATM   40  F   UNL     1     -10.789   7.888  73.114  1.00  0.00    -0.393 F  
HETATM   41  N   UNL     1      -6.032   6.211  71.688  1.00  0.00    -0.034 NA 
HETATM   42  C   UNL     1      -5.143   5.784  70.755  1.00  0.00    -0.009 A  
HETATM   43  C   UNL     1      -5.494   5.092  69.599  1.00  0.00    -0.008 A  
ENDBRANCH  28  30
ENDBRANCH  27  28
ENDBRANCH  20  22
ENDBRANCH  19  20
ENDBRANCH  18  19
ENDBRANCH  17  18
ENDBRANCH  14  17
ENDBRANCH   7  11
TORSDOF 8
ENDMDL
MODEL      240
REMARK 921   NORMALIZED FREE ENERGY PREDICTED BY IDOCK:   -3.39 KCAL/MOL
REMARK 922        TOTAL FREE ENERGY PREDICTED BY IDOCK:   -8.38 KCAL/MOL
REMARK 923 INTER-LIGAND FREE ENERGY PREDICTED BY IDOCK:   -6.03 KCAL/MOL
REMARK 924 INTRA-LIGAND FREE ENERGY PREDICTED BY IDOCK:   -2.35 KCAL/MOL
REMARK 927      BINDING AFFINITY PREDICTED BY RF-SCORE:    0.00 PKD
ROOT
HETATM    1  F   UNL     1     -11.496  12.861  64.469  1.00  0.00    -0.324 F  
HETATM    2  C   UNL     1     -12.034  13.725  65.374  1.00  0.00    -0.379 C  
HETATM    3  C   UNL     1     -11.841  13.308  66.811  1.00  0.00    -0.448 A  
HETATM    4  F   UNL     1     -11.485  14.942  65.102  1.00  0.00    -0.333 F  
HETATM    5  F   UNL     1     -13.352  13.832  65.044  1.00  0.00    -0.250 F  
HETATM    6  C   UNL     1     -11.165  12.117  67.146  1.00  0.00    -0.372 A  
HETATM    7  C   UNL     1     -11.083  11.686  68.475  1.00  0.00    -0.235 A  
HETATM    8  C   UNL     1     -12.390  14.101  67.829  1.00  0.00    -0.050 A  
HETATM    9  C   UNL     1     -11.629  12.519  69.467  1.00  0.00    -0.348 A  
HETATM   10  C   UNL     1     -12.275  13.713  69.157  1.00  0.00    -0.265 A  
ENDROOT
BRANCH   7  11
HETATM   11  N   UNL     1     -10.541  10.462  68.877  1.00  0.00    -0.202 NA 
HETATM   12  C   UNL     1      -8.799   8.952  69.785  1.00  0.00    -0.144 C  
HETATM   13  C   UNL     1      -9.091  10.331  69.126  1.00  0.00    -0.191 C  
HETATM   14  N   UNL     1      -9.301   7.764  69.039  1.00  0.00    -0.150 NA 
HETATM   15  C   UNL     1     -11.108   9.322  68.118  1.00  0.00     0.110 C  
HETATM   16  C   UNL     1     -10.757   7.989  68.819  1.00  0.00    -0.045 C  
BRANCH  14  17
HETATM   17  C   UNL     1      -8.611   7.550  67.745  1.00  0.00    -0.120 C  
BRANCH  17  18
HETATM   18  C   UNL     1      -9.258   6.503  66.808  1.00  0.00    -0.147 C  
BRANCH  18  19
HETATM   19  O   UNL     1      -8.935   6.748  65.406  1.00  0.00     0.016 OA 
BRANCH  19  20
HETATM   20  C   UNL     1      -8.581   8.035  65.168  1.00  0.00    -0.051 C  
HETATM   21  O   UNL     1      -9.200   8.994  65.635  1.00  0.00    -0.216 OA 
BRANCH  20  22
HETATM   22  C   UNL     1      -7.356   8.255  64.326  1.00  0.00    -0.093 A  
HETATM   23  C   UNL     1      -7.066   7.140  63.500  1.00  0.00    -0.069 A  
HETATM   24  C   UNL     1      -5.962   7.116  62.657  1.00  0.00    -0.045 A  
HETATM   25  C   UNL     1      -5.125   8.221  62.610  1.00  0.00    -0.063 A  
HETATM   26  C   UNL     1      -5.397   9.339  63.405  1.00  0.00    -0.067 A  
HETATM   27  C   UNL     1      -6.502   9.389  64.284  1.00  0.00    -0.090 A  
BRANCH  27  28
HETATM   28  N   UNL     1      -6.660  10.512  65.124  1.00  0.00    -0.295 NA 
HETATM   29  H   UNL     1      -7.009  11.335  64.632  1.00  0.00     0.000 HD 
BRANCH  28  30
HETATM   30  C   UNL     1      -6.437  10.741  66.513  1.00  0.00    -0.119 A  
HETATM   31  C   UNL     1      -6.986  11.898  67.117  1.00  0.00    -0.142 A  
HETATM   32  C   UNL     1      -7.988  12.650  66.483  1.00  0.00     0.406 A  
HETATM   33  C   UNL     1      -8.427  13.858  67.015  1.00  0.00    -0.153 A  
HETATM   34  C   UNL     1      -7.852  14.359  68.181  1.00  0.00    -0.138 A  
HETATM   35  C   UNL     1      -6.939  13.543  68.880  1.00  0.00    -0.108 A  
HETATM   36  C   UNL     1      -8.190  15.765  68.623  1.00  0.00    -0.174 C  
HETATM   37  C   UNL     1      -6.528  12.301  68.393  1.00  0.00    -0.057 A  
HETATM   38  F   UNL     1      -9.044  16.398  67.764  1.00  0.00    -0.194 F  
HETATM   39  F   UNL     1      -8.786  15.828  69.843  1.00  0.00    -0.213 F  
HETATM   40  F   UNL     1      -7.091  16.567  68.691  1.00  0.00    -0.143 F  
HETATM   41  N   UNL     1      -5.691  11.533  69.108  1.00  0.00    -0.047 NA 
HETATM   42  C   UNL     1      -5.288  10.354  68.569  1.00  0.00    -0.037 A  
HETATM   43  C   UNL     1      -5.612   9.931  67.282  1.00  0.00    -0.046 A  
ENDBRANCH  28  30
ENDBRANCH  27  28
ENDBRANCH  20  22
ENDBRANCH  19  20
ENDBRANCH  18  19
ENDBRANCH  17  18
ENDBRANCH  14  17
ENDBRANCH   7  11
TORSDOF 8
ENDMDL
MODEL      241
REMARK 921   NORMALIZED FREE ENERGY PREDICTED BY IDOCK:   -3.33 KCAL/MOL
REMARK 922        TOTAL FREE ENERGY PREDICTED BY IDOCK:   -8.29 KCAL/MOL
REMARK 923 INTER-LIGAND FREE ENERGY PREDICTED BY IDOCK:   -6.43 KCAL/MOL
REMARK 924 INTRA-LIGAND FREE ENERGY PREDICTED BY IDOCK:   -1.86 KCAL/MOL
REMARK 927      BINDING AFFINITY PREDICTED BY RF-SCORE:    0.00 PKD
ROOT
HETATM    1  F   UNL     1     -10.430  14.082  68.770  1.00  0.00    -0.226 F  
HETATM    2  C   UNL     1     -11.544  14.182  67.993  1.00  0.00    -0.334 C  
HETATM    3  C   UNL     1     -11.495  13.343  66.740  1.00  0.00    -0.376 A  
HETATM    4  F   UNL     1     -12.594  13.862  68.799  1.00  0.00    -0.301 F  
HETATM    5  F   UNL     1     -11.683  15.510  67.715  1.00  0.00    -0.330 F  
HETATM    6  C   UNL     1     -10.374  12.545  66.432  1.00  0.00    -0.261 A  
HETATM    7  C   UNL     1     -10.294  11.853  65.219  1.00  0.00    -0.276 A  
HETATM    8  C   UNL     1     -12.571  13.398  65.841  1.00  0.00    -0.412 A  
HETATM    9  C   UNL     1     -11.402  11.919  64.355  1.00  0.00    -0.395 A  
HETATM   10  C   UNL     1     -12.529  12.679  64.655  1.00  0.00    -0.538 A  
ENDROOT
BRANCH   7  11
HETATM   11  N   UNL     1      -9.170  11.143  64.786  1.00  0.00    -0.178 NA 
HETATM   12  C   UNL     1      -7.931   9.490  63.418  1.00  0.00    -0.141 C  
HETATM   13  C   UNL     1      -9.324   9.935  63.950  1.00  0.00    -0.207 C  
HETATM   14  N   UNL     1      -6.888   9.267  64.458  1.00  0.00    -0.087 NA 
HETATM   15  C   UNL     1      -8.160  10.986  65.859  1.00  0.00    -0.075 C  
HETATM   16  C   UNL     1      -6.813  10.521  65.258  1.00  0.00    -0.050 C  
BRANCH  14  17
HETATM   17  C   UNL     1      -7.175   8.109  65.337  1.00  0.00    -0.068 C  
BRANCH  17  18
HETATM   18  C   UNL     1      -6.068   7.031  65.406  1.00  0.00    -0.037 C  
BRANCH  18  19
HETATM   19  O   UNL     1      -6.224   6.158  66.565  1.00  0.00    -0.034 OA 
BRANCH  19  20
HETATM   20  C   UNL     1      -6.638   4.911  66.229  1.00  0.00    -0.049 C  
HETATM   21  O   UNL     1      -5.883   3.937  66.225  1.00  0.00    -0.021 OA 
BRANCH  20  22
HETATM   22  C   UNL     1      -8.093   4.751  65.892  1.00  0.00    -0.107 A  
HETATM   23  C   UNL     1      -8.299   4.479  64.517  1.00  0.00    -0.115 A  
HETATM   24  C   UNL     1      -9.570   4.319  63.980  1.00  0.00    -0.109 A  
HETATM   25  C   UNL     1     -10.672   4.414  64.816  1.00  0.00    -0.080 A  
HETATM   26  C   UNL     1     -10.496   4.669  66.179  1.00  0.00    -0.281 A  
HETATM   27  C   UNL     1      -9.218   4.851  66.754  1.00  0.00    -0.122 A  
BRANCH  27  28
HETATM   28  N   UNL     1      -9.122   5.198  68.119  1.00  0.00    -0.110 NA 
HETATM   29  H   UNL     1     -10.023   5.193  68.598  1.00  0.00     0.000 HD 
BRANCH  28  30
HETATM   30  C   UNL     1      -8.035   5.553  68.970  1.00  0.00    -0.095 A  
HETATM   31  C   UNL     1      -7.759   6.922  69.200  1.00  0.00    -0.106 A  
HETATM   32  C   UNL     1      -8.692   7.922  68.879  1.00  0.00    -0.135 A  
HETATM   33  C   UNL     1      -8.367   9.270  68.977  1.00  0.00    -0.123 A  
HETATM   34  C   UNL     1      -7.086   9.653  69.371  1.00  0.00    -0.062 A  
HETATM   35  C   UNL     1      -6.195   8.653  69.812  1.00  0.00    -0.035 A  
HETATM   36  C   UNL     1      -6.688  11.108  69.268  1.00  0.00    -0.103 C  
HETATM   37  C   UNL     1      -6.523   7.296  69.776  1.00  0.00    -0.036 A  
HETATM   38  F   UNL     1      -7.683  11.892  68.755  1.00  0.00    -0.121 F  
HETATM   39  F   UNL     1      -6.355  11.672  70.458  1.00  0.00    -0.162 F  
HETATM   40  F   UNL     1      -5.622  11.298  68.442  1.00  0.00    -0.044 F  
HETATM   41  N   UNL     1      -5.666   6.376  70.244  1.00  0.00    -0.018 NA 
HETATM   42  C   UNL     1      -6.016   5.069  70.145  1.00  0.00    -0.018 A  
HETATM   43  C   UNL     1      -7.164   4.612  69.504  1.00  0.00    -0.051 A  
ENDBRANCH  28  30
ENDBRANCH  27  28
ENDBRANCH  20  22
ENDBRANCH  19  20
ENDBRANCH  18  19
ENDBRANCH  17  18
ENDBRANCH  14  17
ENDBRANCH   7  11
TORSDOF 8
ENDMDL
MODEL      242
REMARK 921   NORMALIZED FREE ENERGY PREDICTED BY IDOCK:   -3.29 KCAL/MOL
REMARK 922        TOTAL FREE ENERGY PREDICTED BY IDOCK:   -8.23 KCAL/MOL
REMARK 923 INTER-LIGAND FREE ENERGY PREDICTED BY IDOCK:   -7.88 KCAL/MOL
REMARK 924 INTRA-LIGAND FREE ENERGY PREDICTED BY IDOCK:   -0.35 KCAL/MOL
REMARK 927      BINDING AFFINITY PREDICTED BY RF-SCORE:    0.00 PKD
ROOT
HETATM    1  F   UNL     1     -13.126  14.384  74.012  1.00  0.00    -0.128 F  
HETATM    2  C   UNL     1     -12.929  15.223  72.957  1.00  0.00    -0.493 C  
HETATM    3  C   UNL     1     -12.705  14.516  71.644  1.00  0.00    -0.414 A  
HETATM    4  F   UNL     1     -14.009  16.052  72.930  1.00  0.00    -0.643 F  
HETATM    5  F   UNL     1     -11.870  16.008  73.304  1.00  0.00    -0.511 F  
HETATM    6  C   UNL     1     -12.700  13.108  71.559  1.00  0.00    -0.366 A  
HETATM    7  C   UNL     1     -12.388  12.461  70.357  1.00  0.00    -0.227 A  
HETATM    8  C   UNL     1     -12.449  15.278  70.495  1.00  0.00    -0.454 A  
HETATM    9  C   UNL     1     -12.157  13.262  69.225  1.00  0.00    -0.291 A  
HETATM   10  C   UNL     1     -12.186  14.653  69.284  1.00  0.00    -0.247 A  
ENDROOT
BRANCH   7  11
HETATM   11  N   UNL     1     -12.241  11.077  70.220  1.00  0.00    -0.340 NA 
HETATM   12  C   UNL     1     -12.203   8.722  70.989  1.00  0.00    -0.190 C  
HETATM   13  C   UNL     1     -12.108  10.217  71.413  1.00  0.00    -0.362 C  
HETATM   14  N   UNL     1     -11.242   8.292  69.935  1.00  0.00    -0.107 NA 
HETATM   15  C   UNL     1     -11.299  10.720  69.134  1.00  0.00    -0.282 C  
HETATM   16  C   UNL     1     -11.434   9.219  68.785  1.00  0.00     0.548 C  
BRANCH  14  17
HETATM   17  C   UNL     1      -9.831   8.312  70.385  1.00  0.00    -0.186 C  
BRANCH  17  18
HETATM   18  C   UNL     1      -9.208   9.716  70.568  1.00  0.00    -0.152 C  
BRANCH  18  19
HETATM   19  O   UNL     1      -7.758   9.657  70.723  1.00  0.00    -0.283 OA 
BRANCH  19  20
HETATM   20  C   UNL     1      -7.184   8.722  69.925  1.00  0.00    -0.051 C  
HETATM   21  O   UNL     1      -6.839   7.613  70.340  1.00  0.00    -0.046 OA 
BRANCH  20  22
HETATM   22  C   UNL     1      -7.016   9.081  68.476  1.00  0.00    -0.064 A  
HETATM   23  C   UNL     1      -6.995   7.939  67.638  1.00  0.00    -0.074 A  
HETATM   24  C   UNL     1      -6.823   8.037  66.264  1.00  0.00    -0.058 A  
HETATM   25  C   UNL     1      -6.683   9.291  65.689  1.00  0.00    -0.073 A  
HETATM   26  C   UNL     1      -6.714  10.436  66.492  1.00  0.00    -0.099 A  
HETATM   27  C   UNL     1      -6.871  10.370  67.895  1.00  0.00    -0.070 A  
BRANCH  27  28
HETATM   28  N   UNL     1      -6.799  11.559  68.650  1.00  0.00    -0.071 NA 
HETATM   29  H   UNL     1      -6.709  11.393  69.653  1.00  0.00     0.000 HD 
BRANCH  28  30
HETATM   30  C   UNL     1      -6.825  12.944  68.312  1.00  0.00    -0.093 A  
HETATM   31  C   UNL     1      -7.951  13.465  67.631  1.00  0.00    -0.174 A  
HETATM   32  C   UNL     1      -9.158  12.752  67.558  1.00  0.00    -0.193 A  
HETATM   33  C   UNL     1     -10.216  13.203  66.777  1.00  0.00    -0.252 A  
HETATM   34  C   UNL     1     -10.081  14.367  66.022  1.00  0.00    -0.338 A  
HETATM   35  C   UNL     1      -8.918  15.145  66.195  1.00  0.00    -0.201 A  
HETATM   36  C   UNL     1     -11.156  14.724  65.020  1.00  0.00    -0.405 C  
HETATM   37  C   UNL     1      -7.867  14.738  67.021  1.00  0.00    -0.054 A  
HETATM   38  F   UNL     1     -12.160  13.798  64.971  1.00  0.00    -0.344 F  
HETATM   39  F   UNL     1     -11.766  15.912  65.271  1.00  0.00    -0.070 F  
HETATM   40  F   UNL     1     -10.676  14.800  63.748  1.00  0.00     0.468 F  
HETATM   41  N   UNL     1      -6.795  15.526  67.194  1.00  0.00    -0.262 NA 
HETATM   42  C   UNL     1      -5.783  15.064  67.973  1.00  0.00    -0.139 A  
HETATM   43  C   UNL     1      -5.742  13.787  68.527  1.00  0.00    -0.091 A  
ENDBRANCH  28  30
ENDBRANCH  27  28
ENDBRANCH  20  22
ENDBRANCH  19  20
ENDBRANCH  18  19
ENDBRANCH  17  18
ENDBRANCH  14  17
ENDBRANCH   7  11
TORSDOF 8
ENDMDL
MODEL      243
REMARK 921   NORMALIZED FREE ENERGY PREDICTED BY IDOCK:   -3.23 KCAL/MOL
REMARK 922        TOTAL FREE ENERGY PREDICTED BY IDOCK:   -8.15 KCAL/MOL
REMARK 923 INTER-LIGAND FREE ENERGY PREDICTED BY IDOCK:   -7.24 KCAL/MOL
REMARK 924 INTRA-LIGAND FREE ENERGY PREDICTED BY IDOCK:   -0.90 KCAL/MOL
REMARK 927      BINDING AFFINITY PREDICTED BY RF-SCORE:    0.00 PKD
ROOT
HETATM    1  F   UNL     1      -7.953   7.008  70.237  1.00  0.00    -0.106 F  
HETATM    2  C   UNL     1      -7.429   5.817  69.833  1.00  0.00    -0.079 C  
HETATM    3  C   UNL     1      -6.951   5.811  68.402  1.00  0.00    -0.068 A  
HETATM    4  F   UNL     1      -6.437   5.523  70.719  1.00  0.00    -0.030 F  
HETATM    5  F   UNL     1      -8.406   4.891  70.051  1.00  0.00    -0.070 F  
HETATM    6  C   UNL     1      -7.062   6.955  67.584  1.00  0.00    -0.085 A  
HETATM    7  C   UNL     1      -6.712   6.908  66.230  1.00  0.00    -0.052 A  
HETATM    8  C   UNL     1      -6.430   4.625  67.863  1.00  0.00    -0.041 A  
HETATM    9  C   UNL     1      -6.177   5.706  65.735  1.00  0.00    -0.034 A  
HETATM   10  C   UNL     1      -6.034   4.575  66.534  1.00  0.00    -0.027 A  
ENDROOT
BRANCH   7  11
HETATM   11  N   UNL     1      -6.907   7.958  65.327  1.00  0.00    -0.054 NA 
HETATM   12  C   UNL     1      -7.209  10.319  64.639  1.00  0.00    -0.082 C  
HETATM   13  C   UNL     1      -7.297   9.298  65.810  1.00  0.00    -0.094 C  
HETATM   14  N   UNL     1      -7.988   9.965  63.419  1.00  0.00    -0.146 NA 
HETATM   15  C   UNL     1      -7.658   7.529  64.124  1.00  0.00    -0.109 C  
HETATM   16  C   UNL     1      -7.545   8.602  63.015  1.00  0.00    -0.111 C  
BRANCH  14  17
HETATM   17  C   UNL     1      -9.454   9.989  63.633  1.00  0.00    -0.197 C  
BRANCH  17  18
HETATM   18  C   UNL     1      -9.917  10.424  65.043  1.00  0.00    -0.330 C  
BRANCH  18  19
HETATM   19  O   UNL     1     -10.995  11.405  64.989  1.00  0.00    -0.275 OA 
BRANCH  19  20
HETATM   20  C   UNL     1     -10.784  12.461  65.815  1.00  0.00    -0.267 C  
HETATM   21  O   UNL     1     -10.403  13.560  65.407  1.00  0.00    -0.299 OA 
BRANCH  20  22
HETATM   22  C   UNL     1     -11.075  12.246  67.273  1.00  0.00    -0.326 A  
HETATM   23  C   UNL     1     -11.723  11.009  67.515  1.00  0.00    -0.023 A  
HETATM   24  C   UNL     1     -12.108  10.616  68.790  1.00  0.00     0.056 A  
HETATM   25  C   UNL     1     -11.839  11.452  69.863  1.00  0.00    -0.435 A  
HETATM   26  C   UNL     1     -11.190  12.673  69.653  1.00  0.00    -0.077 A  
HETATM   27  C   UNL     1     -10.798  13.109  68.368  1.00  0.00    -0.262 A  
BRANCH  27  28
HETATM   28  N   UNL     1     -10.232  14.393  68.221  1.00  0.00    -0.235 NA 
HETATM   29  H   UNL     1     -10.926  15.141  68.225  1.00  0.00     0.000 HD 
BRANCH  28  30
HETATM   30  C   UNL     1      -8.896  14.868  68.068  1.00  0.00    -0.167 A  
HETATM   31  C   UNL     1      -8.675  16.253  67.880  1.00  0.00    -0.175 A  
HETATM   32  C   UNL     1      -9.678  17.198  68.150  1.00  0.00    -0.276 A  
HETATM   33  C   UNL     1      -9.506  18.542  67.836  1.00  0.00    -0.316 A  
HETATM   34  C   UNL     1      -8.334  18.970  67.216  1.00  0.00    -0.296 A  
HETATM   35  C   UNL     1      -7.282  18.044  67.062  1.00  0.00    -0.219 A  
HETATM   36  C   UNL     1      -8.252  20.387  66.693  1.00  0.00    -0.173 C  
HETATM   37  C   UNL     1      -7.414  16.701  67.424  1.00  0.00    -0.161 A  
HETATM   38  F   UNL     1      -9.408  21.089  66.890  1.00  0.00    -0.399 F  
HETATM   39  F   UNL     1      -7.270  21.128  67.268  1.00  0.00    -0.393 F  
HETATM   40  F   UNL     1      -8.031  20.433  65.350  1.00  0.00    -0.218 F  
HETATM   41  N   UNL     1      -6.377  15.859  67.303  1.00  0.00    -0.284 NA 
HETATM   42  C   UNL     1      -6.572  14.555  67.627  1.00  0.00    -0.153 A  
HETATM   43  C   UNL     1      -7.803  14.015  67.988  1.00  0.00    -0.152 A  
ENDBRANCH  28  30
ENDBRANCH  27  28
ENDBRANCH  20  22
ENDBRANCH  19  20
ENDBRANCH  18  19
ENDBRANCH  17  18
ENDBRANCH  14  17
ENDBRANCH   7  11
TORSDOF 8
ENDMDL
MODEL      244
REMARK 921   NORMALIZED FREE ENERGY PREDICTED BY IDOCK:   -3.21 KCAL/MOL
REMARK 922        TOTAL FREE ENERGY PREDICTED BY IDOCK:   -8.11 KCAL/MOL
REMARK 923 INTER-LIGAND FREE ENERGY PREDICTED BY IDOCK:   -6.58 KCAL/MOL
REMARK 924 INTRA-LIGAND FREE ENERGY PREDICTED BY IDOCK:   -1.53 KCAL/MOL
REMARK 927      BINDING AFFINITY PREDICTED BY RF-SCORE:    0.00 PKD
ROOT
HETATM    1  F   UNL     1      -7.847   3.006  69.723  1.00  0.00    -0.044 F  
HETATM    2  C   UNL     1      -6.617   3.591  69.743  1.00  0.00    -0.033 C  
HETATM    3  C   UNL     1      -6.645   5.069  70.042  1.00  0.00    -0.036 A  
HETATM    4  F   UNL     1      -5.881   2.886  70.647  1.00  0.00    -0.015 F  
HETATM    5  F   UNL     1      -6.062   3.325  68.526  1.00  0.00    -0.025 F  
HETATM    6  C   UNL     1      -7.859   5.751  70.267  1.00  0.00    -0.100 A  
HETATM    7  C   UNL     1      -7.884   7.140  70.440  1.00  0.00    -0.100 A  
HETATM    8  C   UNL     1      -5.440   5.787  70.047  1.00  0.00    -0.009 A  
HETATM    9  C   UNL     1      -6.652   7.818  70.457  1.00  0.00    -0.038 A  
HETATM   10  C   UNL     1      -5.441   7.157  70.265  1.00  0.00    -0.023 A  
ENDROOT
BRANCH   7  11
HETATM   11  N   UNL     1      -9.051   7.902  70.544  1.00  0.00    -0.153 NA 
HETATM   12  C   UNL     1     -11.496   8.287  70.648  1.00  0.00    -0.225 C  
HETATM   13  C   UNL     1     -10.364   7.310  70.218  1.00  0.00    -0.210 C  
HETATM   14  N   UNL     1     -11.401   9.666  70.091  1.00  0.00    -0.243 NA 
HETATM   15  C   UNL     1      -8.876   9.270  70.003  1.00  0.00    -0.197 C  
HETATM   16  C   UNL     1     -10.048  10.174  70.452  1.00  0.00     0.012 C  
BRANCH  14  17
HETATM   17  C   UNL     1     -11.598   9.720  68.623  1.00  0.00     0.353 C  
BRANCH  17  18
HETATM   18  C   UNL     1     -10.574  10.576  67.842  1.00  0.00    -0.232 C  
BRANCH  18  19
HETATM   19  O   UNL     1     -10.430  10.134  66.459  1.00  0.00    -0.222 OA 
BRANCH  19  20
HETATM   20  C   UNL     1      -9.419  10.765  65.811  1.00  0.00    -0.204 C  
HETATM   21  O   UNL     1      -9.456  11.019  64.605  1.00  0.00    -0.219 OA 
BRANCH  20  22
HETATM   22  C   UNL     1      -8.242  11.188  66.644  1.00  0.00    -0.158 A  
HETATM   23  C   UNL     1      -7.365  10.110  66.921  1.00  0.00    -0.092 A  
HETATM   24  C   UNL     1      -6.225  10.270  67.697  1.00  0.00    -0.057 A  
HETATM   25  C   UNL     1      -5.925  11.524  68.206  1.00  0.00    -0.045 A  
HETATM   26  C   UNL     1      -6.768  12.608  67.937  1.00  0.00    -0.109 A  
HETATM   27  C   UNL     1      -7.943  12.477  67.164  1.00  0.00    -0.140 A  
BRANCH  27  28
HETATM   28  N   UNL     1      -8.793  13.592  67.012  1.00  0.00    -0.281 NA 
HETATM   29  H   UNL     1      -9.391  13.532  66.187  1.00  0.00     0.000 HD 
BRANCH  28  30
HETATM   30  C   UNL     1      -8.995  14.786  67.764  1.00  0.00    -0.182 A  
HETATM   31  C   UNL     1      -9.968  14.795  68.792  1.00  0.00    -0.234 A  
HETATM   32  C   UNL     1     -10.511  13.603  69.299  1.00  0.00     0.072 A  
HETATM   33  C   UNL     1     -11.561  13.620  70.209  1.00  0.00    -0.162 A  
HETATM   34  C   UNL     1     -12.118  14.832  70.614  1.00  0.00    -0.374 A  
HETATM   35  C   UNL     1     -11.490  16.026  70.201  1.00  0.00    -0.350 A  
HETATM   36  C   UNL     1     -13.389  14.822  71.432  1.00  0.00    -0.392 C  
HETATM   37  C   UNL     1     -10.397  16.030  69.333  1.00  0.00    -0.272 A  
HETATM   38  F   UNL     1     -13.860  13.559  71.661  1.00  0.00    -0.409 F  
HETATM   39  F   UNL     1     -13.256  15.391  72.659  1.00  0.00    -0.385 F  
HETATM   40  F   UNL     1     -14.411  15.477  70.814  1.00  0.00    -0.372 F  
HETATM   41  N   UNL     1      -9.800  17.183  68.997  1.00  0.00    -0.265 NA 
HETATM   42  C   UNL     1      -8.768  17.135  68.116  1.00  0.00    -0.232 A  
HETATM   43  C   UNL     1      -8.350  15.979  67.463  1.00  0.00    -0.177 A  
ENDBRANCH  28  30
ENDBRANCH  27  28
ENDBRANCH  20  22
ENDBRANCH  19  20
ENDBRANCH  18  19
ENDBRANCH  17  18
ENDBRANCH  14  17
ENDBRANCH   7  11
TORSDOF 8
ENDMDL
MODEL      245
REMARK 921   NORMALIZED FREE ENERGY PREDICTED BY IDOCK:   -3.21 KCAL/MOL
REMARK 922        TOTAL FREE ENERGY PREDICTED BY IDOCK:   -8.10 KCAL/MOL
REMARK 923 INTER-LIGAND FREE ENERGY PREDICTED BY IDOCK:   -6.25 KCAL/MOL
REMARK 924 INTRA-LIGAND FREE ENERGY PREDICTED BY IDOCK:   -1.85 KCAL/MOL
REMARK 927      BINDING AFFINITY PREDICTED BY RF-SCORE:    0.00 PKD
ROOT
HETATM    1  F   UNL     1     -10.217  12.995  67.803  1.00  0.00    -0.212 F  
HETATM    2  C   UNL     1     -11.334  13.250  67.066  1.00  0.00    -0.312 C  
HETATM    3  C   UNL     1     -11.350  12.570  65.720  1.00  0.00    -0.373 A  
HETATM    4  F   UNL     1     -12.390  12.891  67.848  1.00  0.00    -0.321 F  
HETATM    5  F   UNL     1     -11.402  14.608  66.955  1.00  0.00    -0.311 F  
HETATM    6  C   UNL     1     -10.280  11.757  65.294  1.00  0.00    -0.307 A  
HETATM    7  C   UNL     1     -10.256  11.216  64.003  1.00  0.00    -0.361 A  
HETATM    8  C   UNL     1     -12.433  12.794  64.856  1.00  0.00    -0.563 A  
HETATM    9  C   UNL     1     -11.369  11.449  63.177  1.00  0.00     0.033 A  
HETATM   10  C   UNL     1     -12.448  12.225  63.590  1.00  0.00    -0.647 A  
ENDROOT
BRANCH   7  11
HETATM   11  N   UNL     1      -9.179  10.505  63.465  1.00  0.00    -0.247 NA 
HETATM   12  C   UNL     1      -8.045   8.549  62.452  1.00  0.00    -0.170 C  
HETATM   13  C   UNL     1      -9.266   9.042  63.281  1.00  0.00     0.571 C  
HETATM   14  N   UNL     1      -6.708   8.921  62.995  1.00  0.00    -0.091 NA 
HETATM   15  C   UNL     1      -7.880  10.948  64.023  1.00  0.00     0.411 C  
HETATM   16  C   UNL     1      -6.717  10.401  63.162  1.00  0.00    -0.074 C  
BRANCH  14  17
HETATM   17  C   UNL     1      -6.393   8.257  64.282  1.00  0.00    -0.066 C  
BRANCH  17  18
HETATM   18  C   UNL     1      -5.465   9.050  65.232  1.00  0.00    -0.038 C  
BRANCH  18  19
HETATM   19  O   UNL     1      -5.716   8.734  66.634  1.00  0.00    -0.045 OA 
BRANCH  19  20
HETATM   20  C   UNL     1      -6.871   9.277  67.093  1.00  0.00    -0.084 C  
HETATM   21  O   UNL     1      -7.976   8.774  66.876  1.00  0.00    -0.097 OA 
BRANCH  20  22
HETATM   22  C   UNL     1      -6.749  10.520  67.928  1.00  0.00    -0.065 A  
HETATM   23  C   UNL     1      -7.024  11.695  67.186  1.00  0.00    -0.144 A  
HETATM   24  C   UNL     1      -6.945  12.960  67.753  1.00  0.00    -0.138 A  
HETATM   25  C   UNL     1      -6.601  13.078  69.092  1.00  0.00    -0.104 A  
HETATM   26  C   UNL     1      -6.338  11.933  69.850  1.00  0.00    -0.104 A  
HETATM   27  C   UNL     1      -6.394  10.633  69.300  1.00  0.00    -0.057 A  
BRANCH  27  28
HETATM   28  N   UNL     1      -6.026   9.532  70.101  1.00  0.00    -0.043 NA 
HETATM   29  H   UNL     1      -5.255   9.739  70.738  1.00  0.00     0.000 HD 
BRANCH  28  30
HETATM   30  C   UNL     1      -6.499   8.192  70.210  1.00  0.00    -0.036 A  
HETATM   31  C   UNL     1      -7.871   7.966  70.480  1.00  0.00    -0.095 A  
HETATM   32  C   UNL     1      -8.824   8.987  70.334  1.00  0.00    -0.228 A  
HETATM   33  C   UNL     1     -10.144   8.802  70.729  1.00  0.00    -0.261 A  
HETATM   34  C   UNL     1     -10.538   7.598  71.310  1.00  0.00    -0.237 A  
HETATM   35  C   UNL     1      -9.612   6.535  71.339  1.00  0.00    -0.174 A  
HETATM   36  C   UNL     1     -11.916   7.493  71.924  1.00  0.00    -0.301 C  
HETATM   37  C   UNL     1      -8.296   6.683  70.894  1.00  0.00    -0.125 A  
HETATM   38  F   UNL     1     -12.621   8.660  71.842  1.00  0.00    -0.314 F  
HETATM   39  F   UNL     1     -12.703   6.548  71.346  1.00  0.00    -0.365 F  
HETATM   40  F   UNL     1     -11.872   7.194  73.252  1.00  0.00    -0.018 F  
HETATM   41  N   UNL     1      -7.456   5.637  70.897  1.00  0.00    -0.087 NA 
HETATM   42  C   UNL     1      -6.176   5.845  70.495  1.00  0.00    -0.031 A  
HETATM   43  C   UNL     1      -5.652   7.093  70.168  1.00  0.00    -0.023 A  
ENDBRANCH  28  30
ENDBRANCH  27  28
ENDBRANCH  20  22
ENDBRANCH  19  20
ENDBRANCH  18  19
ENDBRANCH  17  18
ENDBRANCH  14  17
ENDBRANCH   7  11
TORSDOF 8
ENDMDL
MODEL      246
REMARK 921   NORMALIZED FREE ENERGY PREDICTED BY IDOCK:   -3.11 KCAL/MOL
REMARK 922        TOTAL FREE ENERGY PREDICTED BY IDOCK:   -7.97 KCAL/MOL
REMARK 923 INTER-LIGAND FREE ENERGY PREDICTED BY IDOCK:   -6.51 KCAL/MOL
REMARK 924 INTRA-LIGAND FREE ENERGY PREDICTED BY IDOCK:   -1.46 KCAL/MOL
REMARK 927      BINDING AFFINITY PREDICTED BY RF-SCORE:    0.00 PKD
ROOT
HETATM    1  F   UNL     1      -8.296   9.429  69.197  1.00  0.00    -0.109 F  
HETATM    2  C   UNL     1      -9.235   9.364  70.182  1.00  0.00    -0.234 C  
HETATM    3  C   UNL     1     -10.436  10.245  69.943  1.00  0.00    -0.304 A  
HETATM    4  F   UNL     1      -9.564   8.048  70.300  1.00  0.00    -0.167 F  
HETATM    5  F   UNL     1      -8.584   9.688  71.335  1.00  0.00    -0.024 F  
HETATM    6  C   UNL     1     -10.537  11.056  68.793  1.00  0.00    -0.232 A  
HETATM    7  C   UNL     1     -11.604  11.946  68.632  1.00  0.00    -0.310 A  
HETATM    8  C   UNL     1     -11.450  10.292  70.912  1.00  0.00    -0.425 A  
HETATM    9  C   UNL     1     -12.608  11.948  69.617  1.00  0.00     0.197 A  
HETATM   10  C   UNL     1     -12.540  11.134  70.744  1.00  0.00    -0.445 A  
ENDROOT
BRANCH   7  11
HETATM   11  N   UNL     1     -11.713  12.868  67.587  1.00  0.00    -0.360 NA 
HETATM   12  C   UNL     1     -12.720  13.877  65.560  1.00  0.00    -0.499 C  
HETATM   13  C   UNL     1     -12.607  12.600  66.442  1.00  0.00     0.670 C  
HETATM   14  N   UNL     1     -11.428  14.443  65.081  1.00  0.00    -0.347 NA 
HETATM   15  C   UNL     1     -10.396  13.415  67.184  1.00  0.00    -0.246 C  
HETATM   16  C   UNL     1     -10.589  14.665  66.292  1.00  0.00    -0.306 C  
BRANCH  14  17
HETATM   17  C   UNL     1     -10.723  13.563  64.120  1.00  0.00    -0.199 C  
BRANCH  17  18
HETATM   18  C   UNL     1     -11.435  12.231  63.787  1.00  0.00    -0.466 C  
BRANCH  18  19
HETATM   19  O   UNL     1     -10.640  11.072  64.180  1.00  0.00    -0.371 OA 
BRANCH  19  20
HETATM   20  C   UNL     1      -9.462  10.994  63.512  1.00  0.00    -0.292 C  
HETATM   21  O   UNL     1      -9.325  11.398  62.355  1.00  0.00    -0.240 OA 
BRANCH  20  22
HETATM   22  C   UNL     1      -8.295  10.421  64.264  1.00  0.00    -0.138 A  
HETATM   23  C   UNL     1      -7.079  11.076  63.949  1.00  0.00     0.827 A  
HETATM   24  C   UNL     1      -5.868  10.691  64.511  1.00  0.00    -0.018 A  
HETATM   25  C   UNL     1      -5.849   9.644  65.420  1.00  0.00    -0.065 A  
HETATM   26  C   UNL     1      -7.038   8.989  65.758  1.00  0.00    -0.085 A  
HETATM   27  C   UNL     1      -8.283   9.345  65.193  1.00  0.00    -0.135 A  
BRANCH  27  28
HETATM   28  N   UNL     1      -9.425   8.580  65.510  1.00  0.00    -0.438 NA 
HETATM   29  H   UNL     1     -10.285   8.957  65.110  1.00  0.00     0.000 HD 
BRANCH  28  30
HETATM   30  C   UNL     1      -9.634   7.393  66.271  1.00  0.00    -0.051 A  
HETATM   31  C   UNL     1      -9.149   6.160  65.771  1.00  0.00    -0.058 A  
HETATM   32  C   UNL     1      -8.212   6.111  64.726  1.00  0.00    -0.112 A  
HETATM   33  C   UNL     1      -7.842   4.902  64.147  1.00  0.00    -0.092 A  
HETATM   34  C   UNL     1      -8.425   3.712  64.579  1.00  0.00    -0.097 A  
HETATM   35  C   UNL     1      -9.268   3.752  65.709  1.00  0.00    -0.156 A  
HETATM   36  C   UNL     1      -8.170   2.442  63.798  1.00  0.00    -0.082 C  
HETATM   37  C   UNL     1      -9.607   4.950  66.341  1.00  0.00    -0.172 A  
HETATM   38  F   UNL     1      -7.378   2.645  62.703  1.00  0.00    -0.039 F  
HETATM   39  F   UNL     1      -7.555   1.469  64.520  1.00  0.00    -0.053 F  
HETATM   40  F   UNL     1      -9.318   1.892  63.313  1.00  0.00    -0.089 F  
HETATM   41  N   UNL     1     -10.377   4.944  67.440  1.00  0.00    -0.117 NA 
HETATM   42  C   UNL     1     -10.712   6.138  67.991  1.00  0.00    -0.295 A  
HETATM   43  C   UNL     1     -10.389   7.374  67.437  1.00  0.00    -0.340 A  
ENDBRANCH  28  30
ENDBRANCH  27  28
ENDBRANCH  20  22
ENDBRANCH  19  20
ENDBRANCH  18  19
ENDBRANCH  17  18
ENDBRANCH  14  17
ENDBRANCH   7  11
TORSDOF 8
ENDMDL
MODEL      247
REMARK 921   NORMALIZED FREE ENERGY PREDICTED BY IDOCK:   -3.07 KCAL/MOL
REMARK 922        TOTAL FREE ENERGY PREDICTED BY IDOCK:   -7.90 KCAL/MOL
REMARK 923 INTER-LIGAND FREE ENERGY PREDICTED BY IDOCK:   -8.18 KCAL/MOL
REMARK 924 INTRA-LIGAND FREE ENERGY PREDICTED BY IDOCK:    0.28 KCAL/MOL
REMARK 927      BINDING AFFINITY PREDICTED BY RF-SCORE:    0.00 PKD
ROOT
HETATM    1  F   UNL     1     -10.935  14.628  69.010  1.00  0.00    -0.223 F  
HETATM    2  C   UNL     1     -11.890  15.223  69.778  1.00  0.00    -0.332 C  
HETATM    3  C   UNL     1     -12.553  14.293  70.763  1.00  0.00    -0.427 A  
HETATM    4  F   UNL     1     -11.279  16.280  70.383  1.00  0.00    -0.328 F  
HETATM    5  F   UNL     1     -12.783  15.765  68.903  1.00  0.00    -0.041 F  
HETATM    6  C   UNL     1     -12.195  12.931  70.845  1.00  0.00    -0.290 A  
HETATM    7  C   UNL     1     -12.887  12.054  71.687  1.00  0.00    -0.294 A  
HETATM    8  C   UNL     1     -13.582  14.787  71.579  1.00  0.00    -0.495 A  
HETATM    9  C   UNL     1     -13.899  12.593  72.502  1.00  0.00    -0.129 A  
HETATM   10  C   UNL     1     -14.247  13.940  72.456  1.00  0.00    -0.375 A  
ENDROOT
BRANCH   7  11
HETATM   11  N   UNL     1     -12.676  10.673  71.735  1.00  0.00    -0.419 NA 
HETATM   12  C   UNL     1     -11.341   8.599  71.967  1.00  0.00    -0.362 C  
HETATM   13  C   UNL     1     -11.309  10.121  71.648  1.00  0.00     0.314 C  
HETATM   14  N   UNL     1     -12.276   7.789  71.137  1.00  0.00    -0.296 NA 
HETATM   15  C   UNL     1     -13.660   9.928  70.916  1.00  0.00    -0.027 C  
HETATM   16  C   UNL     1     -13.618   8.423  71.271  1.00  0.00    -0.128 C  
BRANCH  14  17
HETATM   17  C   UNL     1     -11.881   7.714  69.711  1.00  0.00     0.531 C  
BRANCH  17  18
HETATM   18  C   UNL     1     -10.810   8.736  69.261  1.00  0.00    -0.077 C  
BRANCH  18  19
HETATM   19  O   UNL     1      -9.458   8.198  69.371  1.00  0.00    -0.161 OA 
BRANCH  19  20
HETATM   20  C   UNL     1      -8.793   8.209  68.188  1.00  0.00    -0.132 C  
HETATM   21  O   UNL     1      -8.967   7.352  67.319  1.00  0.00    -0.122 OA 
BRANCH  20  22
HETATM   22  C   UNL     1      -7.845   9.350  67.956  1.00  0.00    -0.091 A  
HETATM   23  C   UNL     1      -6.521   9.039  68.357  1.00  0.00    -0.055 A  
HETATM   24  C   UNL     1      -5.486   9.958  68.256  1.00  0.00    -0.039 A  
HETATM   25  C   UNL     1      -5.748  11.216  67.734  1.00  0.00    -0.043 A  
HETATM   26  C   UNL     1      -7.043  11.544  67.318  1.00  0.00    -0.128 A  
HETATM   27  C   UNL     1      -8.122  10.637  67.422  1.00  0.00    -0.112 A  
BRANCH  27  28
HETATM   28  N   UNL     1      -9.418  11.069  67.070  1.00  0.00    -0.171 NA 
HETATM   29  H   UNL     1     -10.156  10.571  67.568  1.00  0.00     0.000 HD 
BRANCH  28  30
HETATM   30  C   UNL     1      -9.916  12.053  66.166  1.00  0.00    -0.231 A  
HETATM   31  C   UNL     1      -9.439  13.382  66.264  1.00  0.00    -0.196 A  
HETATM   32  C   UNL     1      -8.283  13.694  66.997  1.00  0.00    -0.056 A  
HETATM   33  C   UNL     1      -7.894  15.013  67.204  1.00  0.00    -0.224 A  
HETATM   34  C   UNL     1      -8.672  16.057  66.708  1.00  0.00    -0.287 A  
HETATM   35  C   UNL     1      -9.760  15.740  65.868  1.00  0.00    -0.389 A  
HETATM   36  C   UNL     1      -8.352  17.475  67.123  1.00  0.00    -0.216 C  
HETATM   37  C   UNL     1     -10.132  14.421  65.600  1.00  0.00    -0.353 A  
HETATM   38  F   UNL     1      -7.299  17.547  67.991  1.00  0.00    -0.187 F  
HETATM   39  F   UNL     1      -8.025  18.290  66.085  1.00  0.00    -0.272 F  
HETATM   40  F   UNL     1      -9.390  18.075  67.769  1.00  0.00    -0.252 F  
HETATM   41  N   UNL     1     -11.146  14.158  64.762  1.00  0.00    -0.375 NA 
HETATM   42  C   UNL     1     -11.495  12.860  64.569  1.00  0.00    -0.344 A  
HETATM   43  C   UNL     1     -10.933  11.788  65.258  1.00  0.00    -0.350 A  
ENDBRANCH  28  30
ENDBRANCH  27  28
ENDBRANCH  20  22
ENDBRANCH  19  20
ENDBRANCH  18  19
ENDBRANCH  17  18
ENDBRANCH  14  17
ENDBRANCH   7  11
TORSDOF 8
ENDMDL
MODEL      248
REMARK 921   NORMALIZED FREE ENERGY PREDICTED BY IDOCK:   -3.04 KCAL/MOL
REMARK 922        TOTAL FREE ENERGY PREDICTED BY IDOCK:   -7.87 KCAL/MOL
REMARK 923 INTER-LIGAND FREE ENERGY PREDICTED BY IDOCK:   -6.67 KCAL/MOL
REMARK 924 INTRA-LIGAND FREE ENERGY PREDICTED BY IDOCK:   -1.20 KCAL/MOL
REMARK 927      BINDING AFFINITY PREDICTED BY RF-SCORE:    0.00 PKD
ROOT
HETATM    1  F   UNL     1      -7.859   3.040  69.759  1.00  0.00    -0.044 F  
HETATM    2  C   UNL     1      -6.662   3.566  70.140  1.00  0.00    -0.033 C  
HETATM    3  C   UNL     1      -6.730   5.018  70.545  1.00  0.00    -0.040 A  
HETATM    4  F   UNL     1      -6.200   2.763  71.139  1.00  0.00    -0.016 F  
HETATM    5  F   UNL     1      -5.819   3.367  69.087  1.00  0.00    -0.019 F  
HETATM    6  C   UNL     1      -7.944   5.735  70.510  1.00  0.00    -0.105 A  
HETATM    7  C   UNL     1      -7.979   7.106  70.786  1.00  0.00    -0.100 A  
HETATM    8  C   UNL     1      -5.549   5.678  70.917  1.00  0.00    -0.013 A  
HETATM    9  C   UNL     1      -6.777   7.725  71.174  1.00  0.00    -0.041 A  
HETATM   10  C   UNL     1      -5.574   7.027  71.242  1.00  0.00    -0.028 A  
ENDROOT
BRANCH   7  11
HETATM   11  N   UNL     1      -9.115   7.911  70.654  1.00  0.00    -0.152 NA 
HETATM   12  C   UNL     1     -11.534   8.378  70.393  1.00  0.00    -0.125 C  
HETATM   13  C   UNL     1     -10.400   7.325  70.224  1.00  0.00    -0.210 C  
HETATM   14  N   UNL     1     -11.307   9.681  69.708  1.00  0.00    -0.174 NA 
HETATM   15  C   UNL     1      -8.812   9.203  69.996  1.00  0.00    -0.182 C  
HETATM   16  C   UNL     1      -9.990  10.187  70.186  1.00  0.00    -0.098 C  
BRANCH  14  17
HETATM   17  C   UNL     1     -11.314   9.575  68.230  1.00  0.00     0.278 C  
BRANCH  17  18
HETATM   18  C   UNL     1     -10.258  10.433  67.494  1.00  0.00    -0.210 C  
BRANCH  18  19
HETATM   19  O   UNL     1     -10.051   9.989  66.120  1.00  0.00    -0.245 OA 
BRANCH  19  20
HETATM   20  C   UNL     1      -8.953  10.545  65.549  1.00  0.00    -0.183 C  
HETATM   21  O   UNL     1      -8.966  11.035  64.418  1.00  0.00    -0.148 OA 
BRANCH  20  22
HETATM   22  C   UNL     1      -7.703  10.577  66.382  1.00  0.00    -0.135 A  
HETATM   23  C   UNL     1      -7.143   9.288  66.559  1.00  0.00    -0.085 A  
HETATM   24  C   UNL     1      -5.997   9.080  67.317  1.00  0.00    -0.050 A  
HETATM   25  C   UNL     1      -5.373  10.169  67.907  1.00  0.00    -0.038 A  
HETATM   26  C   UNL     1      -5.898  11.454  67.737  1.00  0.00    -0.046 A  
HETATM   27  C   UNL     1      -7.069  11.697  66.985  1.00  0.00    -0.145 A  
BRANCH  27  28
HETATM   28  N   UNL     1      -7.593  13.006  66.934  1.00  0.00    -0.368 NA 
HETATM   29  H   UNL     1      -8.006  13.239  66.030  1.00  0.00     0.000 HD 
BRANCH  28  30
HETATM   30  C   UNL     1      -7.668  14.074  67.876  1.00  0.00    -0.159 A  
HETATM   31  C   UNL     1      -8.422  15.227  67.551  1.00  0.00    -0.192 A  
HETATM   32  C   UNL     1      -9.339  15.228  66.487  1.00  0.00    -0.309 A  
HETATM   33  C   UNL     1      -9.975  16.397  66.085  1.00  0.00    -0.360 A  
HETATM   34  C   UNL     1      -9.686  17.604  66.718  1.00  0.00    -0.300 A  
HETATM   35  C   UNL     1      -8.863  17.578  67.863  1.00  0.00    -0.247 A  
HETATM   36  C   UNL     1     -10.222  18.890  66.131  1.00  0.00    -0.433 C  
HETATM   37  C   UNL     1      -8.260  16.404  68.318  1.00  0.00    -0.177 A  
HETATM   38  F   UNL     1     -10.940  18.690  64.986  1.00  0.00    -0.325 F  
HETATM   39  F   UNL     1     -11.050  19.571  66.967  1.00  0.00    -0.566 F  
HETATM   40  F   UNL     1      -9.230  19.757  65.785  1.00  0.00    -0.370 F  
HETATM   41  N   UNL     1      -7.518  16.410  69.437  1.00  0.00    -0.196 NA 
HETATM   42  C   UNL     1      -6.919  15.251  69.812  1.00  0.00    -0.168 A  
HETATM   43  C   UNL     1      -6.945  14.078  69.061  1.00  0.00    -0.112 A  
ENDBRANCH  28  30
ENDBRANCH  27  28
ENDBRANCH  20  22
ENDBRANCH  19  20
ENDBRANCH  18  19
ENDBRANCH  17  18
ENDBRANCH  14  17
ENDBRANCH   7  11
TORSDOF 8
ENDMDL
MODEL      249
REMARK 921   NORMALIZED FREE ENERGY PREDICTED BY IDOCK:   -3.03 KCAL/MOL
REMARK 922        TOTAL FREE ENERGY PREDICTED BY IDOCK:   -7.85 KCAL/MOL
REMARK 923 INTER-LIGAND FREE ENERGY PREDICTED BY IDOCK:   -4.15 KCAL/MOL
REMARK 924 INTRA-LIGAND FREE ENERGY PREDICTED BY IDOCK:   -3.70 KCAL/MOL
REMARK 927      BINDING AFFINITY PREDICTED BY RF-SCORE:    0.00 PKD
ROOT
HETATM    1  F   UNL     1     -11.309   7.805  66.793  1.00  0.00    -0.112 F  
HETATM    2  C   UNL     1     -10.660   8.973  67.059  1.00  0.00    -0.200 C  
HETATM    3  C   UNL     1      -9.950   8.991  68.389  1.00  0.00    -0.200 A  
HETATM    4  F   UNL     1      -9.816   9.180  66.010  1.00  0.00    -0.296 F  
HETATM    5  F   UNL     1     -11.607   9.950  66.969  1.00  0.00     0.049 F  
HETATM    6  C   UNL     1      -9.987   7.880  69.258  1.00  0.00    -0.190 A  
HETATM    7  C   UNL     1      -9.414   7.945  70.533  1.00  0.00    -0.162 A  
HETATM    8  C   UNL     1      -9.282  10.158  68.789  1.00  0.00    -0.164 A  
HETATM    9  C   UNL     1      -8.737   9.125  70.886  1.00  0.00    -0.277 A  
HETATM   10  C   UNL     1      -8.667  10.222  70.031  1.00  0.00     0.115 A  
ENDROOT
BRANCH   7  11
HETATM   11  N   UNL     1      -9.513   6.935  71.495  1.00  0.00    -0.156 NA 
HETATM   12  C   UNL     1      -8.757   4.954  72.777  1.00  0.00    -0.121 C  
HETATM   13  C   UNL     1      -8.585   5.787  71.474  1.00  0.00    -0.132 C  
HETATM   14  N   UNL     1     -10.143   4.489  73.063  1.00  0.00    -0.147 NA 
HETATM   15  C   UNL     1     -10.919   6.546  71.755  1.00  0.00    -0.247 C  
HETATM   16  C   UNL     1     -11.007   5.703  73.049  1.00  0.00    -0.284 C  
BRANCH  14  17
HETATM   17  C   UNL     1     -10.640   3.491  72.087  1.00  0.00     0.190 C  
BRANCH  17  18
HETATM   18  C   UNL     1      -9.551   2.661  71.368  1.00  0.00    -0.152 C  
BRANCH  18  19
HETATM   19  O   UNL     1      -9.363   3.084  69.984  1.00  0.00    -0.141 OA 
BRANCH  19  20
HETATM   20  C   UNL     1      -8.160   2.708  69.482  1.00  0.00    -0.040 C  
HETATM   21  O   UNL     1      -7.242   2.292  70.191  1.00  0.00    -0.033 OA 
BRANCH  20  22
HETATM   22  C   UNL     1      -7.998   2.784  67.990  1.00  0.00    -0.062 A  
HETATM   23  C   UNL     1      -8.975   2.021  67.304  1.00  0.00    -0.166 A  
HETATM   24  C   UNL     1      -8.997   1.928  65.919  1.00  0.00    -0.098 A  
HETATM   25  C   UNL     1      -8.045   2.615  65.181  1.00  0.00    -0.083 A  
HETATM   26  C   UNL     1      -7.077   3.386  65.833  1.00  0.00    -0.063 A  
HETATM   27  C   UNL     1      -7.017   3.489  67.241  1.00  0.00    -0.054 A  
BRANCH  27  28
HETATM   28  N   UNL     1      -5.958   4.210  67.832  1.00  0.00    -0.026 NA 
HETATM   29  H   UNL     1      -5.049   3.762  67.708  1.00  0.00     0.000 HD 
BRANCH  28  30
HETATM   30  C   UNL     1      -5.886   5.430  68.565  1.00  0.00    -0.016 A  
HETATM   31  C   UNL     1      -6.251   6.640  67.926  1.00  0.00    -0.036 A  
HETATM   32  C   UNL     1      -6.967   6.644  66.719  1.00  0.00    -0.067 A  
HETATM   33  C   UNL     1      -7.204   7.825  66.025  1.00  0.00    -0.073 A  
HETATM   34  C   UNL     1      -6.703   9.033  66.508  1.00  0.00    -0.075 A  
HETATM   35  C   UNL     1      -6.094   9.042  67.781  1.00  0.00    -0.051 A  
HETATM   36  C   UNL     1      -6.786  10.266  65.638  1.00  0.00    -0.133 C  
HETATM   37  C   UNL     1      -5.898   7.874  68.520  1.00  0.00    -0.035 A  
HETATM   38  F   UNL     1      -7.354  10.015  64.420  1.00  0.00    -0.122 F  
HETATM   39  F   UNL     1      -7.518  11.273  66.183  1.00  0.00    -0.139 F  
HETATM   40  F   UNL     1      -5.560  10.790  65.359  1.00  0.00    -0.107 F  
HETATM   41  N   UNL     1      -5.355   7.928  69.746  1.00  0.00    -0.023 NA 
HETATM   42  C   UNL     1      -5.146   6.760  70.404  1.00  0.00    -0.015 A  
HETATM   43  C   UNL     1      -5.371   5.500  69.853  1.00  0.00    -0.004 A  
ENDBRANCH  28  30
ENDBRANCH  27  28
ENDBRANCH  20  22
ENDBRANCH  19  20
ENDBRANCH  18  19
ENDBRANCH  17  18
ENDBRANCH  14  17
ENDBRANCH   7  11
TORSDOF 8
ENDMDL
MODEL      250
REMARK 921   NORMALIZED FREE ENERGY PREDICTED BY IDOCK:   -2.93 KCAL/MOL
REMARK 922        TOTAL FREE ENERGY PREDICTED BY IDOCK:   -7.71 KCAL/MOL
REMARK 923 INTER-LIGAND FREE ENERGY PREDICTED BY IDOCK:   -6.45 KCAL/MOL
REMARK 924 INTRA-LIGAND FREE ENERGY PREDICTED BY IDOCK:   -1.26 KCAL/MOL
REMARK 927      BINDING AFFINITY PREDICTED BY RF-SCORE:    0.00 PKD
ROOT
HETATM    1  F   UNL     1     -11.832  13.029  64.860  1.00  0.00    -0.336 F  
HETATM    2  C   UNL     1     -11.521  12.995  66.186  1.00  0.00    -0.340 C  
HETATM    3  C   UNL     1     -10.288  12.186  66.506  1.00  0.00    -0.239 A  
HETATM    4  F   UNL     1     -11.413  14.295  66.580  1.00  0.00    -0.316 F  
HETATM    5  F   UNL     1     -12.629  12.509  66.813  1.00  0.00    -0.090 F  
HETATM    6  C   UNL     1      -9.555  11.531  65.495  1.00  0.00    -0.252 A  
HETATM    7  C   UNL     1      -8.475  10.699  65.813  1.00  0.00    -0.178 A  
HETATM    8  C   UNL     1      -9.895  12.046  67.846  1.00  0.00    -0.196 A  
HETATM    9  C   UNL     1      -8.102  10.601  67.165  1.00  0.00    -0.121 A  
HETATM   10  C   UNL     1      -8.796  11.264  68.174  1.00  0.00    -0.159 A  
ENDROOT
BRANCH   7  11
HETATM   11  N   UNL     1      -7.777   9.921  64.885  1.00  0.00    -0.128 NA 
HETATM   12  C   UNL     1      -7.526   8.248  63.074  1.00  0.00    -0.115 C  
HETATM   13  C   UNL     1      -8.437   8.780  64.219  1.00  0.00    -0.114 C  
HETATM   14  N   UNL     1      -6.140   7.878  63.477  1.00  0.00    -0.062 NA 
HETATM   15  C   UNL     1      -6.398   9.618  65.333  1.00  0.00    -0.076 C  
HETATM   16  C   UNL     1      -5.562   9.074  64.150  1.00  0.00    -0.068 C  
BRANCH  14  17
HETATM   17  C   UNL     1      -6.085   6.702  64.377  1.00  0.00    -0.035 C  
BRANCH  17  18
HETATM   18  C   UNL     1      -6.324   5.332  63.701  1.00  0.00    -0.022 C  
BRANCH  18  19
HETATM   19  O   UNL     1      -7.210   4.478  64.487  1.00  0.00    -0.063 OA 
BRANCH  19  20
HETATM   20  C   UNL     1      -6.765   4.290  65.754  1.00  0.00    -0.052 C  
HETATM   21  O   UNL     1      -5.632   4.611  66.117  1.00  0.00    -0.016 OA 
BRANCH  20  22
HETATM   22  C   UNL     1      -7.741   3.698  66.731  1.00  0.00    -0.081 A  
HETATM   23  C   UNL     1      -8.226   2.436  66.308  1.00  0.00    -0.088 A  
HETATM   24  C   UNL     1      -9.158   1.719  67.047  1.00  0.00    -0.106 A  
HETATM   25  C   UNL     1      -9.619   2.247  68.244  1.00  0.00    -0.119 A  
HETATM   26  C   UNL     1      -9.147   3.485  68.691  1.00  0.00    -0.203 A  
HETATM   27  C   UNL     1      -8.210   4.246  67.956  1.00  0.00    -0.093 A  
BRANCH  27  28
HETATM   28  N   UNL     1      -7.849   5.527  68.423  1.00  0.00    -0.088 NA 
HETATM   29  H   UNL     1      -7.673   6.193  67.670  1.00  0.00     0.000 HD 
BRANCH  28  30
HETATM   30  C   UNL     1      -7.679   6.090  69.721  1.00  0.00    -0.096 A  
HETATM   31  C   UNL     1      -8.807   6.613  70.399  1.00  0.00    -0.152 A  
HETATM   32  C   UNL     1     -10.115   6.318  69.980  1.00  0.00    -0.217 A  
HETATM   33  C   UNL     1     -11.214   6.939  70.561  1.00  0.00    -0.353 A  
HETATM   34  C   UNL     1     -11.032   7.897  71.557  1.00  0.00    -0.269 A  
HETATM   35  C   UNL     1      -9.729   8.098  72.060  1.00  0.00    -0.292 A  
HETATM   36  C   UNL     1     -12.218   8.711  72.023  1.00  0.00    -0.373 C  
HETATM   37  C   UNL     1      -8.618   7.440  71.530  1.00  0.00    -0.117 A  
HETATM   38  F   UNL     1     -13.368   8.397  71.356  1.00  0.00    -0.328 F  
HETATM   39  F   UNL     1     -12.505   8.555  73.342  1.00  0.00     0.085 F  
HETATM   40  F   UNL     1     -12.042  10.047  71.824  1.00  0.00    -0.435 F  
HETATM   41  N   UNL     1      -7.400   7.624  72.063  1.00  0.00    -0.068 NA 
HETATM   42  C   UNL     1      -6.347   6.995  71.483  1.00  0.00    -0.037 A  
HETATM   43  C   UNL     1      -6.432   6.246  70.311  1.00  0.00    -0.040 A  
ENDBRANCH  28  30
ENDBRANCH  27  28
ENDBRANCH  20  22
ENDBRANCH  19  20
ENDBRANCH  18  19
ENDBRANCH  17  18
ENDBRANCH  14  17
ENDBRANCH   7  11
TORSDOF 8
ENDMDL
MODEL      251
REMARK 921   NORMALIZED FREE ENERGY PREDICTED BY IDOCK:   -2.80 KCAL/MOL
REMARK 922        TOTAL FREE ENERGY PREDICTED BY IDOCK:   -7.51 KCAL/MOL
REMARK 923 INTER-LIGAND FREE ENERGY PREDICTED BY IDOCK:   -7.73 KCAL/MOL
REMARK 924 INTRA-LIGAND FREE ENERGY PREDICTED BY IDOCK:    0.21 KCAL/MOL
REMARK 927      BINDING AFFINITY PREDICTED BY RF-SCORE:    0.00 PKD
ROOT
HETATM    1  F   UNL     1     -10.543   3.715  72.601  1.00  0.00    -0.228 F  
HETATM    2  C   UNL     1      -9.555   2.869  73.006  1.00  0.00    -0.098 C  
HETATM    3  C   UNL     1      -8.257   3.038  72.255  1.00  0.00    -0.063 A  
HETATM    4  F   UNL     1      -9.416   3.069  74.346  1.00  0.00    -0.098 F  
HETATM    5  F   UNL     1     -10.066   1.613  72.871  1.00  0.00    -0.126 F  
HETATM    6  C   UNL     1      -8.121   3.991  71.225  1.00  0.00    -0.072 A  
HETATM    7  C   UNL     1      -6.948   4.068  70.466  1.00  0.00    -0.034 A  
HETATM    8  C   UNL     1      -7.180   2.191  72.559  1.00  0.00    -0.031 A  
HETATM    9  C   UNL     1      -5.887   3.215  70.815  1.00  0.00    -0.017 A  
HETATM   10  C   UNL     1      -5.992   2.287  71.848  1.00  0.00    -0.013 A  
ENDROOT
BRANCH   7  11
HETATM   11  N   UNL     1      -6.781   4.898  69.353  1.00  0.00    -0.050 NA 
HETATM   12  C   UNL     1      -6.732   7.051  68.128  1.00  0.00    -0.064 C  
HETATM   13  C   UNL     1      -7.255   6.296  69.384  1.00  0.00    -0.082 C  
HETATM   14  N   UNL     1      -7.063   6.424  66.818  1.00  0.00    -0.071 NA 
HETATM   15  C   UNL     1      -7.094   4.202  68.083  1.00  0.00    -0.059 C  
HETATM   16  C   UNL     1      -6.565   5.022  66.883  1.00  0.00    -0.050 C  
BRANCH  14  17
HETATM   17  C   UNL     1      -8.512   6.444  66.508  1.00  0.00    -0.118 C  
BRANCH  17  18
HETATM   18  C   UNL     1      -9.241   5.085  66.632  1.00  0.00    -0.129 C  
BRANCH  18  19
HETATM   19  O   UNL     1     -10.181   5.067  67.748  1.00  0.00    -0.154 OA 
BRANCH  19  20
HETATM   20  C   UNL     1     -10.817   6.254  67.915  1.00  0.00    -0.333 C  
HETATM   21  O   UNL     1     -11.170   6.960  66.969  1.00  0.00    -0.369 OA 
BRANCH  20  22
HETATM   22  C   UNL     1     -11.115   6.666  69.329  1.00  0.00    -0.345 A  
HETATM   23  C   UNL     1     -10.901   5.613  70.253  1.00  0.00    -0.336 A  
HETATM   24  C   UNL     1     -11.139   5.766  71.612  1.00  0.00    -0.290 A  
HETATM   25  C   UNL     1     -11.587   6.990  72.085  1.00  0.00    -0.320 A  
HETATM   26  C   UNL     1     -11.794   8.050  71.196  1.00  0.00    -0.307 A  
HETATM   27  C   UNL     1     -11.576   7.923  69.806  1.00  0.00     0.357 A  
BRANCH  27  28
HETATM   28  N   UNL     1     -11.895   9.006  68.959  1.00  0.00     0.504 NA 
HETATM   29  H   UNL     1     -12.762   8.867  68.440  1.00  0.00     0.000 HD 
BRANCH  28  30
HETATM   30  C   UNL     1     -11.264  10.252  68.675  1.00  0.00    -0.208 A  
HETATM   31  C   UNL     1     -11.599  11.387  69.451  1.00  0.00    -0.391 A  
HETATM   32  C   UNL     1     -12.283  11.264  70.672  1.00  0.00    -0.489 A  
HETATM   33  C   UNL     1     -12.731  12.384  71.363  1.00  0.00    -0.346 A  
HETATM   34  C   UNL     1     -12.532  13.659  70.834  1.00  0.00    -0.448 A  
HETATM   35  C   UNL     1     -11.738  13.785  69.675  1.00  0.00    -0.379 A  
HETATM   36  C   UNL     1     -13.209  14.841  71.489  1.00  0.00    -0.356 C  
HETATM   37  C   UNL     1     -11.230  12.674  68.998  1.00  0.00    -0.269 A  
HETATM   38  F   UNL     1     -13.982  14.483  72.556  1.00  0.00    -0.478 F  
HETATM   39  F   UNL     1     -12.342  15.776  71.962  1.00  0.00    -0.367 F  
HETATM   40  F   UNL     1     -14.051  15.494  70.640  1.00  0.00    -0.330 F  
HETATM   41  N   UNL     1     -10.442  12.836  67.924  1.00  0.00    -0.215 NA 
HETATM   42  C   UNL     1     -10.010  11.724  67.276  1.00  0.00    -0.192 A  
HETATM   43  C   UNL     1     -10.408  10.428  67.596  1.00  0.00    -0.260 A  
ENDBRANCH  28  30
ENDBRANCH  27  28
ENDBRANCH  20  22
ENDBRANCH  19  20
ENDBRANCH  18  19
ENDBRANCH  17  18
ENDBRANCH  14  17
ENDBRANCH   7  11
TORSDOF 8
ENDMDL
MODEL      252
REMARK 921   NORMALIZED FREE ENERGY PREDICTED BY IDOCK:   -2.74 KCAL/MOL
REMARK 922        TOTAL FREE ENERGY PREDICTED BY IDOCK:   -7.43 KCAL/MOL
REMARK 923 INTER-LIGAND FREE ENERGY PREDICTED BY IDOCK:   -6.61 KCAL/MOL
REMARK 924 INTRA-LIGAND FREE ENERGY PREDICTED BY IDOCK:   -0.81 KCAL/MOL
REMARK 927      BINDING AFFINITY PREDICTED BY RF-SCORE:    0.00 PKD
ROOT
HETATM    1  F   UNL     1      -7.083   3.843  66.639  1.00  0.00    -0.055 F  
HETATM    2  C   UNL     1      -6.820   3.969  65.308  1.00  0.00    -0.053 C  
HETATM    3  C   UNL     1      -7.012   5.366  64.774  1.00  0.00    -0.049 A  
HETATM    4  F   UNL     1      -5.550   3.509  65.132  1.00  0.00    -0.009 F  
HETATM    5  F   UNL     1      -7.630   3.066  64.684  1.00  0.00    -0.070 F  
HETATM    6  C   UNL     1      -7.436   6.421  65.609  1.00  0.00    -0.082 A  
HETATM    7  C   UNL     1      -7.712   7.688  65.083  1.00  0.00    -0.110 A  
HETATM    8  C   UNL     1      -6.810   5.607  63.407  1.00  0.00    -0.040 A  
HETATM    9  C   UNL     1      -7.478   7.892  63.712  1.00  0.00    -0.114 A  
HETATM   10  C   UNL     1      -7.032   6.871  62.878  1.00  0.00    -0.053 A  
ENDROOT
BRANCH   7  11
HETATM   11  N   UNL     1      -8.251   8.748  65.819  1.00  0.00    -0.115 NA 
HETATM   12  C   UNL     1      -9.410  10.914  66.142  1.00  0.00    -0.186 C  
HETATM   13  C   UNL     1      -8.622  10.011  65.149  1.00  0.00    -0.158 C  
HETATM   14  N   UNL     1      -8.725  11.199  67.434  1.00  0.00    -0.132 NA 
HETATM   15  C   UNL     1      -7.545   8.954  67.105  1.00  0.00    -0.092 C  
HETATM   16  C   UNL     1      -8.375   9.878  68.027  1.00  0.00    -0.113 C  
BRANCH  14  17
HETATM   17  C   UNL     1      -7.510  12.034  67.281  1.00  0.00    -0.158 C  
BRANCH  17  18
HETATM   18  C   UNL     1      -7.516  13.370  68.060  1.00  0.00    -0.139 C  
BRANCH  18  19
HETATM   19  O   UNL     1      -6.897  14.451  67.300  1.00  0.00    -0.241 OA 
BRANCH  19  20
HETATM   20  C   UNL     1      -7.779  15.101  66.501  1.00  0.00     0.579 C  
HETATM   21  O   UNL     1      -8.577  14.511  65.770  1.00  0.00     0.734 OA 
BRANCH  20  22
HETATM   22  C   UNL     1      -7.774  16.602  66.570  1.00  0.00    -0.337 A  
HETATM   23  C   UNL     1      -6.464  17.138  66.504  1.00  0.00    -0.268 A  
HETATM   24  C   UNL     1      -6.223  18.504  66.577  1.00  0.00    -0.200 A  
HETATM   25  C   UNL     1      -7.296  19.373  66.702  1.00  0.00    -0.240 A  
HETATM   26  C   UNL     1      -8.600  18.870  66.756  1.00  0.00    -0.305 A  
HETATM   27  C   UNL     1      -8.879  17.487  66.701  1.00  0.00    -0.262 A  
BRANCH  27  28
HETATM   28  N   UNL     1     -10.211  17.048  66.854  1.00  0.00    -0.299 NA 
HETATM   29  H   UNL     1     -10.773  17.668  67.439  1.00  0.00     0.000 HD 
BRANCH  28  30
HETATM   30  C   UNL     1     -10.939  15.923  66.368  1.00  0.00    -0.115 A  
HETATM   31  C   UNL     1     -11.349  14.920  67.279  1.00  0.00    -0.355 A  
HETATM   32  C   UNL     1     -11.339  15.142  68.666  1.00  0.00    -0.322 A  
HETATM   33  C   UNL     1     -11.610  14.115  69.562  1.00  0.00    -0.349 A  
HETATM   34  C   UNL     1     -11.868  12.828  69.094  1.00  0.00    -0.352 A  
HETATM   35  C   UNL     1     -12.001  12.637  67.703  1.00  0.00    -0.309 A  
HETATM   36  C   UNL     1     -11.949  11.687  70.082  1.00  0.00    -0.359 C  
HETATM   37  C   UNL     1     -11.790  13.670  66.787  1.00  0.00    -0.413 A  
HETATM   38  F   UNL     1     -11.725  12.086  71.370  1.00  0.00     0.168 F  
HETATM   39  F   UNL     1     -13.154  11.059  70.098  1.00  0.00    -0.231 F  
HETATM   40  F   UNL     1     -11.018  10.722  69.840  1.00  0.00    -0.270 F  
HETATM   41  N   UNL     1     -11.967  13.461  65.474  1.00  0.00    -0.374 NA 
HETATM   42  C   UNL     1     -11.707  14.487  64.623  1.00  0.00    -0.431 A  
HETATM   43  C   UNL     1     -11.175  15.713  65.015  1.00  0.00    -0.335 A  
ENDBRANCH  28  30
ENDBRANCH  27  28
ENDBRANCH  20  22
ENDBRANCH  19  20
ENDBRANCH  18  19
ENDBRANCH  17  18
ENDBRANCH  14  17
ENDBRANCH   7  11
TORSDOF 8
ENDMDL
MODEL      253
REMARK 921   NORMALIZED FREE ENERGY PREDICTED BY IDOCK:   -2.61 KCAL/MOL
REMARK 922        TOTAL FREE ENERGY PREDICTED BY IDOCK:   -7.23 KCAL/MOL
REMARK 923 INTER-LIGAND FREE ENERGY PREDICTED BY IDOCK:   -5.79 KCAL/MOL
REMARK 924 INTRA-LIGAND FREE ENERGY PREDICTED BY IDOCK:   -1.44 KCAL/MOL
REMARK 927      BINDING AFFINITY PREDICTED BY RF-SCORE:    0.00 PKD
ROOT
HETATM    1  F   UNL     1      -6.814  14.586  69.105  1.00  0.00    -0.096 F  
HETATM    2  C   UNL     1      -7.694  15.439  69.700  1.00  0.00    -0.156 C  
HETATM    3  C   UNL     1      -9.080  15.404  69.107  1.00  0.00    -0.243 A  
HETATM    4  F   UNL     1      -7.681  15.126  71.026  1.00  0.00     0.750 F  
HETATM    5  F   UNL     1      -7.128  16.676  69.608  1.00  0.00    -0.232 F  
HETATM    6  C   UNL     1      -9.396  14.556  68.026  1.00  0.00    -0.201 A  
HETATM    7  C   UNL     1     -10.655  14.606  67.416  1.00  0.00    -0.265 A  
HETATM    8  C   UNL     1     -10.060  16.272  69.614  1.00  0.00    -0.175 A  
HETATM    9  C   UNL     1     -11.613  15.476  67.966  1.00  0.00    -0.276 A  
HETATM   10  C   UNL     1     -11.328  16.300  69.051  1.00  0.00    -0.301 A  
ENDROOT
BRANCH   7  11
HETATM   11  N   UNL     1     -11.005  13.890  66.267  1.00  0.00    -0.297 NA 
HETATM   12  C   UNL     1     -12.088  12.068  64.984  1.00  0.00    -0.133 C  
HETATM   13  C   UNL     1     -11.570  12.530  66.377  1.00  0.00    -0.391 C  
HETATM   14  N   UNL     1     -11.092  12.124  63.878  1.00  0.00    -0.365 NA 
HETATM   15  C   UNL     1      -9.989  14.016  65.197  1.00  0.00    -0.225 C  
HETATM   16  C   UNL     1     -10.567  13.518  63.852  1.00  0.00     0.244 C  
BRANCH  14  17
HETATM   17  C   UNL     1      -9.982  11.157  64.039  1.00  0.00    -0.323 C  
BRANCH  17  18
HETATM   18  C   UNL     1     -10.144  10.140  65.194  1.00  0.00    -0.259 C  
BRANCH  18  19
HETATM   19  O   UNL     1      -9.430  10.557  66.396  1.00  0.00    -0.164 OA 
BRANCH  19  20
HETATM   20  C   UNL     1      -9.110   9.514  67.203  1.00  0.00    -0.134 C  
HETATM   21  O   UNL     1      -9.625   8.400  67.087  1.00  0.00    -0.158 OA 
BRANCH  20  22
HETATM   22  C   UNL     1      -8.054   9.762  68.242  1.00  0.00    -0.104 A  
HETATM   23  C   UNL     1      -7.999  11.121  68.638  1.00  0.00    -0.145 A  
HETATM   24  C   UNL     1      -7.077  11.580  69.570  1.00  0.00     0.016 A  
HETATM   25  C   UNL     1      -6.193  10.679  70.144  1.00  0.00    -0.125 A  
HETATM   26  C   UNL     1      -6.235   9.330  69.780  1.00  0.00    -0.039 A  
HETATM   27  C   UNL     1      -7.149   8.833  68.824  1.00  0.00    -0.063 A  
BRANCH  27  28
HETATM   28  N   UNL     1      -7.071   7.478  68.438  1.00  0.00    -0.079 NA 
HETATM   29  H   UNL     1      -6.323   7.294  67.769  1.00  0.00     0.000 HD 
BRANCH  28  30
HETATM   30  C   UNL     1      -7.815   6.312  68.783  1.00  0.00    -0.101 A  
HETATM   31  C   UNL     1      -8.176   5.399  67.764  1.00  0.00    -0.100 A  
HETATM   32  C   UNL     1      -7.570   5.436  66.498  1.00  0.00    -0.088 A  
HETATM   33  C   UNL     1      -8.020   4.629  65.459  1.00  0.00    -0.095 A  
HETATM   34  C   UNL     1      -9.112   3.785  65.652  1.00  0.00    -0.147 A  
HETATM   35  C   UNL     1      -9.637   3.658  66.955  1.00  0.00    -0.187 A  
HETATM   36  C   UNL     1      -9.717   3.079  64.460  1.00  0.00    -0.129 C  
HETATM   37  C   UNL     1      -9.160   4.417  68.026  1.00  0.00    -0.127 A  
HETATM   38  F   UNL     1      -9.093   3.396  63.286  1.00  0.00    -0.092 F  
HETATM   39  F   UNL     1      -9.672   1.724  64.544  1.00  0.00    -0.134 F  
HETATM   40  F   UNL     1     -11.025   3.408  64.270  1.00  0.00    -0.201 F  
HETATM   41  N   UNL     1      -9.654   4.237  69.260  1.00  0.00    -0.185 NA 
HETATM   42  C   UNL     1      -9.187   5.031  70.257  1.00  0.00    -0.139 A  
HETATM   43  C   UNL     1      -8.296   6.084  70.066  1.00  0.00    -0.123 A  
ENDBRANCH  28  30
ENDBRANCH  27  28
ENDBRANCH  20  22
ENDBRANCH  19  20
ENDBRANCH  18  19
ENDBRANCH  17  18
ENDBRANCH  14  17
ENDBRANCH   7  11
TORSDOF 8
ENDMDL
MODEL      254
REMARK 921   NORMALIZED FREE ENERGY PREDICTED BY IDOCK:   -2.47 KCAL/MOL
REMARK 922        TOTAL FREE ENERGY PREDICTED BY IDOCK:   -7.02 KCAL/MOL
REMARK 923 INTER-LIGAND FREE ENERGY PREDICTED BY IDOCK:   -5.30 KCAL/MOL
REMARK 924 INTRA-LIGAND FREE ENERGY PREDICTED BY IDOCK:   -1.72 KCAL/MOL
REMARK 927      BINDING AFFINITY PREDICTED BY RF-SCORE:    0.00 PKD
ROOT
HETATM    1  F   UNL     1      -9.761   9.408  69.553  1.00  0.00    -0.158 F  
HETATM    2  C   UNL     1      -8.988   9.115  70.635  1.00  0.00    -0.244 C  
HETATM    3  C   UNL     1      -8.247   7.805  70.523  1.00  0.00    -0.120 A  
HETATM    4  F   UNL     1      -8.152  10.178  70.797  1.00  0.00    -0.003 F  
HETATM    5  F   UNL     1      -9.829   9.138  71.707  1.00  0.00    -0.357 F  
HETATM    6  C   UNL     1      -8.378   6.981  69.386  1.00  0.00    -0.133 A  
HETATM    7  C   UNL     1      -7.770   5.721  69.337  1.00  0.00    -0.092 A  
HETATM    8  C   UNL     1      -7.451   7.380  71.597  1.00  0.00    -0.084 A  
HETATM    9  C   UNL     1      -6.965   5.341  70.425  1.00  0.00    -0.056 A  
HETATM   10  C   UNL     1      -6.801   6.154  71.544  1.00  0.00    -0.067 A  
ENDROOT
BRANCH   7  11
HETATM   11  N   UNL     1      -7.950   4.797  68.303  1.00  0.00    -0.085 NA 
HETATM   12  C   UNL     1      -7.362   3.599  66.216  1.00  0.00    -0.076 C  
HETATM   13  C   UNL     1      -7.126   4.871  67.081  1.00  0.00    -0.066 C  
HETATM   14  N   UNL     1      -8.781   3.317  65.863  1.00  0.00    -0.121 NA 
HETATM   15  C   UNL     1      -9.383   4.539  68.027  1.00  0.00    -0.140 C  
HETATM   16  C   UNL     1      -9.536   3.277  67.146  1.00  0.00    -0.043 C  
BRANCH  14  17
HETATM   17  C   UNL     1      -9.369   4.325  64.950  1.00  0.00    -0.165 C  
BRANCH  17  18
HETATM   18  C   UNL     1      -8.367   5.321  64.320  1.00  0.00    -0.134 C  
BRANCH  18  19
HETATM   19  O   UNL     1      -8.976   6.620  64.057  1.00  0.00     0.666 OA 
BRANCH  19  20
HETATM   20  C   UNL     1      -8.657   7.548  64.994  1.00  0.00     0.089 C  
HETATM   21  O   UNL     1      -9.230   7.619  66.083  1.00  0.00    -0.171 OA 
BRANCH  20  22
HETATM   22  C   UNL     1      -7.527   8.481  64.663  1.00  0.00    -0.096 A  
HETATM   23  C   UNL     1      -6.461   7.821  64.003  1.00  0.00    -0.057 A  
HETATM   24  C   UNL     1      -5.302   8.487  63.627  1.00  0.00    -0.058 A  
HETATM   25  C   UNL     1      -5.188   9.844  63.891  1.00  0.00    -0.082 A  
HETATM   26  C   UNL     1      -6.232  10.522  64.530  1.00  0.00    -0.007 A  
HETATM   27  C   UNL     1      -7.417   9.871  64.939  1.00  0.00    -0.135 A  
BRANCH  27  28
HETATM   28  N   UNL     1      -8.386  10.598  65.661  1.00  0.00    -0.164 NA 
HETATM   29  H   UNL     1      -8.214  10.609  66.667  1.00  0.00     0.000 HD 
BRANCH  28  30
HETATM   30  C   UNL     1      -9.555  11.323  65.285  1.00  0.00    -0.232 A  
HETATM   31  C   UNL     1      -9.754  12.626  65.800  1.00  0.00    -0.183 A  
HETATM   32  C   UNL     1      -8.709  13.341  66.407  1.00  0.00     0.198 A  
HETATM   33  C   UNL     1      -8.939  14.561  67.032  1.00  0.00    -0.258 A  
HETATM   34  C   UNL     1     -10.229  15.084  67.094  1.00  0.00    -0.249 A  
HETATM   35  C   UNL     1     -11.251  14.427  66.378  1.00  0.00    -0.345 A  
HETATM   36  C   UNL     1     -10.492  16.297  67.957  1.00  0.00    -0.293 C  
HETATM   37  C   UNL     1     -11.028  13.230  65.694  1.00  0.00    -0.277 A  
HETATM   38  F   UNL     1      -9.375  16.730  68.613  1.00  0.00    -0.218 F  
HETATM   39  F   UNL     1     -10.952  17.373  67.266  1.00  0.00    -0.295 F  
HETATM   40  F   UNL     1     -11.408  16.050  68.935  1.00  0.00    -0.289 F  
HETATM   41  N   UNL     1     -12.015  12.656  64.987  1.00  0.00    -0.395 NA 
HETATM   42  C   UNL     1     -11.757  11.472  64.377  1.00  0.00    -0.050 A  
HETATM   43  C   UNL     1     -10.566  10.763  64.514  1.00  0.00    -0.258 A  
ENDBRANCH  28  30
ENDBRANCH  27  28
ENDBRANCH  20  22
ENDBRANCH  19  20
ENDBRANCH  18  19
ENDBRANCH  17  18
ENDBRANCH  14  17
ENDBRANCH   7  11
TORSDOF 8
ENDMDL
MODEL      255
REMARK 921   NORMALIZED FREE ENERGY PREDICTED BY IDOCK:   -2.38 KCAL/MOL
REMARK 922        TOTAL FREE ENERGY PREDICTED BY IDOCK:   -6.89 KCAL/MOL
REMARK 923 INTER-LIGAND FREE ENERGY PREDICTED BY IDOCK:   -6.51 KCAL/MOL
REMARK 924 INTRA-LIGAND FREE ENERGY PREDICTED BY IDOCK:   -0.38 KCAL/MOL
REMARK 927      BINDING AFFINITY PREDICTED BY RF-SCORE:    0.00 PKD
ROOT
HETATM    1  F   UNL     1      -7.836  17.956  65.899  1.00  0.00    -0.280 F  
HETATM    2  C   UNL     1      -7.020  17.782  66.976  1.00  0.00    -0.176 C  
HETATM    3  C   UNL     1      -7.179  16.446  67.657  1.00  0.00    -0.156 A  
HETATM    4  F   UNL     1      -5.752  17.994  66.524  1.00  0.00    -0.150 F  
HETATM    5  F   UNL     1      -7.291  18.821  67.816  1.00  0.00    -0.225 F  
HETATM    6  C   UNL     1      -8.107  15.490  67.194  1.00  0.00    -0.249 A  
HETATM    7  C   UNL     1      -8.321  14.297  67.894  1.00  0.00    -0.162 A  
HETATM    8  C   UNL     1      -6.419  16.171  68.804  1.00  0.00    -0.122 A  
HETATM    9  C   UNL     1      -7.525  14.053  69.027  1.00  0.00    -0.060 A  
HETATM   10  C   UNL     1      -6.583  14.972  69.482  1.00  0.00    -0.155 A  
ENDROOT
BRANCH   7  11
HETATM   11  N   UNL     1      -9.306  13.358  67.572  1.00  0.00    -0.209 NA 
HETATM   12  C   UNL     1     -10.951  11.563  68.030  1.00  0.00    -0.231 C  
HETATM   13  C   UNL     1      -9.684  12.309  68.540  1.00  0.00    -0.138 C  
HETATM   14  N   UNL     1     -10.849  10.987  66.661  1.00  0.00    -0.252 NA 
HETATM   15  C   UNL     1      -9.165  12.852  66.187  1.00  0.00    -0.014 C  
HETATM   16  C   UNL     1     -10.451  12.105  65.760  1.00  0.00    -0.253 C  
BRANCH  14  17
HETATM   17  C   UNL     1      -9.876   9.874  66.564  1.00  0.00    -0.215 C  
BRANCH  17  18
HETATM   18  C   UNL     1      -8.865   9.767  67.729  1.00  0.00    -0.129 C  
BRANCH  18  19
HETATM   19  O   UNL     1      -8.889   8.451  68.359  1.00  0.00    -0.139 OA 
BRANCH  19  20
HETATM   20  C   UNL     1      -8.500   8.485  69.658  1.00  0.00    -0.130 C  
HETATM   21  O   UNL     1      -7.695   9.312  70.091  1.00  0.00    -0.088 OA 
BRANCH  20  22
HETATM   22  C   UNL     1      -9.131   7.480  70.579  1.00  0.00    -0.156 A  
HETATM   23  C   UNL     1      -9.331   7.996  71.883  1.00  0.00    -0.225 A  
HETATM   24  C   UNL     1      -9.878   7.229  72.903  1.00  0.00    -0.240 A  
HETATM   25  C   UNL     1     -10.255   5.922  72.636  1.00  0.00    -0.209 A  
HETATM   26  C   UNL     1     -10.081   5.392  71.354  1.00  0.00    -0.262 A  
HETATM   27  C   UNL     1      -9.514   6.140  70.298  1.00  0.00    -0.160 A  
BRANCH  27  28
HETATM   28  N   UNL     1      -9.284   5.510  69.057  1.00  0.00    -0.117 NA 
HETATM   29  H   UNL     1      -9.370   6.145  68.262  1.00  0.00     0.000 HD 
BRANCH  28  30
HETATM   30  C   UNL     1      -8.956   4.176  68.675  1.00  0.00    -0.114 A  
HETATM   31  C   UNL     1      -9.126   3.784  67.326  1.00  0.00    -0.181 A  
HETATM   32  C   UNL     1      -9.304   4.731  66.304  1.00  0.00    -0.149 A  
HETATM   33  C   UNL     1      -9.606   4.341  65.005  1.00  0.00    -0.179 A  
HETATM   34  C   UNL     1      -9.770   2.991  64.699  1.00  0.00    -0.106 A  
HETATM   35  C   UNL     1      -9.469   2.040  65.696  1.00  0.00     0.176 A  
HETATM   36  C   UNL     1     -10.305   2.603  63.340  1.00  0.00    -0.183 C  
HETATM   37  C   UNL     1      -9.107   2.410  66.992  1.00  0.00    -0.122 A  
HETATM   38  F   UNL     1     -10.592   3.686  62.556  1.00  0.00    -0.152 F  
HETATM   39  F   UNL     1      -9.449   1.840  62.611  1.00  0.00    -0.087 F  
HETATM   40  F   UNL     1     -11.470   1.902  63.420  1.00  0.00    -0.259 F  
HETATM   41  N   UNL     1      -8.785   1.477  67.901  1.00  0.00    -0.083 NA 
HETATM   42  C   UNL     1      -8.482   1.888  69.159  1.00  0.00    -0.055 A  
HETATM   43  C   UNL     1      -8.575   3.208  69.595  1.00  0.00    -0.113 A  
ENDBRANCH  28  30
ENDBRANCH  27  28
ENDBRANCH  20  22
ENDBRANCH  19  20
ENDBRANCH  18  19
ENDBRANCH  17  18
ENDBRANCH  14  17
ENDBRANCH   7  11
TORSDOF 8
ENDMDL
MODEL      256
REMARK 921   NORMALIZED FREE ENERGY PREDICTED BY IDOCK:   -2.35 KCAL/MOL
REMARK 922        TOTAL FREE ENERGY PREDICTED BY IDOCK:   -6.85 KCAL/MOL
REMARK 923 INTER-LIGAND FREE ENERGY PREDICTED BY IDOCK:   -8.38 KCAL/MOL
REMARK 924 INTRA-LIGAND FREE ENERGY PREDICTED BY IDOCK:    1.52 KCAL/MOL
REMARK 927      BINDING AFFINITY PREDICTED BY RF-SCORE:    0.00 PKD
ROOT
HETATM    1  F   UNL     1     -12.042  11.899  65.778  1.00  0.00    -0.370 F  
HETATM    2  C   UNL     1     -11.681  12.031  64.471  1.00  0.00    -0.305 C  
HETATM    3  C   UNL     1     -10.545  11.131  64.054  1.00  0.00    -0.436 A  
HETATM    4  F   UNL     1     -12.815  11.817  63.746  1.00  0.00    -0.557 F  
HETATM    5  F   UNL     1     -11.379  13.350  64.302  1.00  0.00    -0.353 F  
HETATM    6  C   UNL     1      -9.930  10.251  64.968  1.00  0.00    -0.393 A  
HETATM    7  C   UNL     1      -8.810   9.497  64.600  1.00  0.00    -0.213 A  
HETATM    8  C   UNL     1     -10.061  11.210  62.739  1.00  0.00    -0.136 A  
HETATM    9  C   UNL     1      -8.369   9.591  63.268  1.00  0.00    -0.181 A  
HETATM   10  C   UNL     1      -8.981  10.433  62.343  1.00  0.00    -0.297 A  
ENDROOT
BRANCH   7  11
HETATM   11  N   UNL     1      -8.072   8.698  65.478  1.00  0.00    -0.107 NA 
HETATM   12  C   UNL     1      -7.649   6.744  66.941  1.00  0.00    -0.091 C  
HETATM   13  C   UNL     1      -8.729   7.616  66.237  1.00  0.00    -0.152 C  
HETATM   14  N   UNL     1      -6.698   7.483  67.817  1.00  0.00    -0.064 NA 
HETATM   15  C   UNL     1      -7.123   9.492  66.294  1.00  0.00    -0.092 C  
HETATM   16  C   UNL     1      -6.098   8.558  66.978  1.00  0.00    -0.055 C  
BRANCH  14  17
HETATM   17  C   UNL     1      -7.339   8.064  69.020  1.00  0.00    -0.084 C  
BRANCH  17  18
HETATM   18  C   UNL     1      -7.624   9.583  68.957  1.00  0.00    -0.075 C  
BRANCH  18  19
HETATM   19  O   UNL     1      -6.529  10.370  69.516  1.00  0.00    -0.050 OA 
BRANCH  19  20
HETATM   20  C   UNL     1      -6.842  11.684  69.644  1.00  0.00    -0.006 C  
HETATM   21  O   UNL     1      -6.110  12.489  70.223  1.00  0.00    -0.149 OA 
BRANCH  20  22
HETATM   22  C   UNL     1      -8.124  12.138  69.006  1.00  0.00     0.245 A  
HETATM   23  C   UNL     1      -9.145  11.160  69.096  1.00  0.00     0.048 A  
HETATM   24  C   UNL     1     -10.406  11.359  68.550  1.00  0.00    -0.219 A  
HETATM   25  C   UNL     1     -10.682  12.557  67.909  1.00  0.00    -0.239 A  
HETATM   26  C   UNL     1      -9.695  13.545  67.817  1.00  0.00    -0.226 A  
HETATM   27  C   UNL     1      -8.398  13.368  68.349  1.00  0.00    -0.137 A  
BRANCH  27  28
HETATM   28  N   UNL     1      -7.427  14.369  68.137  1.00  0.00    -0.115 NA 
HETATM   29  H   UNL     1      -6.816  14.175  67.343  1.00  0.00     0.000 HD 
BRANCH  28  30
HETATM   30  C   UNL     1      -7.118  15.595  68.796  1.00  0.00    -0.127 A  
HETATM   31  C   UNL     1      -7.785  16.778  68.399  1.00  0.00    -0.208 A  
HETATM   32  C   UNL     1      -8.946  16.735  67.611  1.00  0.00    -0.210 A  
HETATM   33  C   UNL     1      -9.520  17.898  67.109  1.00  0.00    -0.263 A  
HETATM   34  C   UNL     1      -8.928  19.135  67.359  1.00  0.00    -0.328 A  
HETATM   35  C   UNL     1      -7.838  19.185  68.252  1.00  0.00    -0.351 A  
HETATM   36  C   UNL     1      -9.442  20.357  66.633  1.00  0.00    -0.305 C  
HETATM   37  C   UNL     1      -7.282  18.033  68.813  1.00  0.00    -0.278 A  
HETATM   38  F   UNL     1     -10.459  20.069  65.767  1.00  0.00    -0.543 F  
HETATM   39  F   UNL     1      -9.927  21.322  67.459  1.00  0.00    -0.568 F  
HETATM   40  F   UNL     1      -8.482  20.952  65.871  1.00  0.00     0.221 F  
HETATM   41  N   UNL     1      -6.273  18.124  69.692  1.00  0.00    -0.238 NA 
HETATM   42  C   UNL     1      -5.740  16.973  70.174  1.00  0.00    -0.212 A  
HETATM   43  C   UNL     1      -6.108  15.700  69.744  1.00  0.00    -0.160 A  
ENDBRANCH  28  30
ENDBRANCH  27  28
ENDBRANCH  20  22
ENDBRANCH  19  20
ENDBRANCH  18  19
ENDBRANCH  17  18
ENDBRANCH  14  17
ENDBRANCH   7  11
TORSDOF 8
ENDMDL
MODEL      257
REMARK 921   NORMALIZED FREE ENERGY PREDICTED BY IDOCK:   -2.28 KCAL/MOL
REMARK 922        TOTAL FREE ENERGY PREDICTED BY IDOCK:   -6.74 KCAL/MOL
REMARK 923 INTER-LIGAND FREE ENERGY PREDICTED BY IDOCK:   -6.25 KCAL/MOL
REMARK 924 INTRA-LIGAND FREE ENERGY PREDICTED BY IDOCK:   -0.50 KCAL/MOL
REMARK 927      BINDING AFFINITY PREDICTED BY RF-SCORE:    0.00 PKD
ROOT
HETATM    1  F   UNL     1     -11.396  19.548  65.409  1.00  0.00    -0.263 F  
HETATM    2  C   UNL     1     -11.009  19.704  66.706  1.00  0.00    -0.260 C  
HETATM    3  C   UNL     1     -10.835  18.405  67.454  1.00  0.00    -0.306 A  
HETATM    4  F   UNL     1      -9.868  20.447  66.671  1.00  0.00    -0.510 F  
HETATM    5  F   UNL     1     -11.953  20.502  67.279  1.00  0.00     1.164 F  
HETATM    6  C   UNL     1     -11.070  17.161  66.832  1.00  0.00     0.287 A  
HETATM    7  C   UNL     1     -11.007  15.969  67.562  1.00  0.00    -0.261 A  
HETATM    8  C   UNL     1     -10.479  18.443  68.810  1.00  0.00    -0.081 A  
HETATM    9  C   UNL     1     -10.628  16.049  68.914  1.00  0.00    -0.257 A  
HETATM   10  C   UNL     1     -10.365  17.266  69.537  1.00  0.00    -0.068 A  
ENDROOT
BRANCH   7  11
HETATM   11  N   UNL     1     -11.344  14.711  67.052  1.00  0.00    -0.345 NA 
HETATM   12  C   UNL     1     -11.191  12.248  66.829  1.00  0.00    -0.318 C  
HETATM   13  C   UNL     1     -10.468  13.547  67.290  1.00  0.00    -0.248 C  
HETATM   14  N   UNL     1     -11.673  12.249  65.420  1.00  0.00    -0.378 NA 
HETATM   15  C   UNL     1     -11.847  14.789  65.660  1.00  0.00    -0.212 C  
HETATM   16  C   UNL     1     -12.530  13.457  65.266  1.00  0.00    -0.483 C  
BRANCH  14  17
HETATM   17  C   UNL     1     -10.576  12.264  64.424  1.00  0.00    -0.327 C  
BRANCH  17  18
HETATM   18  C   UNL     1      -9.966  10.884  64.081  1.00  0.00    -0.344 C  
BRANCH  18  19
HETATM   19  O   UNL     1      -9.046  10.419  65.113  1.00  0.00    -0.174 OA 
BRANCH  19  20
HETATM   20  C   UNL     1      -8.782   9.092  65.018  1.00  0.00    -0.183 C  
HETATM   21  O   UNL     1      -9.486   8.232  65.553  1.00  0.00     0.022 OA 
BRANCH  20  22
HETATM   22  C   UNL     1      -7.594   8.697  64.187  1.00  0.00    -0.121 A  
HETATM   23  C   UNL     1      -7.176   9.737  63.320  1.00  0.00    -0.121 A  
HETATM   24  C   UNL     1      -6.111   9.580  62.442  1.00  0.00    -0.096 A  
HETATM   25  C   UNL     1      -5.425   8.376  62.423  1.00  0.00    -0.071 A  
HETATM   26  C   UNL     1      -5.809   7.338  63.278  1.00  0.00    -0.041 A  
HETATM   27  C   UNL     1      -6.897   7.459  64.171  1.00  0.00    -0.052 A  
BRANCH  27  28
HETATM   28  N   UNL     1      -7.285   6.339  64.937  1.00  0.00    -0.064 NA 
HETATM   29  H   UNL     1      -7.967   5.746  64.463  1.00  0.00     0.000 HD 
BRANCH  28  30
HETATM   30  C   UNL     1      -6.926   5.859  66.231  1.00  0.00    -0.063 A  
HETATM   31  C   UNL     1      -7.907   5.834  67.252  1.00  0.00    -0.102 A  
HETATM   32  C   UNL     1      -9.274   5.966  66.959  1.00  0.00    -0.120 A  
HETATM   33  C   UNL     1     -10.220   6.079  67.971  1.00  0.00    -0.218 A  
HETATM   34  C   UNL     1      -9.819   6.093  69.306  1.00  0.00    -0.182 A  
HETATM   35  C   UNL     1      -8.464   5.834  69.598  1.00  0.00    -0.112 A  
HETATM   36  C   UNL     1     -10.833   6.428  70.376  1.00  0.00    -0.286 C  
HETATM   37  C   UNL     1      -7.506   5.661  68.597  1.00  0.00    -0.084 A  
HETATM   38  F   UNL     1     -12.068   6.708  69.864  1.00  0.00    -0.401 F  
HETATM   39  F   UNL     1     -11.028   5.430  71.278  1.00  0.00    -0.303 F  
HETATM   40  F   UNL     1     -10.485   7.532  71.094  1.00  0.00    -0.204 F  
HETATM   41  N   UNL     1      -6.234   5.374  68.914  1.00  0.00    -0.032 NA 
HETATM   42  C   UNL     1      -5.335   5.258  67.904  1.00  0.00    -0.011 A  
HETATM   43  C   UNL     1      -5.624   5.511  66.566  1.00  0.00    -0.017 A  
ENDBRANCH  28  30
ENDBRANCH  27  28
ENDBRANCH  20  22
ENDBRANCH  19  20
ENDBRANCH  18  19
ENDBRANCH  17  18
ENDBRANCH  14  17
ENDBRANCH   7  11
TORSDOF 8
ENDMDL
MODEL      258
REMARK 921   NORMALIZED FREE ENERGY PREDICTED BY IDOCK:   -2.18 KCAL/MOL
REMARK 922        TOTAL FREE ENERGY PREDICTED BY IDOCK:   -6.60 KCAL/MOL
REMARK 923 INTER-LIGAND FREE ENERGY PREDICTED BY IDOCK:   -6.57 KCAL/MOL
REMARK 924 INTRA-LIGAND FREE ENERGY PREDICTED BY IDOCK:   -0.03 KCAL/MOL
REMARK 927      BINDING AFFINITY PREDICTED BY RF-SCORE:    0.00 PKD
ROOT
HETATM    1  F   UNL     1     -10.913  16.050  70.349  1.00  0.00    -0.286 F  
HETATM    2  C   UNL     1     -10.712  16.743  69.194  1.00  0.00    -0.329 C  
HETATM    3  C   UNL     1      -9.582  16.211  68.348  1.00  0.00    -0.209 A  
HETATM    4  F   UNL     1     -11.907  16.735  68.539  1.00  0.00    -0.137 F  
HETATM    5  F   UNL     1     -10.507  18.037  69.570  1.00  0.00    -0.295 F  
HETATM    6  C   UNL     1      -8.818  15.099  68.757  1.00  0.00    -0.196 A  
HETATM    7  C   UNL     1      -7.706  14.678  68.018  1.00  0.00    -0.132 A  
HETATM    8  C   UNL     1      -9.256  16.872  67.154  1.00  0.00    -0.238 A  
HETATM    9  C   UNL     1      -7.426  15.355  66.818  1.00  0.00     0.106 A  
HETATM   10  C   UNL     1      -8.186  16.437  66.384  1.00  0.00    -0.366 A  
ENDROOT
BRANCH   7  11
HETATM   11  N   UNL     1      -6.828  13.666  68.418  1.00  0.00    -0.091 NA 
HETATM   12  C   UNL     1      -5.307  11.737  68.095  1.00  0.00    -0.044 C  
HETATM   13  C   UNL     1      -6.468  12.578  67.488  1.00  0.00    -0.153 C  
HETATM   14  N   UNL     1      -5.556  11.188  69.457  1.00  0.00    -0.042 NA 
HETATM   15  C   UNL     1      -7.112  13.190  69.793  1.00  0.00     0.487 C  
HETATM   16  C   UNL     1      -5.927  12.346  70.318  1.00  0.00    -0.132 C  
BRANCH  14  17
HETATM   17  C   UNL     1      -6.622  10.160  69.488  1.00  0.00    -0.060 C  
BRANCH  17  18
HETATM   18  C   UNL     1      -6.134   8.692  69.518  1.00  0.00    -0.033 C  
BRANCH  18  19
HETATM   19  O   UNL     1      -5.702   8.231  68.203  1.00  0.00    -0.033 OA 
BRANCH  19  20
HETATM   20  C   UNL     1      -6.484   8.703  67.200  1.00  0.00    -0.058 C  
HETATM   21  O   UNL     1      -6.088   9.537  66.383  1.00  0.00    -0.058 OA 
BRANCH  20  22
HETATM   22  C   UNL     1      -7.869   8.132  67.097  1.00  0.00    -0.101 A  
HETATM   23  C   UNL     1      -7.877   6.844  66.505  1.00  0.00    -0.106 A  
HETATM   24  C   UNL     1      -9.054   6.140  66.288  1.00  0.00    -0.165 A  
HETATM   25  C   UNL     1     -10.259   6.705  66.676  1.00  0.00    -0.208 A  
HETATM   26  C   UNL     1     -10.278   7.969  67.275  1.00  0.00    -0.345 A  
HETATM   27  C   UNL     1      -9.101   8.718  67.495  1.00  0.00    -0.133 A  
BRANCH  27  28
HETATM   28  N   UNL     1      -9.206  10.024  68.019  1.00  0.00    -0.134 NA 
HETATM   29  H   UNL     1      -8.300  10.464  68.185  1.00  0.00     0.000 HD 
BRANCH  28  30
HETATM   30  C   UNL     1     -10.308  10.861  68.364  1.00  0.00    -0.178 A  
HETATM   31  C   UNL     1     -10.671  11.916  67.493  1.00  0.00    -0.263 A  
HETATM   32  C   UNL     1     -10.196  11.973  66.173  1.00  0.00    -0.255 A  
HETATM   33  C   UNL     1     -10.443  13.077  65.365  1.00  0.00    -0.308 A  
HETATM   34  C   UNL     1     -11.148  14.169  65.869  1.00  0.00    -0.306 A  
HETATM   35  C   UNL     1     -11.730  14.055  67.148  1.00  0.00    -0.421 A  
HETATM   36  C   UNL     1     -11.222  15.438  65.051  1.00  0.00    -0.387 C  
HETATM   37  C   UNL     1     -11.542  12.930  67.954  1.00  0.00    -0.345 A  
HETATM   38  F   UNL     1     -10.533  15.349  63.874  1.00  0.00     0.535 F  
HETATM   39  F   UNL     1     -12.487  15.798  64.710  1.00  0.00     0.077 F  
HETATM   40  F   UNL     1     -10.682  16.507  65.701  1.00  0.00    -0.342 F  
HETATM   41  N   UNL     1     -12.147  12.840  69.148  1.00  0.00    -0.223 NA 
HETATM   42  C   UNL     1     -11.896  11.745  69.910  1.00  0.00    -0.348 A  
HETATM   43  C   UNL     1     -10.978  10.753  69.575  1.00  0.00    -0.317 A  
ENDBRANCH  28  30
ENDBRANCH  27  28
ENDBRANCH  20  22
ENDBRANCH  19  20
ENDBRANCH  18  19
ENDBRANCH  17  18
ENDBRANCH  14  17
ENDBRANCH   7  11
TORSDOF 8
ENDMDL
MODEL      259
REMARK 921   NORMALIZED FREE ENERGY PREDICTED BY IDOCK:   -2.14 KCAL/MOL
REMARK 922        TOTAL FREE ENERGY PREDICTED BY IDOCK:   -6.55 KCAL/MOL
REMARK 923 INTER-LIGAND FREE ENERGY PREDICTED BY IDOCK:   -6.67 KCAL/MOL
REMARK 924 INTRA-LIGAND FREE ENERGY PREDICTED BY IDOCK:    0.13 KCAL/MOL
REMARK 927      BINDING AFFINITY PREDICTED BY RF-SCORE:    0.00 PKD
ROOT
HETATM    1  F   UNL     1     -11.387  16.801  72.363  1.00  0.00    -0.353 F  
HETATM    2  C   UNL     1     -12.302  16.031  73.015  1.00  0.00    -0.520 C  
HETATM    3  C   UNL     1     -12.579  14.708  72.345  1.00  0.00    -0.410 A  
HETATM    4  F   UNL     1     -11.835  15.888  74.286  1.00  0.00    -0.467 F  
HETATM    5  F   UNL     1     -13.424  16.799  73.118  1.00  0.00    -0.094 F  
HETATM    6  C   UNL     1     -11.934  14.342  71.145  1.00  0.00    -0.354 A  
HETATM    7  C   UNL     1     -12.275  13.160  70.477  1.00  0.00    -0.328 A  
HETATM    8  C   UNL     1     -13.537  13.849  72.904  1.00  0.00    -0.283 A  
HETATM    9  C   UNL     1     -13.225  12.318  71.081  1.00  0.00     0.044 A  
HETATM   10  C   UNL     1     -13.851  12.650  72.280  1.00  0.00    -0.310 A  
ENDROOT
BRANCH   7  11
HETATM   11  N   UNL     1     -11.773  12.787  69.226  1.00  0.00    -0.307 NA 
HETATM   12  C   UNL     1     -11.469  11.304  67.265  1.00  0.00    -0.186 C  
HETATM   13  C   UNL     1     -11.880  11.389  68.764  1.00  0.00    -0.323 C  
HETATM   14  N   UNL     1     -10.124  11.852  66.937  1.00  0.00    -0.206 NA 
HETATM   15  C   UNL     1     -10.449  13.394  68.951  1.00  0.00    -0.113 C  
HETATM   16  C   UNL     1     -10.100  13.250  67.451  1.00  0.00    -0.233 C  
BRANCH  14  17
HETATM   17  C   UNL     1      -9.012  11.067  67.523  1.00  0.00    -0.137 C  
BRANCH  17  18
HETATM   18  C   UNL     1      -9.400  10.124  68.685  1.00  0.00    -0.161 C  
BRANCH  18  19
HETATM   19  O   UNL     1      -8.387  10.101  69.735  1.00  0.00    -0.175 OA 
BRANCH  19  20
HETATM   20  C   UNL     1      -7.128   9.986  69.245  1.00  0.00    -0.074 C  
HETATM   21  O   UNL     1      -6.505   8.922  69.251  1.00  0.00    -0.041 OA 
BRANCH  20  22
HETATM   22  C   UNL     1      -6.521  11.222  68.645  1.00  0.00    -0.050 A  
HETATM   23  C   UNL     1      -6.827  12.387  69.392  1.00  0.00     0.021 A  
HETATM   24  C   UNL     1      -6.389  13.647  69.004  1.00  0.00    -0.102 A  
HETATM   25  C   UNL     1      -5.616  13.769  67.859  1.00  0.00    -0.105 A  
HETATM   26  C   UNL     1      -5.288  12.633  67.111  1.00  0.00     0.089 A  
HETATM   27  C   UNL     1      -5.730  11.340  67.470  1.00  0.00    -0.050 A  
BRANCH  27  28
HETATM   28  N   UNL     1      -5.440  10.254  66.617  1.00  0.00    -0.045 NA 
HETATM   29  H   UNL     1      -4.777   9.592  67.022  1.00  0.00     0.000 HD 
BRANCH  28  30
HETATM   30  C   UNL     1      -5.874   9.885  65.311  1.00  0.00    -0.078 A  
HETATM   31  C   UNL     1      -6.655   8.715  65.150  1.00  0.00    -0.064 A  
HETATM   32  C   UNL     1      -7.271   8.089  66.245  1.00  0.00    -0.071 A  
HETATM   33  C   UNL     1      -7.922   6.868  66.105  1.00  0.00    -0.110 A  
HETATM   34  C   UNL     1      -7.946   6.226  64.869  1.00  0.00    -0.124 A  
HETATM   35  C   UNL     1      -7.437   6.915  63.748  1.00  0.00    -0.091 A  
HETATM   36  C   UNL     1      -8.469   4.810  64.784  1.00  0.00    -0.141 C  
HETATM   37  C   UNL     1      -6.831   8.168  63.858  1.00  0.00    -0.074 A  
HETATM   38  F   UNL     1      -8.849   4.314  66.000  1.00  0.00    -0.115 F  
HETATM   39  F   UNL     1      -9.554   4.673  63.977  1.00  0.00    -0.134 F  
HETATM   40  F   UNL     1      -7.533   3.937  64.319  1.00  0.00    -0.062 F  
HETATM   41  N   UNL     1      -6.398   8.812  62.763  1.00  0.00    -0.091 NA 
HETATM   42  C   UNL     1      -5.777  10.007  62.930  1.00  0.00    -0.112 A  
HETATM   43  C   UNL     1      -5.475  10.566  64.169  1.00  0.00    -0.134 A  
ENDBRANCH  28  30
ENDBRANCH  27  28
ENDBRANCH  20  22
ENDBRANCH  19  20
ENDBRANCH  18  19
ENDBRANCH  17  18
ENDBRANCH  14  17
ENDBRANCH   7  11
TORSDOF 8
ENDMDL
MODEL      260
REMARK 921   NORMALIZED FREE ENERGY PREDICTED BY IDOCK:   -2.06 KCAL/MOL
REMARK 922        TOTAL FREE ENERGY PREDICTED BY IDOCK:   -6.42 KCAL/MOL
REMARK 923 INTER-LIGAND FREE ENERGY PREDICTED BY IDOCK:   -5.73 KCAL/MOL
REMARK 924 INTRA-LIGAND FREE ENERGY PREDICTED BY IDOCK:   -0.69 KCAL/MOL
REMARK 927      BINDING AFFINITY PREDICTED BY RF-SCORE:    0.00 PKD
ROOT
HETATM    1  F   UNL     1     -11.324   6.243  69.170  1.00  0.00    -0.391 F  
HETATM    2  C   UNL     1     -10.045   5.777  69.225  1.00  0.00    -0.205 C  
HETATM    3  C   UNL     1      -9.099   6.467  68.273  1.00  0.00    -0.114 A  
HETATM    4  F   UNL     1      -9.658   5.895  70.526  1.00  0.00    -0.172 F  
HETATM    5  F   UNL     1     -10.128   4.438  68.984  1.00  0.00    -0.243 F  
HETATM    6  C   UNL     1      -9.541   7.492  67.411  1.00  0.00    -0.187 A  
HETATM    7  C   UNL     1      -8.682   8.053  66.460  1.00  0.00    -0.146 A  
HETATM    8  C   UNL     1      -7.764   6.042  68.212  1.00  0.00    -0.102 A  
HETATM    9  C   UNL     1      -7.347   7.612  66.445  1.00  0.00    -0.079 A  
HETATM   10  C   UNL     1      -6.885   6.621  67.307  1.00  0.00    -0.072 A  
ENDROOT
BRANCH   7  11
HETATM   11  N   UNL     1      -9.074   8.982  65.491  1.00  0.00    -0.218 NA 
HETATM   12  C   UNL     1      -8.791  10.412  63.487  1.00  0.00    -0.212 C  
HETATM   13  C   UNL     1      -8.070   9.619  64.615  1.00  0.00    -0.141 C  
HETATM   14  N   UNL     1      -9.785  11.421  63.948  1.00  0.00    -0.265 NA 
HETATM   15  C   UNL     1     -10.087   9.933  66.006  1.00  0.00    -0.244 C  
HETATM   16  C   UNL     1     -10.742  10.699  64.832  1.00  0.00    -0.002 C  
BRANCH  14  17
HETATM   17  C   UNL     1      -9.173  12.560  64.671  1.00  0.00     0.744 C  
BRANCH  17  18
HETATM   18  C   UNL     1     -10.100  13.774  64.913  1.00  0.00    -0.267 C  
BRANCH  18  19
HETATM   19  O   UNL     1      -9.346  15.002  65.147  1.00  0.00     0.165 OA 
BRANCH  19  20
HETATM   20  C   UNL     1      -9.101  15.222  66.463  1.00  0.00    -0.300 C  
HETATM   21  O   UNL     1      -8.525  14.402  67.180  1.00  0.00    -0.203 OA 
BRANCH  20  22
HETATM   22  C   UNL     1      -9.533  16.550  67.017  1.00  0.00    -0.249 A  
HETATM   23  C   UNL     1      -8.621  17.587  66.700  1.00  0.00    -0.284 A  
HETATM   24  C   UNL     1      -8.811  18.893  67.134  1.00  0.00    -0.298 A  
HETATM   25  C   UNL     1      -9.934  19.197  67.889  1.00  0.00    -0.445 A  
HETATM   26  C   UNL     1     -10.856  18.194  68.205  1.00  0.00    -0.124 A  
HETATM   27  C   UNL     1     -10.686  16.854  67.792  1.00  0.00    -0.315 A  
BRANCH  27  28
HETATM   28  N   UNL     1     -11.608  15.878  68.226  1.00  0.00    -0.325 NA 
HETATM   29  H   UNL     1     -11.967  16.055  69.165  1.00  0.00     0.000 HD 
BRANCH  28  30
HETATM   30  C   UNL     1     -12.147  14.699  67.633  1.00  0.00    -0.181 A  
HETATM   31  C   UNL     1     -12.125  13.488  68.365  1.00  0.00    -0.293 A  
HETATM   32  C   UNL     1     -11.886  13.473  69.749  1.00  0.00    -0.395 A  
HETATM   33  C   UNL     1     -11.730  12.277  70.440  1.00  0.00    -0.127 A  
HETATM   34  C   UNL     1     -11.780  11.063  69.757  1.00  0.00    -0.410 A  
HETATM   35  C   UNL     1     -12.145  11.077  68.395  1.00  0.00    -0.009 A  
HETATM   36  C   UNL     1     -11.399   9.793  70.484  1.00  0.00    -0.314 C  
HETATM   37  C   UNL     1     -12.363  12.266  67.696  1.00  0.00     0.680 A  
HETATM   38  F   UNL     1     -11.016  10.019  71.776  1.00  0.00    -0.258 F  
HETATM   39  F   UNL     1     -12.402   8.879  70.554  1.00  0.00    -0.157 F  
HETATM   40  F   UNL     1     -10.343   9.159  69.904  1.00  0.00    -0.185 F  
HETATM   41  N   UNL     1     -12.751  12.238  66.412  1.00  0.00     0.640 NA 
HETATM   42  C   UNL     1     -12.906  13.421  65.766  1.00  0.00    -0.177 A  
HETATM   43  C   UNL     1     -12.598  14.661  66.320  1.00  0.00     0.148 A  
ENDBRANCH  28  30
ENDBRANCH  27  28
ENDBRANCH  20  22
ENDBRANCH  19  20
ENDBRANCH  18  19
ENDBRANCH  17  18
ENDBRANCH  14  17
ENDBRANCH   7  11
TORSDOF 8
ENDMDL
MODEL      261
REMARK 921   NORMALIZED FREE ENERGY PREDICTED BY IDOCK:   -1.99 KCAL/MOL
REMARK 922        TOTAL FREE ENERGY PREDICTED BY IDOCK:   -6.32 KCAL/MOL
REMARK 923 INTER-LIGAND FREE ENERGY PREDICTED BY IDOCK:   -4.50 KCAL/MOL
REMARK 924 INTRA-LIGAND FREE ENERGY PREDICTED BY IDOCK:   -1.82 KCAL/MOL
REMARK 927      BINDING AFFINITY PREDICTED BY RF-SCORE:    0.00 PKD
ROOT
HETATM    1  F   UNL     1      -7.450   5.374  63.557  1.00  0.00    -0.046 F  
HETATM    2  C   UNL     1      -7.357   4.037  63.801  1.00  0.00    -0.051 C  
HETATM    3  C   UNL     1      -7.119   3.692  65.250  1.00  0.00    -0.066 A  
HETATM    4  F   UNL     1      -8.501   3.485  63.310  1.00  0.00    -0.086 F  
HETATM    5  F   UNL     1      -6.354   3.584  62.996  1.00  0.00    -0.019 F  
HETATM    6  C   UNL     1      -7.002   4.695  66.235  1.00  0.00    -0.070 A  
HETATM    7  C   UNL     1      -6.678   4.371  67.557  1.00  0.00    -0.047 A  
HETATM    8  C   UNL     1      -6.965   2.346  65.614  1.00  0.00    -0.051 A  
HETATM    9  C   UNL     1      -6.551   3.009  67.883  1.00  0.00    -0.037 A  
HETATM   10  C   UNL     1      -6.692   2.003  66.931  1.00  0.00    -0.039 A  
ENDROOT
BRANCH   7  11
HETATM   11  N   UNL     1      -6.424   5.310  68.561  1.00  0.00    -0.038 NA 
HETATM   12  C   UNL     1      -5.413   6.155  70.660  1.00  0.00    -0.014 C  
HETATM   13  C   UNL     1      -5.799   4.894  69.833  1.00  0.00    -0.017 C  
HETATM   14  N   UNL     1      -6.521   7.116  70.920  1.00  0.00    -0.043 NA 
HETATM   15  C   UNL     1      -7.551   6.253  68.745  1.00  0.00    -0.092 C  
HETATM   16  C   UNL     1      -7.099   7.465  69.593  1.00  0.00    -0.072 C  
BRANCH  14  17
HETATM   17  C   UNL     1      -7.571   6.572  71.813  1.00  0.00    -0.094 C  
BRANCH  17  18
HETATM   18  C   UNL     1      -8.185   7.578  72.814  1.00  0.00    -0.117 C  
BRANCH  18  19
HETATM   19  O   UNL     1      -9.636   7.661  72.690  1.00  0.00    -0.153 OA 
BRANCH  19  20
HETATM   20  C   UNL     1     -10.042   8.769  72.020  1.00  0.00    -0.327 C  
HETATM   21  O   UNL     1      -9.253   9.610  71.584  1.00  0.00     0.047 OA 
BRANCH  20  22
HETATM   22  C   UNL     1     -11.519   8.916  71.790  1.00  0.00    -0.423 A  
HETATM   23  C   UNL     1     -12.284   8.380  72.855  1.00  0.00     0.052 A  
HETATM   24  C   UNL     1     -13.673   8.386  72.840  1.00  0.00     0.133 A  
HETATM   25  C   UNL     1     -14.333   8.947  71.758  1.00  0.00    -0.351 A  
HETATM   26  C   UNL     1     -13.601   9.495  70.699  1.00  0.00     0.206 A  
HETATM   27  C   UNL     1     -12.189   9.492  70.676  1.00  0.00    -0.123 A  
BRANCH  27  28
HETATM   28  N   UNL     1     -11.519   9.978  69.534  1.00  0.00    -0.419 NA 
HETATM   29  H   UNL     1     -10.698   9.426  69.284  1.00  0.00     0.000 HD 
BRANCH  28  30
HETATM   30  C   UNL     1     -11.745  11.077  68.654  1.00  0.00    -0.296 A  
HETATM   31  C   UNL     1     -11.333  10.974  67.304  1.00  0.00    -0.265 A  
HETATM   32  C   UNL     1     -11.002   9.735  66.731  1.00  0.00     0.041 A  
HETATM   33  C   UNL     1     -10.469   9.653  65.450  1.00  0.00     0.550 A  
HETATM   34  C   UNL     1     -10.223  10.814  64.718  1.00  0.00    -0.403 A  
HETATM   35  C   UNL     1     -10.672  12.043  65.245  1.00  0.00    -0.331 A  
HETATM   36  C   UNL     1      -9.451  10.718  63.422  1.00  0.00    -0.316 C  
HETATM   37  C   UNL     1     -11.264  12.140  66.506  1.00  0.00    -0.328 A  
HETATM   38  F   UNL     1      -9.057   9.442  63.135  1.00  0.00    -0.250 F  
HETATM   39  F   UNL     1     -10.150  11.139  62.335  1.00  0.00    -0.110 F  
HETATM   40  F   UNL     1      -8.303  11.450  63.446  1.00  0.00     0.096 F  
HETATM   41  N   UNL     1     -11.717  13.320  66.956  1.00  0.00    -0.368 NA 
HETATM   42  C   UNL     1     -12.244  13.367  68.206  1.00  0.00    -0.085 A  
HETATM   43  C   UNL     1     -12.258  12.292  69.090  1.00  0.00    -0.075 A  
ENDBRANCH  28  30
ENDBRANCH  27  28
ENDBRANCH  20  22
ENDBRANCH  19  20
ENDBRANCH  18  19
ENDBRANCH  17  18
ENDBRANCH  14  17
ENDBRANCH   7  11
TORSDOF 8
ENDMDL
MODEL      262
REMARK 921   NORMALIZED FREE ENERGY PREDICTED BY IDOCK:   -1.85 KCAL/MOL
REMARK 922        TOTAL FREE ENERGY PREDICTED BY IDOCK:   -6.12 KCAL/MOL
REMARK 923 INTER-LIGAND FREE ENERGY PREDICTED BY IDOCK:   -6.12 KCAL/MOL
REMARK 924 INTRA-LIGAND FREE ENERGY PREDICTED BY IDOCK:    0.00 KCAL/MOL
REMARK 927      BINDING AFFINITY PREDICTED BY RF-SCORE:    0.00 PKD
ROOT
HETATM    1  F   UNL     1     -10.343  18.677  66.151  1.00  0.00    -0.379 F  
HETATM    2  C   UNL     1     -10.372  17.485  65.493  1.00  0.00    -0.019 C  
HETATM    3  C   UNL     1     -10.895  16.339  66.322  1.00  0.00    -0.098 A  
HETATM    4  F   UNL     1     -11.107  17.696  64.366  1.00  0.00     0.217 F  
HETATM    5  F   UNL     1      -9.096  17.267  65.065  1.00  0.00     0.950 F  
HETATM    6  C   UNL     1     -11.300  16.524  67.660  1.00  0.00     0.070 A  
HETATM    7  C   UNL     1     -11.684  15.436  68.453  1.00  0.00    -0.316 A  
HETATM    8  C   UNL     1     -10.932  15.053  65.761  1.00  0.00    -0.351 A  
HETATM    9  C   UNL     1     -11.726  14.168  67.847  1.00  0.00    -0.402 A  
HETATM   10  C   UNL     1     -11.357  13.971  66.519  1.00  0.00    -0.343 A  
ENDROOT
BRANCH   7  11
HETATM   11  N   UNL     1     -11.980  15.518  69.817  1.00  0.00    -0.353 NA 
HETATM   12  C   UNL     1     -11.504  15.375  72.244  1.00  0.00    -0.412 C  
HETATM   13  C   UNL     1     -11.064  14.935  70.818  1.00  0.00    -0.120 C  
HETATM   14  N   UNL     1     -12.918  15.071  72.602  1.00  0.00    -0.365 NA 
HETATM   15  C   UNL     1     -13.408  15.238  70.098  1.00  0.00     0.236 C  
HETATM   16  C   UNL     1     -13.763  15.679  71.537  1.00  0.00    -0.338 C  
BRANCH  14  17
HETATM   17  C   UNL     1     -13.195  13.620  72.716  1.00  0.00    -0.325 C  
BRANCH  17  18
HETATM   18  C   UNL     1     -12.287  12.698  71.868  1.00  0.00     0.526 C  
BRANCH  18  19
HETATM   19  O   UNL     1     -13.018  11.557  71.325  1.00  0.00    -0.380 OA 
BRANCH  19  20
HETATM   20  C   UNL     1     -12.313  10.400  71.402  1.00  0.00    -0.397 C  
HETATM   21  O   UNL     1     -12.278   9.709  72.422  1.00  0.00    -0.137 OA 
BRANCH  20  22
HETATM   22  C   UNL     1     -11.593   9.964  70.158  1.00  0.00    -0.281 A  
HETATM   23  C   UNL     1     -11.632  10.950  69.141  1.00  0.00    -0.389 A  
HETATM   24  C   UNL     1     -11.051  10.748  67.896  1.00  0.00    -0.369 A  
HETATM   25  C   UNL     1     -10.399   9.551  67.643  1.00  0.00    -0.299 A  
HETATM   26  C   UNL     1     -10.335   8.566  68.634  1.00  0.00    -0.224 A  
HETATM   27  C   UNL     1     -10.928   8.734  69.905  1.00  0.00    -0.179 A  
BRANCH  27  28
HETATM   28  N   UNL     1     -10.903   7.662  70.822  1.00  0.00    -0.234 NA 
HETATM   29  H   UNL     1     -11.645   6.979  70.661  1.00  0.00     0.000 HD 
BRANCH  28  30
HETATM   30  C   UNL     1     -10.063   7.328  71.924  1.00  0.00    -0.178 A  
HETATM   31  C   UNL     1      -9.200   6.211  71.818  1.00  0.00    -0.149 A  
HETATM   32  C   UNL     1      -8.916   5.619  70.577  1.00  0.00    -0.150 A  
HETATM   33  C   UNL     1      -8.180   4.443  70.491  1.00  0.00    -0.071 A  
HETATM   34  C   UNL     1      -7.733   3.811  71.651  1.00  0.00    -0.061 A  
HETATM   35  C   UNL     1      -7.911   4.473  72.883  1.00  0.00    -0.092 A  
HETATM   36  C   UNL     1      -7.123   2.431  71.549  1.00  0.00    -0.032 C  
HETATM   37  C   UNL     1      -8.598   5.684  72.984  1.00  0.00    -0.121 A  
HETATM   38  F   UNL     1      -7.108   1.953  70.269  1.00  0.00    -0.032 F  
HETATM   39  F   UNL     1      -5.835   2.368  71.978  1.00  0.00    -0.007 F  
HETATM   40  F   UNL     1      -7.813   1.503  72.269  1.00  0.00    -0.040 F  
HETATM   41  N   UNL     1      -8.710   6.306  74.168  1.00  0.00    -0.123 NA 
HETATM   42  C   UNL     1      -9.424   7.458  74.219  1.00  0.00    -0.050 A  
HETATM   43  C   UNL     1     -10.130   7.990  73.143  1.00  0.00    -0.302 A  
ENDBRANCH  28  30
ENDBRANCH  27  28
ENDBRANCH  20  22
ENDBRANCH  19  20
ENDBRANCH  18  19
ENDBRANCH  17  18
ENDBRANCH  14  17
ENDBRANCH   7  11
TORSDOF 8
ENDMDL
MODEL      263
REMARK 921   NORMALIZED FREE ENERGY PREDICTED BY IDOCK:   -1.77 KCAL/MOL
REMARK 922        TOTAL FREE ENERGY PREDICTED BY IDOCK:   -6.00 KCAL/MOL
REMARK 923 INTER-LIGAND FREE ENERGY PREDICTED BY IDOCK:   -5.59 KCAL/MOL
REMARK 924 INTRA-LIGAND FREE ENERGY PREDICTED BY IDOCK:   -0.41 KCAL/MOL
REMARK 927      BINDING AFFINITY PREDICTED BY RF-SCORE:    0.00 PKD
ROOT
HETATM    1  F   UNL     1     -13.074  12.321  70.872  1.00  0.00    -0.265 F  
HETATM    2  C   UNL     1     -12.340  13.433  70.589  1.00  0.00    -0.348 C  
HETATM    3  C   UNL     1     -11.338  13.241  69.478  1.00  0.00    -0.236 A  
HETATM    4  F   UNL     1     -13.241  14.419  70.320  1.00  0.00    -0.339 F  
HETATM    5  F   UNL     1     -11.742  13.789  71.762  1.00  0.00    -0.032 F  
HETATM    6  C   UNL     1     -11.198  12.001  68.820  1.00  0.00    -0.316 A  
HETATM    7  C   UNL     1     -10.196  11.803  67.864  1.00  0.00    -0.191 A  
HETATM    8  C   UNL     1     -10.496  14.307  69.128  1.00  0.00    -0.170 A  
HETATM    9  C   UNL     1      -9.387  12.902  67.528  1.00  0.00    -0.190 A  
HETATM   10  C   UNL     1      -9.529  14.142  68.146  1.00  0.00    -0.213 A  
ENDROOT
BRANCH   7  11
HETATM   11  N   UNL     1      -9.914  10.574  67.258  1.00  0.00    -0.179 NA 
HETATM   12  C   UNL     1     -10.241   8.167  66.773  1.00  0.00    -0.302 C  
HETATM   13  C   UNL     1     -10.530   9.332  67.764  1.00  0.00    -0.255 C  
HETATM   14  N   UNL     1      -8.804   7.936  66.456  1.00  0.00    -0.144 NA 
HETATM   15  C   UNL     1      -8.474  10.425  66.940  1.00  0.00    -0.124 C  
HETATM   16  C   UNL     1      -8.263   9.237  65.972  1.00  0.00    -0.111 C  
BRANCH  14  17
HETATM   17  C   UNL     1      -8.019   7.450  67.615  1.00  0.00    -0.114 C  
BRANCH  17  18
HETATM   18  C   UNL     1      -6.702   6.715  67.269  1.00  0.00    -0.063 C  
BRANCH  18  19
HETATM   19  O   UNL     1      -6.945   5.416  66.649  1.00  0.00    -0.062 OA 
BRANCH  19  20
HETATM   20  C   UNL     1      -8.120   4.862  67.039  1.00  0.00    -0.107 C  
HETATM   21  O   UNL     1      -8.614   5.061  68.151  1.00  0.00    -0.102 OA 
BRANCH  20  22
HETATM   22  C   UNL     1      -8.833   4.009  66.029  1.00  0.00    -0.120 A  
HETATM   23  C   UNL     1      -9.744   4.756  65.241  1.00  0.00    -0.103 A  
HETATM   24  C   UNL     1     -10.529   4.163  64.262  1.00  0.00    -0.135 A  
HETATM   25  C   UNL     1     -10.409   2.801  64.034  1.00  0.00    -0.073 A  
HETATM   26  C   UNL     1      -9.508   2.042  64.789  1.00  0.00    -0.061 A  
HETATM   27  C   UNL     1      -8.706   2.611  65.803  1.00  0.00    -0.127 A  
BRANCH  27  28
HETATM   28  N   UNL     1      -7.888   1.769  66.586  1.00  0.00    -0.066 NA 
HETATM   29  H   UNL     1      -7.838   0.814  66.229  1.00  0.00     0.000 HD 
BRANCH  28  30
HETATM   30  C   UNL     1      -7.117   1.968  67.768  1.00  0.00    -0.047 A  
HETATM   31  C   UNL     1      -7.772   1.987  69.023  1.00  0.00    -0.045 A  
HETATM   32  C   UNL     1      -9.085   1.512  69.171  1.00  0.00    -0.156 A  
HETATM   33  C   UNL     1      -9.772   1.657  70.371  1.00  0.00    -0.057 A  
HETATM   34  C   UNL     1      -9.173   2.310  71.446  1.00  0.00    -0.178 A  
HETATM   35  C   UNL     1      -7.814   2.672  71.335  1.00  0.00    -0.044 A  
HETATM   36  C   UNL     1     -10.006   2.645  72.662  1.00  0.00    -0.148 C  
HETATM   37  C   UNL     1      -7.088   2.483  70.157  1.00  0.00    -0.033 A  
HETATM   38  F   UNL     1     -11.311   2.260  72.530  1.00  0.00    -0.038 F  
HETATM   39  F   UNL     1      -9.566   2.059  73.807  1.00  0.00    -0.077 F  
HETATM   40  F   UNL     1     -10.051   3.983  72.910  1.00  0.00    -0.167 F  
HETATM   41  N   UNL     1      -5.786   2.800  70.102  1.00  0.00    -0.017 NA 
HETATM   42  C   UNL     1      -5.138   2.637  68.921  1.00  0.00    -0.011 A  
HETATM   43  C   UNL     1      -5.757   2.251  67.735  1.00  0.00    -0.019 A  
ENDBRANCH  28  30
ENDBRANCH  27  28
ENDBRANCH  20  22
ENDBRANCH  19  20
ENDBRANCH  18  19
ENDBRANCH  17  18
ENDBRANCH  14  17
ENDBRANCH   7  11
TORSDOF 8
ENDMDL
MODEL      264
REMARK 921   NORMALIZED FREE ENERGY PREDICTED BY IDOCK:   -1.74 KCAL/MOL
REMARK 922        TOTAL FREE ENERGY PREDICTED BY IDOCK:   -5.96 KCAL/MOL
REMARK 923 INTER-LIGAND FREE ENERGY PREDICTED BY IDOCK:   -5.50 KCAL/MOL
REMARK 924 INTRA-LIGAND FREE ENERGY PREDICTED BY IDOCK:   -0.45 KCAL/MOL
REMARK 927      BINDING AFFINITY PREDICTED BY RF-SCORE:    0.00 PKD
ROOT
HETATM    1  F   UNL     1     -11.153  15.179  72.003  1.00  0.00    -0.479 F  
HETATM    2  C   UNL     1     -12.009  15.262  70.947  1.00  0.00    -0.342 C  
HETATM    3  C   UNL     1     -11.426  14.773  69.644  1.00  0.00    -0.327 A  
HETATM    4  F   UNL     1     -13.125  14.572  71.314  1.00  0.00    -0.352 F  
HETATM    5  F   UNL     1     -12.389  16.570  70.880  1.00  0.00    -0.129 F  
HETATM    6  C   UNL     1     -10.104  14.290  69.566  1.00  0.00     0.214 A  
HETATM    7  C   UNL     1      -9.538  13.937  68.335  1.00  0.00    -0.215 A  
HETATM    8  C   UNL     1     -12.204  14.850  68.479  1.00  0.00    -0.084 A  
HETATM    9  C   UNL     1     -10.358  14.010  67.195  1.00  0.00    -0.265 A  
HETATM   10  C   UNL     1     -11.675  14.458  67.257  1.00  0.00    -0.429 A  
ENDROOT
BRANCH   7  11
HETATM   11  N   UNL     1      -8.202  13.568  68.156  1.00  0.00    -0.154 NA 
HETATM   12  C   UNL     1      -6.273  12.574  66.960  1.00  0.00     0.105 C  
HETATM   13  C   UNL     1      -7.824  12.620  67.089  1.00  0.00    -0.108 C  
HETATM   14  N   UNL     1      -5.534  12.258  68.214  1.00  0.00    -0.052 NA 
HETATM   15  C   UNL     1      -7.518  13.302  69.444  1.00  0.00     0.405 C  
HETATM   16  C   UNL     1      -5.987  13.247  69.232  1.00  0.00    -0.094 C  
BRANCH  14  17
HETATM   17  C   UNL     1      -5.763  10.877  68.697  1.00  0.00    -0.039 C  
BRANCH  17  18
HETATM   18  C   UNL     1      -6.308  10.756  70.140  1.00  0.00    -0.147 C  
BRANCH  18  19
HETATM   19  O   UNL     1      -7.246   9.647  70.281  1.00  0.00    -0.101 OA 
BRANCH  19  20
HETATM   20  C   UNL     1      -6.961   8.612  69.452  1.00  0.00    -0.053 C  
HETATM   21  O   UNL     1      -5.818   8.367  69.060  1.00  0.00    -0.038 OA 
BRANCH  20  22
HETATM   22  C   UNL     1      -8.110   7.731  69.050  1.00  0.00    -0.125 A  
HETATM   23  C   UNL     1      -9.268   7.970  69.832  1.00  0.00    -0.152 A  
HETATM   24  C   UNL     1     -10.441   7.249  69.649  1.00  0.00    -0.239 A  
HETATM   25  C   UNL     1     -10.488   6.277  68.662  1.00  0.00    -0.274 A  
HETATM   26  C   UNL     1      -9.364   6.031  67.868  1.00  0.00    -0.110 A  
HETATM   27  C   UNL     1      -8.151   6.735  68.038  1.00  0.00    -0.114 A  
BRANCH  27  28
HETATM   28  N   UNL     1      -7.030   6.369  67.263  1.00  0.00    -0.069 NA 
HETATM   29  H   UNL     1      -6.358   5.796  67.775  1.00  0.00     0.000 HD 
BRANCH  28  30
HETATM   30  C   UNL     1      -6.636   6.629  65.918  1.00  0.00    -0.044 A  
HETATM   31  C   UNL     1      -7.195   7.738  65.238  1.00  0.00    -0.068 A  
HETATM   32  C   UNL     1      -7.872   8.756  65.929  1.00  0.00    -0.102 A  
HETATM   33  C   UNL     1      -8.536   9.770  65.249  1.00  0.00    -0.168 A  
HETATM   34  C   UNL     1      -8.567   9.774  63.856  1.00  0.00    -0.208 A  
HETATM   35  C   UNL     1      -7.783   8.825  63.167  1.00  0.00    -0.123 A  
HETATM   36  C   UNL     1      -9.467  10.757  63.142  1.00  0.00    -0.336 C  
HETATM   37  C   UNL     1      -7.062   7.833  63.834  1.00  0.00    -0.069 A  
HETATM   38  F   UNL     1     -10.185  11.538  64.004  1.00  0.00    -0.270 F  
HETATM   39  F   UNL     1      -8.801  11.622  62.332  1.00  0.00    -0.340 F  
HETATM   40  F   UNL     1     -10.396  10.139  62.361  1.00  0.00     0.077 F  
HETATM   41  N   UNL     1      -6.293   6.974  63.147  1.00  0.00    -0.044 NA 
HETATM   42  C   UNL     1      -5.646   6.001  63.839  1.00  0.00    -0.018 A  
HETATM   43  C   UNL     1      -5.803   5.777  65.204  1.00  0.00    -0.024 A  
ENDBRANCH  28  30
ENDBRANCH  27  28
ENDBRANCH  20  22
ENDBRANCH  19  20
ENDBRANCH  18  19
ENDBRANCH  17  18
ENDBRANCH  14  17
ENDBRANCH   7  11
TORSDOF 8
ENDMDL
MODEL      265
REMARK 921   NORMALIZED FREE ENERGY PREDICTED BY IDOCK:   -1.74 KCAL/MOL
REMARK 922        TOTAL FREE ENERGY PREDICTED BY IDOCK:   -5.95 KCAL/MOL
REMARK 923 INTER-LIGAND FREE ENERGY PREDICTED BY IDOCK:   -7.82 KCAL/MOL
REMARK 924 INTRA-LIGAND FREE ENERGY PREDICTED BY IDOCK:    1.87 KCAL/MOL
REMARK 927      BINDING AFFINITY PREDICTED BY RF-SCORE:    0.00 PKD
ROOT
HETATM    1  F   UNL     1     -11.533  16.952  73.271  1.00  0.00    -0.340 F  
HETATM    2  C   UNL     1     -12.409  15.915  73.381  1.00  0.00    -0.538 C  
HETATM    3  C   UNL     1     -12.400  14.975  72.202  1.00  0.00    -0.433 A  
HETATM    4  F   UNL     1     -12.105  15.291  74.553  1.00  0.00    -0.674 F  
HETATM    5  F   UNL     1     -13.633  16.485  73.573  1.00  0.00    -0.548 F  
HETATM    6  C   UNL     1     -11.550  15.190  71.096  1.00  0.00    -0.405 A  
HETATM    7  C   UNL     1     -11.624  14.373  69.963  1.00  0.00    -0.275 A  
HETATM    8  C   UNL     1     -13.292  13.893  72.186  1.00  0.00    -0.555 A  
HETATM    9  C   UNL     1     -12.517  13.288  69.996  1.00  0.00    -0.166 A  
HETATM   10  C   UNL     1     -13.343  13.043  71.090  1.00  0.00     0.029 A  
ENDROOT
BRANCH   7  11
HETATM   11  N   UNL     1     -10.907  14.593  68.783  1.00  0.00    -0.246 NA 
HETATM   12  C   UNL     1     -10.104  14.073  66.497  1.00  0.00    -0.285 C  
HETATM   13  C   UNL     1     -10.716  13.500  67.808  1.00  0.00    -0.252 C  
HETATM   14  N   UNL     1      -8.838  14.842  66.662  1.00  0.00    -0.252 NA 
HETATM   15  C   UNL     1      -9.679  15.391  69.014  1.00  0.00    -0.239 C  
HETATM   16  C   UNL     1      -9.117  15.905  67.667  1.00  0.00    -0.198 C  
BRANCH  14  17
HETATM   17  C   UNL     1      -7.697  14.004  67.099  1.00  0.00     0.022 C  
BRANCH  17  18
HETATM   18  C   UNL     1      -7.555  13.813  68.628  1.00  0.00    -0.125 C  
BRANCH  18  19
HETATM   19  O   UNL     1      -6.859  12.576  68.964  1.00  0.00    -0.101 OA 
BRANCH  19  20
HETATM   20  C   UNL     1      -6.784  11.717  67.917  1.00  0.00    -0.066 C  
HETATM   21  O   UNL     1      -5.801  11.655  67.175  1.00  0.00    -0.090 OA 
BRANCH  20  22
HETATM   22  C   UNL     1      -7.953  10.796  67.713  1.00  0.00    -0.110 A  
HETATM   23  C   UNL     1      -8.817  10.768  68.836  1.00  0.00    -0.154 A  
HETATM   24  C   UNL     1      -9.949   9.964  68.874  1.00  0.00    -0.188 A  
HETATM   25  C   UNL     1     -10.253   9.174  67.776  1.00  0.00    -0.278 A  
HETATM   26  C   UNL     1      -9.424   9.193  66.649  1.00  0.00    -0.242 A  
HETATM   27  C   UNL     1      -8.258   9.988  66.584  1.00  0.00    -0.122 A  
BRANCH  27  28
HETATM   28  N   UNL     1      -7.419   9.886  65.453  1.00  0.00    -0.125 NA 
HETATM   29  H   UNL     1      -6.976  10.770  65.201  1.00  0.00     0.000 HD 
BRANCH  28  30
HETATM   30  C   UNL     1      -7.060   8.811  64.589  1.00  0.00    -0.088 A  
HETATM   31  C   UNL     1      -7.128   7.483  65.075  1.00  0.00    -0.060 A  
HETATM   32  C   UNL     1      -7.824   7.169  66.254  1.00  0.00    -0.107 A  
HETATM   33  C   UNL     1      -7.774   5.892  66.801  1.00  0.00    -0.100 A  
HETATM   34  C   UNL     1      -7.000   4.902  66.199  1.00  0.00    -0.070 A  
HETATM   35  C   UNL     1      -6.406   5.185  64.952  1.00  0.00    -0.034 A  
HETATM   36  C   UNL     1      -6.790   3.591  66.921  1.00  0.00    -0.053 C  
HETATM   37  C   UNL     1      -6.492   6.445  64.356  1.00  0.00    -0.034 A  
HETATM   38  F   UNL     1      -7.402   3.556  68.143  1.00  0.00    -0.050 F  
HETATM   39  F   UNL     1      -7.262   2.510  66.245  1.00  0.00    -0.058 F  
HETATM   40  F   UNL     1      -5.475   3.341  67.173  1.00  0.00    -0.016 F  
HETATM   41  N   UNL     1      -5.950   6.664  63.148  1.00  0.00    -0.034 NA 
HETATM   42  C   UNL     1      -6.024   7.918  62.633  1.00  0.00    -0.069 A  
HETATM   43  C   UNL     1      -6.542   9.015  63.317  1.00  0.00    -0.090 A  
ENDBRANCH  28  30
ENDBRANCH  27  28
ENDBRANCH  20  22
ENDBRANCH  19  20
ENDBRANCH  18  19
ENDBRANCH  17  18
ENDBRANCH  14  17
ENDBRANCH   7  11
TORSDOF 8
ENDMDL
MODEL      266
REMARK 921   NORMALIZED FREE ENERGY PREDICTED BY IDOCK:   -1.71 KCAL/MOL
REMARK 922        TOTAL FREE ENERGY PREDICTED BY IDOCK:   -5.91 KCAL/MOL
REMARK 923 INTER-LIGAND FREE ENERGY PREDICTED BY IDOCK:   -5.45 KCAL/MOL
REMARK 924 INTRA-LIGAND FREE ENERGY PREDICTED BY IDOCK:   -0.46 KCAL/MOL
REMARK 927      BINDING AFFINITY PREDICTED BY RF-SCORE:    0.00 PKD
ROOT
HETATM    1  F   UNL     1      -8.521  13.273  69.788  1.00  0.00     0.936 F  
HETATM    2  C   UNL     1      -9.444  13.170  68.792  1.00  0.00     0.109 C  
HETATM    3  C   UNL     1      -9.327  11.908  67.974  1.00  0.00    -0.193 A  
HETATM    4  F   UNL     1     -10.660  13.295  69.393  1.00  0.00    -0.139 F  
HETATM    5  F   UNL     1      -9.292  14.290  68.030  1.00  0.00    -0.178 F  
HETATM    6  C   UNL     1      -8.330  10.947  68.243  1.00  0.00    -0.129 A  
HETATM    7  C   UNL     1      -8.163   9.832  67.415  1.00  0.00    -0.114 A  
HETATM    8  C   UNL     1     -10.200  11.713  66.893  1.00  0.00    -0.244 A  
HETATM    9  C   UNL     1      -9.071   9.664  66.354  1.00  0.00    -0.191 A  
HETATM   10  C   UNL     1     -10.079  10.587  66.090  1.00  0.00    -0.306 A  
ENDROOT
BRANCH   7  11
HETATM   11  N   UNL     1      -7.126   8.902  67.540  1.00  0.00    -0.075 NA 
HETATM   12  C   UNL     1      -5.807   6.894  66.935  1.00  0.00    -0.022 C  
HETATM   13  C   UNL     1      -7.178   7.621  66.809  1.00  0.00    -0.088 C  
HETATM   14  N   UNL     1      -5.323   6.674  68.326  1.00  0.00    -0.011 NA 
HETATM   15  C   UNL     1      -6.671   8.757  68.943  1.00  0.00    -0.053 C  
HETATM   16  C   UNL     1      -5.319   8.008  68.989  1.00  0.00    -0.027 C  
BRANCH  14  17
HETATM   17  C   UNL     1      -6.157   5.719  69.093  1.00  0.00    -0.024 C  
BRANCH  17  18
HETATM   18  C   UNL     1      -5.392   4.562  69.777  1.00  0.00    -0.008 C  
BRANCH  18  19
HETATM   19  O   UNL     1      -5.412   4.675  71.231  1.00  0.00    -0.003 OA 
BRANCH  19  20
HETATM   20  C   UNL     1      -6.178   3.723  71.819  1.00  0.00    -0.014 C  
HETATM   21  O   UNL     1      -5.975   3.318  72.966  1.00  0.00    -0.007 OA 
BRANCH  20  22
HETATM   22  C   UNL     1      -7.334   3.196  71.017  1.00  0.00    -0.033 A  
HETATM   23  C   UNL     1      -6.920   2.292  70.008  1.00  0.00    -0.033 A  
HETATM   24  C   UNL     1      -7.821   1.703  69.131  1.00  0.00    -0.051 A  
HETATM   25  C   UNL     1      -9.171   1.995  69.255  1.00  0.00    -0.188 A  
HETATM   26  C   UNL     1      -9.608   2.874  70.251  1.00  0.00    -0.141 A  
HETATM   27  C   UNL     1      -8.716   3.502  71.149  1.00  0.00    -0.078 A  
BRANCH  27  28
HETATM   28  N   UNL     1      -9.218   4.448  72.067  1.00  0.00    -0.125 NA 
HETATM   29  H   UNL     1      -9.990   4.090  72.631  1.00  0.00     0.000 HD 
BRANCH  28  30
HETATM   30  C   UNL     1      -8.877   5.797  72.376  1.00  0.00    -0.131 A  
HETATM   31  C   UNL     1      -9.877   6.795  72.300  1.00  0.00    -0.166 A  
HETATM   32  C   UNL     1     -11.240   6.463  72.239  1.00  0.00    -0.314 A  
HETATM   33  C   UNL     1     -12.210   7.437  72.027  1.00  0.00    -0.315 A  
HETATM   34  C   UNL     1     -11.837   8.767  71.839  1.00  0.00    -0.437 A  
HETATM   35  C   UNL     1     -10.483   9.114  72.026  1.00  0.00    -0.169 A  
HETATM   36  C   UNL     1     -12.881   9.769  71.401  1.00  0.00    -0.392 C  
HETATM   37  C   UNL     1      -9.501   8.158  72.297  1.00  0.00    -0.245 A  
HETATM   38  F   UNL     1     -14.111   9.204  71.216  1.00  0.00    -0.423 F  
HETATM   39  F   UNL     1     -13.072  10.783  72.285  1.00  0.00    -0.552 F  
HETATM   40  F   UNL     1     -12.573  10.352  70.209  1.00  0.00    -0.339 F  
HETATM   41  N   UNL     1      -8.231   8.532  72.512  1.00  0.00    -0.350 NA 
HETATM   42  C   UNL     1      -7.308   7.560  72.729  1.00  0.00    -0.080 A  
HETATM   43  C   UNL     1      -7.574   6.196  72.648  1.00  0.00    -0.101 A  
ENDBRANCH  28  30
ENDBRANCH  27  28
ENDBRANCH  20  22
ENDBRANCH  19  20
ENDBRANCH  18  19
ENDBRANCH  17  18
ENDBRANCH  14  17
ENDBRANCH   7  11
TORSDOF 8
ENDMDL
MODEL      267
REMARK 921   NORMALIZED FREE ENERGY PREDICTED BY IDOCK:   -0.81 KCAL/MOL
REMARK 922        TOTAL FREE ENERGY PREDICTED BY IDOCK:   -4.58 KCAL/MOL
REMARK 923 INTER-LIGAND FREE ENERGY PREDICTED BY IDOCK:   -7.78 KCAL/MOL
REMARK 924 INTRA-LIGAND FREE ENERGY PREDICTED BY IDOCK:    3.19 KCAL/MOL
REMARK 927      BINDING AFFINITY PREDICTED BY RF-SCORE:    0.00 PKD
ROOT
HETATM    1  F   UNL     1     -10.934  14.659  63.946  1.00  0.00     0.039 F  
HETATM    2  C   UNL     1     -11.512  15.188  65.061  1.00  0.00    -0.339 C  
HETATM    3  C   UNL     1     -11.509  14.262  66.252  1.00  0.00    -0.360 A  
HETATM    4  F   UNL     1     -10.857  16.358  65.303  1.00  0.00    -0.359 F  
HETATM    5  F   UNL     1     -12.775  15.542  64.689  1.00  0.00    -0.082 F  
HETATM    6  C   UNL     1     -10.956  12.968  66.176  1.00  0.00    -0.300 A  
HETATM    7  C   UNL     1     -11.052  12.080  67.253  1.00  0.00    -0.285 A  
HETATM    8  C   UNL     1     -12.116  14.685  67.444  1.00  0.00    -0.216 A  
HETATM    9  C   UNL     1     -11.650  12.549  68.436  1.00  0.00    -0.368 A  
HETATM   10  C   UNL     1     -12.176  13.834  68.539  1.00  0.00    -0.194 A  
ENDROOT
BRANCH   7  11
HETATM   11  N   UNL     1     -10.640  10.744  67.215  1.00  0.00    -0.241 NA 
HETATM   12  C   UNL     1      -9.995   8.551  68.171  1.00  0.00    -0.181 C  
HETATM   13  C   UNL     1     -10.154  10.075  68.439  1.00  0.00    -0.165 C  
HETATM   14  N   UNL     1      -9.134   8.189  67.011  1.00  0.00    -0.138 NA 
HETATM   15  C   UNL     1      -9.816  10.446  66.020  1.00  0.00    -0.232 C  
HETATM   16  C   UNL     1      -9.684   8.916  65.833  1.00  0.00    -0.189 C  
BRANCH  14  17
HETATM   17  C   UNL     1      -7.707   8.535  67.210  1.00  0.00    -0.097 C  
BRANCH  17  18
HETATM   18  C   UNL     1      -7.237   8.609  68.682  1.00  0.00    -0.076 C  
BRANCH  18  19
HETATM   19  O   UNL     1      -7.514   9.910  69.282  1.00  0.00    -0.080 OA 
BRANCH  19  20
HETATM   20  C   UNL     1      -6.827  10.112  70.435  1.00  0.00    -0.124 C  
HETATM   21  O   UNL     1      -6.250  11.170  70.689  1.00  0.00    -0.326 OA 
BRANCH  20  22
HETATM   22  C   UNL     1      -6.829   8.984  71.428  1.00  0.00    -0.073 A  
HETATM   23  C   UNL     1      -5.538   8.428  71.610  1.00  0.00    -0.037 A  
HETATM   24  C   UNL     1      -5.312   7.357  72.465  1.00  0.00    -0.037 A  
HETATM   25  C   UNL     1      -6.378   6.824  73.175  1.00  0.00    -0.062 A  
HETATM   26  C   UNL     1      -7.659   7.363  73.023  1.00  0.00    -0.099 A  
HETATM   27  C   UNL     1      -7.926   8.442  72.150  1.00  0.00    -0.128 A  
BRANCH  27  28
HETATM   28  N   UNL     1      -9.258   8.873  71.978  1.00  0.00    -0.386 NA 
HETATM   29  H   UNL     1      -9.329   9.833  71.639  1.00  0.00     0.000 HD 
BRANCH  28  30
HETATM   30  C   UNL     1     -10.527   8.254  72.177  1.00  0.00    -0.301 A  
HETATM   31  C   UNL     1     -10.576   6.887  72.543  1.00  0.00    -0.251 A  
HETATM   32  C   UNL     1      -9.438   6.213  73.015  1.00  0.00    -0.142 A  
HETATM   33  C   UNL     1      -9.455   4.842  73.243  1.00  0.00    -0.135 A  
HETATM   34  C   UNL     1     -10.606   4.102  72.974  1.00  0.00    -0.256 A  
HETATM   35  C   UNL     1     -11.780   4.799  72.621  1.00  0.00     0.095 A  
HETATM   36  C   UNL     1     -10.539   2.593  73.025  1.00  0.00    -0.153 C  
HETATM   37  C   UNL     1     -11.798   6.184  72.443  1.00  0.00    -0.238 A  
HETATM   38  F   UNL     1      -9.289   2.129  73.323  1.00  0.00    -0.074 F  
HETATM   39  F   UNL     1     -11.366   2.038  73.950  1.00  0.00    -0.238 F  
HETATM   40  F   UNL     1     -10.859   2.018  71.832  1.00  0.00    -0.063 F  
HETATM   41  N   UNL     1     -12.945   6.816  72.149  1.00  0.00    -0.113 NA 
HETATM   42  C   UNL     1     -12.900   8.157  71.944  1.00  0.00    -0.335 A  
HETATM   43  C   UNL     1     -11.726   8.906  71.924  1.00  0.00    -0.439 A  
ENDBRANCH  28  30
ENDBRANCH  27  28
ENDBRANCH  20  22
ENDBRANCH  19  20
ENDBRANCH  18  19
ENDBRANCH  17  18
ENDBRANCH  14  17
ENDBRANCH   7  11
TORSDOF 8
ENDMDL
MODEL      268
REMARK 921   NORMALIZED FREE ENERGY PREDICTED BY IDOCK:   -0.68 KCAL/MOL
REMARK 922        TOTAL FREE ENERGY PREDICTED BY IDOCK:   -4.40 KCAL/MOL
REMARK 923 INTER-LIGAND FREE ENERGY PREDICTED BY IDOCK:   -2.71 KCAL/MOL
REMARK 924 INTRA-LIGAND FREE ENERGY PREDICTED BY IDOCK:   -1.69 KCAL/MOL
REMARK 927      BINDING AFFINITY PREDICTED BY RF-SCORE:    0.00 PKD
ROOT
HETATM    1  F   UNL     1     -10.617   5.453  67.137  1.00  0.00    -0.234 F  
HETATM    2  C   UNL     1     -11.094   6.678  67.495  1.00  0.00    -0.292 C  
HETATM    3  C   UNL     1     -10.905   7.007  68.956  1.00  0.00    -0.212 A  
HETATM    4  F   UNL     1     -10.482   7.574  66.672  1.00  0.00    -0.348 F  
HETATM    5  F   UNL     1     -12.409   6.682  67.135  1.00  0.00     1.336 F  
HETATM    6  C   UNL     1     -10.293   6.096  69.841  1.00  0.00    -0.272 A  
HETATM    7  C   UNL     1     -10.217   6.366  71.212  1.00  0.00    -0.200 A  
HETATM    8  C   UNL     1     -11.395   8.226  69.448  1.00  0.00     0.360 A  
HETATM    9  C   UNL     1     -10.702   7.607  71.662  1.00  0.00    -0.243 A  
HETATM   10  C   UNL     1     -11.284   8.530  70.798  1.00  0.00    -0.289 A  
ENDROOT
BRANCH   7  11
HETATM   11  N   UNL     1      -9.738   5.466  72.170  1.00  0.00    -0.160 NA 
HETATM   12  C   UNL     1      -8.025   4.112  73.339  1.00  0.00    -0.089 C  
HETATM   13  C   UNL     1      -8.392   4.874  72.033  1.00  0.00    -0.123 C  
HETATM   14  N   UNL     1      -9.002   3.074  73.773  1.00  0.00    -0.075 NA 
HETATM   15  C   UNL     1     -10.770   4.485  72.580  1.00  0.00    -0.157 C  
HETATM   16  C   UNL     1     -10.324   3.752  73.868  1.00  0.00    -0.171 C  
BRANCH  14  17
HETATM   17  C   UNL     1      -9.079   1.919  72.849  1.00  0.00    -0.069 C  
BRANCH  17  18
HETATM   18  C   UNL     1      -7.760   1.549  72.129  1.00  0.00    -0.040 C  
BRANCH  18  19
HETATM   19  O   UNL     1      -7.544   2.355  70.932  1.00  0.00    -0.033 OA 
BRANCH  19  20
HETATM   20  C   UNL     1      -6.240   2.402  70.562  1.00  0.00    -0.023 C  
HETATM   21  O   UNL     1      -5.316   2.189  71.349  1.00  0.00    -0.004 OA 
BRANCH  20  22
HETATM   22  C   UNL     1      -5.959   2.691  69.114  1.00  0.00    -0.024 A  
HETATM   23  C   UNL     1      -6.180   1.561  68.288  1.00  0.00    -0.025 A  
HETATM   24  C   UNL     1      -5.958   1.596  66.917  1.00  0.00    -0.019 A  
HETATM   25  C   UNL     1      -5.520   2.776  66.335  1.00  0.00    -0.017 A  
HETATM   26  C   UNL     1      -5.307   3.910  67.127  1.00  0.00    -0.012 A  
HETATM   27  C   UNL     1      -5.509   3.903  68.525  1.00  0.00    -0.013 A  
BRANCH  27  28
HETATM   28  N   UNL     1      -5.184   5.056  69.271  1.00  0.00     0.000 NA 
HETATM   29  H   UNL     1      -4.192   5.119  69.500  1.00  0.00     0.000 HD 
BRANCH  28  30
HETATM   30  C   UNL     1      -5.947   6.151  69.772  1.00  0.00    -0.025 A  
HETATM   31  C   UNL     1      -6.713   6.927  68.870  1.00  0.00    -0.059 A  
HETATM   32  C   UNL     1      -6.995   6.475  67.571  1.00  0.00    -0.078 A  
HETATM   33  C   UNL     1      -7.629   7.295  66.644  1.00  0.00    -0.093 A  
HETATM   34  C   UNL     1      -7.971   8.602  66.985  1.00  0.00    -0.096 A  
HETATM   35  C   UNL     1      -7.801   9.009  68.325  1.00  0.00    -0.100 A  
HETATM   36  C   UNL     1      -8.463   9.540  65.906  1.00  0.00    -0.125 C  
HETATM   37  C   UNL     1      -7.219   8.180  69.286  1.00  0.00    -0.072 A  
HETATM   38  F   UNL     1      -8.488   8.957  64.670  1.00  0.00    -0.148 F  
HETATM   39  F   UNL     1      -9.722  10.006  66.116  1.00  0.00    -0.218 F  
HETATM   40  F   UNL     1      -7.666  10.636  65.768  1.00  0.00    -0.142 F  
HETATM   41  N   UNL     1      -7.114   8.587  70.560  1.00  0.00    -0.038 NA 
HETATM   42  C   UNL     1      -6.501   7.760  71.445  1.00  0.00    -0.038 A  
HETATM   43  C   UNL     1      -5.888   6.559  71.099  1.00  0.00    -0.028 A  
ENDBRANCH  28  30
ENDBRANCH  27  28
ENDBRANCH  20  22
ENDBRANCH  19  20
ENDBRANCH  18  19
ENDBRANCH  17  18
ENDBRANCH  14  17
ENDBRANCH   7  11
TORSDOF 8
ENDMDL
MODEL      269
REMARK 921   NORMALIZED FREE ENERGY PREDICTED BY IDOCK:   -0.36 KCAL/MOL
REMARK 922        TOTAL FREE ENERGY PREDICTED BY IDOCK:   -3.94 KCAL/MOL
REMARK 923 INTER-LIGAND FREE ENERGY PREDICTED BY IDOCK:   -4.44 KCAL/MOL
REMARK 924 INTRA-LIGAND FREE ENERGY PREDICTED BY IDOCK:    0.50 KCAL/MOL
REMARK 927      BINDING AFFINITY PREDICTED BY RF-SCORE:    0.00 PKD
ROOT
HETATM    1  F   UNL     1      -7.417  14.182  71.868  1.00  0.00     2.037 F  
HETATM    2  C   UNL     1      -6.252  14.141  71.164  1.00  0.00     0.024 C  
HETATM    3  C   UNL     1      -6.349  14.731  69.779  1.00  0.00    -0.152 A  
HETATM    4  F   UNL     1      -5.324  14.770  71.939  1.00  0.00    -0.142 F  
HETATM    5  F   UNL     1      -5.882  12.829  71.138  1.00  0.00    -0.182 F  
HETATM    6  C   UNL     1      -7.561  15.260  69.289  1.00  0.00    -0.213 A  
HETATM    7  C   UNL     1      -7.668  15.709  67.968  1.00  0.00    -0.126 A  
HETATM    8  C   UNL     1      -5.220  14.706  68.947  1.00  0.00    -0.088 A  
HETATM    9  C   UNL     1      -6.508  15.684  67.174  1.00  0.00     0.026 A  
HETATM   10  C   UNL     1      -5.296  15.192  67.649  1.00  0.00    -0.000 A  
ENDROOT
BRANCH   7  11
HETATM   11  N   UNL     1      -8.860  16.132  67.371  1.00  0.00    -0.184 NA 
HETATM   12  C   UNL     1     -11.282  16.646  67.279  1.00  0.00     0.177 C  
HETATM   13  C   UNL     1     -10.158  15.868  68.023  1.00  0.00    -0.230 C  
HETATM   14  N   UNL     1     -11.380  16.387  65.815  1.00  0.00     0.285 NA 
HETATM   15  C   UNL     1      -8.876  15.876  65.912  1.00  0.00    -0.133 C  
HETATM   16  C   UNL     1     -10.031  16.662  65.247  1.00  0.00     0.279 C  
BRANCH  14  17
HETATM   17  C   UNL     1     -11.806  15.006  65.491  1.00  0.00    -0.071 C  
BRANCH  17  18
HETATM   18  C   UNL     1     -10.674  14.038  65.075  1.00  0.00    -0.396 C  
BRANCH  18  19
HETATM   19  O   UNL     1     -10.973  12.656  65.437  1.00  0.00    -0.276 OA 
BRANCH  19  20
HETATM   20  C   UNL     1     -10.794  12.412  66.759  1.00  0.00    -0.248 C  
HETATM   21  O   UNL     1     -11.396  13.030  67.639  1.00  0.00    -0.269 OA 
BRANCH  20  22
HETATM   22  C   UNL     1      -9.841  11.307  67.119  1.00  0.00    -0.213 A  
HETATM   23  C   UNL     1      -8.625  11.390  66.396  1.00  0.00    -0.174 A  
HETATM   24  C   UNL     1      -7.610  10.455  66.553  1.00  0.00    -0.118 A  
HETATM   25  C   UNL     1      -7.784   9.416  67.454  1.00  0.00    -0.095 A  
HETATM   26  C   UNL     1      -8.969   9.318  68.190  1.00  0.00    -0.128 A  
HETATM   27  C   UNL     1     -10.027  10.243  68.043  1.00  0.00    -0.153 A  
BRANCH  27  28
HETATM   28  N   UNL     1     -11.230  10.029  68.749  1.00  0.00    -0.441 NA 
HETATM   29  H   UNL     1     -12.034   9.888  68.138  1.00  0.00     0.000 HD 
BRANCH  28  30
HETATM   30  C   UNL     1     -11.560   9.968  70.135  1.00  0.00    -0.252 A  
HETATM   31  C   UNL     1     -10.977   8.958  70.938  1.00  0.00    -0.325 A  
HETATM   32  C   UNL     1      -9.865   8.223  70.498  1.00  0.00    -0.197 A  
HETATM   33  C   UNL     1      -9.380   7.143  71.227  1.00  0.00    -0.155 A  
HETATM   34  C   UNL     1     -10.018   6.751  72.403  1.00  0.00    -0.184 A  
HETATM   35  C   UNL     1     -11.054   7.566  72.905  1.00  0.00    -0.426 A  
HETATM   36  C   UNL     1      -9.610   5.454  73.065  1.00  0.00    -0.146 C  
HETATM   37  C   UNL     1     -11.517   8.689  72.217  1.00  0.00    -0.353 A  
HETATM   38  F   UNL     1      -8.633   4.793  72.374  1.00  0.00    -0.113 F  
HETATM   39  F   UNL     1      -9.125   5.610  74.325  1.00  0.00    -0.120 F  
HETATM   40  F   UNL     1     -10.642   4.571  73.157  1.00  0.00    -0.204 F  
HETATM   41  N   UNL     1     -12.475   9.464  72.747  1.00  0.00     0.111 NA 
HETATM   42  C   UNL     1     -12.920  10.518  72.017  1.00  0.00    -0.385 A  
HETATM   43  C   UNL     1     -12.515  10.794  70.713  1.00  0.00    -0.481 A  
ENDBRANCH  28  30
ENDBRANCH  27  28
ENDBRANCH  20  22
ENDBRANCH  19  20
ENDBRANCH  18  19
ENDBRANCH  17  18
ENDBRANCH  14  17
ENDBRANCH   7  11
TORSDOF 8
ENDMDL
MODEL      270
REMARK 921   NORMALIZED FREE ENERGY PREDICTED BY IDOCK:   -0.14 KCAL/MOL
REMARK 922        TOTAL FREE ENERGY PREDICTED BY IDOCK:   -3.61 KCAL/MOL
REMARK 923 INTER-LIGAND FREE ENERGY PREDICTED BY IDOCK:   -4.12 KCAL/MOL
REMARK 924 INTRA-LIGAND FREE ENERGY PREDICTED BY IDOCK:    0.51 KCAL/MOL
REMARK 927      BINDING AFFINITY PREDICTED BY RF-SCORE:    0.00 PKD
ROOT
HETATM    1  F   UNL     1      -6.397   3.437  66.996  1.00  0.00    -0.032 F  
HETATM    2  C   UNL     1      -7.282   2.670  66.302  1.00  0.00    -0.065 C  
HETATM    3  C   UNL     1      -8.377   3.457  65.625  1.00  0.00    -0.102 A  
HETATM    4  F   UNL     1      -6.539   1.941  65.423  1.00  0.00    -0.024 F  
HETATM    5  F   UNL     1      -7.777   1.771  67.200  1.00  0.00    -0.057 F  
HETATM    6  C   UNL     1      -8.448   4.861  65.734  1.00  0.00    -0.121 A  
HETATM    7  C   UNL     1      -9.524   5.571  65.191  1.00  0.00     0.280 A  
HETATM    8  C   UNL     1      -9.371   2.768  64.914  1.00  0.00    -0.139 A  
HETATM    9  C   UNL     1     -10.489   4.846  64.470  1.00  0.00     0.644 A  
HETATM   10  C   UNL     1     -10.420   3.462  64.328  1.00  0.00    -0.131 A  
ENDROOT
BRANCH   7  11
HETATM   11  N   UNL     1      -9.731   6.944  65.360  1.00  0.00     0.928 NA 
HETATM   12  C   UNL     1      -9.345   9.355  64.942  1.00  0.00    -0.150 C  
HETATM   13  C   UNL     1      -8.757   7.919  64.830  1.00  0.00     0.157 C  
HETATM   14  N   UNL     1      -9.791   9.762  66.304  1.00  0.00    -0.232 NA 
HETATM   15  C   UNL     1     -10.206   7.274  66.724  1.00  0.00    -0.235 C  
HETATM   16  C   UNL     1     -10.752   8.721  66.762  1.00  0.00    -0.018 C  
BRANCH  14  17
HETATM   17  C   UNL     1      -8.676   9.897  67.270  1.00  0.00    -0.128 C  
BRANCH  17  18
HETATM   18  C   UNL     1      -9.002   9.495  68.727  1.00  0.00    -0.133 C  
BRANCH  18  19
HETATM   19  O   UNL     1      -8.517   8.157  69.049  1.00  0.00    -0.127 OA 
BRANCH  19  20
HETATM   20  C   UNL     1      -8.101   8.047  70.336  1.00  0.00    -0.112 C  
HETATM   21  O   UNL     1      -6.915   8.126  70.662  1.00  0.00    -0.037 OA 
BRANCH  20  22
HETATM   22  C   UNL     1      -9.169   7.861  71.377  1.00  0.00    -0.165 A  
HETATM   23  C   UNL     1      -8.975   6.682  72.140  1.00  0.00    -0.138 A  
HETATM   24  C   UNL     1      -9.858   6.300  73.141  1.00  0.00    -0.173 A  
HETATM   25  C   UNL     1     -10.955   7.102  73.415  1.00  0.00    -0.277 A  
HETATM   26  C   UNL     1     -11.163   8.277  72.686  1.00  0.00    -0.410 A  
HETATM   27  C   UNL     1     -10.292   8.687  71.651  1.00  0.00    -0.296 A  
BRANCH  27  28
HETATM   28  N   UNL     1     -10.615   9.834  70.896  1.00  0.00    -0.310 NA 
HETATM   29  H   UNL     1      -9.944  10.027  70.152  1.00  0.00     0.000 HD 
BRANCH  28  30
HETATM   30  C   UNL     1     -11.679  10.781  70.951  1.00  0.00    -0.234 A  
HETATM   31  C   UNL     1     -11.533  12.021  70.284  1.00  0.00     0.023 A  
HETATM   32  C   UNL     1     -10.526  12.224  69.326  1.00  0.00     0.149 A  
HETATM   33  C   UNL     1     -10.299  13.479  68.774  1.00  0.00    -0.169 A  
HETATM   34  C   UNL     1     -11.054  14.574  69.191  1.00  0.00    -0.284 A  
HETATM   35  C   UNL     1     -12.143  14.343  70.057  1.00  0.00    -0.401 A  
HETATM   36  C   UNL     1     -10.653  15.960  68.740  1.00  0.00    -0.245 C  
HETATM   37  C   UNL     1     -12.425  13.079  70.577  1.00  0.00    -0.231 A  
HETATM   38  F   UNL     1      -9.531  15.957  67.960  1.00  0.00    -0.201 F  
HETATM   39  F   UNL     1     -11.606  16.596  68.009  1.00  0.00    -0.243 F  
HETATM   40  F   UNL     1     -10.359  16.782  69.786  1.00  0.00    -0.254 F  
HETATM   41  N   UNL     1     -13.495  12.890  71.364  1.00  0.00    -0.072 NA 
HETATM   42  C   UNL     1     -13.699  11.651  71.879  1.00  0.00     0.209 A  
HETATM   43  C   UNL     1     -12.818  10.584  71.722  1.00  0.00    -0.559 A  
ENDBRANCH  28  30
ENDBRANCH  27  28
ENDBRANCH  20  22
ENDBRANCH  19  20
ENDBRANCH  18  19
ENDBRANCH  17  18
ENDBRANCH  14  17
ENDBRANCH   7  11
TORSDOF 8
ENDMDL
MODEL      271
REMARK 921   NORMALIZED FREE ENERGY PREDICTED BY IDOCK:    0.68 KCAL/MOL
REMARK 922        TOTAL FREE ENERGY PREDICTED BY IDOCK:   -2.40 KCAL/MOL
REMARK 923 INTER-LIGAND FREE ENERGY PREDICTED BY IDOCK:   -2.36 KCAL/MOL
REMARK 924 INTRA-LIGAND FREE ENERGY PREDICTED BY IDOCK:   -0.04 KCAL/MOL
REMARK 927      BINDING AFFINITY PREDICTED BY RF-SCORE:    0.00 PKD
ROOT
HETATM    1  F   UNL     1     -11.848   6.020  68.396  1.00  0.00     0.027 F  
HETATM    2  C   UNL     1     -10.907   6.177  69.368  1.00  0.00    -0.353 C  
HETATM    3  C   UNL     1     -10.198   7.508  69.326  1.00  0.00    -0.201 A  
HETATM    4  F   UNL     1     -11.549   5.961  70.550  1.00  0.00    -0.372 F  
HETATM    5  F   UNL     1     -10.044   5.132  69.219  1.00  0.00    -0.221 F  
HETATM    6  C   UNL     1     -10.505   8.474  68.345  1.00  0.00    -0.215 A  
HETATM    7  C   UNL     1      -9.771   9.662  68.250  1.00  0.00    -0.146 A  
HETATM    8  C   UNL     1      -9.179   7.766  70.254  1.00  0.00    -0.156 A  
HETATM    9  C   UNL     1      -8.771   9.890  69.211  1.00  0.00    -0.172 A  
HETATM   10  C   UNL     1      -8.473   8.961  70.204  1.00  0.00    -0.150 A  
ENDROOT
BRANCH   7  11
HETATM   11  N   UNL     1      -9.931  10.611  67.235  1.00  0.00    -0.183 NA 
HETATM   12  C   UNL     1      -9.354  11.788  65.133  1.00  0.00    -0.015 C  
HETATM   13  C   UNL     1      -8.832  10.884  66.287  1.00  0.00    -0.179 C  
HETATM   14  N   UNL     1      -9.997  13.064  65.558  1.00  0.00    -0.253 NA 
HETATM   15  C   UNL     1     -10.605  11.838  67.718  1.00  0.00    -0.200 C  
HETATM   16  C   UNL     1     -11.074  12.695  66.518  1.00  0.00    -0.280 C  
BRANCH  14  17
HETATM   17  C   UNL     1      -9.050  14.017  66.184  1.00  0.00     0.077 C  
BRANCH  17  18
HETATM   18  C   UNL     1      -9.424  15.512  66.053  1.00  0.00    -0.352 C  
BRANCH  18  19
HETATM   19  O   UNL     1      -8.248  16.359  65.882  1.00  0.00    -0.274 OA 
BRANCH  19  20
HETATM   20  C   UNL     1      -8.175  17.347  66.809  1.00  0.00    -0.249 C  
HETATM   21  O   UNL     1      -7.272  17.410  67.645  1.00  0.00    -0.160 OA 
BRANCH  20  22
HETATM   22  C   UNL     1      -9.240  18.406  66.752  1.00  0.00    -0.293 A  
HETATM   23  C   UNL     1      -9.198  19.144  65.543  1.00  0.00     0.858 A  
HETATM   24  C   UNL     1     -10.076  20.190  65.289  1.00  0.00     0.284 A  
HETATM   25  C   UNL     1     -11.033  20.514  66.239  1.00  0.00     0.839 A  
HETATM   26  C   UNL     1     -11.103  19.792  67.435  1.00  0.00    -0.157 A  
HETATM   27  C   UNL     1     -10.216  18.733  67.731  1.00  0.00    -0.394 A  
BRANCH  27  28
HETATM   28  N   UNL     1     -10.287  18.111  68.995  1.00  0.00    -0.443 NA 
HETATM   29  H   UNL     1     -10.029  18.732  69.763  1.00  0.00     0.000 HD 
BRANCH  28  30
HETATM   30  C   UNL     1     -10.642  16.800  69.429  1.00  0.00    -0.318 A  
HETATM   31  C   UNL     1      -9.630  15.819  69.556  1.00  0.00    -0.262 A  
HETATM   32  C   UNL     1      -8.269  16.168  69.574  1.00  0.00     0.045 A  
HETATM   33  C   UNL     1      -7.276  15.195  69.561  1.00  0.00    -0.204 A  
HETATM   34  C   UNL     1      -7.619  13.846  69.499  1.00  0.00     0.356 A  
HETATM   35  C   UNL     1      -8.981  13.497  69.608  1.00  0.00     1.587 A  
HETATM   36  C   UNL     1      -6.532  12.819  69.272  1.00  0.00    -0.105 C  
HETATM   37  C   UNL     1      -9.992  14.458  69.681  1.00  0.00     0.326 A  
HETATM   38  F   UNL     1      -5.296  13.383  69.129  1.00  0.00    -0.072 F  
HETATM   39  F   UNL     1      -6.410  11.918  70.281  1.00  0.00    -0.153 F  
HETATM   40  F   UNL     1      -6.730  12.096  68.134  1.00  0.00    -0.058 F  
HETATM   41  N   UNL     1     -11.273  14.088  69.828  1.00  0.00    -0.174 NA 
HETATM   42  C   UNL     1     -12.220  15.060  69.849  1.00  0.00    -0.309 A  
HETATM   43  C   UNL     1     -11.959  16.411  69.633  1.00  0.00     0.311 A  
ENDBRANCH  28  30
ENDBRANCH  27  28
ENDBRANCH  20  22
ENDBRANCH  19  20
ENDBRANCH  18  19
ENDBRANCH  17  18
ENDBRANCH  14  17
ENDBRANCH   7  11
TORSDOF 8
ENDMDL
MODEL      272
REMARK 921   NORMALIZED FREE ENERGY PREDICTED BY IDOCK:    0.77 KCAL/MOL
REMARK 922        TOTAL FREE ENERGY PREDICTED BY IDOCK:   -2.27 KCAL/MOL
REMARK 923 INTER-LIGAND FREE ENERGY PREDICTED BY IDOCK:   -6.05 KCAL/MOL
REMARK 924 INTRA-LIGAND FREE ENERGY PREDICTED BY IDOCK:    3.77 KCAL/MOL
REMARK 927      BINDING AFFINITY PREDICTED BY RF-SCORE:    0.00 PKD
ROOT
HETATM    1  F   UNL     1     -10.947  16.108  70.398  1.00  0.00    -0.300 F  
HETATM    2  C   UNL     1     -10.723  16.910  69.320  1.00  0.00    -0.288 C  
HETATM    3  C   UNL     1      -9.547  16.487  68.475  1.00  0.00    -0.233 A  
HETATM    4  F   UNL     1     -11.892  16.933  68.621  1.00  0.00    -0.057 F  
HETATM    5  F   UNL     1     -10.567  18.168  69.822  1.00  0.00    -0.043 F  
HETATM    6  C   UNL     1      -8.768  15.360  68.809  1.00  0.00    -0.195 A  
HETATM    7  C   UNL     1      -7.619  15.037  68.079  1.00  0.00    -0.119 A  
HETATM    8  C   UNL     1      -9.196  17.263  67.360  1.00  0.00    -0.231 A  
HETATM    9  C   UNL     1      -7.313  15.829  66.958  1.00  0.00    -0.226 A  
HETATM   10  C   UNL     1      -8.087  16.929  66.596  1.00  0.00    -0.298 A  
ENDROOT
BRANCH   7  11
HETATM   11  N   UNL     1      -6.728  14.014  68.419  1.00  0.00    -0.088 NA 
HETATM   12  C   UNL     1      -5.142  12.162  67.980  1.00  0.00    -0.060 C  
HETATM   13  C   UNL     1      -6.303  13.026  67.407  1.00  0.00    -0.087 C  
HETATM   14  N   UNL     1      -5.426  11.483  69.275  1.00  0.00    -0.047 NA 
HETATM   15  C   UNL     1      -7.049  13.406  69.731  1.00  0.00     0.421 C  
HETATM   16  C   UNL     1      -5.861  12.546  70.223  1.00  0.00    -0.159 C  
BRANCH  14  17
HETATM   17  C   UNL     1      -6.463  10.430  69.169  1.00  0.00    -0.048 C  
BRANCH  17  18
HETATM   18  C   UNL     1      -5.937   8.996  68.921  1.00  0.00    -0.044 C  
BRANCH  18  19
HETATM   19  O   UNL     1      -5.270   8.872  67.629  1.00  0.00    -0.034 OA 
BRANCH  19  20
HETATM   20  C   UNL     1      -5.761   9.733  66.703  1.00  0.00    -0.053 C  
HETATM   21  O   UNL     1      -5.133  10.720  66.312  1.00  0.00    -0.059 OA 
BRANCH  20  22
HETATM   22  C   UNL     1      -7.111   9.411  66.129  1.00  0.00    -0.091 A  
HETATM   23  C   UNL     1      -7.344  10.073  64.898  1.00  0.00    -0.140 A  
HETATM   24  C   UNL     1      -8.539   9.939  64.204  1.00  0.00    -0.201 A  
HETATM   25  C   UNL     1      -9.532   9.121  64.722  1.00  0.00     0.152 A  
HETATM   26  C   UNL     1      -9.323   8.446  65.929  1.00  0.00    -0.205 A  
HETATM   27  C   UNL     1      -8.125   8.573  66.667  1.00  0.00    -0.104 A  
BRANCH  27  28
HETATM   28  N   UNL     1      -8.021   7.936  67.922  1.00  0.00    -0.126 NA 
HETATM   29  H   UNL     1      -7.204   8.234  68.457  1.00  0.00     0.000 HD 
BRANCH  28  30
HETATM   30  C   UNL     1      -8.814   6.966  68.602  1.00  0.00    -0.124 A  
HETATM   31  C   UNL     1      -9.974   7.388  69.294  1.00  0.00    -0.173 A  
HETATM   32  C   UNL     1     -10.537   8.656  69.078  1.00  0.00    -0.179 A  
HETATM   33  C   UNL     1     -11.592   9.119  69.856  1.00  0.00     0.119 A  
HETATM   34  C   UNL     1     -12.093   8.334  70.893  1.00  0.00    -0.149 A  
HETATM   35  C   UNL     1     -11.611   7.015  71.026  1.00  0.00    -0.361 A  
HETATM   36  C   UNL     1     -13.089   8.937  71.857  1.00  0.00    -0.386 C  
HETATM   37  C   UNL     1     -10.591   6.511  70.217  1.00  0.00    -0.228 A  
HETATM   38  F   UNL     1     -13.366  10.246  71.581  1.00  0.00    -0.431 F  
HETATM   39  F   UNL     1     -14.292   8.304  71.870  1.00  0.00    -0.422 F  
HETATM   40  F   UNL     1     -12.639   8.930  73.143  1.00  0.00    -0.271 F  
HETATM   41  N   UNL     1     -10.189   5.237  70.344  1.00  0.00    -0.251 NA 
HETATM   42  C   UNL     1      -9.165   4.810  69.563  1.00  0.00    -0.120 A  
HETATM   43  C   UNL     1      -8.439   5.633  68.705  1.00  0.00    -0.105 A  
ENDBRANCH  28  30
ENDBRANCH  27  28
ENDBRANCH  20  22
ENDBRANCH  19  20
ENDBRANCH  18  19
ENDBRANCH  17  18
ENDBRANCH  14  17
ENDBRANCH   7  11
TORSDOF 8
ENDMDL
MODEL      273
REMARK 921   NORMALIZED FREE ENERGY PREDICTED BY IDOCK:    0.85 KCAL/MOL
REMARK 922        TOTAL FREE ENERGY PREDICTED BY IDOCK:   -2.15 KCAL/MOL
REMARK 923 INTER-LIGAND FREE ENERGY PREDICTED BY IDOCK:   -1.79 KCAL/MOL
REMARK 924 INTRA-LIGAND FREE ENERGY PREDICTED BY IDOCK:   -0.36 KCAL/MOL
REMARK 927      BINDING AFFINITY PREDICTED BY RF-SCORE:    0.00 PKD
ROOT
HETATM    1  F   UNL     1      -7.231  14.091  72.646  1.00  0.00     2.002 F  
HETATM    2  C   UNL     1      -6.329  13.518  71.802  1.00  0.00     1.470 C  
HETATM    3  C   UNL     1      -6.295  14.139  70.427  1.00  0.00    -0.103 A  
HETATM    4  F   UNL     1      -5.126  13.584  72.437  1.00  0.00    -0.142 F  
HETATM    5  F   UNL     1      -6.652  12.195  71.759  1.00  0.00     2.017 F  
HETATM    6  C   UNL     1      -7.145  15.210  70.082  1.00  0.00     0.049 A  
HETATM    7  C   UNL     1      -7.180  15.709  68.776  1.00  0.00    -0.133 A  
HETATM    8  C   UNL     1      -5.432  13.603  69.459  1.00  0.00    -0.087 A  
HETATM    9  C   UNL     1      -6.286  15.157  67.841  1.00  0.00    -0.172 A  
HETATM   10  C   UNL     1      -5.419  14.119  68.171  1.00  0.00    -0.122 A  
ENDROOT
BRANCH   7  11
HETATM   11  N   UNL     1      -8.078  16.682  68.325  1.00  0.00    -0.190 NA 
HETATM   12  C   UNL     1     -10.093  18.119  68.433  1.00  0.00    -0.388 C  
HETATM   13  C   UNL     1      -9.405  16.825  68.956  1.00  0.00    -0.212 C  
HETATM   14  N   UNL     1     -10.213  18.229  66.953  1.00  0.00    -0.356 NA 
HETATM   15  C   UNL     1      -8.122  16.761  66.846  1.00  0.00    -0.211 C  
HETATM   16  C   UNL     1      -8.839  18.058  66.404  1.00  0.00    -0.231 C  
BRANCH  14  17
HETATM   17  C   UNL     1     -11.133  17.228  66.363  1.00  0.00     0.435 C  
BRANCH  17  18
HETATM   18  C   UNL     1     -10.491  16.237  65.364  1.00  0.00    -0.343 C  
BRANCH  18  19
HETATM   19  O   UNL     1     -11.279  15.018  65.217  1.00  0.00    -0.345 OA 
BRANCH  19  20
HETATM   20  C   UNL     1     -11.089  14.146  66.238  1.00  0.00    -0.318 C  
HETATM   21  O   UNL     1     -11.216  14.467  67.422  1.00  0.00    -0.302 OA 
BRANCH  20  22
HETATM   22  C   UNL     1     -10.747  12.732  65.864  1.00  0.00    -0.294 A  
HETATM   23  C   UNL     1      -9.900  12.666  64.729  1.00  0.00    -0.064 A  
HETATM   24  C   UNL     1      -9.479  11.456  64.193  1.00  0.00    -0.155 A  
HETATM   25  C   UNL     1      -9.886  10.275  64.794  1.00  0.00    -0.403 A  
HETATM   26  C   UNL     1     -10.711  10.312  65.923  1.00  0.00     0.019 A  
HETATM   27  C   UNL     1     -11.169  11.525  66.483  1.00  0.00    -0.259 A  
BRANCH  27  28
HETATM   28  N   UNL     1     -12.074  11.482  67.566  1.00  0.00    -0.484 NA 
HETATM   29  H   UNL     1     -13.043  11.630  67.284  1.00  0.00     0.000 HD 
BRANCH  28  30
HETATM   30  C   UNL     1     -11.921  11.277  68.968  1.00  0.00    -0.325 A  
HETATM   31  C   UNL     1     -10.985  10.320  69.427  1.00  0.00    -0.289 A  
HETATM   32  C   UNL     1      -9.994   9.799  68.579  1.00  0.00    -0.177 A  
HETATM   33  C   UNL     1      -9.165   8.762  68.991  1.00  0.00    -0.141 A  
HETATM   34  C   UNL     1      -9.327   8.197  70.255  1.00  0.00    -0.155 A  
HETATM   35  C   UNL     1     -10.236   8.804  71.146  1.00  0.00    -0.316 A  
HETATM   36  C   UNL     1      -8.565   6.938  70.602  1.00  0.00    -0.141 C  
HETATM   37  C   UNL     1     -11.037   9.884  70.771  1.00  0.00    -0.347 A  
HETATM   38  F   UNL     1      -7.793   6.486  69.569  1.00  0.00    -0.096 F  
HETATM   39  F   UNL     1      -7.718   7.083  71.655  1.00  0.00    -0.089 F  
HETATM   40  F   UNL     1      -9.390   5.900  70.913  1.00  0.00    -0.156 F  
HETATM   41  N   UNL     1     -11.859  10.463  71.660  1.00  0.00    -0.138 NA 
HETATM   42  C   UNL     1     -12.648  11.481  71.232  1.00  0.00    -0.347 A  
HETATM   43  C   UNL     1     -12.730  11.903  69.908  1.00  0.00     0.248 A  
ENDBRANCH  28  30
ENDBRANCH  27  28
ENDBRANCH  20  22
ENDBRANCH  19  20
ENDBRANCH  18  19
ENDBRANCH  17  18
ENDBRANCH  14  17
ENDBRANCH   7  11
TORSDOF 8
ENDMDL
MODEL      274
REMARK 921   NORMALIZED FREE ENERGY PREDICTED BY IDOCK:    1.07 KCAL/MOL
REMARK 922        TOTAL FREE ENERGY PREDICTED BY IDOCK:   -1.83 KCAL/MOL
REMARK 923 INTER-LIGAND FREE ENERGY PREDICTED BY IDOCK:   -3.20 KCAL/MOL
REMARK 924 INTRA-LIGAND FREE ENERGY PREDICTED BY IDOCK:    1.37 KCAL/MOL
REMARK 927      BINDING AFFINITY PREDICTED BY RF-SCORE:    0.00 PKD
ROOT
HETATM    1  F   UNL     1      -7.051   5.751  62.330  1.00  0.00    -0.039 F  
HETATM    2  C   UNL     1      -6.750   4.558  62.916  1.00  0.00    -0.031 C  
HETATM    3  C   UNL     1      -6.670   4.616  64.421  1.00  0.00    -0.044 A  
HETATM    4  F   UNL     1      -7.689   3.676  62.473  1.00  0.00    -0.053 F  
HETATM    5  F   UNL     1      -5.574   4.158  62.355  1.00  0.00    -0.008 F  
HETATM    6  C   UNL     1      -6.885   5.821  65.123  1.00  0.00    -0.051 A  
HETATM    7  C   UNL     1      -6.706   5.887  66.509  1.00  0.00    -0.057 A  
HETATM    8  C   UNL     1      -6.326   3.456  65.130  1.00  0.00    -0.031 A  
HETATM    9  C   UNL     1      -6.380   4.698  67.184  1.00  0.00    -0.040 A  
HETATM   10  C   UNL     1      -6.192   3.493  66.511  1.00  0.00    -0.028 A  
ENDROOT
BRANCH   7  11
HETATM   11  N   UNL     1      -6.780   7.065  67.260  1.00  0.00    -0.064 NA 
HETATM   12  C   UNL     1      -5.916   8.870  68.721  1.00  0.00    -0.044 C  
HETATM   13  C   UNL     1      -5.704   7.416  68.209  1.00  0.00    -0.027 C  
HETATM   14  N   UNL     1      -7.248   9.150  69.327  1.00  0.00    -0.064 NA 
HETATM   15  C   UNL     1      -8.138   7.298  67.804  1.00  0.00    -0.115 C  
HETATM   16  C   UNL     1      -8.265   8.753  68.313  1.00  0.00    -0.118 C  
BRANCH  14  17
HETATM   17  C   UNL     1      -7.476   8.425  70.599  1.00  0.00    -0.065 C  
BRANCH  17  18
HETATM   18  C   UNL     1      -7.769   9.313  71.830  1.00  0.00     0.576 C  
BRANCH  18  19
HETATM   19  O   UNL     1      -9.199   9.429  72.097  1.00  0.00     0.009 OA 
BRANCH  19  20
HETATM   20  C   UNL     1      -9.893   9.904  71.032  1.00  0.00     0.408 C  
HETATM   21  O   UNL     1      -9.362  10.149  69.946  1.00  0.00    -0.199 OA 
BRANCH  20  22
HETATM   22  C   UNL     1     -11.372  10.087  71.217  1.00  0.00    -0.336 A  
HETATM   23  C   UNL     1     -11.975   8.977  71.859  1.00  0.00    -0.445 A  
HETATM   24  C   UNL     1     -13.340   8.923  72.108  1.00  0.00    -0.489 A  
HETATM   25  C   UNL     1     -14.138   9.993  71.731  1.00  0.00     0.198 A  
HETATM   26  C   UNL     1     -13.566  11.106  71.107  1.00  0.00     0.544 A  
HETATM   27  C   UNL     1     -12.184  11.187  70.826  1.00  0.00    -0.385 A  
BRANCH  27  28
HETATM   28  N   UNL     1     -11.692  12.300  70.111  1.00  0.00    -0.529 NA 
HETATM   29  H   UNL     1     -11.536  13.118  70.701  1.00  0.00     0.000 HD 
BRANCH  28  30
HETATM   30  C   UNL     1     -11.368  12.524  68.741  1.00  0.00    -0.293 A  
HETATM   31  C   UNL     1     -10.262  13.348  68.422  1.00  0.00    -0.251 A  
HETATM   32  C   UNL     1      -9.300  13.690  69.386  1.00  0.00     0.818 A  
HETATM   33  C   UNL     1      -8.293  14.606  69.106  1.00  0.00    -0.055 A  
HETATM   34  C   UNL     1      -8.240  15.229  67.860  1.00  0.00    -0.151 A  
HETATM   35  C   UNL     1      -9.129  14.791  66.856  1.00  0.00    -0.268 A  
HETATM   36  C   UNL     1      -7.274  16.372  67.648  1.00  0.00    -0.134 C  
HETATM   37  C   UNL     1     -10.111  13.829  67.101  1.00  0.00    -0.241 A  
HETATM   38  F   UNL     1      -6.556  16.672  68.772  1.00  0.00    -0.141 F  
HETATM   39  F   UNL     1      -6.352  16.138  66.677  1.00  0.00    -0.157 F  
HETATM   40  F   UNL     1      -7.904  17.530  67.306  1.00  0.00    -0.194 F  
HETATM   41  N   UNL     1     -10.911  13.407  66.109  1.00  0.00    -0.280 NA 
HETATM   42  C   UNL     1     -11.877  12.502  66.410  1.00  0.00    -0.381 A  
HETATM   43  C   UNL     1     -12.156  12.055  67.699  1.00  0.00     0.054 A  
ENDBRANCH  28  30
ENDBRANCH  27  28
ENDBRANCH  20  22
ENDBRANCH  19  20
ENDBRANCH  18  19
ENDBRANCH  17  18
ENDBRANCH  14  17
ENDBRANCH   7  11
TORSDOF 8
ENDMDL
MODEL      275
REMARK 921   NORMALIZED FREE ENERGY PREDICTED BY IDOCK:    1.26 KCAL/MOL
REMARK 922        TOTAL FREE ENERGY PREDICTED BY IDOCK:   -1.55 KCAL/MOL
REMARK 923 INTER-LIGAND FREE ENERGY PREDICTED BY IDOCK:   -6.82 KCAL/MOL
REMARK 924 INTRA-LIGAND FREE ENERGY PREDICTED BY IDOCK:    5.27 KCAL/MOL
REMARK 927      BINDING AFFINITY PREDICTED BY RF-SCORE:    0.00 PKD
ROOT
HETATM    1  F   UNL     1      -8.567   7.582  74.299  1.00  0.00    -0.204 F  
HETATM    2  C   UNL     1      -8.811   6.335  73.809  1.00  0.00    -0.124 C  
HETATM    3  C   UNL     1      -8.554   6.195  72.330  1.00  0.00    -0.119 A  
HETATM    4  F   UNL     1      -8.055   5.484  74.557  1.00  0.00    -0.103 F  
HETATM    5  F   UNL     1     -10.106   6.058  74.132  1.00  0.00    -0.179 F  
HETATM    6  C   UNL     1      -8.108   7.285  71.554  1.00  0.00    -0.101 A  
HETATM    7  C   UNL     1      -7.973   7.173  70.166  1.00  0.00    -0.113 A  
HETATM    8  C   UNL     1      -8.811   4.964  71.707  1.00  0.00    -0.141 A  
HETATM    9  C   UNL     1      -8.222   5.918  69.584  1.00  0.00    -0.110 A  
HETATM   10  C   UNL     1      -8.635   4.822  70.337  1.00  0.00    -0.117 A  
ENDROOT
BRANCH   7  11
HETATM   11  N   UNL     1      -7.657   8.237  69.314  1.00  0.00    -0.092 NA 
HETATM   12  C   UNL     1      -7.981  10.449  68.247  1.00  0.00    -0.111 C  
HETATM   13  C   UNL     1      -8.661   9.276  69.010  1.00  0.00    -0.134 C  
HETATM   14  N   UNL     1      -7.243  10.069  67.010  1.00  0.00    -0.089 NA 
HETATM   15  C   UNL     1      -6.896   7.793  68.123  1.00  0.00    -0.068 C  
HETATM   16  C   UNL     1      -6.270   9.012  67.406  1.00  0.00    -0.059 C  
BRANCH  14  17
HETATM   17  C   UNL     1      -8.128   9.577  65.928  1.00  0.00    -0.115 C  
BRANCH  17  18
HETATM   18  C   UNL     1      -9.477  10.318  65.779  1.00  0.00    -0.203 C  
BRANCH  18  19
HETATM   19  O   UNL     1      -9.295  11.721  65.420  1.00  0.00    -0.190 OA 
BRANCH  19  20
HETATM   20  C   UNL     1      -9.899  12.567  66.293  1.00  0.00    -0.252 C  
HETATM   21  O   UNL     1      -9.845  12.414  67.515  1.00  0.00    -0.190 OA 
BRANCH  20  22
HETATM   22  C   UNL     1     -10.621  13.744  65.702  1.00  0.00    -0.302 A  
HETATM   23  C   UNL     1     -11.201  13.443  64.445  1.00  0.00    -0.408 A  
HETATM   24  C   UNL     1     -11.895  14.393  63.707  1.00  0.00     0.087 A  
HETATM   25  C   UNL     1     -12.039  15.673  64.221  1.00  0.00    -0.071 A  
HETATM   26  C   UNL     1     -11.487  15.993  65.466  1.00  0.00     0.286 A  
HETATM   27  C   UNL     1     -10.763  15.054  66.234  1.00  0.00    -0.322 A  
BRANCH  27  28
HETATM   28  N   UNL     1     -10.155  15.474  67.437  1.00  0.00    -0.243 NA 
HETATM   29  H   UNL     1      -9.228  15.876  67.299  1.00  0.00     0.000 HD 
BRANCH  28  30
HETATM   30  C   UNL     1     -10.561  15.455  68.803  1.00  0.00    -0.235 A  
HETATM   31  C   UNL     1     -10.946  14.225  69.391  1.00  0.00    -0.242 A  
HETATM   32  C   UNL     1     -10.648  12.996  68.780  1.00  0.00    -0.218 A  
HETATM   33  C   UNL     1     -11.144  11.801  69.287  1.00  0.00    -0.278 A  
HETATM   34  C   UNL     1     -11.979  11.807  70.403  1.00  0.00    -0.422 A  
HETATM   35  C   UNL     1     -12.173  13.026  71.085  1.00  0.00    -0.139 A  
HETATM   36  C   UNL     1     -12.676  10.528  70.808  1.00  0.00    -0.381 C  
HETATM   37  C   UNL     1     -11.635  14.230  70.625  1.00  0.00    -0.148 A  
HETATM   38  F   UNL     1     -12.397   9.486  69.970  1.00  0.00    -0.023 F  
HETATM   39  F   UNL     1     -12.347  10.095  72.054  1.00  0.00    -0.453 F  
HETATM   40  F   UNL     1     -14.033  10.647  70.791  1.00  0.00     0.189 F  
HETATM   41  N   UNL     1     -11.806  15.362  71.325  1.00  0.00    -0.341 NA 
HETATM   42  C   UNL     1     -11.300  16.512  70.811  1.00  0.00    -0.036 A  
HETATM   43  C   UNL     1     -10.698  16.612  69.559  1.00  0.00    -0.306 A  
ENDBRANCH  28  30
ENDBRANCH  27  28
ENDBRANCH  20  22
ENDBRANCH  19  20
ENDBRANCH  18  19
ENDBRANCH  17  18
ENDBRANCH  14  17
ENDBRANCH   7  11
TORSDOF 8
ENDMDL
MODEL      276
REMARK 921   NORMALIZED FREE ENERGY PREDICTED BY IDOCK:    2.61 KCAL/MOL
REMARK 922        TOTAL FREE ENERGY PREDICTED BY IDOCK:    0.43 KCAL/MOL
REMARK 923 INTER-LIGAND FREE ENERGY PREDICTED BY IDOCK:   -0.88 KCAL/MOL
REMARK 924 INTRA-LIGAND FREE ENERGY PREDICTED BY IDOCK:    1.31 KCAL/MOL
REMARK 927      BINDING AFFINITY PREDICTED BY RF-SCORE:    0.00 PKD
ROOT
HETATM    1  F   UNL     1      -6.686  12.444  68.808  1.00  0.00    -0.069 F  
HETATM    2  C   UNL     1      -7.172  12.621  67.548  1.00  0.00    -0.155 C  
HETATM    3  C   UNL     1      -7.159  11.371  66.704  1.00  0.00    -0.103 A  
HETATM    4  F   UNL     1      -8.422  13.141  67.698  1.00  0.00    -0.148 F  
HETATM    5  F   UNL     1      -6.421  13.617  66.999  1.00  0.00    -0.034 F  
HETATM    6  C   UNL     1      -6.670  10.148  67.209  1.00  0.00    -0.073 A  
HETATM    7  C   UNL     1      -6.566   9.020  66.386  1.00  0.00    -0.067 A  
HETATM    8  C   UNL     1      -7.598  11.443  65.374  1.00  0.00     0.699 A  
HETATM    9  C   UNL     1      -7.034   9.130  65.065  1.00  0.00    -0.081 A  
HETATM   10  C   UNL     1      -7.546  10.321  64.558  1.00  0.00    -0.095 A  
ENDROOT
BRANCH   7  11
HETATM   11  N   UNL     1      -5.980   7.811  66.774  1.00  0.00    -0.046 NA 
HETATM   12  C   UNL     1      -5.203   5.478  66.470  1.00  0.00    -0.005 C  
HETATM   13  C   UNL     1      -6.143   6.601  65.943  1.00  0.00    -0.034 C  
HETATM   14  N   UNL     1      -5.357   5.137  67.912  1.00  0.00    -0.011 NA 
HETATM   15  C   UNL     1      -6.142   7.551  68.224  1.00  0.00    -0.036 C  
HETATM   16  C   UNL     1      -5.196   6.410  68.668  1.00  0.00    -0.008 C  
BRANCH  14  17
HETATM   17  C   UNL     1      -6.662   4.510  68.230  1.00  0.00    -0.047 C  
BRANCH  17  18
HETATM   18  C   UNL     1      -6.641   3.465  69.371  1.00  0.00    -0.034 C  
BRANCH  18  19
HETATM   19  O   UNL     1      -7.267   3.970  70.588  1.00  0.00    -0.037 OA 
BRANCH  19  20
HETATM   20  C   UNL     1      -8.620   3.874  70.559  1.00  0.00    -0.070 C  
HETATM   21  O   UNL     1      -9.307   3.820  71.582  1.00  0.00    -0.113 OA 
BRANCH  20  22
HETATM   22  C   UNL     1      -9.268   3.873  69.204  1.00  0.00    -0.222 A  
HETATM   23  C   UNL     1      -8.863   2.768  68.415  1.00  0.00    -0.165 A  
HETATM   24  C   UNL     1      -9.319   2.583  67.116  1.00  0.00    -0.089 A  
HETATM   25  C   UNL     1     -10.211   3.498  66.578  1.00  0.00     0.800 A  
HETATM   26  C   UNL     1     -10.638   4.591  67.341  1.00  0.00     0.412 A  
HETATM   27  C   UNL     1     -10.181   4.816  68.658  1.00  0.00     0.010 A  
BRANCH  27  28
HETATM   28  N   UNL     1     -10.582   5.989  69.333  1.00  0.00    -0.263 NA 
HETATM   29  H   UNL     1     -11.200   5.805  70.125  1.00  0.00     0.000 HD 
BRANCH  28  30
HETATM   30  C   UNL     1     -10.308   7.375  69.145  1.00  0.00    -0.208 A  
HETATM   31  C   UNL     1     -10.922   8.321  70.002  1.00  0.00    -0.197 A  
HETATM   32  C   UNL     1     -11.530   7.932  71.206  1.00  0.00    -0.293 A  
HETATM   33  C   UNL     1     -12.249   8.839  71.976  1.00  0.00    -0.447 A  
HETATM   34  C   UNL     1     -12.403  10.156  71.544  1.00  0.00    -0.505 A  
HETATM   35  C   UNL     1     -11.687  10.572  70.403  1.00  0.00    -0.434 A  
HETATM   36  C   UNL     1     -13.359  11.065  72.282  1.00  0.00     0.008 C  
HETATM   37  C   UNL     1     -10.913   9.689  69.647  1.00  0.00    -0.229 A  
HETATM   38  F   UNL     1     -13.994  10.437  73.316  1.00  0.00     0.883 F  
HETATM   39  F   UNL     1     -12.765  12.159  72.827  1.00  0.00     0.160 F  
HETATM   40  F   UNL     1     -14.356  11.532  71.479  1.00  0.00     0.935 F  
HETATM   41  N   UNL     1     -10.212  10.132  68.592  1.00  0.00    -0.168 NA 
HETATM   42  C   UNL     1      -9.510   9.225  67.866  1.00  0.00    -0.137 A  
HETATM   43  C   UNL     1      -9.545   7.850  68.087  1.00  0.00    -0.163 A  
ENDBRANCH  28  30
ENDBRANCH  27  28
ENDBRANCH  20  22
ENDBRANCH  19  20
ENDBRANCH  18  19
ENDBRANCH  17  18
ENDBRANCH  14  17
ENDBRANCH   7  11
TORSDOF 8
ENDMDL
MODEL      277
REMARK 921   NORMALIZED FREE ENERGY PREDICTED BY IDOCK:    2.82 KCAL/MOL
REMARK 922        TOTAL FREE ENERGY PREDICTED BY IDOCK:    0.74 KCAL/MOL
REMARK 923 INTER-LIGAND FREE ENERGY PREDICTED BY IDOCK:   -3.93 KCAL/MOL
REMARK 924 INTRA-LIGAND FREE ENERGY PREDICTED BY IDOCK:    4.67 KCAL/MOL
REMARK 927      BINDING AFFINITY PREDICTED BY RF-SCORE:    0.00 PKD
ROOT
HETATM    1  F   UNL     1     -12.498  11.796  63.609  1.00  0.00    -0.556 F  
HETATM    2  C   UNL     1     -11.837  12.593  64.493  1.00  0.00    -0.379 C  
HETATM    3  C   UNL     1     -10.414  12.167  64.759  1.00  0.00    -0.332 A  
HETATM    4  F   UNL     1     -11.922  13.858  63.994  1.00  0.00    -0.436 F  
HETATM    5  F   UNL     1     -12.592  12.593  65.628  1.00  0.00    -0.503 F  
HETATM    6  C   UNL     1      -9.858  11.032  64.134  1.00  0.00    -0.360 A  
HETATM    7  C   UNL     1      -8.574  10.585  64.466  1.00  0.00    -0.159 A  
HETATM    8  C   UNL     1      -9.648  12.891  65.685  1.00  0.00    -0.036 A  
HETATM    9  C   UNL     1      -7.833  11.349  65.384  1.00  0.00     0.575 A  
HETATM   10  C   UNL     1      -8.355  12.489  65.990  1.00  0.00     0.748 A  
ENDROOT
BRANCH   7  11
HETATM   11  N   UNL     1      -8.000   9.404  63.986  1.00  0.00    -0.133 NA 
HETATM   12  C   UNL     1      -7.691   7.524  62.401  1.00  0.00    -0.119 C  
HETATM   13  C   UNL     1      -8.650   8.643  62.900  1.00  0.00    -0.063 C  
HETATM   14  N   UNL     1      -7.190   6.594  63.452  1.00  0.00    -0.059 NA 
HETATM   15  C   UNL     1      -7.493   8.542  65.080  1.00  0.00    -0.089 C  
HETATM   16  C   UNL     1      -6.568   7.443  64.506  1.00  0.00    -0.040 C  
BRANCH  14  17
HETATM   17  C   UNL     1      -8.251   5.741  64.035  1.00  0.00    -0.084 C  
BRANCH  17  18
HETATM   18  C   UNL     1      -8.723   6.136  65.453  1.00  0.00    -0.062 C  
BRANCH  18  19
HETATM   19  O   UNL     1      -9.031   7.559  65.552  1.00  0.00    -0.054 OA 
BRANCH  19  20
HETATM   20  C   UNL     1     -10.094   7.810  66.357  1.00  0.00    -0.054 C  
HETATM   21  O   UNL     1     -11.032   8.534  66.017  1.00  0.00     1.333 OA 
BRANCH  20  22
HETATM   22  C   UNL     1     -10.105   7.124  67.694  1.00  0.00    -0.229 A  
HETATM   23  C   UNL     1     -10.066   5.713  67.574  1.00  0.00    -0.208 A  
HETATM   24  C   UNL     1     -10.094   4.879  68.684  1.00  0.00    -0.159 A  
HETATM   25  C   UNL     1     -10.146   5.442  69.950  1.00  0.00    -0.322 A  
HETATM   26  C   UNL     1     -10.173   6.833  70.097  1.00  0.00    -0.215 A  
HETATM   27  C   UNL     1     -10.161   7.709  68.988  1.00  0.00    -0.206 A  
BRANCH  27  28
HETATM   28  N   UNL     1     -10.284   9.097  69.209  1.00  0.00    -0.204 NA 
HETATM   29  H   UNL     1     -11.254   9.408  69.280  1.00  0.00     0.000 HD 
BRANCH  28  30
HETATM   30  C   UNL     1      -9.343  10.158  69.353  1.00  0.00    -0.219 A  
HETATM   31  C   UNL     1      -9.777  11.493  69.171  1.00  0.00     0.124 A  
HETATM   32  C   UNL     1     -11.141  11.826  69.165  1.00  0.00    -0.294 A  
HETATM   33  C   UNL     1     -11.567  13.111  68.851  1.00  0.00    -0.354 A  
HETATM   34  C   UNL     1     -10.639  14.091  68.504  1.00  0.00    -0.260 A  
HETATM   35  C   UNL     1      -9.268  13.788  68.634  1.00  0.00    -0.069 A  
HETATM   36  C   UNL     1     -11.132  15.414  67.963  1.00  0.00    -0.312 C  
HETATM   37  C   UNL     1      -8.818  12.519  69.004  1.00  0.00     0.499 A  
HETATM   38  F   UNL     1     -12.494  15.468  67.860  1.00  0.00     0.117 F  
HETATM   39  F   UNL     1     -10.780  16.484  68.724  1.00  0.00    -0.261 F  
HETATM   40  F   UNL     1     -10.668  15.667  66.707  1.00  0.00    -0.296 F  
HETATM   41  N   UNL     1      -7.507  12.281  69.159  1.00  0.00     0.063 NA 
HETATM   42  C   UNL     1      -7.121  11.019  69.478  1.00  0.00    -0.113 A  
HETATM   43  C   UNL     1      -7.988   9.933  69.561  1.00  0.00    -0.149 A  
ENDBRANCH  28  30
ENDBRANCH  27  28
ENDBRANCH  20  22
ENDBRANCH  19  20
ENDBRANCH  18  19
ENDBRANCH  17  18
ENDBRANCH  14  17
ENDBRANCH   7  11
TORSDOF 8
ENDMDL
MODEL      278
REMARK 921   NORMALIZED FREE ENERGY PREDICTED BY IDOCK:    2.96 KCAL/MOL
REMARK 922        TOTAL FREE ENERGY PREDICTED BY IDOCK:    0.94 KCAL/MOL
REMARK 923 INTER-LIGAND FREE ENERGY PREDICTED BY IDOCK:    1.95 KCAL/MOL
REMARK 924 INTRA-LIGAND FREE ENERGY PREDICTED BY IDOCK:   -1.01 KCAL/MOL
REMARK 927      BINDING AFFINITY PREDICTED BY RF-SCORE:    0.00 PKD
ROOT
HETATM    1  F   UNL     1      -9.230  10.543  69.376  1.00  0.00    -0.191 F  
HETATM    2  C   UNL     1      -8.286  10.815  70.319  1.00  0.00     1.326 C  
HETATM    3  C   UNL     1      -7.249   9.731  70.481  1.00  0.00    -0.130 A  
HETATM    4  F   UNL     1      -7.742  12.014  69.970  1.00  0.00     0.674 F  
HETATM    5  F   UNL     1      -8.972  11.044  71.475  1.00  0.00     4.848 F  
HETATM    6  C   UNL     1      -7.294   8.550  69.711  1.00  0.00    -0.056 A  
HETATM    7  C   UNL     1      -6.390   7.507  69.941  1.00  0.00    -0.027 A  
HETATM    8  C   UNL     1      -6.250   9.884  71.453  1.00  0.00     0.142 A  
HETATM    9  C   UNL     1      -5.393   7.708  70.911  1.00  0.00    -0.027 A  
HETATM   10  C   UNL     1      -5.316   8.879  71.661  1.00  0.00    -0.045 A  
ENDROOT
BRANCH   7  11
HETATM   11  N   UNL     1      -6.444   6.261  69.308  1.00  0.00    -0.041 NA 
HETATM   12  C   UNL     1      -5.981   4.617  67.513  1.00  0.00    -0.023 C  
HETATM   13  C   UNL     1      -6.060   6.125  67.889  1.00  0.00    -0.017 C  
HETATM   14  N   UNL     1      -7.209   3.821  67.792  1.00  0.00    -0.061 NA 
HETATM   15  C   UNL     1      -7.673   5.510  69.656  1.00  0.00    -0.078 C  
HETATM   16  C   UNL     1      -7.529   4.029  69.232  1.00  0.00    -0.054 C  
BRANCH  14  17
HETATM   17  C   UNL     1      -8.362   4.206  66.946  1.00  0.00    -0.100 C  
BRANCH  17  18
HETATM   18  C   UNL     1      -8.022   5.057  65.700  1.00  0.00    -0.107 C  
BRANCH  18  19
HETATM   19  O   UNL     1      -9.026   6.084  65.446  1.00  0.00    -0.097 OA 
BRANCH  19  20
HETATM   20  C   UNL     1      -8.616   7.321  65.824  1.00  0.00    -0.131 C  
HETATM   21  O   UNL     1      -8.207   7.569  66.960  1.00  0.00    -0.120 OA 
BRANCH  20  22
HETATM   22  C   UNL     1      -8.643   8.393  64.771  1.00  0.00    -0.077 A  
HETATM   23  C   UNL     1      -8.383   7.880  63.476  1.00  0.00     0.077 A  
HETATM   24  C   UNL     1      -8.334   8.699  62.356  1.00  0.00    -0.200 A  
HETATM   25  C   UNL     1      -8.562  10.059  62.504  1.00  0.00    -0.202 A  
HETATM   26  C   UNL     1      -8.834  10.589  63.770  1.00  0.00    -0.208 A  
HETATM   27  C   UNL     1      -8.876   9.786  64.931  1.00  0.00    -0.197 A  
BRANCH  27  28
HETATM   28  N   UNL     1      -9.064  10.402  66.186  1.00  0.00    -0.156 NA 
HETATM   29  H   UNL     1      -8.219  10.413  66.759  1.00  0.00     0.000 HD 
BRANCH  28  30
HETATM   30  C   UNL     1     -10.182  11.014  66.825  1.00  0.00    -0.229 A  
HETATM   31  C   UNL     1     -10.192  12.419  66.999  1.00  0.00    -0.232 A  
HETATM   32  C   UNL     1      -9.303  13.251  66.299  1.00  0.00    -0.134 A  
HETATM   33  C   UNL     1      -9.222  14.611  66.573  1.00  0.00    -0.294 A  
HETATM   34  C   UNL     1     -10.008  15.171  67.579  1.00  0.00    -0.225 A  
HETATM   35  C   UNL     1     -10.987  14.360  68.191  1.00  0.00    -0.265 A  
HETATM   36  C   UNL     1      -9.754  16.599  68.004  1.00  0.00    -0.241 C  
HETATM   37  C   UNL     1     -11.123  13.003  67.888  1.00  0.00    -0.255 A  
HETATM   38  F   UNL     1      -8.718  17.176  67.324  1.00  0.00    -0.194 F  
HETATM   39  F   UNL     1     -10.818  17.424  67.818  1.00  0.00    -0.361 F  
HETATM   40  F   UNL     1      -9.417  16.697  69.320  1.00  0.00    -0.258 F  
HETATM   41  N   UNL     1     -12.094  12.274  68.459  1.00  0.00    -0.272 NA 
HETATM   42  C   UNL     1     -12.156  10.951  68.164  1.00  0.00     0.341 A  
HETATM   43  C   UNL     1     -11.221  10.279  67.381  1.00  0.00    -0.145 A  
ENDBRANCH  28  30
ENDBRANCH  27  28
ENDBRANCH  20  22
ENDBRANCH  19  20
ENDBRANCH  18  19
ENDBRANCH  17  18
ENDBRANCH  14  17
ENDBRANCH   7  11
TORSDOF 8
ENDMDL
MODEL      279
REMARK 921   NORMALIZED FREE ENERGY PREDICTED BY IDOCK:    3.11 KCAL/MOL
REMARK 922        TOTAL FREE ENERGY PREDICTED BY IDOCK:    1.16 KCAL/MOL
REMARK 923 INTER-LIGAND FREE ENERGY PREDICTED BY IDOCK:    1.72 KCAL/MOL
REMARK 924 INTRA-LIGAND FREE ENERGY PREDICTED BY IDOCK:   -0.55 KCAL/MOL
REMARK 927      BINDING AFFINITY PREDICTED BY RF-SCORE:    0.00 PKD
ROOT
HETATM    1  F   UNL     1     -11.064  18.234  72.186  1.00  0.00     0.847 F  
HETATM    2  C   UNL     1     -11.528  17.791  73.388  1.00  0.00     1.393 C  
HETATM    3  C   UNL     1     -11.993  16.356  73.374  1.00  0.00    -0.474 A  
HETATM    4  F   UNL     1     -10.523  18.009  74.282  1.00  0.00     1.595 F  
HETATM    5  F   UNL     1     -12.527  18.650  73.738  1.00  0.00     2.736 F  
HETATM    6  C   UNL     1     -11.944  15.578  72.199  1.00  0.00    -0.534 A  
HETATM    7  C   UNL     1     -12.475  14.283  72.171  1.00  0.00    -0.219 A  
HETATM    8  C   UNL     1     -12.531  15.803  74.547  1.00  0.00    -0.755 A  
HETATM    9  C   UNL     1     -12.986  13.760  73.371  1.00  0.00     0.838 A  
HETATM   10  C   UNL     1     -13.017  14.503  74.548  1.00  0.00     2.547 A  
ENDROOT
BRANCH   7  11
HETATM   11  N   UNL     1     -12.576  13.496  71.019  1.00  0.00    -0.365 NA 
HETATM   12  C   UNL     1     -13.010  11.425  69.730  1.00  0.00     0.554 C  
HETATM   13  C   UNL     1     -12.666  12.026  71.124  1.00  0.00    -0.266 C  
HETATM   14  N   UNL     1     -12.089  11.807  68.622  1.00  0.00    -0.421 NA 
HETATM   15  C   UNL     1     -11.659  13.950  69.948  1.00  0.00    -0.241 C  
HETATM   16  C   UNL     1     -12.047  13.295  68.602  1.00  0.00    -0.222 C  
BRANCH  14  17
HETATM   17  C   UNL     1     -10.724  11.253  68.778  1.00  0.00    -0.203 C  
BRANCH  17  18
HETATM   18  C   UNL     1     -10.640   9.854  69.431  1.00  0.00    -0.229 C  
BRANCH  18  19
HETATM   19  O   UNL     1      -9.610   9.022  68.818  1.00  0.00    -0.150 OA 
BRANCH  19  20
HETATM   20  C   UNL     1      -9.189   9.507  67.623  1.00  0.00    -0.124 C  
HETATM   21  O   UNL     1      -9.675   9.147  66.549  1.00  0.00    -0.198 OA 
BRANCH  20  22
HETATM   22  C   UNL     1      -8.111  10.553  67.660  1.00  0.00    -0.107 A  
HETATM   23  C   UNL     1      -7.296  10.443  68.815  1.00  0.00    -0.089 A  
HETATM   24  C   UNL     1      -6.253  11.325  69.066  1.00  0.00    -0.056 A  
HETATM   25  C   UNL     1      -5.989  12.335  68.154  1.00  0.00    -0.058 A  
HETATM   26  C   UNL     1      -6.769  12.457  67.000  1.00  0.00    -0.005 A  
HETATM   27  C   UNL     1      -7.847  11.587  66.722  1.00  0.00    -0.146 A  
BRANCH  27  28
HETATM   28  N   UNL     1      -8.649  11.828  65.586  1.00  0.00    -0.373 NA 
HETATM   29  H   UNL     1      -8.386  11.257  64.781  1.00  0.00     0.000 HD 
BRANCH  28  30
HETATM   30  C   UNL     1      -9.747  12.697  65.322  1.00  0.00    -0.026 A  
HETATM   31  C   UNL     1      -9.775  13.975  65.931  1.00  0.00    -0.250 A  
HETATM   32  C   UNL     1      -8.629  14.530  66.523  1.00  0.00     0.022 A  
HETATM   33  C   UNL     1      -8.692  15.721  67.238  1.00  0.00    -0.210 A  
HETATM   34  C   UNL     1      -9.913  16.373  67.405  1.00  0.00    -0.251 A  
HETATM   35  C   UNL     1     -11.034  15.881  66.705  1.00  0.00    -0.151 A  
HETATM   36  C   UNL     1      -9.998  17.544  68.358  1.00  0.00    -0.335 C  
HETATM   37  C   UNL     1     -10.978  14.718  65.935  1.00  0.00    -0.335 A  
HETATM   38  F   UNL     1      -8.809  17.808  68.977  1.00  0.00    -0.252 F  
HETATM   39  F   UNL     1     -10.368  18.709  67.763  1.00  0.00    -0.348 F  
HETATM   40  F   UNL     1     -10.887  17.329  69.367  1.00  0.00    -0.291 F  
HETATM   41  N   UNL     1     -12.055  14.305  65.249  1.00  0.00    -0.388 NA 
HETATM   42  C   UNL     1     -11.960  13.145  64.550  1.00  0.00    -0.389 A  
HETATM   43  C   UNL     1     -10.850  12.305  64.575  1.00  0.00    -0.355 A  
ENDBRANCH  28  30
ENDBRANCH  27  28
ENDBRANCH  20  22
ENDBRANCH  19  20
ENDBRANCH  18  19
ENDBRANCH  17  18
ENDBRANCH  14  17
ENDBRANCH   7  11
TORSDOF 8
ENDMDL
MODEL      280
REMARK 921   NORMALIZED FREE ENERGY PREDICTED BY IDOCK:    3.22 KCAL/MOL
REMARK 922        TOTAL FREE ENERGY PREDICTED BY IDOCK:    1.32 KCAL/MOL
REMARK 923 INTER-LIGAND FREE ENERGY PREDICTED BY IDOCK:   -2.85 KCAL/MOL
REMARK 924 INTRA-LIGAND FREE ENERGY PREDICTED BY IDOCK:    4.17 KCAL/MOL
REMARK 927      BINDING AFFINITY PREDICTED BY RF-SCORE:    0.00 PKD
ROOT
HETATM    1  F   UNL     1     -11.375  13.373  66.487  1.00  0.00    -0.294 F  
HETATM    2  C   UNL     1     -12.209  14.118  67.265  1.00  0.00    -0.279 C  
HETATM    3  C   UNL     1     -12.407  13.567  68.655  1.00  0.00     0.030 A  
HETATM    4  F   UNL     1     -11.694  15.379  67.268  1.00  0.00    -0.293 F  
HETATM    5  F   UNL     1     -13.382  14.200  66.575  1.00  0.00     0.162 F  
HETATM    6  C   UNL     1     -11.773  12.378  69.073  1.00  0.00    -0.372 A  
HETATM    7  C   UNL     1     -12.044  11.820  70.327  1.00  0.00    -0.342 A  
HETATM    8  C   UNL     1     -13.280  14.229  69.532  1.00  0.00     1.341 A  
HETATM    9  C   UNL     1     -12.910  12.525  71.182  1.00  0.00    -0.303 A  
HETATM   10  C   UNL     1     -13.522  13.715  70.799  1.00  0.00     0.186 A  
ENDROOT
BRANCH   7  11
HETATM   11  N   UNL     1     -11.554  10.586  70.765  1.00  0.00    -0.347 NA 
HETATM   12  C   UNL     1      -9.809   8.935  71.371  1.00  0.00    -0.306 C  
HETATM   13  C   UNL     1     -10.129  10.241  70.589  1.00  0.00     0.449 C  
HETATM   14  N   UNL     1     -10.667   7.762  71.041  1.00  0.00    -0.225 NA 
HETATM   15  C   UNL     1     -12.471   9.470  70.434  1.00  0.00     0.176 C  
HETATM   16  C   UNL     1     -12.077   8.203  71.230  1.00  0.00    -0.288 C  
BRANCH  14  17
HETATM   17  C   UNL     1     -10.464   7.258  69.662  1.00  0.00    -0.231 C  
BRANCH  17  18
HETATM   18  C   UNL     1     -10.101   8.327  68.606  1.00  0.00    -0.197 C  
BRANCH  18  19
HETATM   19  O   UNL     1      -9.069   9.243  69.084  1.00  0.00    -0.139 OA 
BRANCH  19  20
HETATM   20  C   UNL     1      -8.713  10.161  68.152  1.00  0.00    -0.122 C  
HETATM   21  O   UNL     1      -9.277  10.257  67.060  1.00  0.00    -0.148 OA 
BRANCH  20  22
HETATM   22  C   UNL     1      -7.604  11.105  68.523  1.00  0.00    -0.120 A  
HETATM   23  C   UNL     1      -6.333  10.481  68.487  1.00  0.00    -0.050 A  
HETATM   24  C   UNL     1      -5.169  11.162  68.820  1.00  0.00    -0.040 A  
HETATM   25  C   UNL     1      -5.249  12.497  69.184  1.00  0.00    -0.068 A  
HETATM   26  C   UNL     1      -6.491  13.141  69.215  1.00  0.00    -0.107 A  
HETATM   27  C   UNL     1      -7.695  12.473  68.898  1.00  0.00     0.085 A  
BRANCH  27  28
HETATM   28  N   UNL     1      -8.919  13.160  69.041  1.00  0.00    -0.237 NA 
HETATM   29  H   UNL     1      -9.727  12.538  69.074  1.00  0.00     0.000 HD 
BRANCH  28  30
HETATM   30  C   UNL     1      -9.268  14.538  69.150  1.00  0.00     0.023 A  
HETATM   31  C   UNL     1      -8.632  15.478  68.304  1.00  0.00    -0.161 A  
HETATM   32  C   UNL     1      -7.914  15.074  67.167  1.00  0.00    -0.238 A  
HETATM   33  C   UNL     1      -7.179  15.984  66.417  1.00  0.00     0.401 A  
HETATM   34  C   UNL     1      -7.117  17.322  66.804  1.00  0.00    -0.248 A  
HETATM   35  C   UNL     1      -7.938  17.747  67.870  1.00  0.00    -0.233 A  
HETATM   36  C   UNL     1      -6.148  18.247  66.104  1.00  0.00    -0.200 C  
HETATM   37  C   UNL     1      -8.729  16.858  68.600  1.00  0.00    -0.267 A  
HETATM   38  F   UNL     1      -5.407  17.611  65.149  1.00  0.00    -0.123 F  
HETATM   39  F   UNL     1      -6.746  19.290  65.470  1.00  0.00    -0.246 F  
HETATM   40  F   UNL     1      -5.238  18.790  66.960  1.00  0.00    -0.131 F  
HETATM   41  N   UNL     1      -9.529  17.306  69.579  1.00  0.00     0.217 NA 
HETATM   42  C   UNL     1     -10.244  16.395  70.287  1.00  0.00     0.393 A  
HETATM   43  C   UNL     1     -10.131  15.016  70.127  1.00  0.00     0.046 A  
ENDBRANCH  28  30
ENDBRANCH  27  28
ENDBRANCH  20  22
ENDBRANCH  19  20
ENDBRANCH  18  19
ENDBRANCH  17  18
ENDBRANCH  14  17
ENDBRANCH   7  11
TORSDOF 8
ENDMDL
MODEL      281
REMARK 921   NORMALIZED FREE ENERGY PREDICTED BY IDOCK:    3.81 KCAL/MOL
REMARK 922        TOTAL FREE ENERGY PREDICTED BY IDOCK:    2.20 KCAL/MOL
REMARK 923 INTER-LIGAND FREE ENERGY PREDICTED BY IDOCK:   -5.94 KCAL/MOL
REMARK 924 INTRA-LIGAND FREE ENERGY PREDICTED BY IDOCK:    8.14 KCAL/MOL
REMARK 927      BINDING AFFINITY PREDICTED BY RF-SCORE:    0.00 PKD
ROOT
HETATM    1  F   UNL     1     -10.832  15.579  70.346  1.00  0.00    -0.270 F  
HETATM    2  C   UNL     1     -10.671  16.396  69.268  1.00  0.00    -0.325 C  
HETATM    3  C   UNL     1      -9.554  15.980  68.344  1.00  0.00    -0.206 A  
HETATM    4  F   UNL     1     -11.882  16.437  68.644  1.00  0.00    -0.330 F  
HETATM    5  F   UNL     1     -10.476  17.645  69.778  1.00  0.00    -0.225 F  
HETATM    6  C   UNL     1      -8.763  14.843  68.611  1.00  0.00    -0.177 A  
HETATM    7  C   UNL     1      -7.664  14.526  67.805  1.00  0.00    -0.156 A  
HETATM    8  C   UNL     1      -9.269  16.771  67.221  1.00  0.00    -0.234 A  
HETATM    9  C   UNL     1      -7.424  15.333  66.680  1.00  0.00     0.437 A  
HETATM   10  C   UNL     1      -8.212  16.442  66.383  1.00  0.00    -0.366 A  
ENDROOT
BRANCH   7  11
HETATM   11  N   UNL     1      -6.760  13.492  68.072  1.00  0.00    -0.119 NA 
HETATM   12  C   UNL     1      -5.192  11.660  67.505  1.00  0.00    -0.067 C  
HETATM   13  C   UNL     1      -6.374  12.543  67.010  1.00  0.00     0.095 C  
HETATM   14  N   UNL     1      -5.426  10.934  68.785  1.00  0.00    -0.041 NA 
HETATM   15  C   UNL     1      -7.030  12.836  69.373  1.00  0.00     0.110 C  
HETATM   16  C   UNL     1      -5.823  11.961  69.787  1.00  0.00    -0.120 C  
BRANCH  14  17
HETATM   17  C   UNL     1      -6.465   9.883  68.681  1.00  0.00    -0.046 C  
BRANCH  17  18
HETATM   18  C   UNL     1      -6.022   8.569  67.996  1.00  0.00    -0.046 C  
BRANCH  18  19
HETATM   19  O   UNL     1      -5.574   8.788  66.625  1.00  0.00    -0.039 OA 
BRANCH  19  20
HETATM   20  C   UNL     1      -6.149   9.876  66.054  1.00  0.00    -0.072 C  
HETATM   21  O   UNL     1      -5.531  10.921  65.838  1.00  0.00    -0.120 OA 
BRANCH  20  22
HETATM   22  C   UNL     1      -7.591   9.745  65.652  1.00  0.00    -0.109 A  
HETATM   23  C   UNL     1      -7.779   9.927  64.259  1.00  0.00    -0.139 A  
HETATM   24  C   UNL     1      -9.036   9.874  63.672  1.00  0.00    -0.294 A  
HETATM   25  C   UNL     1     -10.142   9.619  64.469  1.00  0.00     0.664 A  
HETATM   26  C   UNL     1      -9.983   9.421  65.845  1.00  0.00    -0.327 A  
HETATM   27  C   UNL     1      -8.720   9.485  66.475  1.00  0.00    -0.134 A  
BRANCH  27  28
HETATM   28  N   UNL     1      -8.647   9.368  67.879  1.00  0.00    -0.120 NA 
HETATM   29  H   UNL     1      -7.734   9.627  68.257  1.00  0.00     0.000 HD 
BRANCH  28  30
HETATM   30  C   UNL     1      -9.576   8.966  68.883  1.00  0.00    -0.160 A  
HETATM   31  C   UNL     1     -10.523   9.903  69.361  1.00  0.00    -0.250 A  
HETATM   32  C   UNL     1     -10.783  11.099  68.671  1.00  0.00    -0.234 A  
HETATM   33  C   UNL     1     -11.610  12.077  69.211  1.00  0.00    -0.380 A  
HETATM   34  C   UNL     1     -12.175  11.897  70.472  1.00  0.00    -0.426 A  
HETATM   35  C   UNL     1     -12.014  10.647  71.104  1.00  0.00    -0.401 A  
HETATM   36  C   UNL     1     -12.893  13.054  71.129  1.00  0.00    -0.245 C  
HETATM   37  C   UNL     1     -11.234   9.629  70.551  1.00  0.00    -0.297 A  
HETATM   38  F   UNL     1     -12.873  14.189  70.367  1.00  0.00    -0.383 F  
HETATM   39  F   UNL     1     -14.205  12.810  71.387  1.00  0.00     0.358 F  
HETATM   40  F   UNL     1     -12.328  13.410  72.316  1.00  0.00    -0.128 F  
HETATM   41  N   UNL     1     -11.140   8.437  71.161  1.00  0.00    -0.247 NA 
HETATM   42  C   UNL     1     -10.334   7.497  70.605  1.00  0.00    -0.208 A  
HETATM   43  C   UNL     1      -9.525   7.719  69.494  1.00  0.00    -0.160 A  
ENDBRANCH  28  30
ENDBRANCH  27  28
ENDBRANCH  20  22
ENDBRANCH  19  20
ENDBRANCH  18  19
ENDBRANCH  17  18
ENDBRANCH  14  17
ENDBRANCH   7  11
TORSDOF 8
ENDMDL
MODEL      282
REMARK 921   NORMALIZED FREE ENERGY PREDICTED BY IDOCK:    3.91 KCAL/MOL
REMARK 922        TOTAL FREE ENERGY PREDICTED BY IDOCK:    2.33 KCAL/MOL
REMARK 923 INTER-LIGAND FREE ENERGY PREDICTED BY IDOCK:    1.94 KCAL/MOL
REMARK 924 INTRA-LIGAND FREE ENERGY PREDICTED BY IDOCK:    0.40 KCAL/MOL
REMARK 927      BINDING AFFINITY PREDICTED BY RF-SCORE:    0.00 PKD
ROOT
HETATM    1  F   UNL     1      -9.437  15.120  71.858  1.00  0.00     1.572 F  
HETATM    2  C   UNL     1      -9.909  15.741  70.741  1.00  0.00     1.164 C  
HETATM    3  C   UNL     1      -9.449  15.112  69.450  1.00  0.00    -0.185 A  
HETATM    4  F   UNL     1     -11.265  15.755  70.865  1.00  0.00    -0.294 F  
HETATM    5  F   UNL     1      -9.515  17.042  70.847  1.00  0.00     2.468 F  
HETATM    6  C   UNL     1      -8.599  13.987  69.441  1.00  0.00     0.569 A  
HETATM    7  C   UNL     1      -8.095  13.475  68.240  1.00  0.00    -0.155 A  
HETATM    8  C   UNL     1      -9.840  15.692  68.233  1.00  0.00    -0.209 A  
HETATM    9  C   UNL     1      -8.526  14.074  67.043  1.00  0.00    -0.168 A  
HETATM   10  C   UNL     1      -9.388  15.167  67.031  1.00  0.00    -0.244 A  
ENDROOT
BRANCH   7  11
HETATM   11  N   UNL     1      -7.154  12.445  68.153  1.00  0.00    -0.087 NA 
HETATM   12  C   UNL     1      -5.193  11.248  67.223  1.00  0.00    -0.054 C  
HETATM   13  C   UNL     1      -6.298  12.311  66.957  1.00  0.00    -0.050 C  
HETATM   14  N   UNL     1      -5.682   9.910  67.658  1.00  0.00    -0.039 NA 
HETATM   15  C   UNL     1      -7.694  11.151  68.632  1.00  0.00    -0.135 C  
HETATM   16  C   UNL     1      -6.543  10.142  68.851  1.00  0.00    -0.049 C  
BRANCH  14  17
HETATM   17  C   UNL     1      -6.440   9.192  66.606  1.00  0.00    -0.067 C  
BRANCH  17  18
HETATM   18  C   UNL     1      -7.606   8.309  67.108  1.00  0.00    -0.093 C  
BRANCH  18  19
HETATM   19  O   UNL     1      -7.166   6.960  67.449  1.00  0.00    -0.085 OA 
BRANCH  19  20
HETATM   20  C   UNL     1      -6.402   6.398  66.479  1.00  0.00    -0.042 C  
HETATM   21  O   UNL     1      -5.190   6.600  66.385  1.00  0.00    -0.016 OA 
BRANCH  20  22
HETATM   22  C   UNL     1      -7.098   5.469  65.525  1.00  0.00    -0.066 A  
HETATM   23  C   UNL     1      -6.217   4.946  64.546  1.00  0.00    -0.030 A  
HETATM   24  C   UNL     1      -6.653   4.086  63.547  1.00  0.00    -0.034 A  
HETATM   25  C   UNL     1      -7.988   3.714  63.513  1.00  0.00    -0.087 A  
HETATM   26  C   UNL     1      -8.876   4.205  64.475  1.00  0.00    -0.137 A  
HETATM   27  C   UNL     1      -8.468   5.094  65.495  1.00  0.00    -0.138 A  
BRANCH  27  28
HETATM   28  N   UNL     1      -9.437   5.621  66.375  1.00  0.00    -0.153 NA 
HETATM   29  H   UNL     1     -10.269   5.966  65.895  1.00  0.00     0.000 HD 
BRANCH  28  30
HETATM   30  C   UNL     1      -9.502   5.775  67.791  1.00  0.00    -0.112 A  
HETATM   31  C   UNL     1     -10.103   6.938  68.330  1.00  0.00    -0.177 A  
HETATM   32  C   UNL     1     -10.904   7.781  67.544  1.00  0.00    -0.182 A  
HETATM   33  C   UNL     1     -11.380   8.990  68.038  1.00  0.00     0.656 A  
HETATM   34  C   UNL     1     -11.039   9.403  69.325  1.00  0.00    -0.068 A  
HETATM   35  C   UNL     1     -10.341   8.499  70.153  1.00  0.00    -0.214 A  
HETATM   36  C   UNL     1     -11.386  10.807  69.764  1.00  0.00    -0.300 C  
HETATM   37  C   UNL     1      -9.904   7.255  69.694  1.00  0.00    -0.163 A  
HETATM   38  F   UNL     1     -12.002  11.531  68.782  1.00  0.00    -0.335 F  
HETATM   39  F   UNL     1     -12.222  10.856  70.834  1.00  0.00    -0.369 F  
HETATM   40  F   UNL     1     -10.284  11.532  70.106  1.00  0.00     0.438 F  
HETATM   41  N   UNL     1      -9.281   6.404  70.524  1.00  0.00    -0.158 NA 
HETATM   42  C   UNL     1      -8.838   5.226  70.016  1.00  0.00    -0.120 A  
HETATM   43  C   UNL     1      -8.904   4.881  68.668  1.00  0.00    -0.116 A  
ENDBRANCH  28  30
ENDBRANCH  27  28
ENDBRANCH  20  22
ENDBRANCH  19  20
ENDBRANCH  18  19
ENDBRANCH  17  18
ENDBRANCH  14  17
ENDBRANCH   7  11
TORSDOF 8
ENDMDL
MODEL      283
REMARK 921   NORMALIZED FREE ENERGY PREDICTED BY IDOCK:    4.09 KCAL/MOL
REMARK 922        TOTAL FREE ENERGY PREDICTED BY IDOCK:    2.60 KCAL/MOL
REMARK 923 INTER-LIGAND FREE ENERGY PREDICTED BY IDOCK:   -0.85 KCAL/MOL
REMARK 924 INTRA-LIGAND FREE ENERGY PREDICTED BY IDOCK:    3.45 KCAL/MOL
REMARK 927      BINDING AFFINITY PREDICTED BY RF-SCORE:    0.00 PKD
ROOT
HETATM    1  F   UNL     1     -11.867  13.018  64.861  1.00  0.00    -0.336 F  
HETATM    2  C   UNL     1     -11.612  12.774  66.177  1.00  0.00    -0.379 C  
HETATM    3  C   UNL     1     -10.364  11.960  66.419  1.00  0.00    -0.252 A  
HETATM    4  F   UNL     1     -11.570  13.992  66.784  1.00  0.00    -0.326 F  
HETATM    5  F   UNL     1     -12.727  12.157  66.661  1.00  0.00     0.381 F  
HETATM    6  C   UNL     1      -9.565  11.505  65.350  1.00  0.00    -0.249 A  
HETATM    7  C   UNL     1      -8.469  10.664  65.579  1.00  0.00    -0.175 A  
HETATM    8  C   UNL     1     -10.023  11.611  67.734  1.00  0.00    -0.191 A  
HETATM    9  C   UNL     1      -8.151  10.354  66.912  1.00  0.00    -0.118 A  
HETATM   10  C   UNL     1      -8.911  10.818  67.982  1.00  0.00    -0.139 A  
ENDROOT
BRANCH   7  11
HETATM   11  N   UNL     1      -7.703  10.072  64.569  1.00  0.00    -0.143 NA 
HETATM   12  C   UNL     1      -7.318   8.797  62.481  1.00  0.00    -0.101 C  
HETATM   13  C   UNL     1      -8.316   9.110  63.632  1.00  0.00    -0.187 C  
HETATM   14  N   UNL     1      -5.975   8.314  62.909  1.00  0.00    -0.077 NA 
HETATM   15  C   UNL     1      -6.370   9.647  65.055  1.00  0.00    -0.089 C  
HETATM   16  C   UNL     1      -5.443   9.332  63.858  1.00  0.00    -0.062 C  
BRANCH  14  17
HETATM   17  C   UNL     1      -6.009   6.979  63.549  1.00  0.00    -0.043 C  
BRANCH  17  18
HETATM   18  C   UNL     1      -6.243   5.785  62.594  1.00  0.00    -0.025 C  
BRANCH  18  19
HETATM   19  O   UNL     1      -7.205   4.830  63.134  1.00  0.00    -0.046 OA 
BRANCH  19  20
HETATM   20  C   UNL     1      -6.856   4.373  64.363  1.00  0.00    -0.045 C  
HETATM   21  O   UNL     1      -5.741   4.565  64.853  1.00  0.00    -0.014 OA 
BRANCH  20  22
HETATM   22  C   UNL     1      -7.915   3.641  65.137  1.00  0.00    -0.090 A  
HETATM   23  C   UNL     1      -8.467   2.561  64.404  1.00  0.00    -0.087 A  
HETATM   24  C   UNL     1      -9.480   1.763  64.919  1.00  0.00    -0.021 A  
HETATM   25  C   UNL     1      -9.957   2.019  66.195  1.00  0.00     1.083 A  
HETATM   26  C   UNL     1      -9.421   3.071  66.945  1.00  0.00    -0.076 A  
HETATM   27  C   UNL     1      -8.400   3.911  66.445  1.00  0.00    -0.105 A  
BRANCH  27  28
HETATM   28  N   UNL     1      -7.973   5.009  67.222  1.00  0.00    -0.099 NA 
HETATM   29  H   UNL     1      -7.751   5.833  66.663  1.00  0.00     0.000 HD 
BRANCH  28  30
HETATM   30  C   UNL     1      -7.784   5.211  68.620  1.00  0.00    -0.079 A  
HETATM   31  C   UNL     1      -7.657   6.532  69.114  1.00  0.00    -0.100 A  
HETATM   32  C   UNL     1      -8.018   7.644  68.335  1.00  0.00    -0.123 A  
HETATM   33  C   UNL     1      -7.765   8.940  68.768  1.00  0.00    -0.096 A  
HETATM   34  C   UNL     1      -7.115   9.158  69.982  1.00  0.00    -0.060 A  
HETATM   35  C   UNL     1      -6.868   8.048  70.816  1.00  0.00    -0.037 A  
HETATM   36  C   UNL     1      -6.661  10.556  70.333  1.00  0.00    -0.099 C  
HETATM   37  C   UNL     1      -7.168   6.741  70.424  1.00  0.00    -0.076 A  
HETATM   38  F   UNL     1      -6.944  11.465  69.353  1.00  0.00    -0.094 F  
HETATM   39  F   UNL     1      -7.229  11.049  71.465  1.00  0.00     2.129 F  
HETATM   40  F   UNL     1      -5.313  10.635  70.515  1.00  0.00    -0.048 F  
HETATM   41  N   UNL     1      -6.959   5.715  71.262  1.00  0.00    -0.064 NA 
HETATM   42  C   UNL     1      -7.226   4.461  70.816  1.00  0.00    -0.041 A  
HETATM   43  C   UNL     1      -7.613   4.161  69.512  1.00  0.00    -0.054 A  
ENDBRANCH  28  30
ENDBRANCH  27  28
ENDBRANCH  20  22
ENDBRANCH  19  20
ENDBRANCH  18  19
ENDBRANCH  17  18
ENDBRANCH  14  17
ENDBRANCH   7  11
TORSDOF 8
ENDMDL
MODEL      284
REMARK 921   NORMALIZED FREE ENERGY PREDICTED BY IDOCK:    4.23 KCAL/MOL
REMARK 922        TOTAL FREE ENERGY PREDICTED BY IDOCK:    2.80 KCAL/MOL
REMARK 923 INTER-LIGAND FREE ENERGY PREDICTED BY IDOCK:    2.77 KCAL/MOL
REMARK 924 INTRA-LIGAND FREE ENERGY PREDICTED BY IDOCK:    0.03 KCAL/MOL
REMARK 927      BINDING AFFINITY PREDICTED BY RF-SCORE:    0.00 PKD
ROOT
HETATM    1  F   UNL     1      -8.336   5.640  69.965  1.00  0.00    -0.110 F  
HETATM    2  C   UNL     1      -7.271   6.349  70.433  1.00  0.00    -0.083 C  
HETATM    3  C   UNL     1      -7.560   7.813  70.658  1.00  0.00    -0.078 A  
HETATM    4  F   UNL     1      -6.866   5.713  71.567  1.00  0.00    -0.056 F  
HETATM    5  F   UNL     1      -6.272   6.158  69.525  1.00  0.00    -0.027 F  
HETATM    6  C   UNL     1      -8.830   8.362  70.388  1.00  0.00    -0.149 A  
HETATM    7  C   UNL     1      -9.058   9.738  70.501  1.00  0.00    -0.008 A  
HETATM    8  C   UNL     1      -6.525   8.651  71.100  1.00  0.00    -0.055 A  
HETATM    9  C   UNL     1      -8.000  10.540  70.965  1.00  0.00     2.612 A  
HETATM   10  C   UNL     1      -6.747  10.011  71.264  1.00  0.00     0.395 A  
ENDROOT
BRANCH   7  11
HETATM   11  N   UNL     1     -10.248  10.375  70.136  1.00  0.00    -0.106 NA 
HETATM   12  C   UNL     1     -12.634  10.499  69.481  1.00  0.00     0.247 C  
HETATM   13  C   UNL     1     -11.369   9.598  69.570  1.00  0.00    -0.040 C  
HETATM   14  N   UNL     1     -12.463  11.775  68.731  1.00  0.00    -0.076 NA 
HETATM   15  C   UNL     1     -10.004  11.652  69.424  1.00  0.00     0.408 C  
HETATM   16  C   UNL     1     -11.309  12.480  69.355  1.00  0.00    -0.210 C  
BRANCH  14  17
HETATM   17  C   UNL     1     -12.224  11.575  67.283  1.00  0.00     0.930 C  
BRANCH  17  18
HETATM   18  C   UNL     1     -11.109  12.450  66.663  1.00  0.00    -0.289 C  
BRANCH  18  19
HETATM   19  O   UNL     1      -9.953  11.659  66.255  1.00  0.00    -0.207 OA 
BRANCH  19  20
HETATM   20  C   UNL     1      -8.995  12.405  65.650  1.00  0.00     0.390 C  
HETATM   21  O   UNL     1      -9.015  12.665  64.445  1.00  0.00     1.025 OA 
BRANCH  20  22
HETATM   22  C   UNL     1      -7.906  12.949  66.530  1.00  0.00     0.660 A  
HETATM   23  C   UNL     1      -6.803  12.064  66.628  1.00  0.00     0.154 A  
HETATM   24  C   UNL     1      -5.693  12.354  67.412  1.00  0.00    -0.134 A  
HETATM   25  C   UNL     1      -5.654  13.552  68.108  1.00  0.00    -0.113 A  
HETATM   26  C   UNL     1      -6.724  14.449  68.018  1.00  0.00    -0.154 A  
HETATM   27  C   UNL     1      -7.873  14.178  67.243  1.00  0.00    -0.132 A  
BRANCH  27  28
HETATM   28  N   UNL     1      -8.952  15.087  67.273  1.00  0.00    -0.189 NA 
HETATM   29  H   UNL     1      -9.692  14.854  66.609  1.00  0.00     0.000 HD 
BRANCH  28  30
HETATM   30  C   UNL     1      -9.230  16.260  68.034  1.00  0.00    -0.196 A  
HETATM   31  C   UNL     1      -9.984  16.145  69.226  1.00  0.00    -0.253 A  
HETATM   32  C   UNL     1     -10.196  14.901  69.842  1.00  0.00    -0.016 A  
HETATM   33  C   UNL     1     -11.048  14.773  70.933  1.00  0.00    -0.051 A  
HETATM   34  C   UNL     1     -11.735  15.884  71.419  1.00  0.00    -0.530 A  
HETATM   35  C   UNL     1     -11.425  17.150  70.879  1.00  0.00     1.296 A  
HETATM   36  C   UNL     1     -12.812  15.687  72.462  1.00  0.00    -0.435 C  
HETATM   37  C   UNL     1     -10.528  17.307  69.821  1.00  0.00     0.161 A  
HETATM   38  F   UNL     1     -12.992  14.373  72.793  1.00  0.00    -0.420 F  
HETATM   39  F   UNL     1     -12.564  16.329  73.633  1.00  0.00    -0.502 F  
HETATM   40  F   UNL     1     -14.032  16.119  72.038  1.00  0.00    -0.341 F  
HETATM   41  N   UNL     1     -10.225  18.531  69.363  1.00  0.00     0.009 NA 
HETATM   42  C   UNL     1      -9.380  18.626  68.304  1.00  0.00    -0.328 A  
HETATM   43  C   UNL     1      -8.882  17.532  67.600  1.00  0.00    -0.228 A  
ENDBRANCH  28  30
ENDBRANCH  27  28
ENDBRANCH  20  22
ENDBRANCH  19  20
ENDBRANCH  18  19
ENDBRANCH  17  18
ENDBRANCH  14  17
ENDBRANCH   7  11
TORSDOF 8
ENDMDL
MODEL      285
REMARK 921   NORMALIZED FREE ENERGY PREDICTED BY IDOCK:    4.58 KCAL/MOL
REMARK 922        TOTAL FREE ENERGY PREDICTED BY IDOCK:    3.32 KCAL/MOL
REMARK 923 INTER-LIGAND FREE ENERGY PREDICTED BY IDOCK:    0.91 KCAL/MOL
REMARK 924 INTRA-LIGAND FREE ENERGY PREDICTED BY IDOCK:    2.40 KCAL/MOL
REMARK 927      BINDING AFFINITY PREDICTED BY RF-SCORE:    0.00 PKD
ROOT
HETATM    1  F   UNL     1      -7.050   5.755  62.330  1.00  0.00    -0.039 F  
HETATM    2  C   UNL     1      -6.752   4.583  62.958  1.00  0.00    -0.031 C  
HETATM    3  C   UNL     1      -6.632   4.703  64.456  1.00  0.00    -0.043 A  
HETATM    4  F   UNL     1      -7.715   3.698  62.577  1.00  0.00    -0.053 F  
HETATM    5  F   UNL     1      -5.597   4.141  62.385  1.00  0.00    -0.008 F  
HETATM    6  C   UNL     1      -6.810   5.938  65.112  1.00  0.00    -0.051 A  
HETATM    7  C   UNL     1      -6.594   6.060  66.490  1.00  0.00    -0.058 A  
HETATM    8  C   UNL     1      -6.287   3.567  65.205  1.00  0.00    -0.028 A  
HETATM    9  C   UNL     1      -6.268   4.894  67.205  1.00  0.00    -0.035 A  
HETATM   10  C   UNL     1      -6.116   3.660  66.579  1.00  0.00    -0.024 A  
ENDROOT
BRANCH   7  11
HETATM   11  N   UNL     1      -6.630   7.269  67.192  1.00  0.00    -0.061 NA 
HETATM   12  C   UNL     1      -5.706   9.110  68.568  1.00  0.00    -0.041 C  
HETATM   13  C   UNL     1      -5.536   7.631  68.115  1.00  0.00    -0.027 C  
HETATM   14  N   UNL     1      -7.023   9.448  69.175  1.00  0.00    -0.057 NA 
HETATM   15  C   UNL     1      -7.976   7.559  67.739  1.00  0.00    -0.118 C  
HETATM   16  C   UNL     1      -8.061   9.036  68.189  1.00  0.00    -0.105 C  
BRANCH  14  17
HETATM   17  C   UNL     1      -7.257   8.782  70.478  1.00  0.00    -0.059 C  
BRANCH  17  18
HETATM   18  C   UNL     1      -7.507   9.728  71.676  1.00  0.00     1.209 C  
BRANCH  18  19
HETATM   19  O   UNL     1      -8.930   9.917  71.938  1.00  0.00     1.269 OA 
BRANCH  19  20
HETATM   20  C   UNL     1      -9.615  10.318  70.838  1.00  0.00     1.396 C  
HETATM   21  O   UNL     1      -9.087  10.438  69.731  1.00  0.00    -0.125 OA 
BRANCH  20  22
HETATM   22  C   UNL     1     -11.084  10.580  71.016  1.00  0.00     0.235 A  
HETATM   23  C   UNL     1     -11.803   9.404  71.344  1.00  0.00    -0.447 A  
HETATM   24  C   UNL     1     -13.180   9.410  71.528  1.00  0.00    -0.456 A  
HETATM   25  C   UNL     1     -13.872  10.605  71.403  1.00  0.00     0.486 A  
HETATM   26  C   UNL     1     -13.184  11.783  71.094  1.00  0.00     0.025 A  
HETATM   27  C   UNL     1     -11.787  11.808  70.885  1.00  0.00     0.197 A  
BRANCH  27  28
HETATM   28  N   UNL     1     -11.174  13.015  70.484  1.00  0.00     0.165 NA 
HETATM   29  H   UNL     1     -10.397  12.875  69.837  1.00  0.00     0.000 HD 
BRANCH  28  30
HETATM   30  C   UNL     1     -11.409  14.387  70.789  1.00  0.00     0.006 A  
HETATM   31  C   UNL     1     -11.229  15.359  69.776  1.00  0.00    -0.297 A  
HETATM   32  C   UNL     1     -11.135  14.997  68.422  1.00  0.00    -0.284 A  
HETATM   33  C   UNL     1     -10.822  15.936  67.446  1.00  0.00    -0.291 A  
HETATM   34  C   UNL     1     -10.565  17.259  67.804  1.00  0.00    -0.367 A  
HETATM   35  C   UNL     1     -10.784  17.643  69.143  1.00  0.00     0.149 A  
HETATM   36  C   UNL     1     -10.022  18.211  66.762  1.00  0.00    -0.351 C  
HETATM   37  C   UNL     1     -11.155  16.726  70.129  1.00  0.00     0.096 A  
HETATM   38  F   UNL     1      -9.825  17.612  65.550  1.00  0.00    -0.092 F  
HETATM   39  F   UNL     1     -10.831  19.275  66.518  1.00  0.00    -0.482 F  
HETATM   40  F   UNL     1      -8.809  18.724  67.109  1.00  0.00    -0.264 F  
HETATM   41  N   UNL     1     -11.395  17.137  71.383  1.00  0.00     0.708 NA 
HETATM   42  C   UNL     1     -11.710  16.199  72.313  1.00  0.00    -0.465 A  
HETATM   43  C   UNL     1     -11.707  14.828  72.072  1.00  0.00    -0.266 A  
ENDBRANCH  28  30
ENDBRANCH  27  28
ENDBRANCH  20  22
ENDBRANCH  19  20
ENDBRANCH  18  19
ENDBRANCH  17  18
ENDBRANCH  14  17
ENDBRANCH   7  11
TORSDOF 8
ENDMDL
MODEL      286
REMARK 921   NORMALIZED FREE ENERGY PREDICTED BY IDOCK:    5.04 KCAL/MOL
REMARK 922        TOTAL FREE ENERGY PREDICTED BY IDOCK:    3.99 KCAL/MOL
REMARK 923 INTER-LIGAND FREE ENERGY PREDICTED BY IDOCK:    2.01 KCAL/MOL
REMARK 924 INTRA-LIGAND FREE ENERGY PREDICTED BY IDOCK:    1.98 KCAL/MOL
REMARK 927      BINDING AFFINITY PREDICTED BY RF-SCORE:    0.00 PKD
ROOT
HETATM    1  F   UNL     1     -10.791  17.675  65.471  1.00  0.00    -0.384 F  
HETATM    2  C   UNL     1     -10.831  16.448  64.881  1.00  0.00    -0.250 C  
HETATM    3  C   UNL     1     -11.404  15.363  65.759  1.00  0.00    -0.115 A  
HETATM    4  F   UNL     1     -11.529  16.611  63.723  1.00  0.00    -0.119 F  
HETATM    5  F   UNL     1      -9.548  16.178  64.504  1.00  0.00     0.910 F  
HETATM    6  C   UNL     1     -11.841  15.634  67.072  1.00  0.00     0.428 A  
HETATM    7  C   UNL     1     -12.273  14.603  67.914  1.00  0.00    -0.052 A  
HETATM    8  C   UNL     1     -11.456  14.049  65.271  1.00  0.00    -0.322 A  
HETATM    9  C   UNL     1     -12.328  13.303  67.380  1.00  0.00    -0.082 A  
HETATM   10  C   UNL     1     -11.927  13.022  66.077  1.00  0.00    -0.498 A  
ENDROOT
BRANCH   7  11
HETATM   11  N   UNL     1     -12.605  14.770  69.262  1.00  0.00     0.019 NA 
HETATM   12  C   UNL     1     -12.295  15.590  71.579  1.00  0.00    -0.401 C  
HETATM   13  C   UNL     1     -11.603  15.275  70.222  1.00  0.00    -0.301 C  
HETATM   14  N   UNL     1     -13.066  14.467  72.183  1.00  0.00    -0.333 NA 
HETATM   15  C   UNL     1     -13.398  13.635  69.788  1.00  0.00     1.620 C  
HETATM   16  C   UNL     1     -14.034  14.014  71.146  1.00  0.00     0.050 C  
BRANCH  14  17
HETATM   17  C   UNL     1     -12.212  13.338  72.620  1.00  0.00     1.306 C  
BRANCH  17  18
HETATM   18  C   UNL     1     -11.282  12.745  71.536  1.00  0.00     4.015 C  
BRANCH  18  19
HETATM   19  O   UNL     1     -11.983  11.804  70.668  1.00  0.00    -0.350 OA 
BRANCH  19  20
HETATM   20  C   UNL     1     -11.260  10.683  70.421  1.00  0.00    -0.252 C  
HETATM   21  O   UNL     1     -11.637   9.559  70.759  1.00  0.00    -0.275 OA 
BRANCH  20  22
HETATM   22  C   UNL     1      -9.972  10.862  69.668  1.00  0.00     0.093 A  
HETATM   23  C   UNL     1      -9.965  12.046  68.890  1.00  0.00     0.005 A  
HETATM   24  C   UNL     1      -8.883  12.398  68.093  1.00  0.00    -0.191 A  
HETATM   25  C   UNL     1      -7.768  11.574  68.068  1.00  0.00    -0.119 A  
HETATM   26  C   UNL     1      -7.744  10.406  68.837  1.00  0.00    -0.111 A  
HETATM   27  C   UNL     1      -8.833  10.012  69.646  1.00  0.00    -0.199 A  
BRANCH  27  28
HETATM   28  N   UNL     1      -8.775   8.774  70.321  1.00  0.00    -0.149 NA 
HETATM   29  H   UNL     1      -8.039   8.737  71.027  1.00  0.00     0.000 HD 
BRANCH  28  30
HETATM   30  C   UNL     1      -9.525   7.565  70.227  1.00  0.00    -0.165 A  
HETATM   31  C   UNL     1      -9.215   6.493  71.098  1.00  0.00    -0.156 A  
HETATM   32  C   UNL     1      -8.422   6.683  72.241  1.00  0.00    -0.111 A  
HETATM   33  C   UNL     1      -8.007   5.607  73.017  1.00  0.00    -0.104 A  
HETATM   34  C   UNL     1      -8.350   4.307  72.651  1.00  0.00    -0.101 A  
HETATM   35  C   UNL     1      -9.248   4.130  71.578  1.00  0.00    -0.194 A  
HETATM   36  C   UNL     1      -7.716   3.145  73.381  1.00  0.00    -0.060 C  
HETATM   37  C   UNL     1      -9.723   5.203  70.821  1.00  0.00    -0.190 A  
HETATM   38  F   UNL     1      -6.827   3.545  74.339  1.00  0.00    -0.039 F  
HETATM   39  F   UNL     1      -8.609   2.345  74.021  1.00  0.00    -0.066 F  
HETATM   40  F   UNL     1      -7.004   2.335  72.549  1.00  0.00    -0.020 F  
HETATM   41  N   UNL     1     -10.610   4.999  69.835  1.00  0.00    -0.148 NA 
HETATM   42  C   UNL     1     -11.006   6.071  69.102  1.00  0.00    -0.359 A  
HETATM   43  C   UNL     1     -10.481   7.353  69.243  1.00  0.00    -0.222 A  
ENDBRANCH  28  30
ENDBRANCH  27  28
ENDBRANCH  20  22
ENDBRANCH  19  20
ENDBRANCH  18  19
ENDBRANCH  17  18
ENDBRANCH  14  17
ENDBRANCH   7  11
TORSDOF 8
ENDMDL
MODEL      287
REMARK 921   NORMALIZED FREE ENERGY PREDICTED BY IDOCK:    5.22 KCAL/MOL
REMARK 922        TOTAL FREE ENERGY PREDICTED BY IDOCK:    4.26 KCAL/MOL
REMARK 923 INTER-LIGAND FREE ENERGY PREDICTED BY IDOCK:    0.90 KCAL/MOL
REMARK 924 INTRA-LIGAND FREE ENERGY PREDICTED BY IDOCK:    3.36 KCAL/MOL
REMARK 927      BINDING AFFINITY PREDICTED BY RF-SCORE:    0.00 PKD
ROOT
HETATM    1  F   UNL     1     -10.974  18.508  71.959  1.00  0.00     1.023 F  
HETATM    2  C   UNL     1     -11.646  17.750  72.869  1.00  0.00     1.918 C  
HETATM    3  C   UNL     1     -11.996  16.367  72.378  1.00  0.00    -0.553 A  
HETATM    4  F   UNL     1     -10.869  17.729  73.987  1.00  0.00     0.811 F  
HETATM    5  F   UNL     1     -12.754  18.471  73.203  1.00  0.00     5.000 F  
HETATM    6  C   UNL     1     -11.647  15.938  71.080  1.00  0.00    -0.481 A  
HETATM    7  C   UNL     1     -12.067  14.693  70.597  1.00  0.00    -0.317 A  
HETATM    8  C   UNL     1     -12.726  15.511  73.216  1.00  0.00    -0.625 A  
HETATM    9  C   UNL     1     -12.781  13.858  71.475  1.00  0.00    -0.440 A  
HETATM   10  C   UNL     1     -13.109  14.254  72.769  1.00  0.00    -0.589 A  
ENDROOT
BRANCH   7  11
HETATM   11  N   UNL     1     -11.870  14.246  69.287  1.00  0.00    -0.310 NA 
HETATM   12  C   UNL     1     -11.769  12.574  67.462  1.00  0.00    -0.374 C  
HETATM   13  C   UNL     1     -11.736  12.804  69.000  1.00  0.00    -0.323 C  
HETATM   14  N   UNL     1     -10.770  13.350  66.675  1.00  0.00    -0.280 NA 
HETATM   15  C   UNL     1     -10.891  15.082  68.553  1.00  0.00    -0.250 C  
HETATM   16  C   UNL     1     -10.966  14.781  67.037  1.00  0.00    -0.324 C  
BRANCH  14  17
HETATM   17  C   UNL     1      -9.371  12.938  66.936  1.00  0.00    -0.240 C  
BRANCH  17  18
HETATM   18  C   UNL     1      -8.948  12.914  68.424  1.00  0.00    -0.124 C  
BRANCH  18  19
HETATM   19  O   UNL     1      -7.771  12.081  68.647  1.00  0.00    -0.125 OA 
BRANCH  19  20
HETATM   20  C   UNL     1      -7.825  10.907  67.969  1.00  0.00    -0.107 C  
HETATM   21  O   UNL     1      -7.088  10.655  67.013  1.00  0.00    -0.091 OA 
BRANCH  20  22
HETATM   22  C   UNL     1      -8.811   9.887  68.463  1.00  0.00    -0.122 A  
HETATM   23  C   UNL     1      -9.397  10.260  69.698  1.00  0.00    -0.167 A  
HETATM   24  C   UNL     1     -10.319   9.452  70.350  1.00  0.00    -0.318 A  
HETATM   25  C   UNL     1     -10.690   8.249  69.769  1.00  0.00    -0.221 A  
HETATM   26  C   UNL     1     -10.137   7.863  68.544  1.00  0.00    -0.216 A  
HETATM   27  C   UNL     1      -9.186   8.655  67.862  1.00  0.00    -0.139 A  
BRANCH  27  28
HETATM   28  N   UNL     1      -8.602   8.159  66.678  1.00  0.00    -0.130 NA 
HETATM   29  H   UNL     1      -8.549   8.856  65.934  1.00  0.00     0.000 HD 
BRANCH  28  30
HETATM   30  C   UNL     1      -8.069   6.892  66.298  1.00  0.00    -0.112 A  
HETATM   31  C   UNL     1      -8.118   5.820  67.222  1.00  0.00    -0.102 A  
HETATM   32  C   UNL     1      -8.938   5.870  68.361  1.00  0.00    -0.112 A  
HETATM   33  C   UNL     1      -8.881   4.879  69.334  1.00  0.00    -0.120 A  
HETATM   34  C   UNL     1      -7.977   3.825  69.207  1.00  0.00    -0.059 A  
HETATM   35  C   UNL     1      -7.247   3.712  68.006  1.00  0.00    -0.051 A  
HETATM   36  C   UNL     1      -7.781   2.880  70.370  1.00  0.00    -0.043 C  
HETATM   37  C   UNL     1      -7.333   4.666  66.990  1.00  0.00    -0.081 A  
HETATM   38  F   UNL     1      -8.540   3.214  71.456  1.00  0.00    -0.070 F  
HETATM   39  F   UNL     1      -8.095   1.588  70.087  1.00  0.00    -0.042 F  
HETATM   40  F   UNL     1      -6.496   2.871  70.822  1.00  0.00    -0.024 F  
HETATM   41  N   UNL     1      -6.656   4.502  65.843  1.00  0.00    -0.043 NA 
HETATM   42  C   UNL     1      -6.741   5.480  64.906  1.00  0.00    -0.044 A  
HETATM   43  C   UNL     1      -7.407   6.689  65.095  1.00  0.00    -0.081 A  
ENDBRANCH  28  30
ENDBRANCH  27  28
ENDBRANCH  20  22
ENDBRANCH  19  20
ENDBRANCH  18  19
ENDBRANCH  17  18
ENDBRANCH  14  17
ENDBRANCH   7  11
TORSDOF 8
ENDMDL
MODEL      288
REMARK 921   NORMALIZED FREE ENERGY PREDICTED BY IDOCK:    5.64 KCAL/MOL
REMARK 922        TOTAL FREE ENERGY PREDICTED BY IDOCK:    4.88 KCAL/MOL
REMARK 923 INTER-LIGAND FREE ENERGY PREDICTED BY IDOCK:    0.89 KCAL/MOL
REMARK 924 INTRA-LIGAND FREE ENERGY PREDICTED BY IDOCK:    3.99 KCAL/MOL
REMARK 927      BINDING AFFINITY PREDICTED BY RF-SCORE:    0.00 PKD
ROOT
HETATM    1  F   UNL     1      -8.776  11.078  68.158  1.00  0.00    -0.122 F  
HETATM    2  C   UNL     1      -8.060  11.658  69.161  1.00  0.00     0.195 C  
HETATM    3  C   UNL     1      -7.024  10.752  69.778  1.00  0.00    -0.141 A  
HETATM    4  F   UNL     1      -7.520  12.790  68.631  1.00  0.00    -0.107 F  
HETATM    5  F   UNL     1      -8.980  12.081  70.075  1.00  0.00     1.588 F  
HETATM    6  C   UNL     1      -6.848   9.426  69.333  1.00  0.00    -0.049 A  
HETATM    7  C   UNL     1      -5.957   8.562  69.980  1.00  0.00    -0.027 A  
HETATM    8  C   UNL     1      -6.253  11.229  70.849  1.00  0.00     0.413 A  
HETATM    9  C   UNL     1      -5.191   9.084  71.036  1.00  0.00    -0.029 A  
HETATM   10  C   UNL     1      -5.330  10.400  71.471  1.00  0.00    -0.021 A  
ENDROOT
BRANCH   7  11
HETATM   11  N   UNL     1      -5.815   7.203  69.679  1.00  0.00    -0.023 NA 
HETATM   12  C   UNL     1      -5.174   5.251  68.296  1.00  0.00    -0.003 C  
HETATM   13  C   UNL     1      -5.515   6.769  68.301  1.00  0.00    -0.016 C  
HETATM   14  N   UNL     1      -6.202   4.360  68.903  1.00  0.00    -0.030 NA 
HETATM   15  C   UNL     1      -6.848   6.373  70.342  1.00  0.00    -0.058 C  
HETATM   16  C   UNL     1      -6.452   4.879  70.276  1.00  0.00    -0.034 C  
BRANCH  14  17
HETATM   17  C   UNL     1      -7.465   4.312  68.131  1.00  0.00    -0.068 C  
BRANCH  17  18
HETATM   18  C   UNL     1      -7.382   4.839  66.679  1.00  0.00    -0.082 C  
BRANCH  18  19
HETATM   19  O   UNL     1      -8.540   5.653  66.323  1.00  0.00    -0.120 OA 
BRANCH  19  20
HETATM   20  C   UNL     1      -8.248   6.976  66.256  1.00  0.00    -0.120 C  
HETATM   21  O   UNL     1      -7.672   7.578  67.164  1.00  0.00    -0.107 OA 
BRANCH  20  22
HETATM   22  C   UNL     1      -8.629   7.688  64.989  1.00  0.00     0.045 A  
HETATM   23  C   UNL     1      -8.610   6.827  63.863  1.00  0.00     0.470 A  
HETATM   24  C   UNL     1      -8.904   7.282  62.584  1.00  0.00     0.618 A  
HETATM   25  C   UNL     1      -9.241   8.614  62.402  1.00  0.00     0.571 A  
HETATM   26  C   UNL     1      -9.280   9.482  63.499  1.00  0.00    -0.038 A  
HETATM   27  C   UNL     1      -8.972   9.055  64.810  1.00  0.00    -0.095 A  
BRANCH  27  28
HETATM   28  N   UNL     1      -8.941  10.006  65.852  1.00  0.00    -0.148 NA 
HETATM   29  H   UNL     1      -8.021  10.098  66.285  1.00  0.00     0.000 HD 
BRANCH  28  30
HETATM   30  C   UNL     1      -9.920  10.867  66.429  1.00  0.00    -0.221 A  
HETATM   31  C   UNL     1     -10.578  10.463  67.616  1.00  0.00    -0.304 A  
HETATM   32  C   UNL     1     -10.086   9.411  68.405  1.00  0.00    -0.208 A  
HETATM   33  C   UNL     1     -10.805   8.929  69.492  1.00  0.00    -0.163 A  
HETATM   34  C   UNL     1     -12.053   9.468  69.800  1.00  0.00     0.437 A  
HETATM   35  C   UNL     1     -12.485  10.604  69.085  1.00  0.00     0.300 A  
HETATM   36  C   UNL     1     -12.909   8.792  70.847  1.00  0.00     0.122 C  
HETATM   37  C   UNL     1     -11.750  11.140  68.026  1.00  0.00    -0.212 A  
HETATM   38  F   UNL     1     -12.323   7.671  71.365  1.00  0.00    -0.308 F  
HETATM   39  F   UNL     1     -13.195   9.583  71.915  1.00  0.00    -0.376 F  
HETATM   40  F   UNL     1     -14.106   8.372  70.350  1.00  0.00     0.398 F  
HETATM   41  N   UNL     1     -12.172  12.248  67.397  1.00  0.00    -0.388 NA 
HETATM   42  C   UNL     1     -11.443  12.702  66.347  1.00  0.00    -0.356 A  
HETATM   43  C   UNL     1     -10.337  12.042  65.817  1.00  0.00    -0.289 A  
ENDBRANCH  28  30
ENDBRANCH  27  28
ENDBRANCH  20  22
ENDBRANCH  19  20
ENDBRANCH  18  19
ENDBRANCH  17  18
ENDBRANCH  14  17
ENDBRANCH   7  11
TORSDOF 8
ENDMDL
MODEL      289
REMARK 921   NORMALIZED FREE ENERGY PREDICTED BY IDOCK:    6.22 KCAL/MOL
REMARK 922        TOTAL FREE ENERGY PREDICTED BY IDOCK:    5.73 KCAL/MOL
REMARK 923 INTER-LIGAND FREE ENERGY PREDICTED BY IDOCK:    5.27 KCAL/MOL
REMARK 924 INTRA-LIGAND FREE ENERGY PREDICTED BY IDOCK:    0.46 KCAL/MOL
REMARK 927      BINDING AFFINITY PREDICTED BY RF-SCORE:    0.00 PKD
ROOT
HETATM    1  F   UNL     1      -7.348  13.972  72.119  1.00  0.00     2.187 F  
HETATM    2  C   UNL     1      -6.531  13.182  71.368  1.00  0.00     1.912 C  
HETATM    3  C   UNL     1      -6.581  13.476  69.890  1.00  0.00     0.060 A  
HETATM    4  F   UNL     1      -5.282  13.330  71.892  1.00  0.00    -0.145 F  
HETATM    5  F   UNL     1      -6.900  11.899  71.648  1.00  0.00     2.587 F  
HETATM    6  C   UNL     1      -7.420  14.484  69.368  1.00  0.00    -0.068 A  
HETATM    7  C   UNL     1      -7.537  14.679  67.987  1.00  0.00    -0.128 A  
HETATM    8  C   UNL     1      -5.812  12.696  69.014  1.00  0.00    -0.075 A  
HETATM    9  C   UNL     1      -6.734  13.889  67.146  1.00  0.00     0.486 A  
HETATM   10  C   UNL     1      -5.880  12.909  67.644  1.00  0.00    -0.136 A  
ENDROOT
BRANCH   7  11
HETATM   11  N   UNL     1      -8.434  15.568  67.389  1.00  0.00    -0.168 NA 
HETATM   12  C   UNL     1     -10.587  16.764  67.116  1.00  0.00    -0.256 C  
HETATM   13  C   UNL     1      -9.869  15.528  67.732  1.00  0.00    -0.213 C  
HETATM   14  N   UNL     1     -10.414  16.940  65.647  1.00  0.00    -0.542 NA 
HETATM   15  C   UNL     1      -8.185  15.722  65.936  1.00  0.00     0.775 C  
HETATM   16  C   UNL     1      -8.947  16.953  65.392  1.00  0.00     1.103 C  
BRANCH  14  17
HETATM   17  C   UNL     1     -11.067  15.877  64.848  1.00  0.00    -0.389 C  
BRANCH  17  18
HETATM   18  C   UNL     1     -10.117  14.822  64.236  1.00  0.00     1.394 C  
BRANCH  18  19
HETATM   19  O   UNL     1     -10.664  13.472  64.324  1.00  0.00    -0.403 OA 
BRANCH  19  20
HETATM   20  C   UNL     1     -10.701  13.005  65.598  1.00  0.00    -0.275 C  
HETATM   21  O   UNL     1     -11.229  13.628  66.521  1.00  0.00    -0.302 OA 
BRANCH  20  22
HETATM   22  C   UNL     1     -10.093  11.652  65.839  1.00  0.00    -0.267 A  
HETATM   23  C   UNL     1      -8.919  11.447  65.073  1.00  0.00     0.060 A  
HETATM   24  C   UNL     1      -8.208  10.255  65.120  1.00  0.00    -0.161 A  
HETATM   25  C   UNL     1      -8.651   9.238  65.953  1.00  0.00    -0.163 A  
HETATM   26  C   UNL     1      -9.800   9.421  66.730  1.00  0.00    -0.280 A  
HETATM   27  C   UNL     1     -10.554  10.615  66.693  1.00  0.00    -0.214 A  
BRANCH  27  28
HETATM   28  N   UNL     1     -11.753  10.692  67.433  1.00  0.00    -0.436 NA 
HETATM   29  H   UNL     1     -12.585  10.741  66.844  1.00  0.00     0.000 HD 
BRANCH  28  30
HETATM   30  C   UNL     1     -12.050  10.717  68.827  1.00  0.00     0.127 A  
HETATM   31  C   UNL     1     -12.087  11.961  69.501  1.00  0.00    -0.288 A  
HETATM   32  C   UNL     1     -12.152  13.174  68.798  1.00  0.00    -0.226 A  
HETATM   33  C   UNL     1     -12.051  14.395  69.456  1.00  0.00    -0.366 A  
HETATM   34  C   UNL     1     -11.850  14.432  70.834  1.00  0.00    -0.346 A  
HETATM   35  C   UNL     1     -11.912  13.219  71.551  1.00  0.00     0.630 A  
HETATM   36  C   UNL     1     -11.531  15.753  71.497  1.00  0.00    -0.429 C  
HETATM   37  C   UNL     1     -12.071  11.986  70.915  1.00  0.00    -0.100 A  
HETATM   38  F   UNL     1     -11.457  16.786  70.606  1.00  0.00    -0.291 F  
HETATM   39  F   UNL     1     -12.446  16.136  72.426  1.00  0.00    -0.454 F  
HETATM   40  F   UNL     1     -10.325  15.739  72.130  1.00  0.00     0.681 F  
HETATM   41  N   UNL     1     -12.168  10.857  71.634  1.00  0.00    -0.149 NA 
HETATM   42  C   UNL     1     -12.279   9.682  70.965  1.00  0.00    -0.323 A  
HETATM   43  C   UNL     1     -12.202   9.560  69.580  1.00  0.00     0.862 A  
ENDBRANCH  28  30
ENDBRANCH  27  28
ENDBRANCH  20  22
ENDBRANCH  19  20
ENDBRANCH  18  19
ENDBRANCH  17  18
ENDBRANCH  14  17
ENDBRANCH   7  11
TORSDOF 8
ENDMDL
MODEL      290
REMARK 921   NORMALIZED FREE ENERGY PREDICTED BY IDOCK:    6.59 KCAL/MOL
REMARK 922        TOTAL FREE ENERGY PREDICTED BY IDOCK:    6.28 KCAL/MOL
REMARK 923 INTER-LIGAND FREE ENERGY PREDICTED BY IDOCK:    6.73 KCAL/MOL
REMARK 924 INTRA-LIGAND FREE ENERGY PREDICTED BY IDOCK:   -0.45 KCAL/MOL
REMARK 927      BINDING AFFINITY PREDICTED BY RF-SCORE:    0.00 PKD
ROOT
HETATM    1  F   UNL     1      -9.147  15.143  72.192  1.00  0.00     2.602 F  
HETATM    2  C   UNL     1      -9.474  15.891  71.101  1.00  0.00     2.969 C  
HETATM    3  C   UNL     1      -9.102  15.253  69.786  1.00  0.00    -0.033 A  
HETATM    4  F   UNL     1     -10.809  16.142  71.205  1.00  0.00    -0.223 F  
HETATM    5  F   UNL     1      -8.857  17.094  71.280  1.00  0.00     5.216 F  
HETATM    6  C   UNL     1      -8.465  13.996  69.732  1.00  0.00     1.147 A  
HETATM    7  C   UNL     1      -8.030  13.461  68.514  1.00  0.00    -0.107 A  
HETATM    8  C   UNL     1      -9.353  15.951  68.595  1.00  0.00    -0.212 A  
HETATM    9  C   UNL     1      -8.319  14.183  67.343  1.00  0.00    -0.210 A  
HETATM   10  C   UNL     1      -8.972  15.412  67.374  1.00  0.00    -0.202 A  
ENDROOT
BRANCH   7  11
HETATM   11  N   UNL     1      -7.286  12.284  68.389  1.00  0.00    -0.095 NA 
HETATM   12  C   UNL     1      -5.861  10.625  67.224  1.00  0.00    -0.046 C  
HETATM   13  C   UNL     1      -6.867  11.801  67.058  1.00  0.00    -0.137 C  
HETATM   14  N   UNL     1      -6.338   9.486  68.057  1.00  0.00    -0.057 NA 
HETATM   15  C   UNL     1      -7.792  11.205  69.269  1.00  0.00    -0.001 C  
HETATM   16  C   UNL     1      -6.752  10.064  69.366  1.00  0.00    -0.060 C  
BRANCH  14  17
HETATM   17  C   UNL     1      -7.461   8.740  67.444  1.00  0.00    -0.089 C  
BRANCH  17  18
HETATM   18  C   UNL     1      -8.405   8.019  68.435  1.00  0.00    -0.127 C  
BRANCH  18  19
HETATM   19  O   UNL     1      -7.991   6.643  68.685  1.00  0.00    -0.115 OA 
BRANCH  19  20
HETATM   20  C   UNL     1      -7.123   6.180  67.751  1.00  0.00    -0.081 C  
HETATM   21  O   UNL     1      -5.902   6.172  67.921  1.00  0.00    -0.011 OA 
BRANCH  20  22
HETATM   22  C   UNL     1      -7.721   5.628  66.488  1.00  0.00    -0.100 A  
HETATM   23  C   UNL     1      -7.227   6.280  65.330  1.00  0.00    -0.070 A  
HETATM   24  C   UNL     1      -7.664   5.947  64.055  1.00  0.00    -0.103 A  
HETATM   25  C   UNL     1      -8.601   4.936  63.905  1.00  0.00    -0.131 A  
HETATM   26  C   UNL     1      -9.095   4.268  65.031  1.00  0.00    -0.146 A  
HETATM   27  C   UNL     1      -8.683   4.592  66.342  1.00  0.00    -0.112 A  
BRANCH  27  28
HETATM   28  N   UNL     1      -9.293   3.940  67.435  1.00  0.00    -0.177 NA 
HETATM   29  H   UNL     1     -10.281   3.737  67.280  1.00  0.00     0.000 HD 
BRANCH  28  30
HETATM   30  C   UNL     1      -8.823   3.504  68.708  1.00  0.00    -0.111 A  
HETATM   31  C   UNL     1      -9.256   4.184  69.872  1.00  0.00    -0.211 A  
HETATM   32  C   UNL     1     -10.358   5.055  69.844  1.00  0.00    -0.298 A  
HETATM   33  C   UNL     1     -10.696   5.824  70.952  1.00  0.00    -0.333 A  
HETATM   34  C   UNL     1      -9.921   5.763  72.109  1.00  0.00    -0.206 A  
HETATM   35  C   UNL     1      -8.895   4.798  72.176  1.00  0.00    -0.135 A  
HETATM   36  C   UNL     1     -10.176   6.757  73.219  1.00  0.00    -0.247 C  
HETATM   37  C   UNL     1      -8.576   3.975  71.094  1.00  0.00    -0.081 A  
HETATM   38  F   UNL     1     -11.172   7.643  72.917  1.00  0.00    -0.338 F  
HETATM   39  F   UNL     1     -10.542   6.183  74.396  1.00  0.00    -0.279 F  
HETATM   40  F   UNL     1      -9.085   7.525  73.491  1.00  0.00    -0.186 F  
HETATM   41  N   UNL     1      -7.622   3.038  71.210  1.00  0.00    -0.043 NA 
HETATM   42  C   UNL     1      -7.322   2.295  70.115  1.00  0.00    -0.036 A  
HETATM   43  C   UNL     1      -7.871   2.503  68.852  1.00  0.00    -0.055 A  
ENDBRANCH  28  30
ENDBRANCH  27  28
ENDBRANCH  20  22
ENDBRANCH  19  20
ENDBRANCH  18  19
ENDBRANCH  17  18
ENDBRANCH  14  17
ENDBRANCH   7  11
TORSDOF 8
ENDMDL
MODEL      291
REMARK 921   NORMALIZED FREE ENERGY PREDICTED BY IDOCK:    7.26 KCAL/MOL
REMARK 922        TOTAL FREE ENERGY PREDICTED BY IDOCK:    7.25 KCAL/MOL
REMARK 923 INTER-LIGAND FREE ENERGY PREDICTED BY IDOCK:   -5.08 KCAL/MOL
REMARK 924 INTRA-LIGAND FREE ENERGY PREDICTED BY IDOCK:   12.33 KCAL/MOL
REMARK 927      BINDING AFFINITY PREDICTED BY RF-SCORE:    0.00 PKD
ROOT
HETATM    1  F   UNL     1      -7.698   4.695  67.666  1.00  0.00    -0.082 F  
HETATM    2  C   UNL     1      -7.255   4.884  66.392  1.00  0.00    -0.077 C  
HETATM    3  C   UNL     1      -7.550   6.256  65.837  1.00  0.00    -0.084 A  
HETATM    4  F   UNL     1      -5.922   4.602  66.412  1.00  0.00    -0.023 F  
HETATM    5  F   UNL     1      -7.831   3.896  65.650  1.00  0.00    -0.086 F  
HETATM    6  C   UNL     1      -8.235   7.225  66.599  1.00  0.00    -0.118 A  
HETATM    7  C   UNL     1      -8.596   8.456  66.039  1.00  0.00    -0.146 A  
HETATM    8  C   UNL     1      -7.177   6.551  64.518  1.00  0.00    -0.064 A  
HETATM    9  C   UNL     1      -8.186   8.720  64.720  1.00  0.00    -0.163 A  
HETATM   10  C   UNL     1      -7.484   7.786  63.963  1.00  0.00    -0.103 A  
ENDROOT
BRANCH   7  11
HETATM   11  N   UNL     1      -9.379   9.418  66.685  1.00  0.00    -0.154 NA 
HETATM   12  C   UNL     1     -10.436  11.639  66.987  1.00  0.00    -0.224 C  
HETATM   13  C   UNL     1      -9.301  10.837  66.285  1.00  0.00    -0.180 C  
HETATM   14  N   UNL     1     -10.478  11.525  68.471  1.00  0.00    -0.201 NA 
HETATM   15  C   UNL     1      -9.404   9.226  68.154  1.00  0.00    -0.134 C  
HETATM   16  C   UNL     1     -10.539  10.069  68.782  1.00  0.00    -0.217 C  
BRANCH  14  17
HETATM   17  C   UNL     1      -9.312  12.147  69.141  1.00  0.00     0.543 C  
BRANCH  17  18
HETATM   18  C   UNL     1      -8.982  13.592  68.699  1.00  0.00    -0.025 C  
BRANCH  18  19
HETATM   19  O   UNL     1      -8.510  13.651  67.320  1.00  0.00    -0.188 OA 
BRANCH  19  20
HETATM   20  C   UNL     1      -9.316  14.394  66.522  1.00  0.00    -0.278 C  
HETATM   21  O   UNL     1      -9.641  14.039  65.387  1.00  0.00    -0.135 OA 
BRANCH  20  22
HETATM   22  C   UNL     1      -9.843  15.676  67.101  1.00  0.00    -0.229 A  
HETATM   23  C   UNL     1      -9.715  16.764  66.201  1.00  0.00    -0.315 A  
HETATM   24  C   UNL     1     -10.115  18.050  66.540  1.00  0.00    -0.379 A  
HETATM   25  C   UNL     1     -10.671  18.277  67.790  1.00  0.00    -0.358 A  
HETATM   26  C   UNL     1     -10.820  17.218  68.691  1.00  0.00    -0.199 A  
HETATM   27  C   UNL     1     -10.410  15.901  68.384  1.00  0.00    -0.240 A  
BRANCH  27  28
HETATM   28  N   UNL     1     -10.506  14.903  69.377  1.00  0.00    -0.277 NA 
HETATM   29  H   UNL     1      -9.877  14.116  69.216  1.00  0.00     0.000 HD 
BRANCH  28  30
HETATM   30  C   UNL     1     -11.295  14.760  70.556  1.00  0.00    -0.195 A  
HETATM   31  C   UNL     1     -11.641  13.461  70.999  1.00  0.00     0.726 A  
HETATM   32  C   UNL     1     -10.986  12.320  70.508  1.00  0.00     1.726 A  
HETATM   33  C   UNL     1     -11.419  11.042  70.841  1.00  0.00     0.155 A  
HETATM   34  C   UNL     1     -12.540  10.871  71.652  1.00  0.00    -0.431 A  
HETATM   35  C   UNL     1     -13.117  12.014  72.243  1.00  0.00    -0.162 A  
HETATM   36  C   UNL     1     -13.118   9.485  71.827  1.00  0.00    -0.418 C  
HETATM   37  C   UNL     1     -12.660  13.305  71.967  1.00  0.00     0.015 A  
HETATM   38  F   UNL     1     -12.441   8.537  71.113  1.00  0.00    -0.302 F  
HETATM   39  F   UNL     1     -13.114   9.048  73.114  1.00  0.00    -0.380 F  
HETATM   40  F   UNL     1     -14.408   9.402  71.399  1.00  0.00    -0.280 F  
HETATM   41  N   UNL     1     -13.207  14.365  72.581  1.00  0.00    -0.464 NA 
HETATM   42  C   UNL     1     -12.756  15.600  72.245  1.00  0.00    -0.430 A  
HETATM   43  C   UNL     1     -11.830  15.847  71.234  1.00  0.00    -0.502 A  
ENDBRANCH  28  30
ENDBRANCH  27  28
ENDBRANCH  20  22
ENDBRANCH  19  20
ENDBRANCH  18  19
ENDBRANCH  17  18
ENDBRANCH  14  17
ENDBRANCH   7  11
TORSDOF 8
ENDMDL
MODEL      292
REMARK 921   NORMALIZED FREE ENERGY PREDICTED BY IDOCK:    7.41 KCAL/MOL
REMARK 922        TOTAL FREE ENERGY PREDICTED BY IDOCK:    7.47 KCAL/MOL
REMARK 923 INTER-LIGAND FREE ENERGY PREDICTED BY IDOCK:    7.34 KCAL/MOL
REMARK 924 INTRA-LIGAND FREE ENERGY PREDICTED BY IDOCK:    0.13 KCAL/MOL
REMARK 927      BINDING AFFINITY PREDICTED BY RF-SCORE:    0.00 PKD
ROOT
HETATM    1  F   UNL     1     -12.782  19.095  64.747  1.00  0.00     7.007 F  
HETATM    2  C   UNL     1     -11.851  19.844  65.401  1.00  0.00     2.739 C  
HETATM    3  C   UNL     1     -10.855  19.032  66.191  1.00  0.00    -0.264 A  
HETATM    4  F   UNL     1     -11.260  20.621  64.451  1.00  0.00     0.117 F  
HETATM    5  F   UNL     1     -12.557  20.701  66.193  1.00  0.00     2.294 F  
HETATM    6  C   UNL     1     -10.921  17.624  66.231  1.00  0.00     0.273 A  
HETATM    7  C   UNL     1     -10.058  16.886  67.049  1.00  0.00    -0.289 A  
HETATM    8  C   UNL     1      -9.874  19.699  66.940  1.00  0.00    -0.497 A  
HETATM    9  C   UNL     1      -9.077  17.592  67.768  1.00  0.00    -0.249 A  
HETATM   10  C   UNL     1      -8.978  18.980  67.719  1.00  0.00    -0.329 A  
ENDROOT
BRANCH   7  11
HETATM   11  N   UNL     1     -10.138  15.503  67.238  1.00  0.00    -0.246 NA 
HETATM   12  C   UNL     1      -9.471  13.309  68.176  1.00  0.00    -0.222 C  
HETATM   13  C   UNL     1      -9.025  14.769  67.872  1.00  0.00    -0.172 C  
HETATM   14  N   UNL     1      -9.996  12.543  67.011  1.00  0.00    -0.212 NA 
HETATM   15  C   UNL     1     -10.699  14.808  66.056  1.00  0.00    -0.312 C  
HETATM   16  C   UNL     1     -11.096  13.360  66.429  1.00  0.00    -0.299 C  
BRANCH  14  17
HETATM   17  C   UNL     1      -8.966  12.257  65.985  1.00  0.00     0.066 C  
BRANCH  17  18
HETATM   18  C   UNL     1      -9.061  10.867  65.312  1.00  0.00    -0.197 C  
BRANCH  18  19
HETATM   19  O   UNL     1      -8.641   9.794  66.207  1.00  0.00    -0.125 OA 
BRANCH  19  20
HETATM   20  C   UNL     1      -8.890   8.561  65.698  1.00  0.00    -0.173 C  
HETATM   21  O   UNL     1     -10.031   8.111  65.570  1.00  0.00     0.549 OA 
BRANCH  20  22
HETATM   22  C   UNL     1      -7.699   7.762  65.251  1.00  0.00    -0.102 A  
HETATM   23  C   UNL     1      -6.666   8.582  64.733  1.00  0.00    -0.068 A  
HETATM   24  C   UNL     1      -5.482   8.050  64.238  1.00  0.00    -0.044 A  
HETATM   25  C   UNL     1      -5.297   6.676  64.264  1.00  0.00    -0.027 A  
HETATM   26  C   UNL     1      -6.296   5.846  64.782  1.00  0.00    -0.037 A  
HETATM   27  C   UNL     1      -7.518   6.353  65.279  1.00  0.00    -0.081 A  
BRANCH  27  28
HETATM   28  N   UNL     1      -8.516   5.449  65.700  1.00  0.00    -0.132 NA 
HETATM   29  H   UNL     1      -9.112   5.125  64.937  1.00  0.00     0.000 HD 
BRANCH  28  30
HETATM   30  C   UNL     1      -8.871   4.892  66.963  1.00  0.00    -0.106 A  
HETATM   31  C   UNL     1      -8.686   5.667  68.134  1.00  0.00    -0.102 A  
HETATM   32  C   UNL     1      -8.465   7.052  68.069  1.00  0.00    -0.125 A  
HETATM   33  C   UNL     1      -8.149   7.785  69.206  1.00  0.00    -0.127 A  
HETATM   34  C   UNL     1      -8.014   7.145  70.437  1.00  0.00    -0.112 A  
HETATM   35  C   UNL     1      -8.358   5.780  70.520  1.00  0.00    -0.119 A  
HETATM   36  C   UNL     1      -7.464   7.918  71.614  1.00  0.00    -0.072 C  
HETATM   37  C   UNL     1      -8.735   5.037  69.399  1.00  0.00    -0.091 A  
HETATM   38  F   UNL     1      -7.136   9.205  71.292  1.00  0.00    -0.090 F  
HETATM   39  F   UNL     1      -8.327   8.011  72.660  1.00  0.00    -0.143 F  
HETATM   40  F   UNL     1      -6.320   7.370  72.108  1.00  0.00    -0.043 F  
HETATM   41  N   UNL     1      -9.097   3.752  69.525  1.00  0.00    -0.118 NA 
HETATM   42  C   UNL     1      -9.412   3.064  68.398  1.00  0.00    -0.146 A  
HETATM   43  C   UNL     1      -9.293   3.577  67.109  1.00  0.00    -0.229 A  
ENDBRANCH  28  30
ENDBRANCH  27  28
ENDBRANCH  20  22
ENDBRANCH  19  20
ENDBRANCH  18  19
ENDBRANCH  17  18
ENDBRANCH  14  17
ENDBRANCH   7  11
TORSDOF 8
ENDMDL
MODEL      293
REMARK 921   NORMALIZED FREE ENERGY PREDICTED BY IDOCK:    7.71 KCAL/MOL
REMARK 922        TOTAL FREE ENERGY PREDICTED BY IDOCK:    7.92 KCAL/MOL
REMARK 923 INTER-LIGAND FREE ENERGY PREDICTED BY IDOCK:    8.77 KCAL/MOL
REMARK 924 INTRA-LIGAND FREE ENERGY PREDICTED BY IDOCK:   -0.86 KCAL/MOL
REMARK 927      BINDING AFFINITY PREDICTED BY RF-SCORE:    0.00 PKD
ROOT
HETATM    1  F   UNL     1      -8.323  10.694  69.568  1.00  0.00    -0.157 F  
HETATM    2  C   UNL     1      -9.327  11.188  70.346  1.00  0.00     2.764 C  
HETATM    3  C   UNL     1     -10.420  11.879  69.569  1.00  0.00     0.301 A  
HETATM    4  F   UNL     1      -9.787  10.135  71.077  1.00  0.00    -0.054 F  
HETATM    5  F   UNL     1      -8.726  12.024  71.239  1.00  0.00     8.010 F  
HETATM    6  C   UNL     1     -10.367  11.991  68.165  1.00  0.00    -0.207 A  
HETATM    7  C   UNL     1     -11.332  12.724  67.464  1.00  0.00    -0.312 A  
HETATM    8  C   UNL     1     -11.487  12.464  70.269  1.00  0.00     0.115 A  
HETATM    9  C   UNL     1     -12.394  13.278  68.201  1.00  0.00     0.099 A  
HETATM   10  C   UNL     1     -12.479  13.153  69.585  1.00  0.00     0.017 A  
ENDROOT
BRANCH   7  11
HETATM   11  N   UNL     1     -11.283  12.985  66.091  1.00  0.00    -0.284 NA 
HETATM   12  C   UNL     1     -12.070  12.887  63.744  1.00  0.00    -0.508 C  
HETATM   13  C   UNL     1     -12.148  12.239  65.156  1.00  0.00    -0.316 C  
HETATM   14  N   UNL     1     -10.699  13.027  63.177  1.00  0.00     0.367 NA 
HETATM   15  C   UNL     1      -9.894  13.146  65.601  1.00  0.00    -0.160 C  
HETATM   16  C   UNL     1      -9.898  13.772  64.187  1.00  0.00     1.329 C  
BRANCH  14  17
HETATM   17  C   UNL     1     -10.058  11.727  62.867  1.00  0.00    -0.060 C  
BRANCH  17  18
HETATM   18  C   UNL     1     -10.761  10.479  63.451  1.00  0.00     0.742 C  
BRANCH  18  19
HETATM   19  O   UNL     1      -9.981   9.860  64.518  1.00  0.00    -0.221 OA 
BRANCH  19  20
HETATM   20  C   UNL     1      -8.699   9.611  64.152  1.00  0.00    -0.216 C  
HETATM   21  O   UNL     1      -8.368   9.400  62.983  1.00  0.00    -0.163 OA 
BRANCH  20  22
HETATM   22  C   UNL     1      -7.667   9.641  65.244  1.00  0.00    -0.115 A  
HETATM   23  C   UNL     1      -6.389  10.022  64.765  1.00  0.00    -0.127 A  
HETATM   24  C   UNL     1      -5.281  10.092  65.599  1.00  0.00    -0.046 A  
HETATM   25  C   UNL     1      -5.430   9.794  66.945  1.00  0.00    -0.046 A  
HETATM   26  C   UNL     1      -6.684   9.427  67.446  1.00  0.00    -0.068 A  
HETATM   27  C   UNL     1      -7.827   9.332  66.622  1.00  0.00    -0.104 A  
BRANCH  27  28
HETATM   28  N   UNL     1      -9.037   8.867  67.178  1.00  0.00    -0.136 NA 
HETATM   29  H   UNL     1      -9.860   9.344  66.807  1.00  0.00     0.000 HD 
BRANCH  28  30
HETATM   30  C   UNL     1      -9.357   7.871  68.147  1.00  0.00    -0.142 A  
HETATM   31  C   UNL     1      -8.785   6.582  68.024  1.00  0.00    -0.116 A  
HETATM   32  C   UNL     1      -7.690   6.343  67.178  1.00  0.00    -0.100 A  
HETATM   33  C   UNL     1      -7.219   5.054  66.955  1.00  0.00    -0.077 A  
HETATM   34  C   UNL     1      -7.853   3.965  67.551  1.00  0.00    -0.086 A  
HETATM   35  C   UNL     1      -8.869   4.218  68.495  1.00  0.00    -0.134 A  
HETATM   36  C   UNL     1      -7.463   2.566  67.130  1.00  0.00    -0.061 C  
HETATM   37  C   UNL     1      -9.318   5.510  68.777  1.00  0.00    -0.125 A  
HETATM   38  F   UNL     1      -6.505   2.555  66.156  1.00  0.00    -0.026 F  
HETATM   39  F   UNL     1      -6.964   1.808  68.142  1.00  0.00    -0.037 F  
HETATM   40  F   UNL     1      -8.510   1.869  66.609  1.00  0.00    -0.077 F  
HETATM   41  N   UNL     1     -10.257   5.714  69.713  1.00  0.00    -0.226 NA 
HETATM   42  C   UNL     1     -10.689   6.985  69.918  1.00  0.00    -0.240 A  
HETATM   43  C   UNL     1     -10.291   8.079  69.154  1.00  0.00    -0.226 A  
ENDBRANCH  28  30
ENDBRANCH  27  28
ENDBRANCH  20  22
ENDBRANCH  19  20
ENDBRANCH  18  19
ENDBRANCH  17  18
ENDBRANCH  14  17
ENDBRANCH   7  11
TORSDOF 8
ENDMDL
MODEL      294
REMARK 921   NORMALIZED FREE ENERGY PREDICTED BY IDOCK:    7.72 KCAL/MOL
REMARK 922        TOTAL FREE ENERGY PREDICTED BY IDOCK:    7.93 KCAL/MOL
REMARK 923 INTER-LIGAND FREE ENERGY PREDICTED BY IDOCK:   -3.61 KCAL/MOL
REMARK 924 INTRA-LIGAND FREE ENERGY PREDICTED BY IDOCK:   11.54 KCAL/MOL
REMARK 927      BINDING AFFINITY PREDICTED BY RF-SCORE:    0.00 PKD
ROOT
HETATM    1  F   UNL     1      -9.554  14.177  65.192  1.00  0.00    -0.252 F  
HETATM    2  C   UNL     1     -10.773  14.024  65.781  1.00  0.00    -0.293 C  
HETATM    3  C   UNL     1     -10.934  12.724  66.529  1.00  0.00    -0.291 A  
HETATM    4  F   UNL     1     -10.942  15.114  66.580  1.00  0.00    -0.307 F  
HETATM    5  F   UNL     1     -11.687  14.155  64.778  1.00  0.00    -0.343 F  
HETATM    6  C   UNL     1      -9.895  11.772  66.582  1.00  0.00    -0.223 A  
HETATM    7  C   UNL     1     -10.090  10.526  67.189  1.00  0.00    -0.209 A  
HETATM    8  C   UNL     1     -12.164  12.439  67.141  1.00  0.00     0.168 A  
HETATM    9  C   UNL     1     -11.330  10.288  67.808  1.00  0.00    -0.137 A  
HETATM   10  C   UNL     1     -12.358  11.227  67.790  1.00  0.00     1.062 A  
ENDROOT
BRANCH   7  11
HETATM   11  N   UNL     1      -9.156   9.486  67.177  1.00  0.00    -0.133 NA 
HETATM   12  C   UNL     1      -7.567   7.865  68.171  1.00  0.00    -0.116 C  
HETATM   13  C   UNL     1      -8.335   9.204  68.371  1.00  0.00    -0.120 C  
HETATM   14  N   UNL     1      -6.731   7.783  66.940  1.00  0.00    -0.065 NA 
HETATM   15  C   UNL     1      -8.384   9.442  65.913  1.00  0.00    -0.120 C  
HETATM   16  C   UNL     1      -7.632   8.095  65.796  1.00  0.00    -0.082 C  
BRANCH  14  17
HETATM   17  C   UNL     1      -5.574   8.709  66.955  1.00  0.00    -0.037 C  
BRANCH  17  18
HETATM   18  C   UNL     1      -5.555   9.736  68.111  1.00  0.00    -0.039 C  
BRANCH  18  19
HETATM   19  O   UNL     1      -6.795  10.501  68.187  1.00  0.00    -0.070 OA 
BRANCH  19  20
HETATM   20  C   UNL     1      -6.993  11.056  69.408  1.00  0.00    -0.126 C  
HETATM   21  O   UNL     1      -7.343  12.229  69.558  1.00  0.00     0.184 OA 
BRANCH  20  22
HETATM   22  C   UNL     1      -6.803  10.158  70.597  1.00  0.00    -0.015 A  
HETATM   23  C   UNL     1      -5.530  10.323  71.197  1.00  0.00    -0.080 A  
HETATM   24  C   UNL     1      -5.131   9.574  72.296  1.00  0.00    -0.077 A  
HETATM   25  C   UNL     1      -6.009   8.646  72.835  1.00  0.00    -0.081 A  
HETATM   26  C   UNL     1      -7.277   8.473  72.270  1.00  0.00    -0.089 A  
HETATM   27  C   UNL     1      -7.708   9.207  71.143  1.00  0.00    -0.078 A  
BRANCH  27  28
HETATM   28  N   UNL     1      -8.963   8.913  70.570  1.00  0.00    -0.174 NA 
HETATM   29  H   UNL     1      -9.310   9.655  69.961  1.00  0.00     0.000 HD 
BRANCH  28  30
HETATM   30  C   UNL     1      -9.851   7.802  70.662  1.00  0.00    -0.182 A  
HETATM   31  C   UNL     1      -9.367   6.575  71.178  1.00  0.00    -0.167 A  
HETATM   32  C   UNL     1      -8.155   6.503  71.882  1.00  0.00    -0.104 A  
HETATM   33  C   UNL     1      -7.616   5.281  72.267  1.00  0.00    -0.096 A  
HETATM   34  C   UNL     1      -8.264   4.093  71.930  1.00  0.00    -0.092 A  
HETATM   35  C   UNL     1      -9.540   4.174  71.335  1.00  0.00    -0.238 A  
HETATM   36  C   UNL     1      -7.560   2.777  72.169  1.00  0.00    -0.052 C  
HETATM   37  C   UNL     1     -10.125   5.395  70.992  1.00  0.00    -0.216 A  
HETATM   38  F   UNL     1      -6.308   2.935  72.692  1.00  0.00    -0.011 F  
HETATM   39  F   UNL     1      -8.215   1.953  73.028  1.00  0.00    -0.052 F  
HETATM   40  F   UNL     1      -7.381   2.067  71.020  1.00  0.00    -0.032 F  
HETATM   41  N   UNL     1     -11.359   5.435  70.468  1.00  0.00     0.276 NA 
HETATM   42  C   UNL     1     -11.864   6.644  70.113  1.00  0.00    -0.284 A  
HETATM   43  C   UNL     1     -11.148   7.837  70.168  1.00  0.00    -0.216 A  
ENDBRANCH  28  30
ENDBRANCH  27  28
ENDBRANCH  20  22
ENDBRANCH  19  20
ENDBRANCH  18  19
ENDBRANCH  17  18
ENDBRANCH  14  17
ENDBRANCH   7  11
TORSDOF 8
ENDMDL
MODEL      295
REMARK 921   NORMALIZED FREE ENERGY PREDICTED BY IDOCK:    7.96 KCAL/MOL
REMARK 922        TOTAL FREE ENERGY PREDICTED BY IDOCK:    8.28 KCAL/MOL
REMARK 923 INTER-LIGAND FREE ENERGY PREDICTED BY IDOCK:    8.06 KCAL/MOL
REMARK 924 INTRA-LIGAND FREE ENERGY PREDICTED BY IDOCK:    0.22 KCAL/MOL
REMARK 927      BINDING AFFINITY PREDICTED BY RF-SCORE:    0.00 PKD
ROOT
HETATM    1  F   UNL     1      -6.289  14.956  70.514  1.00  0.00    -0.159 F  
HETATM    2  C   UNL     1      -7.161  15.133  71.546  1.00  0.00     2.200 C  
HETATM    3  C   UNL     1      -8.612  15.043  71.145  1.00  0.00     3.162 A  
HETATM    4  F   UNL     1      -6.818  14.211  72.488  1.00  0.00     0.852 F  
HETATM    5  F   UNL     1      -6.852  16.346  72.086  1.00  0.00     3.578 F  
HETATM    6  C   UNL     1      -8.993  14.805  69.808  1.00  0.00     0.328 A  
HETATM    7  C   UNL     1     -10.340  14.827  69.429  1.00  0.00    -0.160 A  
HETATM    8  C   UNL     1      -9.601  15.251  72.119  1.00  0.00     4.703 A  
HETATM    9  C   UNL     1     -11.300  15.019  70.438  1.00  0.00    -0.309 A  
HETATM   10  C   UNL     1     -10.944  15.228  71.768  1.00  0.00    -0.066 A  
ENDROOT
BRANCH   7  11
HETATM   11  N   UNL     1     -10.791  14.723  68.109  1.00  0.00    -0.248 NA 
HETATM   12  C   UNL     1     -12.056  13.726  66.227  1.00  0.00    -0.446 C  
HETATM   13  C   UNL     1     -11.445  13.486  67.638  1.00  0.00    -0.318 C  
HETATM   14  N   UNL     1     -11.109  14.232  65.195  1.00  0.00    -0.333 NA 
HETATM   15  C   UNL     1      -9.816  15.275  67.140  1.00  0.00    -0.224 C  
HETATM   16  C   UNL     1     -10.488  15.463  65.759  1.00  0.00    -0.355 C  
BRANCH  14  17
HETATM   17  C   UNL     1     -10.063  13.249  64.826  1.00  0.00    -0.227 C  
BRANCH  17  18
HETATM   18  C   UNL     1      -9.923  12.036  65.775  1.00  0.00    -0.241 C  
BRANCH  18  19
HETATM   19  O   UNL     1      -9.200  12.375  66.996  1.00  0.00    -0.194 OA 
BRANCH  19  20
HETATM   20  C   UNL     1      -8.861  11.281  67.724  1.00  0.00    -0.141 C  
HETATM   21  O   UNL     1      -9.530  10.885  68.681  1.00  0.00    -0.177 OA 
BRANCH  20  22
HETATM   22  C   UNL     1      -7.635  10.532  67.287  1.00  0.00    -0.096 A  
HETATM   23  C   UNL     1      -6.869  11.259  66.342  1.00  0.00    -0.055 A  
HETATM   24  C   UNL     1      -5.706  10.745  65.784  1.00  0.00    -0.144 A  
HETATM   25  C   UNL     1      -5.270   9.487  66.173  1.00  0.00    -0.039 A  
HETATM   26  C   UNL     1      -6.001   8.754  67.114  1.00  0.00    -0.053 A  
HETATM   27  C   UNL     1      -7.195   9.242  67.689  1.00  0.00    -0.083 A  
BRANCH  27  28
HETATM   28  N   UNL     1      -7.928   8.409  68.561  1.00  0.00    -0.119 NA 
HETATM   29  H   UNL     1      -8.400   7.641  68.081  1.00  0.00     0.000 HD 
BRANCH  28  30
HETATM   30  C   UNL     1      -8.149   8.410  69.970  1.00  0.00    -0.115 A  
HETATM   31  C   UNL     1      -9.451   8.150  70.462  1.00  0.00    -0.168 A  
HETATM   32  C   UNL     1     -10.446   7.590  69.645  1.00  0.00    -0.235 A  
HETATM   33  C   UNL     1     -11.757   7.463  70.090  1.00  0.00    -0.028 A  
HETATM   34  C   UNL     1     -12.113   7.922  71.357  1.00  0.00    -0.333 A  
HETATM   35  C   UNL     1     -11.089   8.366  72.219  1.00  0.00    -0.438 A  
HETATM   36  C   UNL     1     -13.575   7.970  71.738  1.00  0.00    -0.348 C  
HETATM   37  C   UNL     1      -9.756   8.447  71.811  1.00  0.00    -0.237 A  
HETATM   38  F   UNL     1     -14.398   7.554  70.729  1.00  0.00    -0.352 F  
HETATM   39  F   UNL     1     -13.888   7.194  72.809  1.00  0.00     0.316 F  
HETATM   40  F   UNL     1     -13.992   9.230  72.043  1.00  0.00    -0.398 F  
HETATM   41  N   UNL     1      -8.804   8.834  72.673  1.00  0.00    -0.361 NA 
HETATM   42  C   UNL     1      -7.531   8.938  72.213  1.00  0.00     0.203 A  
HETATM   43  C   UNL     1      -7.163   8.761  70.882  1.00  0.00    -0.083 A  
ENDBRANCH  28  30
ENDBRANCH  27  28
ENDBRANCH  20  22
ENDBRANCH  19  20
ENDBRANCH  18  19
ENDBRANCH  17  18
ENDBRANCH  14  17
ENDBRANCH   7  11
TORSDOF 8
ENDMDL
MODEL      296
REMARK 921   NORMALIZED FREE ENERGY PREDICTED BY IDOCK:    8.40 KCAL/MOL
REMARK 922        TOTAL FREE ENERGY PREDICTED BY IDOCK:    8.92 KCAL/MOL
REMARK 923 INTER-LIGAND FREE ENERGY PREDICTED BY IDOCK:   10.01 KCAL/MOL
REMARK 924 INTRA-LIGAND FREE ENERGY PREDICTED BY IDOCK:   -1.09 KCAL/MOL
REMARK 927      BINDING AFFINITY PREDICTED BY RF-SCORE:    0.00 PKD
ROOT
HETATM    1  F   UNL     1     -10.850   5.505  67.092  1.00  0.00    -0.285 F  
HETATM    2  C   UNL     1     -11.580   6.626  67.352  1.00  0.00     0.597 C  
HETATM    3  C   UNL     1     -11.811   6.880  68.821  1.00  0.00     0.826 A  
HETATM    4  F   UNL     1     -10.925   7.650  66.738  1.00  0.00    -0.421 F  
HETATM    5  F   UNL     1     -12.749   6.472  66.668  1.00  0.00     3.050 F  
HETATM    6  C   UNL     1     -11.308   6.007  69.807  1.00  0.00    -0.344 A  
HETATM    7  C   UNL     1     -11.616   6.194  71.159  1.00  0.00    -0.202 A  
HETATM    8  C   UNL     1     -12.585   7.985  69.207  1.00  0.00     3.500 A  
HETATM    9  C   UNL     1     -12.378   7.324  71.505  1.00  0.00    -0.397 A  
HETATM   10  C   UNL     1     -12.860   8.213  70.548  1.00  0.00     0.650 A  
ENDROOT
BRANCH   7  11
HETATM   11  N   UNL     1     -11.260   5.308  72.181  1.00  0.00    -0.132 NA 
HETATM   12  C   UNL     1      -9.702   4.078  73.663  1.00  0.00    -0.109 C  
HETATM   13  C   UNL     1      -9.863   4.851  72.322  1.00  0.00    -0.169 C  
HETATM   14  N   UNL     1     -10.639   2.937  73.863  1.00  0.00    -0.163 NA 
HETATM   15  C   UNL     1     -12.251   4.219  72.347  1.00  0.00     1.839 C  
HETATM   16  C   UNL     1     -12.014   3.483  73.687  1.00  0.00     0.490 C  
BRANCH  14  17
HETATM   17  C   UNL     1     -10.405   1.815  72.923  1.00  0.00    -0.129 C  
BRANCH  17  18
HETATM   18  C   UNL     1      -8.933   1.590  72.505  1.00  0.00    -0.061 C  
BRANCH  18  19
HETATM   19  O   UNL     1      -8.461   2.618  71.583  1.00  0.00    -0.062 OA 
BRANCH  19  20
HETATM   20  C   UNL     1      -7.143   2.491  71.288  1.00  0.00    -0.032 C  
HETATM   21  O   UNL     1      -6.388   1.746  71.917  1.00  0.00    -0.013 OA 
BRANCH  20  22
HETATM   22  C   UNL     1      -6.634   3.281  70.116  1.00  0.00    -0.033 A  
HETATM   23  C   UNL     1      -6.760   2.573  68.895  1.00  0.00    -0.033 A  
HETATM   24  C   UNL     1      -6.328   3.105  67.687  1.00  0.00    -0.036 A  
HETATM   25  C   UNL     1      -5.770   4.374  67.671  1.00  0.00    -0.022 A  
HETATM   26  C   UNL     1      -5.645   5.100  68.860  1.00  0.00    -0.011 A  
HETATM   27  C   UNL     1      -6.061   4.582  70.107  1.00  0.00    -0.018 A  
BRANCH  27  28
HETATM   28  N   UNL     1      -5.819   5.332  71.277  1.00  0.00    -0.016 NA 
HETATM   29  H   UNL     1      -4.864   5.239  71.624  1.00  0.00     0.000 HD 
BRANCH  28  30
HETATM   30  C   UNL     1      -6.625   6.193  72.078  1.00  0.00    -0.059 A  
HETATM   31  C   UNL     1      -7.192   7.349  71.490  1.00  0.00    -0.071 A  
HETATM   32  C   UNL     1      -7.250   7.510  70.096  1.00  0.00    -0.068 A  
HETATM   33  C   UNL     1      -7.681   8.702  69.525  1.00  0.00    -0.090 A  
HETATM   34  C   UNL     1      -8.038   9.777  70.337  1.00  0.00    -0.134 A  
HETATM   35  C   UNL     1      -8.099   9.571  71.731  1.00  0.00     1.027 A  
HETATM   36  C   UNL     1      -8.299  11.124  69.702  1.00  0.00     0.594 C  
HETATM   37  C   UNL     1      -7.725   8.362  72.321  1.00  0.00    -0.105 A  
HETATM   38  F   UNL     1      -8.119  11.113  68.347  1.00  0.00    -0.111 F  
HETATM   39  F   UNL     1      -9.560  11.590  69.900  1.00  0.00     0.547 F  
HETATM   40  F   UNL     1      -7.457  12.089  70.166  1.00  0.00     0.587 F  
HETATM   41  N   UNL     1      -7.838   8.189  73.647  1.00  0.00    -0.183 NA 
HETATM   42  C   UNL     1      -7.420   7.011  74.174  1.00  0.00    -0.106 A  
HETATM   43  C   UNL     1      -6.793   6.004  73.444  1.00  0.00    -0.080 A  
ENDBRANCH  28  30
ENDBRANCH  27  28
ENDBRANCH  20  22
ENDBRANCH  19  20
ENDBRANCH  18  19
ENDBRANCH  17  18
ENDBRANCH  14  17
ENDBRANCH   7  11
TORSDOF 8
ENDMDL
MODEL      297
REMARK 921   NORMALIZED FREE ENERGY PREDICTED BY IDOCK:    9.01 KCAL/MOL
REMARK 922        TOTAL FREE ENERGY PREDICTED BY IDOCK:    9.83 KCAL/MOL
REMARK 923 INTER-LIGAND FREE ENERGY PREDICTED BY IDOCK:    3.26 KCAL/MOL
REMARK 924 INTRA-LIGAND FREE ENERGY PREDICTED BY IDOCK:    6.56 KCAL/MOL
REMARK 927      BINDING AFFINITY PREDICTED BY RF-SCORE:    0.00 PKD
ROOT
HETATM    1  F   UNL     1     -11.081  17.350  65.040  1.00  0.00    -0.398 F  
HETATM    2  C   UNL     1     -11.089  16.109  64.479  1.00  0.00    -0.221 C  
HETATM    3  C   UNL     1     -11.620  15.028  65.388  1.00  0.00    -0.229 A  
HETATM    4  F   UNL     1     -11.803  16.222  63.325  1.00  0.00     0.803 F  
HETATM    5  F   UNL     1      -9.802  15.869  64.096  1.00  0.00     1.239 F  
HETATM    6  C   UNL     1     -12.053  15.317  66.699  1.00  0.00     0.427 A  
HETATM    7  C   UNL     1     -12.445  14.293  67.569  1.00  0.00     0.161 A  
HETATM    8  C   UNL     1     -11.636  13.701  64.932  1.00  0.00    -0.360 A  
HETATM    9  C   UNL     1     -12.465  12.980  67.067  1.00  0.00     0.219 A  
HETATM   10  C   UNL     1     -12.068  12.680  65.766  1.00  0.00    -0.484 A  
ENDROOT
BRANCH   7  11
HETATM   11  N   UNL     1     -12.769  14.482  68.916  1.00  0.00     0.333 NA 
HETATM   12  C   UNL     1     -13.123  15.787  70.993  1.00  0.00    -0.251 C  
HETATM   13  C   UNL     1     -12.445  15.754  69.592  1.00  0.00     0.020 C  
HETATM   14  N   UNL     1     -12.808  14.635  71.885  1.00  0.00    -0.315 NA 
HETATM   15  C   UNL     1     -12.462  13.289  69.738  1.00  0.00    -0.013 C  
HETATM   16  C   UNL     1     -13.148  13.403  71.120  1.00  0.00    -0.178 C  
BRANCH  14  17
HETATM   17  C   UNL     1     -11.391  14.600  72.318  1.00  0.00     0.557 C  
BRANCH  17  18
HETATM   18  C   UNL     1     -10.355  14.355  71.195  1.00  0.00     2.195 C  
BRANCH  18  19
HETATM   19  O   UNL     1     -10.838  13.402  70.201  1.00  0.00     0.450 OA 
BRANCH  19  20
HETATM   20  C   UNL     1      -9.830  12.780  69.540  1.00  0.00     1.214 C  
HETATM   21  O   UNL     1      -9.760  11.554  69.435  1.00  0.00     0.167 OA 
BRANCH  20  22
HETATM   22  C   UNL     1      -8.800  13.662  68.895  1.00  0.00     0.188 A  
HETATM   23  C   UNL     1      -9.187  15.025  68.889  1.00  0.00    -0.206 A  
HETATM   24  C   UNL     1      -8.396  16.014  68.319  1.00  0.00    -0.164 A  
HETATM   25  C   UNL     1      -7.181  15.661  67.750  1.00  0.00    -0.175 A  
HETATM   26  C   UNL     1      -6.769  14.324  67.754  1.00  0.00    -0.190 A  
HETATM   27  C   UNL     1      -7.557  13.293  68.312  1.00  0.00    -0.139 A  
BRANCH  27  28
HETATM   28  N   UNL     1      -7.121  11.956  68.196  1.00  0.00    -0.075 NA 
HETATM   29  H   UNL     1      -7.100  11.462  69.089  1.00  0.00     0.000 HD 
BRANCH  28  30
HETATM   30  C   UNL     1      -6.703  11.148  67.098  1.00  0.00    -0.106 A  
HETATM   31  C   UNL     1      -7.259   9.855  66.944  1.00  0.00    -0.090 A  
HETATM   32  C   UNL     1      -8.417   9.468  67.637  1.00  0.00    -0.122 A  
HETATM   33  C   UNL     1      -8.881   8.158  67.589  1.00  0.00    -0.136 A  
HETATM   34  C   UNL     1      -8.180   7.193  66.868  1.00  0.00    -0.117 A  
HETATM   35  C   UNL     1      -7.092   7.612  66.074  1.00  0.00    -0.069 A  
HETATM   36  C   UNL     1      -8.578   5.741  67.001  1.00  0.00    -0.110 C  
HETATM   37  C   UNL     1      -6.645   8.935  66.063  1.00  0.00    -0.065 A  
HETATM   38  F   UNL     1      -9.614   5.555  67.872  1.00  0.00    -0.113 F  
HETATM   39  F   UNL     1      -8.975   5.172  65.832  1.00  0.00    -0.127 F  
HETATM   40  F   UNL     1      -7.565   4.966  67.479  1.00  0.00    -0.081 F  
HETATM   41  N   UNL     1      -5.634   9.304  65.261  1.00  0.00    -0.052 NA 
HETATM   42  C   UNL     1      -5.210  10.592  65.321  1.00  0.00    -0.137 A  
HETATM   43  C   UNL     1      -5.691  11.533  66.229  1.00  0.00     0.015 A  
ENDBRANCH  28  30
ENDBRANCH  27  28
ENDBRANCH  20  22
ENDBRANCH  19  20
ENDBRANCH  18  19
ENDBRANCH  17  18
ENDBRANCH  14  17
ENDBRANCH   7  11
TORSDOF 8
ENDMDL
MODEL      298
REMARK 921   NORMALIZED FREE ENERGY PREDICTED BY IDOCK:    9.03 KCAL/MOL
REMARK 922        TOTAL FREE ENERGY PREDICTED BY IDOCK:    9.85 KCAL/MOL
REMARK 923 INTER-LIGAND FREE ENERGY PREDICTED BY IDOCK:    9.26 KCAL/MOL
REMARK 924 INTRA-LIGAND FREE ENERGY PREDICTED BY IDOCK:    0.59 KCAL/MOL
REMARK 927      BINDING AFFINITY PREDICTED BY RF-SCORE:    0.00 PKD
ROOT
HETATM    1  F   UNL     1      -9.174  19.056  64.317  1.00  0.00     4.511 F  
HETATM    2  C   UNL     1      -9.198  19.343  65.648  1.00  0.00     0.437 C  
HETATM    3  C   UNL     1      -8.999  18.142  66.538  1.00  0.00    -0.288 A  
HETATM    4  F   UNL     1      -8.250  20.303  65.842  1.00  0.00    -0.297 F  
HETATM    5  F   UNL     1     -10.395  19.955  65.873  1.00  0.00    -0.506 F  
HETATM    6  C   UNL     1      -8.818  16.850  66.001  1.00  0.00    -0.194 A  
HETATM    7  C   UNL     1      -8.739  15.729  66.835  1.00  0.00    -0.244 A  
HETATM    8  C   UNL     1      -9.046  18.310  67.930  1.00  0.00    -0.288 A  
HETATM    9  C   UNL     1      -8.771  15.944  68.224  1.00  0.00    -0.174 A  
HETATM   10  C   UNL     1      -8.921  17.215  68.773  1.00  0.00    -0.233 A  
ENDROOT
BRANCH   7  11
HETATM   11  N   UNL     1      -8.683  14.408  66.379  1.00  0.00    -0.012 NA 
HETATM   12  C   UNL     1      -9.509  12.096  66.048  1.00  0.00    -0.207 C  
HETATM   13  C   UNL     1      -9.635  13.400  66.888  1.00  0.00    -0.257 C  
HETATM   14  N   UNL     1      -8.140  11.515  65.966  1.00  0.00     0.042 NA 
HETATM   15  C   UNL     1      -7.292  13.906  66.290  1.00  0.00     2.941 C  
HETATM   16  C   UNL     1      -7.251  12.599  65.463  1.00  0.00     4.467 C  
BRANCH  14  17
HETATM   17  C   UNL     1      -7.643  10.999  67.263  1.00  0.00    -0.111 C  
BRANCH  17  18
HETATM   18  C   UNL     1      -7.897  11.911  68.486  1.00  0.00    -0.136 C  
BRANCH  18  19
HETATM   19  O   UNL     1      -8.596  11.209  69.558  1.00  0.00     0.170 OA 
BRANCH  19  20
HETATM   20  C   UNL     1      -9.944  11.250  69.418  1.00  0.00     0.166 C  
HETATM   21  O   UNL     1     -10.546  12.262  69.052  1.00  0.00    -0.175 OA 
BRANCH  20  22
HETATM   22  C   UNL     1     -10.691   9.976  69.695  1.00  0.00    -0.282 A  
HETATM   23  C   UNL     1     -12.083  10.193  69.852  1.00  0.00    -0.102 A  
HETATM   24  C   UNL     1     -12.962   9.157  70.140  1.00  0.00     1.152 A  
HETATM   25  C   UNL     1     -12.467   7.867  70.263  1.00  0.00     0.683 A  
HETATM   26  C   UNL     1     -11.099   7.625  70.100  1.00  0.00    -0.229 A  
HETATM   27  C   UNL     1     -10.176   8.658  69.822  1.00  0.00    -0.206 A  
BRANCH  27  28
HETATM   28  N   UNL     1      -8.800   8.353  69.764  1.00  0.00    -0.133 NA 
HETATM   29  H   UNL     1      -8.216   9.167  69.572  1.00  0.00     0.000 HD 
BRANCH  28  30
HETATM   30  C   UNL     1      -8.051   7.149  69.915  1.00  0.00    -0.125 A  
HETATM   31  C   UNL     1      -7.906   6.284  68.804  1.00  0.00    -0.101 A  
HETATM   32  C   UNL     1      -8.199   6.712  67.499  1.00  0.00    -0.122 A  
HETATM   33  C   UNL     1      -8.187   5.823  66.430  1.00  0.00    -0.107 A  
HETATM   34  C   UNL     1      -7.910   4.474  66.644  1.00  0.00    -0.099 A  
HETATM   35  C   UNL     1      -7.494   4.074  67.931  1.00  0.00    -0.067 A  
HETATM   36  C   UNL     1      -8.109   3.493  65.511  1.00  0.00    -0.093 C  
HETATM   37  C   UNL     1      -7.444   4.963  69.006  1.00  0.00    -0.061 A  
HETATM   38  F   UNL     1      -8.579   4.087  64.374  1.00  0.00    -0.099 F  
HETATM   39  F   UNL     1      -6.974   2.843  65.143  1.00  0.00    -0.047 F  
HETATM   40  F   UNL     1      -9.022   2.528  65.814  1.00  0.00    -0.121 F  
HETATM   41  N   UNL     1      -7.002   4.555  70.206  1.00  0.00    -0.043 NA 
HETATM   42  C   UNL     1      -7.014   5.447  71.228  1.00  0.00    -0.058 A  
HETATM   43  C   UNL     1      -7.544   6.732  71.139  1.00  0.00    -0.088 A  
ENDBRANCH  28  30
ENDBRANCH  27  28
ENDBRANCH  20  22
ENDBRANCH  19  20
ENDBRANCH  18  19
ENDBRANCH  17  18
ENDBRANCH  14  17
ENDBRANCH   7  11
TORSDOF 8
ENDMDL
MODEL      299
REMARK 921   NORMALIZED FREE ENERGY PREDICTED BY IDOCK:   10.10 KCAL/MOL
REMARK 922        TOTAL FREE ENERGY PREDICTED BY IDOCK:   11.42 KCAL/MOL
REMARK 923 INTER-LIGAND FREE ENERGY PREDICTED BY IDOCK:    8.25 KCAL/MOL
REMARK 924 INTRA-LIGAND FREE ENERGY PREDICTED BY IDOCK:    3.17 KCAL/MOL
REMARK 927      BINDING AFFINITY PREDICTED BY RF-SCORE:    0.00 PKD
ROOT
HETATM    1  F   UNL     1     -10.540   3.751  72.512  1.00  0.00    -0.238 F  
HETATM    2  C   UNL     1      -9.675   2.821  73.004  1.00  0.00    -0.108 C  
HETATM    3  C   UNL     1      -8.393   2.699  72.219  1.00  0.00    -0.059 A  
HETATM    4  F   UNL     1      -9.463   3.159  74.307  1.00  0.00    -0.096 F  
HETATM    5  F   UNL     1     -10.371   1.649  73.035  1.00  0.00    -0.135 F  
HETATM    6  C   UNL     1      -8.152   3.489  71.076  1.00  0.00    -0.070 A  
HETATM    7  C   UNL     1      -7.007   3.295  70.295  1.00  0.00    -0.034 A  
HETATM    8  C   UNL     1      -7.443   1.742  72.610  1.00  0.00    -0.035 A  
HETATM    9  C   UNL     1      -6.072   2.340  70.732  1.00  0.00    -0.019 A  
HETATM   10  C   UNL     1      -6.279   1.570  71.874  1.00  0.00    -0.014 A  
ENDROOT
BRANCH   7  11
HETATM   11  N   UNL     1      -6.756   3.949  69.085  1.00  0.00    -0.044 NA 
HETATM   12  C   UNL     1      -6.410   5.905  67.603  1.00  0.00    -0.041 C  
HETATM   13  C   UNL     1      -6.993   5.400  68.956  1.00  0.00    -0.056 C  
HETATM   14  N   UNL     1      -6.899   5.193  66.389  1.00  0.00    -0.061 NA 
HETATM   15  C   UNL     1      -7.237   3.172  67.919  1.00  0.00    -0.050 C  
HETATM   16  C   UNL     1      -6.635   3.744  66.613  1.00  0.00    -0.042 C  
BRANCH  14  17
HETATM   17  C   UNL     1      -8.337   5.420  66.116  1.00  0.00    -0.117 C  
BRANCH  17  18
HETATM   18  C   UNL     1      -9.281   4.254  66.492  1.00  0.00    -0.149 C  
BRANCH  18  19
HETATM   19  O   UNL     1     -10.128   4.579  67.635  1.00  0.00    -0.116 OA 
BRANCH  19  20
HETATM   20  C   UNL     1     -10.324   5.914  67.777  1.00  0.00    -0.210 C  
HETATM   21  O   UNL     1     -10.096   6.721  66.873  1.00  0.00    -0.177 OA 
BRANCH  20  22
HETATM   22  C   UNL     1     -10.878   6.379  69.094  1.00  0.00    -0.382 A  
HETATM   23  C   UNL     1     -10.797   5.378  70.094  1.00  0.00    -0.215 A  
HETATM   24  C   UNL     1     -11.276   5.583  71.381  1.00  0.00    -0.081 A  
HETATM   25  C   UNL     1     -11.836   6.809  71.705  1.00  0.00    -0.371 A  
HETATM   26  C   UNL     1     -11.916   7.819  70.740  1.00  0.00    -0.168 A  
HETATM   27  C   UNL     1     -11.454   7.637  69.418  1.00  0.00     0.408 A  
BRANCH  27  28
HETATM   28  N   UNL     1     -11.652   8.667  68.474  1.00  0.00     0.511 NA 
HETATM   29  H   UNL     1     -12.388   9.321  68.741  1.00  0.00     0.000 HD 
BRANCH  28  30
HETATM   30  C   UNL     1     -11.042   8.989  67.225  1.00  0.00     0.376 A  
HETATM   31  C   UNL     1      -9.851   9.752  67.217  1.00  0.00    -0.228 A  
HETATM   32  C   UNL     1      -9.088   9.934  68.383  1.00  0.00    -0.123 A  
HETATM   33  C   UNL     1      -7.996  10.794  68.403  1.00  0.00    -0.124 A  
HETATM   34  C   UNL     1      -7.656  11.520  67.263  1.00  0.00    -0.143 A  
HETATM   35  C   UNL     1      -8.344  11.241  66.063  1.00  0.00    -0.071 A  
HETATM   36  C   UNL     1      -6.605  12.602  67.365  1.00  0.00    -0.144 C  
HETATM   37  C   UNL     1      -9.407  10.337  66.009  1.00  0.00    -0.180 A  
HETATM   38  F   UNL     1      -6.117  12.746  68.633  1.00  0.00    -0.060 F  
HETATM   39  F   UNL     1      -5.519  12.387  66.577  1.00  0.00     0.022 F  
HETATM   40  F   UNL     1      -7.088  13.829  67.026  1.00  0.00    -0.119 F  
HETATM   41  N   UNL     1     -10.009  10.066  64.841  1.00  0.00    -0.299 NA 
HETATM   42  C   UNL     1     -11.065   9.213  64.850  1.00  0.00     5.990 A  
HETATM   43  C   UNL     1     -11.626   8.674  66.005  1.00  0.00     5.518 A  
ENDBRANCH  28  30
ENDBRANCH  27  28
ENDBRANCH  20  22
ENDBRANCH  19  20
ENDBRANCH  18  19
ENDBRANCH  17  18
ENDBRANCH  14  17
ENDBRANCH   7  11
TORSDOF 8
ENDMDL
MODEL      300
REMARK 921   NORMALIZED FREE ENERGY PREDICTED BY IDOCK:   11.40 KCAL/MOL
REMARK 922        TOTAL FREE ENERGY PREDICTED BY IDOCK:   13.33 KCAL/MOL
REMARK 923 INTER-LIGAND FREE ENERGY PREDICTED BY IDOCK:    4.52 KCAL/MOL
REMARK 924 INTRA-LIGAND FREE ENERGY PREDICTED BY IDOCK:    8.82 KCAL/MOL
REMARK 927      BINDING AFFINITY PREDICTED BY RF-SCORE:    0.00 PKD
ROOT
HETATM    1  F   UNL     1      -9.114  19.732  65.100  1.00  0.00     0.328 F  
HETATM    2  C   UNL     1     -10.380  19.721  65.604  1.00  0.00    -0.324 C  
HETATM    3  C   UNL     1     -10.660  18.566  66.534  1.00  0.00    -0.375 A  
HETATM    4  F   UNL     1     -10.556  20.932  66.203  1.00  0.00    -0.045 F  
HETATM    5  F   UNL     1     -11.209  19.720  64.522  1.00  0.00     0.281 F  
HETATM    6  C   UNL     1      -9.675  17.599  66.823  1.00  0.00    -0.300 A  
HETATM    7  C   UNL     1      -9.975  16.477  67.603  1.00  0.00    -0.254 A  
HETATM    8  C   UNL     1     -11.944  18.429  67.082  1.00  0.00     2.822 A  
HETATM    9  C   UNL     1     -11.268  16.387  68.148  1.00  0.00    -0.273 A  
HETATM   10  C   UNL     1     -12.245  17.347  67.897  1.00  0.00     2.646 A  
ENDROOT
BRANCH   7  11
HETATM   11  N   UNL     1      -9.094  15.416  67.833  1.00  0.00    -0.178 NA 
HETATM   12  C   UNL     1      -7.249  13.854  67.291  1.00  0.00     0.044 C  
HETATM   13  C   UNL     1      -8.310  14.840  66.722  1.00  0.00    -0.079 C  
HETATM   14  N   UNL     1      -7.783  12.768  68.160  1.00  0.00    -0.126 NA 
HETATM   15  C   UNL     1      -9.676  14.390  68.730  1.00  0.00    -0.190 C  
HETATM   16  C   UNL     1      -8.569  13.435  69.235  1.00  0.00     0.781 C  
BRANCH  14  17
HETATM   17  C   UNL     1      -8.629  11.796  67.429  1.00  0.00    -0.160 C  
BRANCH  17  18
HETATM   18  C   UNL     1      -8.319  10.305  67.700  1.00  0.00    -0.114 C  
BRANCH  18  19
HETATM   19  O   UNL     1      -9.362   9.663  68.494  1.00  0.00    -0.136 OA 
BRANCH  19  20
HETATM   20  C   UNL     1      -8.978   9.435  69.775  1.00  0.00    -0.188 C  
HETATM   21  O   UNL     1      -7.893   9.811  70.222  1.00  0.00    -0.166 OA 
BRANCH  20  22
HETATM   22  C   UNL     1      -9.963   8.724  70.659  1.00  0.00    -0.242 A  
HETATM   23  C   UNL     1      -9.333   8.061  71.742  1.00  0.00    -0.218 A  
HETATM   24  C   UNL     1     -10.051   7.319  72.670  1.00  0.00    -0.233 A  
HETATM   25  C   UNL     1     -11.429   7.235  72.545  1.00  0.00    -0.322 A  
HETATM   26  C   UNL     1     -12.078   7.890  71.493  1.00  0.00    -0.336 A  
HETATM   27  C   UNL     1     -11.375   8.640  70.523  1.00  0.00    -0.218 A  
BRANCH  27  28
HETATM   28  N   UNL     1     -12.085   9.196  69.438  1.00  0.00     0.466 NA 
HETATM   29  H   UNL     1     -13.069   9.367  69.648  1.00  0.00     0.000 HD 
BRANCH  28  30
HETATM   30  C   UNL     1     -11.721   9.571  68.112  1.00  0.00     1.316 A  
HETATM   31  C   UNL     1     -10.828   8.748  67.384  1.00  0.00    -0.087 A  
HETATM   32  C   UNL     1     -10.539   7.437  67.796  1.00  0.00    -0.278 A  
HETATM   33  C   UNL     1      -9.561   6.681  67.160  1.00  0.00    -0.168 A  
HETATM   34  C   UNL     1      -8.823   7.230  66.112  1.00  0.00    -0.181 A  
HETATM   35  C   UNL     1      -9.201   8.497  65.622  1.00  0.00    -0.161 A  
HETATM   36  C   UNL     1      -7.628   6.474  65.578  1.00  0.00    -0.088 C  
HETATM   37  C   UNL     1     -10.220   9.249  66.210  1.00  0.00    -0.203 A  
HETATM   38  F   UNL     1      -7.405   5.301  66.242  1.00  0.00    -0.075 F  
HETATM   39  F   UNL     1      -7.734   6.137  64.266  1.00  0.00    -0.078 F  
HETATM   40  F   UNL     1      -6.469   7.180  65.701  1.00  0.00    -0.043 F  
HETATM   41  N   UNL     1     -10.580  10.431  65.688  1.00  0.00    -0.099 NA 
HETATM   42  C   UNL     1     -11.546  11.142  66.324  1.00  0.00     0.495 A  
HETATM   43  C   UNL     1     -12.123  10.769  67.536  1.00  0.00     1.277 A  
ENDBRANCH  28  30
ENDBRANCH  27  28
ENDBRANCH  20  22
ENDBRANCH  19  20
ENDBRANCH  18  19
ENDBRANCH  17  18
ENDBRANCH  14  17
ENDBRANCH   7  11
TORSDOF 8
ENDMDL
MODEL      301
REMARK 921   NORMALIZED FREE ENERGY PREDICTED BY IDOCK:   13.20 KCAL/MOL
REMARK 922        TOTAL FREE ENERGY PREDICTED BY IDOCK:   15.97 KCAL/MOL
REMARK 923 INTER-LIGAND FREE ENERGY PREDICTED BY IDOCK:   15.34 KCAL/MOL
REMARK 924 INTRA-LIGAND FREE ENERGY PREDICTED BY IDOCK:    0.63 KCAL/MOL
REMARK 927      BINDING AFFINITY PREDICTED BY RF-SCORE:    0.00 PKD
ROOT
HETATM    1  F   UNL     1      -9.394  14.478  72.516  1.00  0.00     3.358 F  
HETATM    2  C   UNL     1     -10.482  15.082  71.960  1.00  0.00     1.681 C  
HETATM    3  C   UNL     1     -11.190  14.240  70.927  1.00  0.00     0.297 A  
HETATM    4  F   UNL     1     -11.290  15.429  72.999  1.00  0.00    -0.525 F  
HETATM    5  F   UNL     1     -10.026  16.256  71.438  1.00  0.00     1.425 F  
HETATM    6  C   UNL     1     -10.730  12.950  70.589  1.00  0.00     2.919 A  
HETATM    7  C   UNL     1     -11.331  12.220  69.557  1.00  0.00    -0.187 A  
HETATM    8  C   UNL     1     -12.300  14.775  70.257  1.00  0.00    -0.400 A  
HETATM    9  C   UNL     1     -12.452  12.785  68.924  1.00  0.00     0.421 A  
HETATM   10  C   UNL     1     -12.938  14.044  69.265  1.00  0.00     1.071 A  
ENDROOT
BRANCH   7  11
HETATM   11  N   UNL     1     -10.860  10.993  69.080  1.00  0.00    -0.224 NA 
HETATM   12  C   UNL     1      -9.269   9.103  68.890  1.00  0.00    -0.139 C  
HETATM   13  C   UNL     1      -9.457  10.592  69.302  1.00  0.00    -0.133 C  
HETATM   14  N   UNL     1      -9.687   8.764  67.501  1.00  0.00    -0.159 NA 
HETATM   15  C   UNL     1     -11.340  10.704  67.709  1.00  0.00    -0.244 C  
HETATM   16  C   UNL     1     -11.100   9.216  67.363  1.00  0.00     0.296 C  
BRANCH  14  17
HETATM   17  C   UNL     1      -8.839   9.397  66.463  1.00  0.00    -0.136 C  
BRANCH  17  18
HETATM   18  C   UNL     1      -9.103  10.899  66.209  1.00  0.00    -0.176 C  
BRANCH  18  19
HETATM   19  O   UNL     1      -8.720  11.303  64.860  1.00  0.00    -0.006 OA 
BRANCH  19  20
HETATM   20  C   UNL     1      -9.705  11.092  63.951  1.00  0.00    -0.292 C  
HETATM   21  O   UNL     1      -9.723  10.111  63.204  1.00  0.00    -0.261 OA 
BRANCH  20  22
HETATM   22  C   UNL     1     -10.818  12.101  63.914  1.00  0.00    -0.461 A  
HETATM   23  C   UNL     1     -11.660  11.930  62.787  1.00  0.00     0.527 A  
HETATM   24  C   UNL     1     -12.738  12.769  62.540  1.00  0.00     1.823 A  
HETATM   25  C   UNL     1     -13.010  13.798  63.429  1.00  0.00     1.149 A  
HETATM   26  C   UNL     1     -12.202  13.980  64.556  1.00  0.00    -0.463 A  
HETATM   27  C   UNL     1     -11.089  13.154  64.829  1.00  0.00    -0.330 A  
BRANCH  27  28
HETATM   28  N   UNL     1     -10.265  13.454  65.933  1.00  0.00    -0.294 NA 
HETATM   29  H   UNL     1     -10.470  12.885  66.755  1.00  0.00     0.000 HD 
BRANCH  28  30
HETATM   30  C   UNL     1      -9.205  14.384  66.147  1.00  0.00    -0.117 A  
HETATM   31  C   UNL     1      -8.400  14.257  67.304  1.00  0.00    -0.222 A  
HETATM   32  C   UNL     1      -8.405  13.083  68.075  1.00  0.00    -0.169 A  
HETATM   33  C   UNL     1      -7.719  13.011  69.282  1.00  0.00     0.455 A  
HETATM   34  C   UNL     1      -7.035  14.125  69.766  1.00  0.00     0.041 A  
HETATM   35  C   UNL     1      -6.929  15.257  68.932  1.00  0.00    -0.125 A  
HETATM   36  C   UNL     1      -6.479  14.094  71.171  1.00  0.00     0.383 C  
HETATM   37  C   UNL     1      -7.562  15.328  67.690  1.00  0.00    -0.172 A  
HETATM   38  F   UNL     1      -6.753  12.925  71.823  1.00  0.00     1.974 F  
HETATM   39  F   UNL     1      -5.129  14.238  71.230  1.00  0.00    -0.102 F  
HETATM   40  F   UNL     1      -7.003  15.074  71.960  1.00  0.00     1.126 F  
HETATM   41  N   UNL     1      -7.402  16.406  66.906  1.00  0.00    -0.216 NA 
HETATM   42  C   UNL     1      -8.073  16.443  65.727  1.00  0.00     0.665 A  
HETATM   43  C   UNL     1      -8.993  15.480  65.320  1.00  0.00     1.282 A  
ENDBRANCH  28  30
ENDBRANCH  27  28
ENDBRANCH  20  22
ENDBRANCH  19  20
ENDBRANCH  18  19
ENDBRANCH  17  18
ENDBRANCH  14  17
ENDBRANCH   7  11
TORSDOF 8
ENDMDL
MODEL      302
REMARK 921   NORMALIZED FREE ENERGY PREDICTED BY IDOCK:   13.27 KCAL/MOL
REMARK 922        TOTAL FREE ENERGY PREDICTED BY IDOCK:   16.07 KCAL/MOL
REMARK 923 INTER-LIGAND FREE ENERGY PREDICTED BY IDOCK:    5.09 KCAL/MOL
REMARK 924 INTRA-LIGAND FREE ENERGY PREDICTED BY IDOCK:   10.99 KCAL/MOL
REMARK 927      BINDING AFFINITY PREDICTED BY RF-SCORE:    0.00 PKD
ROOT
HETATM    1  F   UNL     1     -11.679  13.628  65.763  1.00  0.00    -0.316 F  
HETATM    2  C   UNL     1     -11.626  13.850  67.106  1.00  0.00    -0.364 C  
HETATM    3  C   UNL     1     -10.428  13.232  67.783  1.00  0.00    -0.242 A  
HETATM    4  F   UNL     1     -11.682  15.201  67.266  1.00  0.00    -0.349 F  
HETATM    5  F   UNL     1     -12.801  13.370  67.606  1.00  0.00     0.101 F  
HETATM    6  C   UNL     1      -9.473  12.491  67.056  1.00  0.00    -0.217 A  
HETATM    7  C   UNL     1      -8.423  11.836  67.708  1.00  0.00    -0.147 A  
HETATM    8  C   UNL     1     -10.290  13.361  69.173  1.00  0.00     0.099 A  
HETATM    9  C   UNL     1      -8.310  12.005  69.099  1.00  0.00     0.429 A  
HETATM   10  C   UNL     1      -9.226  12.757  69.830  1.00  0.00     2.444 A  
ENDROOT
BRANCH   7  11
HETATM   11  N   UNL     1      -7.510  10.984  67.078  1.00  0.00    -0.120 NA 
HETATM   12  C   UNL     1      -6.806   9.041  65.711  1.00  0.00    -0.076 C  
HETATM   13  C   UNL     1      -7.944   9.668  66.568  1.00  0.00    -0.112 C  
HETATM   14  N   UNL     1      -5.485   8.920  66.388  1.00  0.00    -0.034 NA 
HETATM   15  C   UNL     1      -6.208  10.937  67.784  1.00  0.00    -0.051 C  
HETATM   16  C   UNL     1      -5.137  10.282  66.881  1.00  0.00    -0.040 C  
BRANCH  14  17
HETATM   17  C   UNL     1      -5.487   7.950  67.509  1.00  0.00    -0.036 C  
BRANCH  17  18
HETATM   18  C   UNL     1      -5.557   6.460  67.102  1.00  0.00    -0.012 C  
BRANCH  18  19
HETATM   19  O   UNL     1      -6.585   5.736  67.843  1.00  0.00    -0.049 OA 
BRANCH  19  20
HETATM   20  C   UNL     1      -7.205   6.511  68.768  1.00  0.00    -0.085 C  
HETATM   21  O   UNL     1      -6.758   7.599  69.134  1.00  0.00    -0.046 OA 
BRANCH  20  22
HETATM   22  C   UNL     1      -8.508   5.998  69.313  1.00  0.00    -0.115 A  
HETATM   23  C   UNL     1      -8.348   4.797  70.048  1.00  0.00    -0.072 A  
HETATM   24  C   UNL     1      -9.426   4.134  70.620  1.00  0.00    -0.242 A  
HETATM   25  C   UNL     1     -10.697   4.670  70.482  1.00  0.00     0.443 A  
HETATM   26  C   UNL     1     -10.881   5.861  69.773  1.00  0.00    -0.447 A  
HETATM   27  C   UNL     1      -9.809   6.552  69.166  1.00  0.00    -0.144 A  
BRANCH  27  28
HETATM   28  N   UNL     1     -10.082   7.697  68.388  1.00  0.00    -0.181 NA 
HETATM   29  H   UNL     1      -9.473   7.783  67.573  1.00  0.00     0.000 HD 
BRANCH  28  30
HETATM   30  C   UNL     1     -11.026   8.759  68.497  1.00  0.00     0.148 A  
HETATM   31  C   UNL     1     -11.313   9.546  67.356  1.00  0.00     0.642 A  
HETATM   32  C   UNL     1     -10.944   9.129  66.066  1.00  0.00     1.521 A  
HETATM   33  C   UNL     1     -11.104   9.964  64.966  1.00  0.00     2.428 A  
HETATM   34  C   UNL     1     -11.609  11.252  65.132  1.00  0.00     0.226 A  
HETATM   35  C   UNL     1     -12.094  11.621  66.405  1.00  0.00     0.683 A  
HETATM   36  C   UNL     1     -11.576  12.213  63.965  1.00  0.00    -0.423 C  
HETATM   37  C   UNL     1     -11.996  10.775  67.511  1.00  0.00     0.949 A  
HETATM   38  F   UNL     1     -11.005  11.668  62.849  1.00  0.00    -0.275 F  
HETATM   39  F   UNL     1     -12.804  12.644  63.575  1.00  0.00    -0.430 F  
HETATM   40  F   UNL     1     -10.843  13.330  64.232  1.00  0.00    -0.345 F  
HETATM   41  N   UNL     1     -12.507  11.143  68.696  1.00  0.00    -0.302 NA 
HETATM   42  C   UNL     1     -12.347  10.303  69.750  1.00  0.00     0.038 A  
HETATM   43  C   UNL     1     -11.604   9.126  69.706  1.00  0.00     0.208 A  
ENDBRANCH  28  30
ENDBRANCH  27  28
ENDBRANCH  20  22
ENDBRANCH  19  20
ENDBRANCH  18  19
ENDBRANCH  17  18
ENDBRANCH  14  17
ENDBRANCH   7  11
TORSDOF 8
ENDMDL
MODEL      303
REMARK 921   NORMALIZED FREE ENERGY PREDICTED BY IDOCK:   13.49 KCAL/MOL
REMARK 922        TOTAL FREE ENERGY PREDICTED BY IDOCK:   16.40 KCAL/MOL
REMARK 923 INTER-LIGAND FREE ENERGY PREDICTED BY IDOCK:   16.97 KCAL/MOL
REMARK 924 INTRA-LIGAND FREE ENERGY PREDICTED BY IDOCK:   -0.56 KCAL/MOL
REMARK 927      BINDING AFFINITY PREDICTED BY RF-SCORE:    0.00 PKD
ROOT
HETATM    1  F   UNL     1      -7.680  14.672  72.818  1.00  0.00     2.624 F  
HETATM    2  C   UNL     1      -7.931  15.518  71.780  1.00  0.00     5.617 C  
HETATM    3  C   UNL     1      -7.680  14.913  70.422  1.00  0.00     0.777 A  
HETATM    4  F   UNL     1      -9.217  15.936  71.940  1.00  0.00     3.520 F  
HETATM    5  F   UNL     1      -7.155  16.616  72.003  1.00  0.00     4.642 F  
HETATM    6  C   UNL     1      -7.218  13.588  70.280  1.00  0.00     1.188 A  
HETATM    7  C   UNL     1      -6.889  13.070  69.022  1.00  0.00    -0.081 A  
HETATM    8  C   UNL     1      -7.865  15.705  69.279  1.00  0.00    -0.230 A  
HETATM    9  C   UNL     1      -7.107  13.891  67.901  1.00  0.00    -0.168 A  
HETATM   10  C   UNL     1      -7.590  15.191  68.019  1.00  0.00    -0.127 A  
ENDROOT
BRANCH   7  11
HETATM   11  N   UNL     1      -6.312  11.815  68.811  1.00  0.00    -0.057 NA 
HETATM   12  C   UNL     1      -5.137  10.058  67.518  1.00  0.00    -0.034 C  
HETATM   13  C   UNL     1      -5.976  11.366  67.445  1.00  0.00    -0.073 C  
HETATM   14  N   UNL     1      -5.753   8.942  68.289  1.00  0.00    -0.038 NA 
HETATM   15  C   UNL     1      -6.950  10.760  69.632  1.00  0.00    -0.134 C  
HETATM   16  C   UNL     1      -6.072   9.486  69.638  1.00  0.00    -0.039 C  
BRANCH  14  17
HETATM   17  C   UNL     1      -6.974   8.394  67.652  1.00  0.00    -0.075 C  
BRANCH  17  18
HETATM   18  C   UNL     1      -7.560   7.124  68.314  1.00  0.00    -0.115 C  
BRANCH  18  19
HETATM   19  O   UNL     1      -7.063   5.902  67.691  1.00  0.00    -0.070 OA 
BRANCH  19  20
HETATM   20  C   UNL     1      -6.497   6.125  66.479  1.00  0.00    -0.046 C  
HETATM   21  O   UNL     1      -5.279   6.230  66.321  1.00  0.00    -0.012 OA 
BRANCH  20  22
HETATM   22  C   UNL     1      -7.429   6.203  65.303  1.00  0.00    -0.084 A  
HETATM   23  C   UNL     1      -7.257   7.397  64.559  1.00  0.00    -0.073 A  
HETATM   24  C   UNL     1      -8.033   7.689  63.445  1.00  0.00    -0.093 A  
HETATM   25  C   UNL     1      -8.996   6.779  63.036  1.00  0.00     1.037 A  
HETATM   26  C   UNL     1      -9.177   5.587  63.745  1.00  0.00     0.612 A  
HETATM   27  C   UNL     1      -8.416   5.266  64.891  1.00  0.00    -0.150 A  
BRANCH  27  28
HETATM   28  N   UNL     1      -8.717   4.090  65.609  1.00  0.00    -0.117 NA 
HETATM   29  H   UNL     1      -9.705   3.836  65.566  1.00  0.00     0.000 HD 
BRANCH  28  30
HETATM   30  C   UNL     1      -7.937   3.181  66.381  1.00  0.00    -0.084 A  
HETATM   31  C   UNL     1      -8.127   3.128  67.783  1.00  0.00    -0.082 A  
HETATM   32  C   UNL     1      -9.255   3.701  68.392  1.00  0.00    -0.219 A  
HETATM   33  C   UNL     1      -9.372   3.768  69.775  1.00  0.00    -0.245 A  
HETATM   34  C   UNL     1      -8.345   3.290  70.588  1.00  0.00    -0.084 A  
HETATM   35  C   UNL     1      -7.275   2.603  69.977  1.00  0.00    -0.040 A  
HETATM   36  C   UNL     1      -8.394   3.563  72.074  1.00  0.00    -0.078 C  
HETATM   37  C   UNL     1      -7.168   2.474  68.591  1.00  0.00    -0.047 A  
HETATM   38  F   UNL     1      -9.485   4.300  72.440  1.00  0.00    -0.136 F  
HETATM   39  F   UNL     1      -8.439   2.439  72.837  1.00  0.00    -0.062 F  
HETATM   40  F   UNL     1      -7.319   4.278  72.507  1.00  0.00    -0.062 F  
HETATM   41  N   UNL     1      -6.158   1.777  68.049  1.00  0.00    -0.024 NA 
HETATM   42  C   UNL     1      -6.077   1.719  66.695  1.00  0.00    -0.020 A  
HETATM   43  C   UNL     1      -6.918   2.414  65.830  1.00  0.00    -0.048 A  
ENDBRANCH  28  30
ENDBRANCH  27  28
ENDBRANCH  20  22
ENDBRANCH  19  20
ENDBRANCH  18  19
ENDBRANCH  17  18
ENDBRANCH  14  17
ENDBRANCH   7  11
TORSDOF 8
ENDMDL
MODEL      304
REMARK 921   NORMALIZED FREE ENERGY PREDICTED BY IDOCK:   15.43 KCAL/MOL
REMARK 922        TOTAL FREE ENERGY PREDICTED BY IDOCK:   19.25 KCAL/MOL
REMARK 923 INTER-LIGAND FREE ENERGY PREDICTED BY IDOCK:   18.74 KCAL/MOL
REMARK 924 INTRA-LIGAND FREE ENERGY PREDICTED BY IDOCK:    0.51 KCAL/MOL
REMARK 927      BINDING AFFINITY PREDICTED BY RF-SCORE:    0.00 PKD
ROOT
HETATM    1  F   UNL     1      -9.500  18.170  73.581  1.00  0.00     5.857 F  
HETATM    2  C   UNL     1     -10.643  17.983  72.862  1.00  0.00     4.073 C  
HETATM    3  C   UNL     1     -10.440  17.221  71.576  1.00  0.00     3.038 A  
HETATM    4  F   UNL     1     -11.519  17.368  73.705  1.00  0.00    -0.251 F  
HETATM    5  F   UNL     1     -11.151  19.229  72.646  1.00  0.00     1.665 F  
HETATM    6  C   UNL     1      -9.164  16.768  71.182  1.00  0.00     5.655 A  
HETATM    7  C   UNL     1      -8.970  16.155  69.939  1.00  0.00     0.566 A  
HETATM    8  C   UNL     1     -11.540  17.005  70.733  1.00  0.00     1.159 A  
HETATM    9  C   UNL     1     -10.102  15.940  69.133  1.00  0.00    -0.240 A  
HETATM   10  C   UNL     1     -11.374  16.355  69.518  1.00  0.00    -0.192 A  
ENDROOT
BRANCH   7  11
HETATM   11  N   UNL     1      -7.722  15.790  69.425  1.00  0.00    -0.226 NA 
HETATM   12  C   UNL     1      -6.155  14.863  67.744  1.00  0.00    -0.130 C  
HETATM   13  C   UNL     1      -7.629  14.910  68.243  1.00  0.00    -0.113 C  
HETATM   14  N   UNL     1      -5.145  14.464  68.764  1.00  0.00    -0.086 NA 
HETATM   15  C   UNL     1      -6.758  15.438  70.493  1.00  0.00     0.318 C  
HETATM   16  C   UNL     1      -5.322  15.387  69.919  1.00  0.00    -0.106 C  
BRANCH  14  17
HETATM   17  C   UNL     1      -5.282  13.055  69.203  1.00  0.00    -0.069 C  
BRANCH  17  18
HETATM   18  C   UNL     1      -6.000  12.844  70.557  1.00  0.00    -0.075 C  
BRANCH  18  19
HETATM   19  O   UNL     1      -7.047  11.832  70.471  1.00  0.00     0.692 OA 
BRANCH  19  20
HETATM   20  C   UNL     1      -7.088  11.223  69.259  1.00  0.00    -0.112 C  
HETATM   21  O   UNL     1      -6.399  11.591  68.306  1.00  0.00    -0.046 OA 
BRANCH  20  22
HETATM   22  C   UNL     1      -7.997  10.034  69.131  1.00  0.00    -0.116 A  
HETATM   23  C   UNL     1      -8.439   9.557  70.391  1.00  0.00    -0.238 A  
HETATM   24  C   UNL     1      -9.267   8.449  70.510  1.00  0.00    -0.165 A  
HETATM   25  C   UNL     1      -9.688   7.796  69.361  1.00  0.00    -0.169 A  
HETATM   26  C   UNL     1      -9.277   8.254  68.105  1.00  0.00    -0.137 A  
HETATM   27  C   UNL     1      -8.423   9.368  67.950  1.00  0.00    -0.116 A  
BRANCH  27  28
HETATM   28  N   UNL     1      -7.975   9.715  66.658  1.00  0.00    -0.108 NA 
HETATM   29  H   UNL     1      -6.965   9.855  66.608  1.00  0.00     0.000 HD 
BRANCH  28  30
HETATM   30  C   UNL     1      -8.632   9.913  65.409  1.00  0.00    -0.152 A  
HETATM   31  C   UNL     1      -9.536  10.993  65.269  1.00  0.00    -0.270 A  
HETATM   32  C   UNL     1      -9.572  12.044  66.200  1.00  0.00    -0.252 A  
HETATM   33  C   UNL     1     -10.550  13.030  66.137  1.00  0.00    -0.289 A  
HETATM   34  C   UNL     1     -11.539  12.972  65.156  1.00  0.00    -0.357 A  
HETATM   35  C   UNL     1     -11.427  11.990  64.151  1.00  0.00    -0.460 A  
HETATM   36  C   UNL     1     -12.709  13.926  65.233  1.00  0.00    -0.449 C  
HETATM   37  C   UNL     1     -10.417  11.025  64.164  1.00  0.00    -0.366 A  
HETATM   38  F   UNL     1     -12.649  14.748  66.324  1.00  0.00    -0.238 F  
HETATM   39  F   UNL     1     -12.816  14.751  64.159  1.00  0.00    -0.350 F  
HETATM   40  F   UNL     1     -13.902  13.278  65.339  1.00  0.00     0.381 F  
HETATM   41  N   UNL     1     -10.317  10.132  63.167  1.00  0.00     0.706 NA 
HETATM   42  C   UNL     1      -9.345   9.189  63.250  1.00  0.00     0.692 A  
HETATM   43  C   UNL     1      -8.504   9.026  64.348  1.00  0.00    -0.190 A  
ENDBRANCH  28  30
ENDBRANCH  27  28
ENDBRANCH  20  22
ENDBRANCH  19  20
ENDBRANCH  18  19
ENDBRANCH  17  18
ENDBRANCH  14  17
ENDBRANCH   7  11
TORSDOF 8
ENDMDL
MODEL      305
REMARK 921   NORMALIZED FREE ENERGY PREDICTED BY IDOCK:   16.04 KCAL/MOL
REMARK 922        TOTAL FREE ENERGY PREDICTED BY IDOCK:   20.14 KCAL/MOL
REMARK 923 INTER-LIGAND FREE ENERGY PREDICTED BY IDOCK:    2.94 KCAL/MOL
REMARK 924 INTRA-LIGAND FREE ENERGY PREDICTED BY IDOCK:   17.20 KCAL/MOL
REMARK 927      BINDING AFFINITY PREDICTED BY RF-SCORE:    0.00 PKD
ROOT
HETATM    1  F   UNL     1     -11.486  11.663  67.497  1.00  0.00    -0.307 F  
HETATM    2  C   UNL     1     -10.927  11.750  66.258  1.00  0.00    -0.300 C  
HETATM    3  C   UNL     1      -9.793  10.782  66.027  1.00  0.00    -0.285 A  
HETATM    4  F   UNL     1     -11.949  11.582  65.373  1.00  0.00    -0.174 F  
HETATM    5  F   UNL     1     -10.529  13.046  66.123  1.00  0.00    -0.263 F  
HETATM    6  C   UNL     1      -9.373   9.888  67.034  1.00  0.00    -0.175 A  
HETATM    7  C   UNL     1      -8.255   9.068  66.847  1.00  0.00    -0.116 A  
HETATM    8  C   UNL     1      -9.114  10.809  64.800  1.00  0.00    -0.222 A  
HETATM    9  C   UNL     1      -7.614   9.112  65.596  1.00  0.00    -0.094 A  
HETATM   10  C   UNL     1      -8.032   9.968  64.580  1.00  0.00    -0.145 A  
ENDROOT
BRANCH   7  11
HETATM   11  N   UNL     1      -7.702   8.247  67.835  1.00  0.00    -0.102 NA 
HETATM   12  C   UNL     1      -7.578   6.264  69.315  1.00  0.00    -0.099 C  
HETATM   13  C   UNL     1      -8.498   7.158  68.434  1.00  0.00    -0.124 C  
HETATM   14  N   UNL     1      -6.809   6.979  70.371  1.00  0.00    -0.056 NA 
HETATM   15  C   UNL     1      -6.924   9.019  68.832  1.00  0.00    -0.065 C  
HETATM   16  C   UNL     1      -6.054   8.063  69.683  1.00  0.00    -0.030 C  
BRANCH  14  17
HETATM   17  C   UNL     1      -7.666   7.545  71.439  1.00  0.00    -0.085 C  
BRANCH  17  18
HETATM   18  C   UNL     1      -7.626   9.085  71.582  1.00  0.00     0.066 C  
BRANCH  18  19
HETATM   19  O   UNL     1      -6.360   9.646  71.123  1.00  0.00    -0.159 OA 
BRANCH  19  20
HETATM   20  C   UNL     1      -6.527  10.632  70.206  1.00  0.00    -0.138 C  
HETATM   21  O   UNL     1      -5.581  11.183  69.640  1.00  0.00    -0.045 OA 
BRANCH  20  22
HETATM   22  C   UNL     1      -7.942  11.008  69.869  1.00  0.00     0.653 A  
HETATM   23  C   UNL     1      -8.841   9.925  70.037  1.00  0.00    -0.194 A  
HETATM   24  C   UNL     1     -10.196  10.041  69.758  1.00  0.00    -0.286 A  
HETATM   25  C   UNL     1     -10.691  11.259  69.315  1.00  0.00    -0.221 A  
HETATM   26  C   UNL     1      -9.828  12.347  69.152  1.00  0.00     0.399 A  
HETATM   27  C   UNL     1      -8.442  12.258  69.413  1.00  0.00     1.087 A  
BRANCH  27  28
HETATM   28  N   UNL     1      -7.618  13.370  69.138  1.00  0.00    -0.323 NA 
HETATM   29  H   UNL     1      -7.315  13.414  68.165  1.00  0.00     0.000 HD 
BRANCH  28  30
HETATM   30  C   UNL     1      -7.119  14.445  69.930  1.00  0.00     0.047 A  
HETATM   31  C   UNL     1      -7.805  15.683  69.921  1.00  0.00     0.180 A  
HETATM   32  C   UNL     1      -9.111  15.794  69.417  1.00  0.00    -0.254 A  
HETATM   33  C   UNL     1      -9.729  17.032  69.284  1.00  0.00    -0.083 A  
HETATM   34  C   UNL     1      -9.043  18.197  69.623  1.00  0.00     0.851 A  
HETATM   35  C   UNL     1      -7.784  18.073  70.245  1.00  0.00     2.440 A  
HETATM   36  C   UNL     1      -9.649  19.537  69.273  1.00  0.00    -0.206 C  
HETATM   37  C   UNL     1      -7.169  16.834  70.441  1.00  0.00     1.888 A  
HETATM   38  F   UNL     1     -10.842  19.421  68.617  1.00  0.00    -0.219 F  
HETATM   39  F   UNL     1      -9.900  20.324  70.352  1.00  0.00    -0.081 F  
HETATM   40  F   UNL     1      -8.853  20.266  68.443  1.00  0.00    -0.254 F  
HETATM   41  N   UNL     1      -5.990  16.753  71.075  1.00  0.00     0.599 NA 
HETATM   42  C   UNL     1      -5.416  15.530  71.202  1.00  0.00     0.032 A  
HETATM   43  C   UNL     1      -5.924  14.364  70.633  1.00  0.00    -0.197 A  
ENDBRANCH  28  30
ENDBRANCH  27  28
ENDBRANCH  20  22
ENDBRANCH  19  20
ENDBRANCH  18  19
ENDBRANCH  17  18
ENDBRANCH  14  17
ENDBRANCH   7  11
TORSDOF 8
ENDMDL
MODEL      306
REMARK 921   NORMALIZED FREE ENERGY PREDICTED BY IDOCK:   16.14 KCAL/MOL
REMARK 922        TOTAL FREE ENERGY PREDICTED BY IDOCK:   20.29 KCAL/MOL
REMARK 923 INTER-LIGAND FREE ENERGY PREDICTED BY IDOCK:   18.57 KCAL/MOL
REMARK 924 INTRA-LIGAND FREE ENERGY PREDICTED BY IDOCK:    1.72 KCAL/MOL
REMARK 927      BINDING AFFINITY PREDICTED BY RF-SCORE:    0.00 PKD
ROOT
HETATM    1  F   UNL     1      -6.319   4.301  72.024  1.00  0.00    -0.017 F  
HETATM    2  C   UNL     1      -7.485   4.653  72.635  1.00  0.00    -0.085 C  
HETATM    3  C   UNL     1      -8.268   5.710  71.897  1.00  0.00    -0.119 A  
HETATM    4  F   UNL     1      -8.187   3.498  72.799  1.00  0.00    -0.075 F  
HETATM    5  F   UNL     1      -7.137   5.056  73.890  1.00  0.00    -0.074 F  
HETATM    6  C   UNL     1      -7.797   6.266  70.689  1.00  0.00    -0.107 A  
HETATM    7  C   UNL     1      -8.478   7.319  70.068  1.00  0.00    -0.139 A  
HETATM    8  C   UNL     1      -9.467   6.183  72.453  1.00  0.00    -0.153 A  
HETATM    9  C   UNL     1      -9.685   7.749  70.648  1.00  0.00    -0.177 A  
HETATM   10  C   UNL     1     -10.180   7.193  71.824  1.00  0.00    -0.212 A  
ENDROOT
BRANCH   7  11
HETATM   11  N   UNL     1      -8.015   8.004  68.940  1.00  0.00    -0.116 NA 
HETATM   12  C   UNL     1      -6.459   9.436  67.649  1.00  0.00    -0.062 C  
HETATM   13  C   UNL     1      -6.943   9.012  69.066  1.00  0.00    -0.063 C  
HETATM   14  N   UNL     1      -7.522   9.927  66.728  1.00  0.00    -0.094 NA 
HETATM   15  C   UNL     1      -9.120   8.434  68.053  1.00  0.00    -0.137 C  
HETATM   16  C   UNL     1      -8.561   8.861  66.675  1.00  0.00    -0.123 C  
BRANCH  14  17
HETATM   17  C   UNL     1      -8.121  11.212  67.157  1.00  0.00    -0.138 C  
BRANCH  17  18
HETATM   18  C   UNL     1      -8.219  11.426  68.686  1.00  0.00    -0.142 C  
BRANCH  18  19
HETATM   19  O   UNL     1      -8.148  12.838  69.048  1.00  0.00     0.141 OA 
BRANCH  19  20
HETATM   20  C   UNL     1      -8.395  13.660  67.998  1.00  0.00    -0.170 C  
HETATM   21  O   UNL     1      -8.005  13.417  66.855  1.00  0.00    -0.028 OA 
BRANCH  20  22
HETATM   22  C   UNL     1      -9.214  14.888  68.281  1.00  0.00    -0.187 A  
HETATM   23  C   UNL     1      -8.747  15.596  69.415  1.00  0.00    -0.249 A  
HETATM   24  C   UNL     1      -9.372  16.749  69.873  1.00  0.00     0.912 A  
HETATM   25  C   UNL     1     -10.479  17.232  69.191  1.00  0.00    -0.263 A  
HETATM   26  C   UNL     1     -10.952  16.559  68.060  1.00  0.00    -0.320 A  
HETATM   27  C   UNL     1     -10.349  15.376  67.578  1.00  0.00    -0.264 A  
BRANCH  27  28
HETATM   28  N   UNL     1     -10.937  14.700  66.488  1.00  0.00    -0.313 NA 
HETATM   29  H   UNL     1     -10.480  14.900  65.598  1.00  0.00     0.000 HD 
BRANCH  28  30
HETATM   30  C   UNL     1     -12.035  13.798  66.365  1.00  0.00    -0.438 A  
HETATM   31  C   UNL     1     -12.274  12.860  67.398  1.00  0.00    -0.100 A  
HETATM   32  C   UNL     1     -11.674  12.991  68.660  1.00  0.00    -0.359 A  
HETATM   33  C   UNL     1     -11.801  11.998  69.625  1.00  0.00    -0.401 A  
HETATM   34  C   UNL     1     -12.509  10.832  69.340  1.00  0.00     0.008 A  
HETATM   35  C   UNL     1     -13.214  10.759  68.120  1.00  0.00     6.360 A  
HETATM   36  C   UNL     1     -12.457   9.681  70.319  1.00  0.00     0.217 C  
HETATM   37  C   UNL     1     -13.146  11.772  67.161  1.00  0.00     5.605 A  
HETATM   38  F   UNL     1     -11.664   9.943  71.400  1.00  0.00    -0.387 F  
HETATM   39  F   UNL     1     -13.670   9.339  70.828  1.00  0.00    -0.243 F  
HETATM   40  F   UNL     1     -11.942   8.549  69.763  1.00  0.00     0.233 F  
HETATM   41  N   UNL     1     -13.864  11.687  66.031  1.00  0.00     8.622 NA 
HETATM   42  C   UNL     1     -13.728  12.677  65.112  1.00  0.00     2.662 A  
HETATM   43  C   UNL     1     -12.821  13.727  65.222  1.00  0.00    -0.430 A  
ENDBRANCH  28  30
ENDBRANCH  27  28
ENDBRANCH  20  22
ENDBRANCH  19  20
ENDBRANCH  18  19
ENDBRANCH  17  18
ENDBRANCH  14  17
ENDBRANCH   7  11
TORSDOF 8
ENDMDL
MODEL      307
REMARK 921   NORMALIZED FREE ENERGY PREDICTED BY IDOCK:   16.31 KCAL/MOL
REMARK 922        TOTAL FREE ENERGY PREDICTED BY IDOCK:   20.54 KCAL/MOL
REMARK 923 INTER-LIGAND FREE ENERGY PREDICTED BY IDOCK:   12.01 KCAL/MOL
REMARK 924 INTRA-LIGAND FREE ENERGY PREDICTED BY IDOCK:    8.54 KCAL/MOL
REMARK 927      BINDING AFFINITY PREDICTED BY RF-SCORE:    0.00 PKD
ROOT
HETATM    1  F   UNL     1      -9.184  18.977  63.879  1.00  0.00     7.070 F  
HETATM    2  C   UNL     1      -8.977  19.684  65.025  1.00  0.00     2.058 C  
HETATM    3  C   UNL     1      -8.612  18.832  66.215  1.00  0.00    -0.247 A  
HETATM    4  F   UNL     1      -8.022  20.608  64.728  1.00  0.00     0.170 F  
HETATM    5  F   UNL     1     -10.124  20.392  65.234  1.00  0.00    -0.421 F  
HETATM    6  C   UNL     1      -8.512  17.429  66.112  1.00  0.00    -0.198 A  
HETATM    7  C   UNL     1      -8.276  16.639  67.243  1.00  0.00    -0.174 A  
HETATM    8  C   UNL     1      -8.417  19.449  67.460  1.00  0.00    -0.328 A  
HETATM    9  C   UNL     1      -8.067  17.298  68.468  1.00  0.00    -0.262 A  
HETATM   10  C   UNL     1      -8.133  18.684  68.583  1.00  0.00    -0.352 A  
ENDROOT
BRANCH   7  11
HETATM   11  N   UNL     1      -8.285  15.241  67.247  1.00  0.00    -0.187 NA 
HETATM   12  C   UNL     1      -9.262  12.988  66.919  1.00  0.00    -0.236 C  
HETATM   13  C   UNL     1      -9.557  14.501  67.130  1.00  0.00    -0.231 C  
HETATM   14  N   UNL     1      -8.390  12.354  67.947  1.00  0.00    -0.154 NA 
HETATM   15  C   UNL     1      -7.373  14.678  68.269  1.00  0.00    -0.117 C  
HETATM   16  C   UNL     1      -7.145  13.170  68.007  1.00  0.00    -0.115 C  
BRANCH  14  17
HETATM   17  C   UNL     1      -9.022  12.277  69.285  1.00  0.00     0.902 C  
BRANCH  17  18
HETATM   18  C   UNL     1      -9.637  13.595  69.810  1.00  0.00     1.564 C  
BRANCH  18  19
HETATM   19  O   UNL     1     -11.085  13.636  69.628  1.00  0.00    -0.147 OA 
BRANCH  19  20
HETATM   20  C   UNL     1     -11.460  14.428  68.593  1.00  0.00    -0.287 C  
HETATM   21  O   UNL     1     -11.348  15.656  68.619  1.00  0.00    -0.315 OA 
BRANCH  20  22
HETATM   22  C   UNL     1     -11.995  13.736  67.372  1.00  0.00    -0.423 A  
HETATM   23  C   UNL     1     -12.755  14.606  66.551  1.00  0.00     0.497 A  
HETATM   24  C   UNL     1     -13.365  14.169  65.382  1.00  0.00     0.283 A  
HETATM   25  C   UNL     1     -13.215  12.845  64.997  1.00  0.00     0.337 A  
HETATM   26  C   UNL     1     -12.460  11.969  65.783  1.00  0.00     0.779 A  
HETATM   27  C   UNL     1     -11.839  12.377  66.985  1.00  0.00    -0.297 A  
BRANCH  27  28
HETATM   28  N   UNL     1     -11.171  11.417  67.773  1.00  0.00    -0.261 NA 
HETATM   29  H   UNL     1     -10.672  11.824  68.565  1.00  0.00     0.000 HD 
BRANCH  28  30
HETATM   30  C   UNL     1     -11.044   9.999  67.700  1.00  0.00    -0.153 A  
HETATM   31  C   UNL     1     -10.180   9.434  66.731  1.00  0.00    -0.320 A  
HETATM   32  C   UNL     1      -9.222  10.212  66.061  1.00  0.00    -0.198 A  
HETATM   33  C   UNL     1      -8.470   9.687  65.016  1.00  0.00    -0.160 A  
HETATM   34  C   UNL     1      -8.681   8.376  64.592  1.00  0.00     0.028 A  
HETATM   35  C   UNL     1      -9.551   7.562  65.346  1.00  0.00     0.922 A  
HETATM   36  C   UNL     1      -8.010   7.895  63.325  1.00  0.00    -0.125 C  
HETATM   37  C   UNL     1     -10.272   8.054  66.436  1.00  0.00    -0.026 A  
HETATM   38  F   UNL     1      -7.265   8.867  62.720  1.00  0.00    -0.097 F  
HETATM   39  F   UNL     1      -7.164   6.849  63.516  1.00  0.00    -0.050 F  
HETATM   40  F   UNL     1      -8.908   7.494  62.382  1.00  0.00    -0.010 F  
HETATM   41  N   UNL     1     -11.058   7.239  67.156  1.00  0.00    -0.218 NA 
HETATM   42  C   UNL     1     -11.771   7.777  68.178  1.00  0.00     1.841 A  
HETATM   43  C   UNL     1     -11.814   9.138  68.470  1.00  0.00     1.665 A  
ENDBRANCH  28  30
ENDBRANCH  27  28
ENDBRANCH  20  22
ENDBRANCH  19  20
ENDBRANCH  18  19
ENDBRANCH  17  18
ENDBRANCH  14  17
ENDBRANCH   7  11
TORSDOF 8
ENDMDL
MODEL      308
REMARK 921   NORMALIZED FREE ENERGY PREDICTED BY IDOCK:   17.42 KCAL/MOL
REMARK 922        TOTAL FREE ENERGY PREDICTED BY IDOCK:   22.17 KCAL/MOL
REMARK 923 INTER-LIGAND FREE ENERGY PREDICTED BY IDOCK:    4.34 KCAL/MOL
REMARK 924 INTRA-LIGAND FREE ENERGY PREDICTED BY IDOCK:   17.83 KCAL/MOL
REMARK 927      BINDING AFFINITY PREDICTED BY RF-SCORE:    0.00 PKD
ROOT
HETATM    1  F   UNL     1     -11.602  14.089  65.968  1.00  0.00    -0.322 F  
HETATM    2  C   UNL     1     -12.729  13.872  66.701  1.00  0.00     0.065 C  
HETATM    3  C   UNL     1     -12.505  13.035  67.936  1.00  0.00     0.436 A  
HETATM    4  F   UNL     1     -13.233  15.105  66.986  1.00  0.00     1.293 F  
HETATM    5  F   UNL     1     -13.621  13.296  65.846  1.00  0.00     0.356 F  
HETATM    6  C   UNL     1     -11.229  12.532  68.263  1.00  0.00    -0.309 A  
HETATM    7  C   UNL     1     -11.052  11.671  69.352  1.00  0.00    -0.206 A  
HETATM    8  C   UNL     1     -13.603  12.711  68.747  1.00  0.00     6.012 A  
HETATM    9  C   UNL     1     -12.174  11.388  70.150  1.00  0.00    -0.401 A  
HETATM   10  C   UNL     1     -13.436  11.898  69.859  1.00  0.00     2.346 A  
ENDROOT
BRANCH   7  11
HETATM   11  N   UNL     1      -9.847  11.035  69.668  1.00  0.00     0.160 NA 
HETATM   12  C   UNL     1      -7.400  10.660  69.582  1.00  0.00    -0.130 C  
HETATM   13  C   UNL     1      -8.630  11.300  68.876  1.00  0.00    -0.051 C  
HETATM   14  N   UNL     1      -7.514   9.204  69.876  1.00  0.00    -0.063 NA 
HETATM   15  C   UNL     1     -10.039   9.599  69.983  1.00  0.00    -0.252 C  
HETATM   16  C   UNL     1      -8.770   9.029  70.659  1.00  0.00    -0.213 C  
BRANCH  14  17
HETATM   17  C   UNL     1      -7.543   8.360  68.659  1.00  0.00    -0.102 C  
BRANCH  17  18
HETATM   18  C   UNL     1      -8.294   8.960  67.447  1.00  0.00    -0.108 C  
BRANCH  18  19
HETATM   19  O   UNL     1      -8.441  10.408  67.555  1.00  0.00    -0.115 OA 
BRANCH  19  20
HETATM   20  C   UNL     1      -7.469  11.083  66.891  1.00  0.00    -0.133 C  
HETATM   21  O   UNL     1      -7.002  10.696  65.818  1.00  0.00    -0.133 OA 
BRANCH  20  22
HETATM   22  C   UNL     1      -7.000  12.371  67.508  1.00  0.00    -0.142 A  
HETATM   23  C   UNL     1      -5.744  12.233  68.148  1.00  0.00    -0.056 A  
HETATM   24  C   UNL     1      -5.133  13.292  68.807  1.00  0.00    -0.071 A  
HETATM   25  C   UNL     1      -5.763  14.527  68.827  1.00  0.00    -0.086 A  
HETATM   26  C   UNL     1      -6.997  14.693  68.191  1.00  0.00    -0.124 A  
HETATM   27  C   UNL     1      -7.653  13.633  67.526  1.00  0.00    -0.170 A  
BRANCH  27  28
HETATM   28  N   UNL     1      -8.939  13.850  66.988  1.00  0.00    -0.237 NA 
HETATM   29  H   UNL     1      -9.611  13.129  67.250  1.00  0.00     0.000 HD 
BRANCH  28  30
HETATM   30  C   UNL     1      -9.499  14.863  66.155  1.00  0.00    -0.295 A  
HETATM   31  C   UNL     1      -9.549  16.196  66.630  1.00  0.00    -0.263 A  
HETATM   32  C   UNL     1      -8.795  16.606  67.742  1.00  0.00    -0.206 A  
HETATM   33  C   UNL     1      -8.950  17.875  68.288  1.00  0.00    -0.277 A  
HETATM   34  C   UNL     1      -9.886  18.758  67.753  1.00  0.00    -0.375 A  
HETATM   35  C   UNL     1     -10.549  18.389  66.564  1.00  0.00    -0.344 A  
HETATM   36  C   UNL     1     -10.189  20.044  68.487  1.00  0.00    -0.357 C  
HETATM   37  C   UNL     1     -10.365  17.141  65.966  1.00  0.00    -0.309 A  
HETATM   38  F   UNL     1      -9.481  20.168  69.650  1.00  0.00    -0.125 F  
HETATM   39  F   UNL     1      -9.911  21.164  67.769  1.00  0.00    -0.490 F  
HETATM   40  F   UNL     1     -11.497  20.139  68.853  1.00  0.00     0.854 F  
HETATM   41  N   UNL     1     -10.979  16.842  64.811  1.00  0.00    -0.849 NA 
HETATM   42  C   UNL     1     -10.801  15.600  64.296  1.00  0.00     0.379 A  
HETATM   43  C   UNL     1     -10.098  14.581  64.934  1.00  0.00    -0.245 A  
ENDBRANCH  28  30
ENDBRANCH  27  28
ENDBRANCH  20  22
ENDBRANCH  19  20
ENDBRANCH  18  19
ENDBRANCH  17  18
ENDBRANCH  14  17
ENDBRANCH   7  11
TORSDOF 8
ENDMDL
MODEL      309
REMARK 921   NORMALIZED FREE ENERGY PREDICTED BY IDOCK:   19.72 KCAL/MOL
REMARK 922        TOTAL FREE ENERGY PREDICTED BY IDOCK:   25.53 KCAL/MOL
REMARK 923 INTER-LIGAND FREE ENERGY PREDICTED BY IDOCK:   25.89 KCAL/MOL
REMARK 924 INTRA-LIGAND FREE ENERGY PREDICTED BY IDOCK:   -0.35 KCAL/MOL
REMARK 927      BINDING AFFINITY PREDICTED BY RF-SCORE:    0.00 PKD
ROOT
HETATM    1  F   UNL     1      -9.486  18.187  73.605  1.00  0.00     5.857 F  
HETATM    2  C   UNL     1     -10.644  18.099  72.893  1.00  0.00     3.938 C  
HETATM    3  C   UNL     1     -10.531  17.270  71.638  1.00  0.00     3.303 A  
HETATM    4  F   UNL     1     -11.581  17.620  73.757  1.00  0.00    -0.275 F  
HETATM    5  F   UNL     1     -11.011  19.385  72.626  1.00  0.00     1.625 F  
HETATM    6  C   UNL     1      -9.314  16.661  71.265  1.00  0.00     5.594 A  
HETATM    7  C   UNL     1      -9.193  15.982  70.048  1.00  0.00     0.566 A  
HETATM    8  C   UNL     1     -11.651  17.143  70.802  1.00  0.00     1.540 A  
HETATM    9  C   UNL     1     -10.344  15.862  69.249  1.00  0.00    -0.249 A  
HETATM   10  C   UNL     1     -11.561  16.431  69.614  1.00  0.00    -0.023 A  
ENDROOT
BRANCH   7  11
HETATM   11  N   UNL     1      -7.995  15.460  69.550  1.00  0.00    -0.228 NA 
HETATM   12  C   UNL     1      -6.548  14.290  67.915  1.00  0.00    -0.165 C  
HETATM   13  C   UNL     1      -8.004  14.520  68.412  1.00  0.00    -0.141 C  
HETATM   14  N   UNL     1      -5.580  13.833  68.951  1.00  0.00    -0.076 NA 
HETATM   15  C   UNL     1      -7.068  15.057  70.633  1.00  0.00     0.622 C  
HETATM   16  C   UNL     1      -5.650  14.824  70.061  1.00  0.00    -0.114 C  
BRANCH  14  17
HETATM   17  C   UNL     1      -5.865  12.470  69.458  1.00  0.00    -0.105 C  
BRANCH  17  18
HETATM   18  C   UNL     1      -6.584  12.403  70.826  1.00  0.00     1.509 C  
BRANCH  18  19
HETATM   19  O   UNL     1      -7.759  11.537  70.787  1.00  0.00     2.509 OA 
BRANCH  19  20
HETATM   20  C   UNL     1      -7.440  10.231  70.605  1.00  0.00     0.564 C  
HETATM   21  O   UNL     1      -6.288   9.851  70.387  1.00  0.00    -0.080 OA 
BRANCH  20  22
HETATM   22  C   UNL     1      -8.563   9.240  70.721  1.00  0.00    -0.254 A  
HETATM   23  C   UNL     1      -9.732   9.815  71.279  1.00  0.00     0.494 A  
HETATM   24  C   UNL     1     -10.884   9.072  71.501  1.00  0.00    -0.416 A  
HETATM   25  C   UNL     1     -10.899   7.730  71.152  1.00  0.00    -0.254 A  
HETATM   26  C   UNL     1      -9.763   7.141  70.587  1.00  0.00    -0.175 A  
HETATM   27  C   UNL     1      -8.570   7.865  70.363  1.00  0.00    -0.132 A  
BRANCH  27  28
HETATM   28  N   UNL     1      -7.435   7.183  69.876  1.00  0.00    -0.084 NA 
HETATM   29  H   UNL     1      -6.589   7.376  70.414  1.00  0.00     0.000 HD 
BRANCH  28  30
HETATM   30  C   UNL     1      -7.217   6.281  68.794  1.00  0.00    -0.084 A  
HETATM   31  C   UNL     1      -7.342   6.756  67.466  1.00  0.00    -0.096 A  
HETATM   32  C   UNL     1      -7.362   8.130  67.178  1.00  0.00    -0.088 A  
HETATM   33  C   UNL     1      -7.621   8.594  65.893  1.00  0.00    -0.089 A  
HETATM   34  C   UNL     1      -7.897   7.692  64.867  1.00  0.00    -0.128 A  
HETATM   35  C   UNL     1      -7.753   6.314  65.131  1.00  0.00    -0.099 A  
HETATM   36  C   UNL     1      -8.383   8.218  63.536  1.00  0.00    -0.015 C  
HETATM   37  C   UNL     1      -7.436   5.830  66.402  1.00  0.00    -0.086 A  
HETATM   38  F   UNL     1      -8.513   9.579  63.521  1.00  0.00    -0.148 F  
HETATM   39  F   UNL     1      -7.563   7.918  62.495  1.00  0.00    -0.090 F  
HETATM   40  F   UNL     1      -9.614   7.738  63.204  1.00  0.00     1.646 F  
HETATM   41  N   UNL     1      -7.264   4.515  66.605  1.00  0.00    -0.078 NA 
HETATM   42  C   UNL     1      -7.000   4.093  67.867  1.00  0.00    -0.059 A  
HETATM   43  C   UNL     1      -6.990   4.924  68.984  1.00  0.00    -0.052 A  
ENDBRANCH  28  30
ENDBRANCH  27  28
ENDBRANCH  20  22
ENDBRANCH  19  20
ENDBRANCH  18  19
ENDBRANCH  17  18
ENDBRANCH  14  17
ENDBRANCH   7  11
TORSDOF 8
ENDMDL
MODEL      310
REMARK 921   NORMALIZED FREE ENERGY PREDICTED BY IDOCK:   20.47 KCAL/MOL
REMARK 922        TOTAL FREE ENERGY PREDICTED BY IDOCK:   26.65 KCAL/MOL
REMARK 923 INTER-LIGAND FREE ENERGY PREDICTED BY IDOCK:   23.18 KCAL/MOL
REMARK 924 INTRA-LIGAND FREE ENERGY PREDICTED BY IDOCK:    3.47 KCAL/MOL
REMARK 927      BINDING AFFINITY PREDICTED BY RF-SCORE:    0.00 PKD
ROOT
HETATM    1  F   UNL     1      -8.863  11.076  68.182  1.00  0.00    -0.123 F  
HETATM    2  C   UNL     1      -8.108  11.722  69.113  1.00  0.00     0.249 C  
HETATM    3  C   UNL     1      -7.125  10.832  69.832  1.00  0.00    -0.099 A  
HETATM    4  F   UNL     1      -7.502  12.751  68.457  1.00  0.00    -0.103 F  
HETATM    5  F   UNL     1      -8.995  12.302  69.971  1.00  0.00     1.814 F  
HETATM    6  C   UNL     1      -7.032   9.454  69.542  1.00  0.00    -0.053 A  
HETATM    7  C   UNL     1      -6.192   8.617  70.285  1.00  0.00    -0.037 A  
HETATM    8  C   UNL     1      -6.321  11.380  70.843  1.00  0.00     0.713 A  
HETATM    9  C   UNL     1      -5.390   9.210  71.276  1.00  0.00    -0.043 A  
HETATM   10  C   UNL     1      -5.447  10.573  71.557  1.00  0.00     0.055 A  
ENDROOT
BRANCH   7  11
HETATM   11  N   UNL     1      -6.135   7.228  70.143  1.00  0.00    -0.024 NA 
HETATM   12  C   UNL     1      -5.781   5.093  68.937  1.00  0.00    -0.015 C  
HETATM   13  C   UNL     1      -6.081   6.614  68.802  1.00  0.00    -0.026 C  
HETATM   14  N   UNL     1      -6.714   4.331  69.813  1.00  0.00    -0.033 NA 
HETATM   15  C   UNL     1      -7.062   6.532  71.067  1.00  0.00    -0.069 C  
HETATM   16  C   UNL     1      -6.718   5.025  71.131  1.00  0.00    -0.039 C  
BRANCH  14  17
HETATM   17  C   UNL     1      -8.090   4.245  69.270  1.00  0.00    -0.063 C  
BRANCH  17  18
HETATM   18  C   UNL     1      -8.241   4.598  67.772  1.00  0.00    -0.099 C  
BRANCH  18  19
HETATM   19  O   UNL     1      -9.272   5.605  67.547  1.00  0.00    -0.111 OA 
BRANCH  19  20
HETATM   20  C   UNL     1      -8.769   6.773  67.073  1.00  0.00    -0.114 C  
HETATM   21  O   UNL     1      -8.190   7.589  67.793  1.00  0.00    -0.117 OA 
BRANCH  20  22
HETATM   22  C   UNL     1      -8.912   7.022  65.599  1.00  0.00     0.027 A  
HETATM   23  C   UNL     1      -9.137   5.826  64.872  1.00  0.00     0.250 A  
HETATM   24  C   UNL     1      -9.274   5.819  63.490  1.00  0.00     0.867 A  
HETATM   25  C   UNL     1      -9.203   7.020  62.799  1.00  0.00     1.593 A  
HETATM   26  C   UNL     1      -8.995   8.215  63.494  1.00  0.00     0.881 A  
HETATM   27  C   UNL     1      -8.837   8.255  64.897  1.00  0.00     0.120 A  
BRANCH  27  28
HETATM   28  N   UNL     1      -8.537   9.486  65.520  1.00  0.00    -0.139 NA 
HETATM   29  H   UNL     1      -8.009   9.379  66.387  1.00  0.00     0.000 HD 
BRANCH  28  30
HETATM   30  C   UNL     1      -8.815  10.846  65.197  1.00  0.00    -0.156 A  
HETATM   31  C   UNL     1      -9.800  11.543  65.937  1.00  0.00    -0.262 A  
HETATM   32  C   UNL     1     -10.281  11.050  67.161  1.00  0.00    -0.243 A  
HETATM   33  C   UNL     1     -11.342  11.663  67.817  1.00  0.00    -0.356 A  
HETATM   34  C   UNL     1     -11.971  12.770  67.249  1.00  0.00    -0.345 A  
HETATM   35  C   UNL     1     -11.406  13.335  66.087  1.00  0.00    -0.335 A  
HETATM   36  C   UNL     1     -13.250  13.288  67.867  1.00  0.00     3.910 C  
HETATM   37  C   UNL     1     -10.304  12.768  65.444  1.00  0.00    -0.293 A  
HETATM   38  F   UNL     1     -13.652  12.551  68.946  1.00  0.00     2.715 F  
HETATM   39  F   UNL     1     -13.164  14.570  68.311  1.00  0.00     1.004 F  
HETATM   40  F   UNL     1     -14.299  13.253  66.999  1.00  0.00     7.542 F  
HETATM   41  N   UNL     1      -9.768  13.359  64.365  1.00  0.00     0.077 NA 
HETATM   42  C   UNL     1      -8.725  12.744  63.753  1.00  0.00     3.541 A  
HETATM   43  C   UNL     1      -8.234  11.491  64.112  1.00  0.00     1.124 A  
ENDBRANCH  28  30
ENDBRANCH  27  28
ENDBRANCH  20  22
ENDBRANCH  19  20
ENDBRANCH  18  19
ENDBRANCH  17  18
ENDBRANCH  14  17
ENDBRANCH   7  11
TORSDOF 8
ENDMDL
MODEL      311
REMARK 921   NORMALIZED FREE ENERGY PREDICTED BY IDOCK:   23.65 KCAL/MOL
REMARK 922        TOTAL FREE ENERGY PREDICTED BY IDOCK:   31.31 KCAL/MOL
REMARK 923 INTER-LIGAND FREE ENERGY PREDICTED BY IDOCK:   29.67 KCAL/MOL
REMARK 924 INTRA-LIGAND FREE ENERGY PREDICTED BY IDOCK:    1.64 KCAL/MOL
REMARK 927      BINDING AFFINITY PREDICTED BY RF-SCORE:    0.00 PKD
ROOT
HETATM    1  F   UNL     1     -10.795   6.154  66.191  1.00  0.00    -0.168 F  
HETATM    2  C   UNL     1     -11.794   7.075  66.288  1.00  0.00     4.049 C  
HETATM    3  C   UNL     1     -11.953   7.666  67.667  1.00  0.00     3.100 A  
HETATM    4  F   UNL     1     -11.530   8.016  65.340  1.00  0.00     4.529 F  
HETATM    5  F   UNL     1     -12.925   6.437  65.871  1.00  0.00     3.924 F  
HETATM    6  C   UNL     1     -11.125   7.268  68.737  1.00  0.00     0.048 A  
HETATM    7  C   UNL     1     -11.347   7.744  70.034  1.00  0.00    -0.048 A  
HETATM    8  C   UNL     1     -12.979   8.595  67.896  1.00  0.00    12.284 A  
HETATM    9  C   UNL     1     -12.373   8.688  70.217  1.00  0.00     0.604 A  
HETATM   10  C   UNL     1     -13.182   9.114  69.167  1.00  0.00     5.411 A  
ENDROOT
BRANCH   7  11
HETATM   11  N   UNL     1     -10.653   7.306  71.166  1.00  0.00    -0.222 NA 
HETATM   12  C   UNL     1      -8.660   6.934  72.591  1.00  0.00    -0.120 C  
HETATM   13  C   UNL     1      -9.180   7.208  71.150  1.00  0.00    -0.157 C  
HETATM   14  N   UNL     1      -9.247   5.745  73.269  1.00  0.00    -0.136 NA 
HETATM   15  C   UNL     1     -11.309   6.143  71.810  1.00  0.00    -0.291 C  
HETATM   16  C   UNL     1     -10.725   5.919  73.225  1.00  0.00    -0.265 C  
BRANCH  14  17
HETATM   17  C   UNL     1      -8.860   4.460  72.639  1.00  0.00    -0.109 C  
BRANCH  17  18
HETATM   18  C   UNL     1      -7.470   4.441  71.961  1.00  0.00    -0.075 C  
BRANCH  18  19
HETATM   19  O   UNL     1      -7.459   5.191  70.710  1.00  0.00    -0.069 OA 
BRANCH  19  20
HETATM   20  C   UNL     1      -6.204   5.420  70.248  1.00  0.00    -0.023 C  
HETATM   21  O   UNL     1      -5.207   5.357  70.969  1.00  0.00    -0.004 OA 
BRANCH  20  22
HETATM   22  C   UNL     1      -6.069   5.722  68.782  1.00  0.00    -0.025 A  
HETATM   23  C   UNL     1      -5.687   4.583  68.032  1.00  0.00    -0.021 A  
HETATM   24  C   UNL     1      -5.480   4.640  66.660  1.00  0.00    -0.013 A  
HETATM   25  C   UNL     1      -5.665   5.845  65.999  1.00  0.00    -0.013 A  
HETATM   26  C   UNL     1      -6.054   6.982  66.715  1.00  0.00    -0.037 A  
HETATM   27  C   UNL     1      -6.259   6.961  68.112  1.00  0.00    -0.034 A  
BRANCH  27  28
HETATM   28  N   UNL     1      -6.559   8.167  68.780  1.00  0.00    -0.052 NA 
HETATM   29  H   UNL     1      -5.737   8.619  69.182  1.00  0.00     0.000 HD 
BRANCH  28  30
HETATM   30  C   UNL     1      -7.767   8.889  69.014  1.00  0.00    -0.090 A  
HETATM   31  C   UNL     1      -8.508   9.367  67.907  1.00  0.00    -0.116 A  
HETATM   32  C   UNL     1      -8.270   8.894  66.606  1.00  0.00    -0.111 A  
HETATM   33  C   UNL     1      -8.903   9.462  65.506  1.00  0.00    -0.220 A  
HETATM   34  C   UNL     1      -9.769  10.540  65.677  1.00  0.00    -0.289 A  
HETATM   35  C   UNL     1     -10.102  10.929  66.991  1.00  0.00    -0.244 A  
HETATM   36  C   UNL     1     -10.278  11.276  64.458  1.00  0.00    -0.314 C  
HETATM   37  C   UNL     1      -9.521  10.332  68.112  1.00  0.00    -0.147 A  
HETATM   38  F   UNL     1      -9.778  10.773  63.290  1.00  0.00    -0.258 F  
HETATM   39  F   UNL     1     -11.630  11.243  64.322  1.00  0.00    -0.334 F  
HETATM   40  F   UNL     1      -9.926  12.592  64.460  1.00  0.00    -0.286 F  
HETATM   41  N   UNL     1      -9.894  10.699  69.348  1.00  0.00    -0.184 NA 
HETATM   42  C   UNL     1      -9.268  10.119  70.403  1.00  0.00     0.378 A  
HETATM   43  C   UNL     1      -8.196   9.237  70.288  1.00  0.00    -0.187 A  
ENDBRANCH  28  30
ENDBRANCH  27  28
ENDBRANCH  20  22
ENDBRANCH  19  20
ENDBRANCH  18  19
ENDBRANCH  17  18
ENDBRANCH  14  17
ENDBRANCH   7  11
TORSDOF 8
ENDMDL
MODEL      312
REMARK 921   NORMALIZED FREE ENERGY PREDICTED BY IDOCK:   29.72 KCAL/MOL
REMARK 922        TOTAL FREE ENERGY PREDICTED BY IDOCK:   40.22 KCAL/MOL
REMARK 923 INTER-LIGAND FREE ENERGY PREDICTED BY IDOCK:    1.55 KCAL/MOL
REMARK 924 INTRA-LIGAND FREE ENERGY PREDICTED BY IDOCK:   38.67 KCAL/MOL
REMARK 927      BINDING AFFINITY PREDICTED BY RF-SCORE:    0.00 PKD
ROOT
HETATM    1  F   UNL     1     -11.316  10.540  67.539  1.00  0.00    -0.363 F  
HETATM    2  C   UNL     1     -11.015   9.962  66.343  1.00  0.00     0.296 C  
HETATM    3  C   UNL     1     -10.254   8.664  66.462  1.00  0.00    -0.295 A  
HETATM    4  F   UNL     1     -12.200   9.818  65.687  1.00  0.00     4.169 F  
HETATM    5  F   UNL     1     -10.318  10.902  65.643  1.00  0.00    -0.283 F  
HETATM    6  C   UNL     1      -9.898   8.134  67.719  1.00  0.00    -0.209 A  
HETATM    7  C   UNL     1      -9.103   6.986  67.816  1.00  0.00    -0.126 A  
HETATM    8  C   UNL     1      -9.853   8.000  65.293  1.00  0.00     1.408 A  
HETATM    9  C   UNL     1      -8.739   6.340  66.622  1.00  0.00    -0.126 A  
HETATM   10  C   UNL     1      -9.106   6.833  65.373  1.00  0.00     0.267 A  
ENDROOT
BRANCH   7  11
HETATM   11  N   UNL     1      -8.605   6.469  69.017  1.00  0.00    -0.125 NA 
HETATM   12  C   UNL     1      -8.672   5.124  71.097  1.00  0.00    -0.130 C  
HETATM   13  C   UNL     1      -9.510   5.812  69.980  1.00  0.00    -0.158 C  
HETATM   14  N   UNL     1      -7.711   6.009  71.814  1.00  0.00    -0.100 NA 
HETATM   15  C   UNL     1      -7.632   7.383  69.659  1.00  0.00    -0.095 C  
HETATM   16  C   UNL     1      -6.855   6.638  70.770  1.00  0.00    -0.063 C  
BRANCH  14  17
HETATM   17  C   UNL     1      -8.373   7.049  72.635  1.00  0.00    -0.108 C  
BRANCH  17  18
HETATM   18  C   UNL     1      -8.135   8.509  72.182  1.00  0.00    -0.101 C  
BRANCH  18  19
HETATM   19  O   UNL     1      -7.006   8.622  71.265  1.00  0.00    -0.067 OA 
BRANCH  19  20
HETATM   20  C   UNL     1      -7.390   8.906  69.995  1.00  0.00    -0.056 C  
HETATM   21  O   UNL     1      -6.603   8.912  69.046  1.00  0.00    -0.047 OA 
BRANCH  20  22
HETATM   22  C   UNL     1      -8.851   9.183  69.778  1.00  0.00    -0.165 A  
HETATM   23  C   UNL     1      -9.665   8.080  70.135  1.00  0.00    -0.176 A  
HETATM   24  C   UNL     1     -11.046   8.107  69.992  1.00  0.00    -0.146 A  
HETATM   25  C   UNL     1     -11.651   9.254  69.497  1.00  0.00     0.308 A  
HETATM   26  C   UNL     1     -10.870  10.361  69.149  1.00  0.00    -0.274 A  
HETATM   27  C   UNL     1      -9.463  10.361  69.269  1.00  0.00    -0.198 A  
BRANCH  27  28
HETATM   28  N   UNL     1      -8.734  11.479  68.811  1.00  0.00    -0.338 NA 
HETATM   29  H   UNL     1      -8.990  11.765  67.866  1.00  0.00     0.000 HD 
BRANCH  28  30
HETATM   30  C   UNL     1      -7.717  12.294  69.388  1.00  0.00     0.564 A  
HETATM   31  C   UNL     1      -7.745  13.692  69.165  1.00  0.00     0.182 A  
HETATM   32  C   UNL     1      -8.892  14.332  68.668  1.00  0.00    -0.150 A  
HETATM   33  C   UNL     1      -8.873  15.678  68.322  1.00  0.00    -0.180 A  
HETATM   34  C   UNL     1      -7.694  16.413  68.435  1.00  0.00    -0.177 A  
HETATM   35  C   UNL     1      -6.582  15.802  69.050  1.00  0.00    -0.134 A  
HETATM   36  C   UNL     1      -7.638  17.809  67.857  1.00  0.00    -0.212 C  
HETATM   37  C   UNL     1      -6.599  14.466  69.458  1.00  0.00    -0.141 A  
HETATM   38  F   UNL     1      -8.806  18.176  67.249  1.00  0.00    -0.241 F  
HETATM   39  F   UNL     1      -7.386  18.774  68.779  1.00  0.00    -0.290 F  
HETATM   40  F   UNL     1      -6.681  17.936  66.896  1.00  0.00    -0.173 F  
HETATM   41  N   UNL     1      -5.536  13.932  70.079  1.00  0.00    -0.106 NA 
HETATM   42  C   UNL     1      -5.588  12.618  70.417  1.00  0.00    -0.167 A  
HETATM   43  C   UNL     1      -6.633  11.763  70.076  1.00  0.00     0.071 A  
ENDBRANCH  28  30
ENDBRANCH  27  28
ENDBRANCH  20  22
ENDBRANCH  19  20
ENDBRANCH  18  19
ENDBRANCH  17  18
ENDBRANCH  14  17
ENDBRANCH   7  11
TORSDOF 8
ENDMDL
MODEL      313
REMARK 921   NORMALIZED FREE ENERGY PREDICTED BY IDOCK:   30.14 KCAL/MOL
REMARK 922        TOTAL FREE ENERGY PREDICTED BY IDOCK:   40.84 KCAL/MOL
REMARK 923 INTER-LIGAND FREE ENERGY PREDICTED BY IDOCK:   40.00 KCAL/MOL
REMARK 924 INTRA-LIGAND FREE ENERGY PREDICTED BY IDOCK:    0.85 KCAL/MOL
REMARK 927      BINDING AFFINITY PREDICTED BY RF-SCORE:    0.00 PKD
ROOT
HETATM    1  F   UNL     1      -6.347  14.974  70.654  1.00  0.00    -0.143 F  
HETATM    2  C   UNL     1      -6.671  14.935  71.977  1.00  0.00     1.787 C  
HETATM    3  C   UNL     1      -8.129  14.651  72.243  1.00  0.00     6.218 A  
HETATM    4  F   UNL     1      -5.845  14.010  72.539  1.00  0.00    -0.240 F  
HETATM    5  F   UNL     1      -6.282  16.138  72.488  1.00  0.00     1.595 F  
HETATM    6  C   UNL     1      -9.045  14.457  71.188  1.00  0.00     4.345 A  
HETATM    7  C   UNL     1     -10.412  14.298  71.442  1.00  0.00     2.828 A  
HETATM    8  C   UNL     1      -8.587  14.629  73.568  1.00  0.00     9.564 A  
HETATM    9  C   UNL     1     -10.827  14.263  72.785  1.00  0.00     3.299 A  
HETATM   10  C   UNL     1      -9.933  14.424  73.840  1.00  0.00     7.628 A  
ENDROOT
BRANCH   7  11
HETATM   11  N   UNL     1     -11.396  14.224  70.452  1.00  0.00    -0.117 NA 
HETATM   12  C   UNL     1     -13.160  13.132  69.097  1.00  0.00     2.002 C  
HETATM   13  C   UNL     1     -11.924  12.915  70.018  1.00  0.00    -0.309 C  
HETATM   14  N   UNL     1     -12.935  14.013  67.917  1.00  0.00     1.356 NA 
HETATM   15  C   UNL     1     -11.128  15.149  69.326  1.00  0.00    -0.274 C  
HETATM   16  C   UNL     1     -12.391  15.295  68.445  1.00  0.00     0.295 C  
BRANCH  14  17
HETATM   17  C   UNL     1     -12.007  13.430  66.919  1.00  0.00    -0.385 C  
BRANCH  17  18
HETATM   18  C   UNL     1     -10.989  12.406  67.472  1.00  0.00    -0.252 C  
BRANCH  18  19
HETATM   19  O   UNL     1      -9.989  13.033  68.330  1.00  0.00    -0.231 OA 
BRANCH  19  20
HETATM   20  C   UNL     1      -8.970  12.195  68.645  1.00  0.00    -0.000 C  
HETATM   21  O   UNL     1      -9.145  11.118  69.217  1.00  0.00    -0.009 OA 
BRANCH  20  22
HETATM   22  C   UNL     1      -7.591  12.622  68.226  1.00  0.00    -0.133 A  
HETATM   23  C   UNL     1      -7.578  13.924  67.668  1.00  0.00    -0.188 A  
HETATM   24  C   UNL     1      -6.413  14.509  67.190  1.00  0.00     0.574 A  
HETATM   25  C   UNL     1      -5.221  13.805  67.275  1.00  0.00     0.513 A  
HETATM   26  C   UNL     1      -5.204  12.523  67.834  1.00  0.00    -0.091 A  
HETATM   27  C   UNL     1      -6.374  11.894  68.315  1.00  0.00    -0.051 A  
BRANCH  27  28
HETATM   28  N   UNL     1      -6.296  10.564  68.780  1.00  0.00    -0.047 NA 
HETATM   29  H   UNL     1      -6.003   9.903  68.060  1.00  0.00     0.000 HD 
BRANCH  28  30
HETATM   30  C   UNL     1      -6.540   9.947  70.042  1.00  0.00    -0.091 A  
HETATM   31  C   UNL     1      -7.158   8.674  70.078  1.00  0.00    -0.047 A  
HETATM   32  C   UNL     1      -7.251   7.871  68.929  1.00  0.00    -0.076 A  
HETATM   33  C   UNL     1      -7.976   6.685  68.935  1.00  0.00    -0.112 A  
HETATM   34  C   UNL     1      -8.653   6.285  70.086  1.00  0.00    -0.134 A  
HETATM   35  C   UNL     1      -8.454   7.026  71.270  1.00  0.00    -0.118 A  
HETATM   36  C   UNL     1      -9.603   5.112  70.010  1.00  0.00    -0.181 C  
HETATM   37  C   UNL     1      -7.683   8.189  71.298  1.00  0.00    -0.091 A  
HETATM   38  F   UNL     1      -9.692   4.584  68.753  1.00  0.00    -0.194 F  
HETATM   39  F   UNL     1      -9.259   4.075  70.819  1.00  0.00    -0.138 F  
HETATM   40  F   UNL     1     -10.879   5.453  70.346  1.00  0.00    -0.343 F  
HETATM   41  N   UNL     1      -7.481   8.843  72.453  1.00  0.00    -0.342 NA 
HETATM   42  C   UNL     1      -6.759   9.992  72.418  1.00  0.00     1.815 A  
HETATM   43  C   UNL     1      -6.294  10.589  71.249  1.00  0.00     0.515 A  
ENDBRANCH  28  30
ENDBRANCH  27  28
ENDBRANCH  20  22
ENDBRANCH  19  20
ENDBRANCH  18  19
ENDBRANCH  17  18
ENDBRANCH  14  17
ENDBRANCH   7  11
TORSDOF 8
ENDMDL
MODEL      314
REMARK 921   NORMALIZED FREE ENERGY PREDICTED BY IDOCK:   30.39 KCAL/MOL
REMARK 922        TOTAL FREE ENERGY PREDICTED BY IDOCK:   41.20 KCAL/MOL
REMARK 923 INTER-LIGAND FREE ENERGY PREDICTED BY IDOCK:   40.99 KCAL/MOL
REMARK 924 INTRA-LIGAND FREE ENERGY PREDICTED BY IDOCK:    0.21 KCAL/MOL
REMARK 927      BINDING AFFINITY PREDICTED BY RF-SCORE:    0.00 PKD
ROOT
HETATM    1  F   UNL     1     -12.789   8.203  67.416  1.00  0.00     6.828 F  
HETATM    2  C   UNL     1     -12.271   7.369  68.361  1.00  0.00     3.343 C  
HETATM    3  C   UNL     1     -11.087   7.940  69.100  1.00  0.00     0.162 A  
HETATM    4  F   UNL     1     -13.305   7.052  69.189  1.00  0.00     3.344 F  
HETATM    5  F   UNL     1     -11.958   6.216  67.703  1.00  0.00     0.383 F  
HETATM    6  C   UNL     1     -10.585   9.225  68.805  1.00  0.00    -0.220 A  
HETATM    7  C   UNL     1      -9.424   9.703  69.422  1.00  0.00    -0.192 A  
HETATM    8  C   UNL     1     -10.444   7.153  70.068  1.00  0.00    -0.235 A  
HETATM    9  C   UNL     1      -8.822   8.891  70.400  1.00  0.00    -0.204 A  
HETATM   10  C   UNL     1      -9.320   7.632  70.725  1.00  0.00    -0.162 A  
ENDROOT
BRANCH   7  11
HETATM   11  N   UNL     1      -8.795  10.909  69.097  1.00  0.00    -0.095 NA 
HETATM   12  C   UNL     1      -6.908  12.357  68.402  1.00  0.00    -0.080 C  
HETATM   13  C   UNL     1      -7.323  10.985  69.009  1.00  0.00    -0.123 C  
HETATM   14  N   UNL     1      -7.445  13.557  69.102  1.00  0.00     0.046 NA 
HETATM   15  C   UNL     1      -9.399  12.063  69.802  1.00  0.00     2.073 C  
HETATM   16  C   UNL     1      -8.923  13.387  69.159  1.00  0.00     0.606 C  
BRANCH  14  17
HETATM   17  C   UNL     1      -6.893  13.735  70.466  1.00  0.00     0.646 C  
BRANCH  17  18
HETATM   18  C   UNL     1      -7.073  15.143  71.080  1.00  0.00     1.502 C  
BRANCH  18  19
HETATM   19  O   UNL     1      -5.856  15.943  70.986  1.00  0.00     0.115 OA 
BRANCH  19  20
HETATM   20  C   UNL     1      -6.107  17.275  70.939  1.00  0.00     0.983 C  
HETATM   21  O   UNL     1      -5.763  18.051  71.833  1.00  0.00     0.377 OA 
BRANCH  20  22
HETATM   22  C   UNL     1      -6.803  17.787  69.709  1.00  0.00     0.220 A  
HETATM   23  C   UNL     1      -5.903  18.018  68.640  1.00  0.00    -0.189 A  
HETATM   24  C   UNL     1      -6.328  18.518  67.415  1.00  0.00    -0.197 A  
HETATM   25  C   UNL     1      -7.675  18.785  67.226  1.00  0.00    -0.241 A  
HETATM   26  C   UNL     1      -8.586  18.553  68.262  1.00  0.00    -0.341 A  
HETATM   27  C   UNL     1      -8.186  18.061  69.524  1.00  0.00     0.659 A  
BRANCH  27  28
HETATM   28  N   UNL     1      -9.146  17.940  70.550  1.00  0.00     3.468 NA 
HETATM   29  H   UNL     1      -9.367  18.829  71.000  1.00  0.00     0.000 HD 
BRANCH  28  30
HETATM   30  C   UNL     1      -9.874  16.841  71.093  1.00  0.00     3.779 A  
HETATM   31  C   UNL     1     -10.536  15.952  70.213  1.00  0.00    -0.260 A  
HETATM   32  C   UNL     1     -10.248  15.930  68.839  1.00  0.00    -0.226 A  
HETATM   33  C   UNL     1     -10.995  15.155  67.958  1.00  0.00    -0.295 A  
HETATM   34  C   UNL     1     -12.071  14.403  68.427  1.00  0.00    -0.278 A  
HETATM   35  C   UNL     1     -12.277  14.329  69.820  1.00  0.00    -0.390 A  
HETATM   36  C   UNL     1     -12.995  13.740  67.432  1.00  0.00     1.701 C  
HETATM   37  C   UNL     1     -11.501  15.055  70.727  1.00  0.00    -0.292 A  
HETATM   38  F   UNL     1     -12.647  13.997  66.135  1.00  0.00    -0.464 F  
HETATM   39  F   UNL     1     -13.036  12.386  67.539  1.00  0.00     1.141 F  
HETATM   40  F   UNL     1     -14.281  14.173  67.549  1.00  0.00     6.541 F  
HETATM   41  N   UNL     1     -11.700  14.925  72.048  1.00  0.00    -0.344 NA 
HETATM   42  C   UNL     1     -10.948  15.686  72.884  1.00  0.00     1.170 A  
HETATM   43  C   UNL     1     -10.050  16.662  72.459  1.00  0.00     6.734 A  
ENDBRANCH  28  30
ENDBRANCH  27  28
ENDBRANCH  20  22
ENDBRANCH  19  20
ENDBRANCH  18  19
ENDBRANCH  17  18
ENDBRANCH  14  17
ENDBRANCH   7  11
TORSDOF 8
ENDMDL
MODEL      315
REMARK 921   NORMALIZED FREE ENERGY PREDICTED BY IDOCK:   31.31 KCAL/MOL
REMARK 922        TOTAL FREE ENERGY PREDICTED BY IDOCK:   42.56 KCAL/MOL
REMARK 923 INTER-LIGAND FREE ENERGY PREDICTED BY IDOCK:   33.80 KCAL/MOL
REMARK 924 INTRA-LIGAND FREE ENERGY PREDICTED BY IDOCK:    8.76 KCAL/MOL
REMARK 927      BINDING AFFINITY PREDICTED BY RF-SCORE:    0.00 PKD
ROOT
HETATM    1  F   UNL     1      -6.975   7.304  66.160  1.00  0.00    -0.059 F  
HETATM    2  C   UNL     1      -7.293   8.156  65.145  1.00  0.00    -0.078 C  
HETATM    3  C   UNL     1      -8.277   9.232  65.533  1.00  0.00    -0.125 A  
HETATM    4  F   UNL     1      -6.111   8.663  64.696  1.00  0.00    -0.061 F  
HETATM    5  F   UNL     1      -7.765   7.369  64.137  1.00  0.00    -0.093 F  
HETATM    6  C   UNL     1      -8.805   9.310  66.839  1.00  0.00    -0.141 A  
HETATM    7  C   UNL     1      -9.795  10.245  67.160  1.00  0.00    -0.185 A  
HETATM    8  C   UNL     1      -8.711  10.142  64.558  1.00  0.00    -0.211 A  
HETATM    9  C   UNL     1     -10.187  11.151  66.159  1.00  0.00    -0.293 A  
HETATM   10  C   UNL     1      -9.657  11.108  64.873  1.00  0.00    -0.279 A  
ENDROOT
BRANCH   7  11
HETATM   11  N   UNL     1     -10.454  10.306  68.392  1.00  0.00    -0.189 NA 
HETATM   12  C   UNL     1     -12.414  10.285  69.908  1.00  0.00     0.025 C  
HETATM   13  C   UNL     1     -11.918  10.495  68.448  1.00  0.00     0.327 C  
HETATM   14  N   UNL     1     -11.746  11.127  70.940  1.00  0.00    -0.143 NA 
HETATM   15  C   UNL     1      -9.720  11.131  69.380  1.00  0.00     0.175 C  
HETATM   16  C   UNL     1     -10.283  10.886  70.800  1.00  0.00     2.094 C  
BRANCH  14  17
HETATM   17  C   UNL     1     -12.047  12.571  70.803  1.00  0.00    -0.146 C  
BRANCH  17  18
HETATM   18  C   UNL     1     -11.440  13.266  69.562  1.00  0.00    -0.234 C  
BRANCH  18  19
HETATM   19  O   UNL     1     -10.021  12.961  69.402  1.00  0.00     0.457 OA 
BRANCH  19  20
HETATM   20  C   UNL     1      -9.222  13.825  70.076  1.00  0.00     2.344 C  
HETATM   21  O   UNL     1      -8.003  13.669  70.170  1.00  0.00     1.495 OA 
BRANCH  20  22
HETATM   22  C   UNL     1      -9.887  15.028  70.683  1.00  0.00     0.808 A  
HETATM   23  C   UNL     1     -11.071  14.689  71.384  1.00  0.00     0.344 A  
HETATM   24  C   UNL     1     -11.861  15.650  72.003  1.00  0.00    -0.548 A  
HETATM   25  C   UNL     1     -11.472  16.980  71.948  1.00  0.00     0.706 A  
HETATM   26  C   UNL     1     -10.301  17.339  71.273  1.00  0.00     2.943 A  
HETATM   27  C   UNL     1      -9.484  16.389  70.620  1.00  0.00     2.390 A  
BRANCH  27  28
HETATM   28  N   UNL     1      -8.368  16.835  69.881  1.00  0.00     0.994 NA 
HETATM   29  H   UNL     1      -7.543  16.999  70.459  1.00  0.00     0.000 HD 
BRANCH  28  30
HETATM   30  C   UNL     1      -8.147  17.106  68.499  1.00  0.00    -0.260 A  
HETATM   31  C   UNL     1      -9.262  17.252  67.639  1.00  0.00    -0.229 A  
HETATM   32  C   UNL     1     -10.557  17.449  68.145  1.00  0.00    -0.376 A  
HETATM   33  C   UNL     1     -11.665  17.455  67.305  1.00  0.00     1.514 A  
HETATM   34  C   UNL     1     -11.509  17.232  65.938  1.00  0.00     1.324 A  
HETATM   35  C   UNL     1     -10.200  17.161  65.419  1.00  0.00     0.043 A  
HETATM   36  C   UNL     1     -12.737  17.031  65.080  1.00  0.00     5.863 C  
HETATM   37  C   UNL     1      -9.071  17.211  66.239  1.00  0.00    -0.228 A  
HETATM   38  F   UNL     1     -13.898  17.075  65.800  1.00  0.00     8.069 F  
HETATM   39  F   UNL     1     -12.879  17.961  64.099  1.00  0.00     6.394 F  
HETATM   40  F   UNL     1     -12.746  15.817  64.461  1.00  0.00    -0.016 F  
HETATM   41  N   UNL     1      -7.840  17.183  65.703  1.00  0.00    -0.192 NA 
HETATM   42  C   UNL     1      -6.777  17.191  66.547  1.00  0.00    -0.255 A  
HETATM   43  C   UNL     1      -6.879  17.129  67.935  1.00  0.00    -0.165 A  
ENDBRANCH  28  30
ENDBRANCH  27  28
ENDBRANCH  20  22
ENDBRANCH  19  20
ENDBRANCH  18  19
ENDBRANCH  17  18
ENDBRANCH  14  17
ENDBRANCH   7  11
TORSDOF 8
ENDMDL
MODEL      316
REMARK 921   NORMALIZED FREE ENERGY PREDICTED BY IDOCK:   37.24 KCAL/MOL
REMARK 922        TOTAL FREE ENERGY PREDICTED BY IDOCK:   51.26 KCAL/MOL
REMARK 923 INTER-LIGAND FREE ENERGY PREDICTED BY IDOCK:   19.60 KCAL/MOL
REMARK 924 INTRA-LIGAND FREE ENERGY PREDICTED BY IDOCK:   31.66 KCAL/MOL
REMARK 927      BINDING AFFINITY PREDICTED BY RF-SCORE:    0.00 PKD
ROOT
HETATM    1  F   UNL     1      -9.385  14.458  72.500  1.00  0.00     3.774 F  
HETATM    2  C   UNL     1     -10.427  15.035  71.840  1.00  0.00     1.507 C  
HETATM    3  C   UNL     1     -11.147  14.105  70.896  1.00  0.00     0.682 A  
HETATM    4  F   UNL     1     -11.246  15.543  72.803  1.00  0.00    -0.480 F  
HETATM    5  F   UNL     1      -9.902  16.115  71.194  1.00  0.00     1.072 F  
HETATM    6  C   UNL     1     -10.741  12.764  70.733  1.00  0.00     3.462 A  
HETATM    7  C   UNL     1     -11.349  11.939  69.779  1.00  0.00    -0.147 A  
HETATM    8  C   UNL     1     -12.213  14.602  70.130  1.00  0.00    -0.391 A  
HETATM    9  C   UNL     1     -12.425  12.470  69.046  1.00  0.00     0.402 A  
HETATM   10  C   UNL     1     -12.858  13.783  69.214  1.00  0.00     0.823 A  
ENDROOT
BRANCH   7  11
HETATM   11  N   UNL     1     -10.925  10.643  69.471  1.00  0.00    -0.254 NA 
HETATM   12  C   UNL     1      -9.408   8.685  69.543  1.00  0.00    -0.153 C  
HETATM   13  C   UNL     1      -9.539  10.221  69.755  1.00  0.00    -0.108 C  
HETATM   14  N   UNL     1      -9.834   8.183  68.207  1.00  0.00    -0.166 NA 
HETATM   15  C   UNL     1     -11.412  10.195  68.145  1.00  0.00     0.041 C  
HETATM   16  C   UNL     1     -11.228   8.666  67.999  1.00  0.00     0.599 C  
BRANCH  14  17
HETATM   17  C   UNL     1      -8.959   8.641  67.102  1.00  0.00    -0.132 C  
BRANCH  17  18
HETATM   18  C   UNL     1      -9.237  10.069  66.577  1.00  0.00    -0.150 C  
BRANCH  18  19
HETATM   19  O   UNL     1      -8.799  10.242  65.196  1.00  0.00    -0.164 OA 
BRANCH  19  20
HETATM   20  C   UNL     1      -9.736   9.850  64.297  1.00  0.00    -0.053 C  
HETATM   21  O   UNL     1      -9.725   8.738  63.765  1.00  0.00     1.536 OA 
BRANCH  20  22
HETATM   22  C   UNL     1     -10.835  10.830  63.997  1.00  0.00     0.124 A  
HETATM   23  C   UNL     1     -11.645  10.412  62.912  1.00  0.00     3.301 A  
HETATM   24  C   UNL     1     -12.705  11.178  62.447  1.00  0.00     2.717 A  
HETATM   25  C   UNL     1     -12.991  12.383  63.070  1.00  0.00     0.353 A  
HETATM   26  C   UNL     1     -12.215  12.813  64.152  1.00  0.00    -0.506 A  
HETATM   27  C   UNL     1     -11.120  12.064  64.640  1.00  0.00    -0.322 A  
BRANCH  27  28
HETATM   28  N   UNL     1     -10.326  12.604  65.673  1.00  0.00    -0.269 NA 
HETATM   29  H   UNL     1     -10.476  13.603  65.814  1.00  0.00     0.000 HD 
BRANCH  28  30
HETATM   30  C   UNL     1      -9.359  12.050  66.562  1.00  0.00    -0.223 A  
HETATM   31  C   UNL     1      -8.886  12.835  67.642  1.00  0.00    -0.189 A  
HETATM   32  C   UNL     1      -9.555  14.002  68.047  1.00  0.00    -0.217 A  
HETATM   33  C   UNL     1      -9.016  14.842  69.015  1.00  0.00    -0.135 A  
HETATM   34  C   UNL     1      -7.776  14.552  69.581  1.00  0.00     0.138 A  
HETATM   35  C   UNL     1      -7.169  13.319  69.265  1.00  0.00     0.138 A  
HETATM   36  C   UNL     1      -7.113  15.581  70.468  1.00  0.00     0.704 C  
HETATM   37  C   UNL     1      -7.723  12.433  68.338  1.00  0.00    -0.144 A  
HETATM   38  F   UNL     1      -7.846  16.728  70.586  1.00  0.00     1.977 F  
HETATM   39  F   UNL     1      -6.897  15.151  71.740  1.00  0.00     0.932 F  
HETATM   40  F   UNL     1      -5.902  15.978  69.988  1.00  0.00    -0.148 F  
HETATM   41  N   UNL     1      -7.139  11.250  68.095  1.00  0.00    -0.069 NA 
HETATM   42  C   UNL     1      -7.695  10.445  67.154  1.00  0.00    -0.100 A  
HETATM   43  C   UNL     1      -8.777  10.807  66.355  1.00  0.00    -0.163 A  
ENDBRANCH  28  30
ENDBRANCH  27  28
ENDBRANCH  20  22
ENDBRANCH  19  20
ENDBRANCH  18  19
ENDBRANCH  17  18
ENDBRANCH  14  17
ENDBRANCH   7  11
TORSDOF 8
ENDMDL
MODEL      317
REMARK 921   NORMALIZED FREE ENERGY PREDICTED BY IDOCK:   42.23 KCAL/MOL
REMARK 922        TOTAL FREE ENERGY PREDICTED BY IDOCK:   58.58 KCAL/MOL
REMARK 923 INTER-LIGAND FREE ENERGY PREDICTED BY IDOCK:   46.29 KCAL/MOL
REMARK 924 INTRA-LIGAND FREE ENERGY PREDICTED BY IDOCK:   12.29 KCAL/MOL
REMARK 927      BINDING AFFINITY PREDICTED BY RF-SCORE:    0.00 PKD
ROOT
HETATM    1  F   UNL     1      -8.263   6.847  70.404  1.00  0.00    -0.115 F  
HETATM    2  C   UNL     1      -7.342   7.851  70.398  1.00  0.00    -0.068 C  
HETATM    3  C   UNL     1      -7.914   9.207  70.068  1.00  0.00    -0.113 A  
HETATM    4  F   UNL     1      -6.742   7.817  71.620  1.00  0.00    -0.044 F  
HETATM    5  F   UNL     1      -6.385   7.468  69.506  1.00  0.00    -0.029 F  
HETATM    6  C   UNL     1      -9.286   9.378  69.788  1.00  0.00    -0.209 A  
HETATM    7  C   UNL     1      -9.788  10.620  69.382  1.00  0.00    -0.139 A  
HETATM    8  C   UNL     1      -7.051  10.310  69.992  1.00  0.00    -0.161 A  
HETATM    9  C   UNL     1      -8.893  11.703  69.337  1.00  0.00     0.735 A  
HETATM   10  C   UNL     1      -7.541  11.559  69.637  1.00  0.00     0.422 A  
ENDROOT
BRANCH   7  11
HETATM   11  N   UNL     1     -11.105  10.843  68.969  1.00  0.00    -0.225 NA 
HETATM   12  C   UNL     1     -13.339  10.211  68.103  1.00  0.00     8.974 C  
HETATM   13  C   UNL     1     -11.841   9.804  68.221  1.00  0.00     1.248 C  
HETATM   14  N   UNL     1     -13.594  11.552  67.507  1.00  0.00     8.175 NA 
HETATM   15  C   UNL     1     -11.296  12.205  68.420  1.00  0.00    -0.286 C  
HETATM   16  C   UNL     1     -12.805  12.528  68.310  1.00  0.00     2.210 C  
BRANCH  14  17
HETATM   17  C   UNL     1     -13.221  11.639  66.076  1.00  0.00     5.994 C  
BRANCH  17  18
HETATM   18  C   UNL     1     -11.942  12.452  65.767  1.00  0.00    -0.372 C  
BRANCH  18  19
HETATM   19  O   UNL     1     -11.327  12.050  64.507  1.00  0.00    -0.319 OA 
BRANCH  19  20
HETATM   20  C   UNL     1     -10.196  12.747  64.231  1.00  0.00    -0.327 C  
HETATM   21  O   UNL     1     -10.072  13.444  63.222  1.00  0.00     1.008 OA 
BRANCH  20  22
HETATM   22  C   UNL     1      -9.089  12.667  65.244  1.00  0.00     0.659 A  
HETATM   23  C   UNL     1      -8.016  11.854  64.804  1.00  0.00     2.149 A  
HETATM   24  C   UNL     1      -6.898  11.619  65.593  1.00  0.00     1.118 A  
HETATM   25  C   UNL     1      -6.819  12.211  66.845  1.00  0.00     0.004 A  
HETATM   26  C   UNL     1      -7.859  13.029  67.298  1.00  0.00    -0.132 A  
HETATM   27  C   UNL     1      -9.017  13.276  66.526  1.00  0.00    -0.054 A  
BRANCH  27  28
HETATM   28  N   UNL     1     -10.066  14.036  67.086  1.00  0.00    -0.256 NA 
HETATM   29  H   UNL     1     -10.029  14.082  68.105  1.00  0.00     0.000 HD 
BRANCH  28  30
HETATM   30  C   UNL     1     -11.166  14.753  66.531  1.00  0.00    -0.342 A  
HETATM   31  C   UNL     1     -10.966  16.079  66.079  1.00  0.00    -0.097 A  
HETATM   32  C   UNL     1      -9.677  16.596  65.871  1.00  0.00    -0.269 A  
HETATM   33  C   UNL     1      -9.480  17.936  65.560  1.00  0.00     0.803 A  
HETATM   34  C   UNL     1     -10.568  18.804  65.480  1.00  0.00    -0.038 A  
HETATM   35  C   UNL     1     -11.865  18.257  65.565  1.00  0.00     3.836 A  
HETATM   36  C   UNL     1     -10.318  20.289  65.352  1.00  0.00     0.115 C  
HETATM   37  C   UNL     1     -12.086  16.902  65.820  1.00  0.00     3.034 A  
HETATM   38  F   UNL     1      -8.988  20.603  65.354  1.00  0.00     0.067 F  
HETATM   39  F   UNL     1     -10.821  20.835  64.214  1.00  0.00     0.496 F  
HETATM   40  F   UNL     1     -10.854  20.997  66.386  1.00  0.00     0.500 F  
HETATM   41  N   UNL     1     -13.335  16.411  65.851  1.00  0.00     5.640 NA 
HETATM   42  C   UNL     1     -13.496  15.096  66.145  1.00  0.00     2.939 A  
HETATM   43  C   UNL     1     -12.458  14.243  66.511  1.00  0.00    -0.242 A  
ENDBRANCH  28  30
ENDBRANCH  27  28
ENDBRANCH  20  22
ENDBRANCH  19  20
ENDBRANCH  18  19
ENDBRANCH  17  18
ENDBRANCH  14  17
ENDBRANCH   7  11
TORSDOF 8
ENDMDL
MODEL      318
REMARK 921   NORMALIZED FREE ENERGY PREDICTED BY IDOCK:   47.41 KCAL/MOL
REMARK 922        TOTAL FREE ENERGY PREDICTED BY IDOCK:   66.19 KCAL/MOL
REMARK 923 INTER-LIGAND FREE ENERGY PREDICTED BY IDOCK:   62.47 KCAL/MOL
REMARK 924 INTRA-LIGAND FREE ENERGY PREDICTED BY IDOCK:    3.72 KCAL/MOL
REMARK 927      BINDING AFFINITY PREDICTED BY RF-SCORE:    0.00 PKD
ROOT
HETATM    1  F   UNL     1     -10.315   5.608  65.524  1.00  0.00     0.065 F  
HETATM    2  C   UNL     1     -11.458   6.323  65.326  1.00  0.00     4.947 C  
HETATM    3  C   UNL     1     -11.990   6.986  66.572  1.00  0.00     3.843 A  
HETATM    4  F   UNL     1     -11.175   7.216  64.336  1.00  0.00     8.604 F  
HETATM    5  F   UNL     1     -12.353   5.447  64.789  1.00  0.00     1.792 F  
HETATM    6  C   UNL     1     -11.338   6.846  67.815  1.00  0.00     0.042 A  
HETATM    7  C   UNL     1     -11.896   7.377  68.984  1.00  0.00     1.184 A  
HETATM    8  C   UNL     1     -13.186   7.716  66.498  1.00  0.00    16.618 A  
HETATM    9  C   UNL     1     -13.085   8.117  68.862  1.00  0.00     7.966 A  
HETATM   10  C   UNL     1     -13.727   8.291  67.639  1.00  0.00    22.283 A  
ENDROOT
BRANCH   7  11
HETATM   11  N   UNL     1     -11.379   7.178  70.268  1.00  0.00    -0.282 NA 
HETATM   12  C   UNL     1      -9.856   7.588  72.178  1.00  0.00    -0.169 C  
HETATM   13  C   UNL     1     -10.073   7.754  70.646  1.00  0.00    -0.191 C  
HETATM   14  N   UNL     1      -9.973   6.196  72.696  1.00  0.00    -0.174 NA 
HETATM   15  C   UNL     1     -11.559   5.782  70.733  1.00  0.00     0.260 C  
HETATM   16  C   UNL     1     -11.304   5.692  72.256  1.00  0.00    -0.240 C  
BRANCH  14  17
HETATM   17  C   UNL     1      -8.896   5.299  72.215  1.00  0.00    -0.129 C  
BRANCH  17  18
HETATM   18  C   UNL     1      -7.551   5.987  71.886  1.00  0.00    -0.097 C  
BRANCH  18  19
HETATM   19  O   UNL     1      -7.660   6.890  70.744  1.00  0.00    -0.088 OA 
BRANCH  19  20
HETATM   20  C   UNL     1      -6.593   7.719  70.629  1.00  0.00    -0.038 C  
HETATM   21  O   UNL     1      -5.763   7.867  71.529  1.00  0.00    -0.035 OA 
BRANCH  20  22
HETATM   22  C   UNL     1      -6.435   8.439  69.319  1.00  0.00    -0.039 A  
HETATM   23  C   UNL     1      -5.467   7.828  68.484  1.00  0.00    -0.027 A  
HETATM   24  C   UNL     1      -5.142   8.342  67.236  1.00  0.00    -0.033 A  
HETATM   25  C   UNL     1      -5.794   9.480  66.784  1.00  0.00    -0.055 A  
HETATM   26  C   UNL     1      -6.763  10.095  67.584  1.00  0.00    -0.075 A  
HETATM   27  C   UNL     1      -7.106   9.606  68.864  1.00  0.00    -0.067 A  
BRANCH  27  28
HETATM   28  N   UNL     1      -8.025  10.331  69.652  1.00  0.00    -0.234 NA 
HETATM   29  H   UNL     1      -7.575  10.952  70.324  1.00  0.00     0.000 HD 
BRANCH  28  30
HETATM   30  C   UNL     1      -9.449  10.380  69.709  1.00  0.00    -0.003 A  
HETATM   31  C   UNL     1     -10.167  10.856  68.585  1.00  0.00    -0.201 A  
HETATM   32  C   UNL     1      -9.558  10.982  67.326  1.00  0.00    -0.183 A  
HETATM   33  C   UNL     1     -10.224  11.576  66.260  1.00  0.00    -0.268 A  
HETATM   34  C   UNL     1     -11.508  12.088  66.435  1.00  0.00    -0.417 A  
HETATM   35  C   UNL     1     -12.162  11.848  67.662  1.00  0.00     0.392 A  
HETATM   36  C   UNL     1     -12.129  12.915  65.332  1.00  0.00    -0.454 C  
HETATM   37  C   UNL     1     -11.531  11.201  68.726  1.00  0.00    -0.299 A  
HETATM   38  F   UNL     1     -11.295  13.076  64.261  1.00  0.00    -0.333 F  
HETATM   39  F   UNL     1     -13.274  12.385  64.827  1.00  0.00    -0.495 F  
HETATM   40  F   UNL     1     -12.437  14.178  65.738  1.00  0.00    -0.419 F  
HETATM   41  N   UNL     1     -12.199  10.952  69.863  1.00  0.00    -0.342 NA 
HETATM   42  C   UNL     1     -11.527  10.360  70.882  1.00  0.00    -0.297 A  
HETATM   43  C   UNL     1     -10.163  10.080  70.861  1.00  0.00     0.157 A  
ENDBRANCH  28  30
ENDBRANCH  27  28
ENDBRANCH  20  22
ENDBRANCH  19  20
ENDBRANCH  18  19
ENDBRANCH  17  18
ENDBRANCH  14  17
ENDBRANCH   7  11
TORSDOF 8
ENDMDL
MODEL      319
REMARK 921   NORMALIZED FREE ENERGY PREDICTED BY IDOCK:   48.80 KCAL/MOL
REMARK 922        TOTAL FREE ENERGY PREDICTED BY IDOCK:   68.22 KCAL/MOL
REMARK 923 INTER-LIGAND FREE ENERGY PREDICTED BY IDOCK:   29.07 KCAL/MOL
REMARK 924 INTRA-LIGAND FREE ENERGY PREDICTED BY IDOCK:   39.15 KCAL/MOL
REMARK 927      BINDING AFFINITY PREDICTED BY RF-SCORE:    0.00 PKD
ROOT
HETATM    1  F   UNL     1      -7.652   7.621  66.043  1.00  0.00    -0.079 F  
HETATM    2  C   UNL     1      -8.736   7.417  65.244  1.00  0.00     0.084 C  
HETATM    3  C   UNL     1      -9.912   8.304  65.568  1.00  0.00     0.944 A  
HETATM    4  F   UNL     1      -8.294   7.576  63.965  1.00  0.00    -0.112 F  
HETATM    5  F   UNL     1      -9.042   6.094  65.367  1.00  0.00    -0.135 F  
HETATM    6  C   UNL     1      -9.858   9.243  66.619  1.00  0.00    -0.311 A  
HETATM    7  C   UNL     1     -10.988   9.986  66.978  1.00  0.00    -0.049 A  
HETATM    8  C   UNL     1     -11.100   8.154  64.836  1.00  0.00     9.303 A  
HETATM    9  C   UNL     1     -12.152   9.820  66.208  1.00  0.00     6.080 A  
HETATM   10  C   UNL     1     -12.215   8.919  65.148  1.00  0.00    14.203 A  
ENDROOT
BRANCH   7  11
HETATM   11  N   UNL     1     -11.051  10.844  68.081  1.00  0.00    -0.257 NA 
HETATM   12  C   UNL     1     -11.870  11.638  70.281  1.00  0.00    -0.326 C  
HETATM   13  C   UNL     1     -12.170  10.748  69.040  1.00  0.00     0.026 C  
HETATM   14  N   UNL     1     -11.564  13.066  69.988  1.00  0.00    -0.189 NA 
HETATM   15  C   UNL     1     -10.704  12.239  67.726  1.00  0.00    -0.217 C  
HETATM   16  C   UNL     1     -10.443  13.066  69.008  1.00  0.00     0.007 C  
BRANCH  14  17
HETATM   17  C   UNL     1     -12.723  13.814  69.446  1.00  0.00     0.440 C  
BRANCH  17  18
HETATM   18  C   UNL     1     -12.736  14.006  67.912  1.00  0.00     0.926 C  
BRANCH  18  19
HETATM   19  O   UNL     1     -11.490  14.583  67.420  1.00  0.00    -0.335 OA 
BRANCH  19  20
HETATM   20  C   UNL     1     -11.041  15.600  68.197  1.00  0.00    -0.330 C  
HETATM   21  O   UNL     1     -10.134  16.358  67.846  1.00  0.00    -0.239 OA 
BRANCH  20  22
HETATM   22  C   UNL     1     -11.733  15.797  69.516  1.00  0.00    -0.369 A  
HETATM   23  C   UNL     1     -12.682  14.779  69.783  1.00  0.00    -0.062 A  
HETATM   24  C   UNL     1     -13.456  14.777  70.936  1.00  0.00    -0.325 A  
HETATM   25  C   UNL     1     -13.287  15.794  71.864  1.00  0.00    -0.457 A  
HETATM   26  C   UNL     1     -12.347  16.804  71.631  1.00  0.00     1.350 A  
HETATM   27  C   UNL     1     -11.555  16.843  70.462  1.00  0.00     0.887 A  
BRANCH  27  28
HETATM   28  N   UNL     1     -10.695  17.942  70.252  1.00  0.00     0.569 NA 
HETATM   29  H   UNL     1     -10.931  18.752  70.827  1.00  0.00     0.000 HD 
BRANCH  28  30
HETATM   30  C   UNL     1      -9.568  18.163  69.408  1.00  0.00     0.215 A  
HETATM   31  C   UNL     1      -8.794  17.054  68.989  1.00  0.00    -0.130 A  
HETATM   32  C   UNL     1      -9.270  15.739  69.114  1.00  0.00    -0.256 A  
HETATM   33  C   UNL     1      -8.456  14.648  68.830  1.00  0.00    -0.161 A  
HETATM   34  C   UNL     1      -7.132  14.845  68.442  1.00  0.00    -0.113 A  
HETATM   35  C   UNL     1      -6.697  16.164  68.198  1.00  0.00    -0.133 A  
HETATM   36  C   UNL     1      -6.208  13.652  68.345  1.00  0.00    -0.095 C  
HETATM   37  C   UNL     1      -7.517  17.271  68.421  1.00  0.00    -0.234 A  
HETATM   38  F   UNL     1      -6.821  12.480  68.689  1.00  0.00    -0.067 F  
HETATM   39  F   UNL     1      -5.703  13.450  67.100  1.00  0.00    -0.032 F  
HETATM   40  F   UNL     1      -5.138  13.754  69.182  1.00  0.00    -0.074 F  
HETATM   41  N   UNL     1      -7.082  18.508  68.136  1.00  0.00    -0.242 NA 
HETATM   42  C   UNL     1      -7.903  19.553  68.413  1.00  0.00    -0.339 A  
HETATM   43  C   UNL     1      -9.130  19.434  69.062  1.00  0.00    -0.297 A  
ENDBRANCH  28  30
ENDBRANCH  27  28
ENDBRANCH  20  22
ENDBRANCH  19  20
ENDBRANCH  18  19
ENDBRANCH  17  18
ENDBRANCH  14  17
ENDBRANCH   7  11
TORSDOF 8
ENDMDL
MODEL      320
REMARK 921   NORMALIZED FREE ENERGY PREDICTED BY IDOCK:   56.89 KCAL/MOL
REMARK 922        TOTAL FREE ENERGY PREDICTED BY IDOCK:   80.10 KCAL/MOL
REMARK 923 INTER-LIGAND FREE ENERGY PREDICTED BY IDOCK:   81.06 KCAL/MOL
REMARK 924 INTRA-LIGAND FREE ENERGY PREDICTED BY IDOCK:   -0.96 KCAL/MOL
REMARK 927      BINDING AFFINITY PREDICTED BY RF-SCORE:    0.00 PKD
ROOT
HETATM    1  F   UNL     1      -6.473  14.793  70.755  1.00  0.00    -0.158 F  
HETATM    2  C   UNL     1      -6.414  14.432  72.067  1.00  0.00     1.159 C  
HETATM    3  C   UNL     1      -7.685  13.811  72.591  1.00  0.00     8.318 A  
HETATM    4  F   UNL     1      -5.339  13.603  72.179  1.00  0.00    -0.158 F  
HETATM    5  F   UNL     1      -6.079  15.565  72.747  1.00  0.00     0.898 F  
HETATM    6  C   UNL     1      -8.816  13.644  71.766  1.00  0.00    11.682 A  
HETATM    7  C   UNL     1     -10.023  13.165  72.287  1.00  0.00    14.239 A  
HETATM    8  C   UNL     1      -7.754  13.438  73.941  1.00  0.00     8.314 A  
HETATM    9  C   UNL     1     -10.044  12.784  73.641  1.00  0.00    19.515 A  
HETATM   10  C   UNL     1      -8.928  12.914  74.463  1.00  0.00    13.345 A  
ENDROOT
BRANCH   7  11
HETATM   11  N   UNL     1     -11.219  13.087  71.568  1.00  0.00     3.139 NA 
HETATM   12  C   UNL     1     -13.171  11.953  70.547  1.00  0.00     0.678 C  
HETATM   13  C   UNL     1     -11.726  11.782  71.097  1.00  0.00     0.868 C  
HETATM   14  N   UNL     1     -13.336  12.982  69.483  1.00  0.00     1.992 NA 
HETATM   15  C   UNL     1     -11.332  14.159  70.551  1.00  0.00     0.054 C  
HETATM   16  C   UNL     1     -12.788  14.252  70.036  1.00  0.00     0.011 C  
BRANCH  14  17
HETATM   17  C   UNL     1     -12.651  12.632  68.217  1.00  0.00     1.086 C  
BRANCH  17  18
HETATM   18  C   UNL     1     -11.571  11.529  68.325  1.00  0.00    -0.308 C  
BRANCH  18  19
HETATM   19  O   UNL     1     -10.510  11.702  67.338  1.00  0.00    -0.201 OA 
BRANCH  19  20
HETATM   20  C   UNL     1      -9.627  10.672  67.334  1.00  0.00    -0.158 C  
HETATM   21  O   UNL     1      -9.197  10.159  68.369  1.00  0.00    -0.128 OA 
BRANCH  20  22
HETATM   22  C   UNL     1      -9.213  10.143  65.990  1.00  0.00    -0.198 A  
HETATM   23  C   UNL     1      -9.572  11.017  64.935  1.00  0.00    -0.289 A  
HETATM   24  C   UNL     1      -9.308  10.714  63.605  1.00  0.00    -0.315 A  
HETATM   25  C   UNL     1      -8.659   9.527  63.300  1.00  0.00    -0.217 A  
HETATM   26  C   UNL     1      -8.282   8.652  64.325  1.00  0.00    -0.160 A  
HETATM   27  C   UNL     1      -8.550   8.923  65.685  1.00  0.00    -0.166 A  
BRANCH  27  28
HETATM   28  N   UNL     1      -8.224   7.952  66.656  1.00  0.00    -0.116 NA 
HETATM   29  H   UNL     1      -8.691   7.058  66.501  1.00  0.00     0.000 HD 
BRANCH  28  30
HETATM   30  C   UNL     1      -7.381   7.954  67.806  1.00  0.00    -0.096 A  
HETATM   31  C   UNL     1      -7.845   7.352  69.000  1.00  0.00    -0.120 A  
HETATM   32  C   UNL     1      -8.956   6.492  69.004  1.00  0.00    -0.129 A  
HETATM   33  C   UNL     1      -9.491   6.013  70.194  1.00  0.00    -0.182 A  
HETATM   34  C   UNL     1      -8.946   6.407  71.415  1.00  0.00    -0.138 A  
HETATM   35  C   UNL     1      -7.758   7.166  71.403  1.00  0.00    -0.093 A  
HETATM   36  C   UNL     1      -9.669   6.048  72.694  1.00  0.00    -0.156 C  
HETATM   37  C   UNL     1      -7.172   7.610  70.216  1.00  0.00    -0.067 A  
HETATM   38  F   UNL     1     -10.833   5.367  72.469  1.00  0.00    -0.247 F  
HETATM   39  F   UNL     1      -8.942   5.264  73.533  1.00  0.00    -0.121 F  
HETATM   40  F   UNL     1     -10.031   7.147  73.413  1.00  0.00    -0.202 F  
HETATM   41  N   UNL     1      -6.018   8.295  70.243  1.00  0.00    -0.028 NA 
HETATM   42  C   UNL     1      -5.513   8.740  69.064  1.00  0.00    -0.036 A  
HETATM   43  C   UNL     1      -6.161   8.617  67.838  1.00  0.00    -0.052 A  
ENDBRANCH  28  30
ENDBRANCH  27  28
ENDBRANCH  20  22
ENDBRANCH  19  20
ENDBRANCH  18  19
ENDBRANCH  17  18
ENDBRANCH  14  17
ENDBRANCH   7  11
TORSDOF 8
ENDMDL
MODEL      321
REMARK 921   NORMALIZED FREE ENERGY PREDICTED BY IDOCK:   62.75 KCAL/MOL
REMARK 922        TOTAL FREE ENERGY PREDICTED BY IDOCK:   88.70 KCAL/MOL
REMARK 923 INTER-LIGAND FREE ENERGY PREDICTED BY IDOCK:   89.07 KCAL/MOL
REMARK 924 INTRA-LIGAND FREE ENERGY PREDICTED BY IDOCK:   -0.37 KCAL/MOL
REMARK 927      BINDING AFFINITY PREDICTED BY RF-SCORE:    0.00 PKD
ROOT
HETATM    1  F   UNL     1      -9.389  18.284  73.786  1.00  0.00     5.555 F  
HETATM    2  C   UNL     1     -10.521  18.276  73.028  1.00  0.00     4.277 C  
HETATM    3  C   UNL     1     -10.470  17.322  71.860  1.00  0.00     3.812 A  
HETATM    4  F   UNL     1     -11.544  18.003  73.885  1.00  0.00    -0.180 F  
HETATM    5  F   UNL     1     -10.707  19.566  72.629  1.00  0.00     1.433 F  
HETATM    6  C   UNL     1      -9.329  16.533  71.604  1.00  0.00     7.018 A  
HETATM    7  C   UNL     1      -9.252  15.731  70.460  1.00  0.00     1.423 A  
HETATM    8  C   UNL     1     -11.564  17.259  70.984  1.00  0.00     1.874 A  
HETATM    9  C   UNL     1     -10.377  15.681  69.619  1.00  0.00    -0.287 A  
HETATM   10  C   UNL     1     -11.523  16.431  69.871  1.00  0.00    -0.088 A  
ENDROOT
BRANCH   7  11
HETATM   11  N   UNL     1      -8.114  15.017  70.072  1.00  0.00     0.172 NA 
HETATM   12  C   UNL     1      -6.806  13.426  68.693  1.00  0.00    -0.098 C  
HETATM   13  C   UNL     1      -8.227  13.877  69.140  1.00  0.00     0.279 C  
HETATM   14  N   UNL     1      -5.862  13.095  69.797  1.00  0.00    -0.115 NA 
HETATM   15  C   UNL     1      -7.203  14.752  71.210  1.00  0.00     1.803 C  
HETATM   16  C   UNL     1      -5.823  14.287  70.691  1.00  0.00    -0.190 C  
BRANCH  14  17
HETATM   17  C   UNL     1      -6.254  11.889  70.562  1.00  0.00     0.196 C  
BRANCH  17  18
HETATM   18  C   UNL     1      -6.561  12.118  72.061  1.00  0.00     4.913 C  
BRANCH  18  19
HETATM   19  O   UNL     1      -7.988  12.017  72.351  1.00  0.00    13.651 OA 
BRANCH  19  20
HETATM   20  C   UNL     1      -8.477  10.769  72.139  1.00  0.00    10.101 C  
HETATM   21  O   UNL     1      -7.753   9.802  71.892  1.00  0.00     0.540 OA 
BRANCH  20  22
HETATM   22  C   UNL     1      -9.965  10.598  72.257  1.00  0.00     8.605 A  
HETATM   23  C   UNL     1     -10.607  11.776  72.714  1.00  0.00    15.390 A  
HETATM   24  C   UNL     1     -11.979  11.835  72.920  1.00  0.00     6.165 A  
HETATM   25  C   UNL     1     -12.749  10.712  72.656  1.00  0.00     1.376 A  
HETATM   26  C   UNL     1     -12.142   9.541  72.191  1.00  0.00    -0.218 A  
HETATM   27  C   UNL     1     -10.748   9.443  71.986  1.00  0.00     0.220 A  
BRANCH  27  28
HETATM   28  N   UNL     1     -10.195   8.202  71.604  1.00  0.00    -0.194 NA 
HETATM   29  H   UNL     1      -9.342   7.970  72.113  1.00  0.00     0.000 HD 
BRANCH  28  30
HETATM   30  C   UNL     1     -10.574   7.205  70.659  1.00  0.00    -0.225 A  
HETATM   31  C   UNL     1      -9.569   6.549  69.909  1.00  0.00    -0.163 A  
HETATM   32  C   UNL     1      -8.216   6.618  70.279  1.00  0.00    -0.126 A  
HETATM   33  C   UNL     1      -7.219   6.089  69.467  1.00  0.00    -0.070 A  
HETATM   34  C   UNL     1      -7.548   5.503  68.246  1.00  0.00    -0.081 A  
HETATM   35  C   UNL     1      -8.913   5.323  67.938  1.00  0.00    -0.112 A  
HETATM   36  C   UNL     1      -6.442   5.128  67.287  1.00  0.00    -0.049 C  
HETATM   37  C   UNL     1      -9.931   5.796  68.768  1.00  0.00    -0.159 A  
HETATM   38  F   UNL     1      -5.201   5.450  67.760  1.00  0.00    -0.003 F  
HETATM   39  F   UNL     1      -6.391   3.800  67.000  1.00  0.00    -0.032 F  
HETATM   40  F   UNL     1      -6.548   5.774  66.093  1.00  0.00    -0.044 F  
HETATM   41  N   UNL     1     -11.218   5.568  68.463  1.00  0.00     0.358 NA 
HETATM   42  C   UNL     1     -12.169   6.086  69.281  1.00  0.00     2.699 A  
HETATM   43  C   UNL     1     -11.901   6.920  70.363  1.00  0.00    -0.351 A  
ENDBRANCH  28  30
ENDBRANCH  27  28
ENDBRANCH  20  22
ENDBRANCH  19  20
ENDBRANCH  18  19
ENDBRANCH  17  18
ENDBRANCH  14  17
ENDBRANCH   7  11
TORSDOF 8
ENDMDL
MODEL      322
REMARK 921   NORMALIZED FREE ENERGY PREDICTED BY IDOCK:   85.00 KCAL/MOL
REMARK 922        TOTAL FREE ENERGY PREDICTED BY IDOCK:  121.35 KCAL/MOL
REMARK 923 INTER-LIGAND FREE ENERGY PREDICTED BY IDOCK:   50.29 KCAL/MOL
REMARK 924 INTRA-LIGAND FREE ENERGY PREDICTED BY IDOCK:   71.07 KCAL/MOL
REMARK 927      BINDING AFFINITY PREDICTED BY RF-SCORE:    0.00 PKD
ROOT
HETATM    1  F   UNL     1      -9.880   4.740  67.970  1.00  0.00    -0.177 F  
HETATM    2  C   UNL     1     -11.228   4.931  68.012  1.00  0.00     2.161 C  
HETATM    3  C   UNL     1     -11.642   6.268  68.574  1.00  0.00     0.381 A  
HETATM    4  F   UNL     1     -11.674   4.736  66.739  1.00  0.00     1.439 F  
HETATM    5  F   UNL     1     -11.726   3.892  68.741  1.00  0.00     5.728 F  
HETATM    6  C   UNL     1     -10.687   7.208  69.016  1.00  0.00    -0.204 A  
HETATM    7  C   UNL     1     -11.083   8.401  69.632  1.00  0.00    -0.002 A  
HETATM    8  C   UNL     1     -13.008   6.560  68.704  1.00  0.00     8.097 A  
HETATM    9  C   UNL     1     -12.461   8.662  69.725  1.00  0.00     1.742 A  
HETATM   10  C   UNL     1     -13.418   7.760  69.268  1.00  0.00     7.200 A  
ENDROOT
BRANCH   7  11
HETATM   11  N   UNL     1     -10.202   9.323  70.205  1.00  0.00    -0.210 NA 
HETATM   12  C   UNL     1      -9.422  10.941  71.912  1.00  0.00     9.694 C  
HETATM   13  C   UNL     1     -10.648  10.197  71.309  1.00  0.00     0.634 C  
HETATM   14  N   UNL     1      -8.602  11.718  70.940  1.00  0.00     6.497 NA 
HETATM   15  C   UNL     1      -9.396  10.035  69.186  1.00  0.00    -0.193 C  
HETATM   16  C   UNL     1      -8.212  10.768  69.861  1.00  0.00     0.502 C  
BRANCH  14  17
HETATM   17  C   UNL     1      -9.317  12.883  70.370  1.00  0.00     5.477 C  
BRANCH  17  18
HETATM   18  C   UNL     1      -8.543  13.680  69.293  1.00  0.00     0.649 C  
BRANCH  18  19
HETATM   19  O   UNL     1      -8.486  12.970  68.020  1.00  0.00    -0.162 OA 
BRANCH  19  20
HETATM   20  C   UNL     1      -8.123  13.774  66.989  1.00  0.00     0.018 C  
HETATM   21  O   UNL     1      -6.978  14.211  66.856  1.00  0.00     0.141 OA 
BRANCH  20  22
HETATM   22  C   UNL     1      -9.183  14.087  65.971  1.00  0.00     0.026 A  
HETATM   23  C   UNL     1      -9.802  15.339  66.207  1.00  0.00    -0.316 A  
HETATM   24  C   UNL     1     -10.828  15.818  65.403  1.00  0.00    -0.376 A  
HETATM   25  C   UNL     1     -11.251  15.055  64.325  1.00  0.00    -0.021 A  
HETATM   26  C   UNL     1     -10.648  13.821  64.061  1.00  0.00     0.272 A  
HETATM   27  C   UNL     1      -9.613  13.299  64.869  1.00  0.00     0.309 A  
BRANCH  27  28
HETATM   28  N   UNL     1      -9.116  12.006  64.598  1.00  0.00    -0.184 NA 
HETATM   29  H   UNL     1      -8.906  11.856  63.610  1.00  0.00     0.000 HD 
BRANCH  28  30
HETATM   30  C   UNL     1      -8.844  10.866  65.409  1.00  0.00    -0.180 A  
HETATM   31  C   UNL     1      -8.403  11.057  66.740  1.00  0.00    -0.147 A  
HETATM   32  C   UNL     1      -8.523  12.301  67.381  1.00  0.00    -0.176 A  
HETATM   33  C   UNL     1      -7.966  12.522  68.636  1.00  0.00    -0.029 A  
HETATM   34  C   UNL     1      -7.248  11.511  69.270  1.00  0.00    -0.048 A  
HETATM   35  C   UNL     1      -7.237  10.229  68.683  1.00  0.00    -0.081 A  
HETATM   36  C   UNL     1      -6.475  11.835  70.529  1.00  0.00     0.543 C  
HETATM   37  C   UNL     1      -7.840   9.971  67.450  1.00  0.00    -0.099 A  
HETATM   38  F   UNL     1      -6.572  13.151  70.884  1.00  0.00     0.226 F  
HETATM   39  F   UNL     1      -6.881  11.131  71.618  1.00  0.00     1.704 F  
HETATM   40  F   UNL     1      -5.140  11.598  70.395  1.00  0.00    -0.066 F  
HETATM   41  N   UNL     1      -7.846   8.729  66.943  1.00  0.00    -0.101 NA 
HETATM   42  C   UNL     1      -8.407   8.541  65.721  1.00  0.00    -0.140 A  
HETATM   43  C   UNL     1      -8.892   9.569  64.916  1.00  0.00    -0.240 A  
ENDBRANCH  28  30
ENDBRANCH  27  28
ENDBRANCH  20  22
ENDBRANCH  19  20
ENDBRANCH  18  19
ENDBRANCH  17  18
ENDBRANCH  14  17
ENDBRANCH   7  11
TORSDOF 8
ENDMDL
