MODEL        1
REMARK 921   NORMALIZED FREE ENERGY PREDICTED BY IDOCK:   -8.98 KCAL/MOL
REMARK 922        TOTAL FREE ENERGY PREDICTED BY IDOCK:  -11.67 KCAL/MOL
REMARK 923 INTER-LIGAND FREE ENERGY PREDICTED BY IDOCK:  -10.55 KCAL/MOL
REMARK 924 INTRA-LIGAND FREE ENERGY PREDICTED BY IDOCK:   -1.12 KCAL/MOL
REMARK 927      BINDING AFFINITY PREDICTED BY RF-SCORE:    0.00 PKD
ROOT
HETATM    1  C   UNL     1     -12.531   7.243  71.493  1.00  0.00    -0.373 C  
HETATM    2  N   UNL     1     -12.286   8.213  70.458  1.00  0.00    -0.469 N  
HETATM    3  C   UNL     1     -11.443   9.283  70.663  1.00  0.00    -0.274 C  
HETATM    4  H   UNL     1     -12.745   8.105  69.555  1.00  0.00     0.000 HD 
HETATM    5  O   UNL     1     -10.804   9.451  71.695  1.00  0.00    -0.368 OA 
ENDROOT
BRANCH   3   6
HETATM    6  C   UNL     1     -11.337  10.276  69.564  1.00  0.00    -0.299 A  
HETATM    7  C   UNL     1     -10.880   9.863  68.311  1.00  0.00    -0.275 A  
HETATM    8  C   UNL     1     -10.630  10.804  67.298  1.00  0.00    -0.304 A  
HETATM    9  C   UNL     1     -10.840  12.178  67.506  1.00  0.00    -0.243 A  
HETATM   10  C   UNL     1     -11.416  12.549  68.722  1.00  0.00    -0.353 A  
HETATM   11  F   UNL     1     -12.093  12.084  70.914  1.00  0.00    -0.439 F  
HETATM   12  C   UNL     1     -11.626  11.622  69.743  1.00  0.00    -0.315 A  
BRANCH   9  13
HETATM   13  N   UNL     1     -10.423  13.155  66.546  1.00  0.00    -0.276 N  
HETATM   14  N   UNL     1      -9.570  15.234  66.026  1.00  0.00    -0.316 N  
HETATM   15  S   UNL     1      -7.828  13.549  67.367  1.00  0.00    -0.109 S  
HETATM   16  C   UNL     1      -9.301  14.028  66.709  1.00  0.00    -0.277 C  
HETATM   17  C   UNL     1     -10.533  15.021  65.050  1.00  0.00    -0.386 C  
HETATM   18  C   UNL     1     -11.548  12.669  64.251  1.00  0.00    -0.435 C  
HETATM   19  C   UNL     1     -13.030  12.610  64.692  1.00  0.00    -0.225 C  
HETATM   20  O   UNL     1     -10.787  15.732  64.082  1.00  0.00    -0.151 OA 
HETATM   21  C   UNL     1     -11.262  13.664  65.401  1.00  0.00    -0.298 C  
HETATM   22  C   UNL     1     -12.794  13.851  65.562  1.00  0.00    -0.471 C  
BRANCH  14  23
HETATM   23  C   UNL     1      -9.019  16.535  66.327  1.00  0.00    -0.324 A  
HETATM   24  C   UNL     1      -9.789  17.583  66.856  1.00  0.00    -0.302 A  
HETATM   25  C   UNL     1      -7.858  18.989  67.058  1.00  0.00    -0.242 A  
HETATM   26  C   UNL     1     -10.054  19.926  67.811  1.00  0.00    -0.429 C  
HETATM   27  F   UNL     1      -9.633  20.286  69.055  1.00  0.00    -0.209 F  
HETATM   28  F   UNL     1     -11.364  19.594  67.950  1.00  0.00    -0.318 F  
HETATM   29  F   UNL     1     -10.033  21.052  67.055  1.00  0.00    -0.582 F  
HETATM   30  C   UNL     1      -7.171  20.215  67.375  1.00  0.00    -0.276 C  
HETATM   31  N   UNL     1      -7.066  18.000  66.584  1.00  0.00    -0.197 NA 
HETATM   32  C   UNL     1      -9.220  18.823  67.230  1.00  0.00    -0.304 A  
HETATM   33  N   UNL     1      -6.649  21.220  67.641  1.00  0.00    -0.473 NA 
HETATM   34  C   UNL     1      -7.654  16.818  66.252  1.00  0.00    -0.240 A  
ENDBRANCH  14  23
ENDBRANCH   9  13
ENDBRANCH   3   6
TORSDOF 3
ENDMDL
MODEL        2
REMARK 921   NORMALIZED FREE ENERGY PREDICTED BY IDOCK:   -8.69 KCAL/MOL
REMARK 922        TOTAL FREE ENERGY PREDICTED BY IDOCK:  -11.33 KCAL/MOL
REMARK 923 INTER-LIGAND FREE ENERGY PREDICTED BY IDOCK:  -10.31 KCAL/MOL
REMARK 924 INTRA-LIGAND FREE ENERGY PREDICTED BY IDOCK:   -1.03 KCAL/MOL
REMARK 927      BINDING AFFINITY PREDICTED BY RF-SCORE:    0.00 PKD
ROOT
HETATM    1  C   UNL     1      -5.988  20.728  68.946  1.00  0.00    -0.321 C  
HETATM    2  N   UNL     1      -6.814  19.549  68.951  1.00  0.00    -0.326 N  
HETATM    3  C   UNL     1      -7.963  19.474  68.196  1.00  0.00    -0.318 C  
HETATM    4  H   UNL     1      -6.543  18.753  69.528  1.00  0.00     0.000 HD 
HETATM    5  O   UNL     1      -8.326  20.360  67.429  1.00  0.00    -0.333 OA 
ENDROOT
BRANCH   3   6
HETATM    6  C   UNL     1      -8.793  18.252  68.350  1.00  0.00    -0.321 A  
HETATM    7  C   UNL     1      -8.171  17.036  68.641  1.00  0.00    -0.261 A  
HETATM    8  C   UNL     1      -8.911  15.842  68.646  1.00  0.00    -0.206 A  
HETATM    9  C   UNL     1     -10.290  15.832  68.376  1.00  0.00    -0.233 A  
HETATM   10  C   UNL     1     -10.908  17.073  68.214  1.00  0.00    -0.341 A  
HETATM   11  F   UNL     1     -10.834  19.393  67.910  1.00  0.00    -0.490 F  
HETATM   12  C   UNL     1     -10.168  18.255  68.167  1.00  0.00    -0.387 A  
BRANCH   9  13
HETATM   13  N   UNL     1     -11.013  14.609  68.206  1.00  0.00    -0.245 N  
HETATM   14  N   UNL     1     -11.427  12.415  68.785  1.00  0.00    -0.279 N  
HETATM   15  S   UNL     1     -11.991  14.278  70.755  1.00  0.00    -0.297 S  
HETATM   16  C   UNL     1     -11.402  13.739  69.274  1.00  0.00    -0.273 C  
HETATM   17  C   UNL     1     -11.567  12.421  67.405  1.00  0.00    -0.365 C  
HETATM   18  C   UNL     1     -12.072  14.535  65.831  1.00  0.00    -0.288 C  
HETATM   19  C   UNL     1     -10.814  14.808  64.973  1.00  0.00    -0.440 C  
HETATM   20  O   UNL     1     -11.930  11.495  66.685  1.00  0.00    -0.428 OA 
HETATM   21  C   UNL     1     -11.178  13.868  66.903  1.00  0.00    -0.312 C  
HETATM   22  C   UNL     1     -10.030  13.833  65.860  1.00  0.00    -0.308 C  
BRANCH  14  23
HETATM   23  C   UNL     1     -11.243  11.208  69.558  1.00  0.00    -0.277 A  
HETATM   24  C   UNL     1     -12.277  10.613  70.299  1.00  0.00    -0.417 A  
HETATM   25  C   UNL     1     -10.875   8.764  70.899  1.00  0.00    -0.238 A  
HETATM   26  C   UNL     1     -13.230   8.753  71.749  1.00  0.00    -0.367 C  
HETATM   27  F   UNL     1     -13.542   7.514  71.279  1.00  0.00    -0.386 F  
HETATM   28  F   UNL     1     -14.386   9.466  71.699  1.00  0.00    -0.275 F  
HETATM   29  F   UNL     1     -12.940   8.605  73.066  1.00  0.00    -0.374 F  
HETATM   30  C   UNL     1     -10.575   7.525  71.570  1.00  0.00    -0.212 C  
HETATM   31  N   UNL     1      -9.856   9.278  70.172  1.00  0.00    -0.199 NA 
HETATM   32  C   UNL     1     -12.109   9.384  70.977  1.00  0.00    -0.373 A  
HETATM   33  N   UNL     1     -10.368   6.526  72.128  1.00  0.00    -0.196 NA 
HETATM   34  C   UNL     1     -10.068  10.454  69.522  1.00  0.00    -0.219 A  
ENDBRANCH  14  23
ENDBRANCH   9  13
ENDBRANCH   3   6
TORSDOF 3
ENDMDL
MODEL        3
REMARK 921   NORMALIZED FREE ENERGY PREDICTED BY IDOCK:   -8.68 KCAL/MOL
REMARK 922        TOTAL FREE ENERGY PREDICTED BY IDOCK:  -11.32 KCAL/MOL
REMARK 923 INTER-LIGAND FREE ENERGY PREDICTED BY IDOCK:  -10.35 KCAL/MOL
REMARK 924 INTRA-LIGAND FREE ENERGY PREDICTED BY IDOCK:   -0.97 KCAL/MOL
REMARK 927      BINDING AFFINITY PREDICTED BY RF-SCORE:    0.00 PKD
ROOT
HETATM    1  C   UNL     1      -5.922  20.698  69.079  1.00  0.00    -0.344 C  
HETATM    2  N   UNL     1      -6.793  19.553  69.086  1.00  0.00    -0.336 N  
HETATM    3  C   UNL     1      -7.854  19.453  68.215  1.00  0.00    -0.328 C  
HETATM    4  H   UNL     1      -6.619  18.798  69.750  1.00  0.00     0.000 HD 
HETATM    5  O   UNL     1      -8.093  20.283  67.344  1.00  0.00    -0.319 OA 
ENDROOT
BRANCH   3   6
HETATM    6  C   UNL     1      -8.746  18.276  68.371  1.00  0.00    -0.325 A  
HETATM    7  C   UNL     1      -8.210  17.066  68.816  1.00  0.00    -0.245 A  
HETATM    8  C   UNL     1      -8.997  15.902  68.832  1.00  0.00    -0.228 A  
HETATM    9  C   UNL     1     -10.340  15.919  68.419  1.00  0.00    -0.240 A  
HETATM   10  C   UNL     1     -10.885  17.164  68.101  1.00  0.00    -0.316 A  
HETATM   11  F   UNL     1     -10.682  19.449  67.634  1.00  0.00    -0.481 F  
HETATM   12  C   UNL     1     -10.095  18.312  68.044  1.00  0.00    -0.364 A  
BRANCH   9  13
HETATM   13  N   UNL     1     -11.093  14.712  68.266  1.00  0.00    -0.261 N  
HETATM   14  N   UNL     1     -11.612  12.562  68.922  1.00  0.00    -0.296 N  
HETATM   15  S   UNL     1     -12.221  14.535  70.768  1.00  0.00    -0.358 S  
HETATM   16  C   UNL     1     -11.569  13.907  69.349  1.00  0.00    -0.297 C  
HETATM   17  C   UNL     1     -11.675  12.506  67.537  1.00  0.00    -0.374 C  
HETATM   18  C   UNL     1     -12.021  14.555  65.840  1.00  0.00    -0.315 C  
HETATM   19  C   UNL     1     -10.709  14.747  65.044  1.00  0.00    -0.452 C  
HETATM   20  O   UNL     1     -12.029  11.558  66.842  1.00  0.00    -0.516 OA 
HETATM   21  C   UNL     1     -11.210  13.914  66.991  1.00  0.00    -0.313 C  
HETATM   22  C   UNL     1     -10.008  13.793  66.018  1.00  0.00    -0.319 C  
BRANCH  14  23
HETATM   23  C   UNL     1     -11.512  11.389  69.759  1.00  0.00    -0.300 A  
HETATM   24  C   UNL     1     -10.369  10.573  69.793  1.00  0.00    -0.211 A  
HETATM   25  C   UNL     1     -11.303   9.221  71.538  1.00  0.00    -0.385 A  
HETATM   26  C   UNL     1      -9.013   8.630  70.717  1.00  0.00    -0.175 C  
HETATM   27  F   UNL     1      -8.419   8.640  71.942  1.00  0.00    -0.187 F  
HETATM   28  F   UNL     1      -8.055   9.035  69.843  1.00  0.00    -0.091 F  
HETATM   29  F   UNL     1      -9.264   7.331  70.420  1.00  0.00    -0.155 F  
HETATM   30  C   UNL     1     -11.307   8.121  72.467  1.00  0.00    -0.401 C  
HETATM   31  N   UNL     1     -12.412   9.996  71.570  1.00  0.00    -0.389 NA 
HETATM   32  C   UNL     1     -10.248   9.480  70.682  1.00  0.00    -0.364 A  
HETATM   33  N   UNL     1     -11.278   7.221  73.204  1.00  0.00    -0.274 NA 
HETATM   34  C   UNL     1     -12.478  11.047  70.708  1.00  0.00    -0.396 A  
ENDBRANCH  14  23
ENDBRANCH   9  13
ENDBRANCH   3   6
TORSDOF 3
ENDMDL
MODEL        4
REMARK 921   NORMALIZED FREE ENERGY PREDICTED BY IDOCK:   -8.36 KCAL/MOL
REMARK 922        TOTAL FREE ENERGY PREDICTED BY IDOCK:  -10.95 KCAL/MOL
REMARK 923 INTER-LIGAND FREE ENERGY PREDICTED BY IDOCK:   -9.94 KCAL/MOL
REMARK 924 INTRA-LIGAND FREE ENERGY PREDICTED BY IDOCK:   -1.01 KCAL/MOL
REMARK 927      BINDING AFFINITY PREDICTED BY RF-SCORE:    0.00 PKD
ROOT
HETATM    1  C   UNL     1     -14.336   8.412  71.856  1.00  0.00    -0.473 C  
HETATM    2  N   UNL     1     -13.522   9.234  70.999  1.00  0.00    -0.572 N  
HETATM    3  C   UNL     1     -12.177   9.405  71.234  1.00  0.00    -0.345 C  
HETATM    4  H   UNL     1     -13.952   9.699  70.199  1.00  0.00     0.000 HD 
HETATM    5  O   UNL     1     -11.571   8.831  72.133  1.00  0.00    -0.362 OA 
ENDROOT
BRANCH   3   6
HETATM    6  C   UNL     1     -11.451  10.349  70.347  1.00  0.00    -0.420 A  
HETATM    7  C   UNL     1     -11.896  11.669  70.244  1.00  0.00    -0.414 A  
HETATM    8  C   UNL     1     -11.323  12.542  69.305  1.00  0.00    -0.307 A  
HETATM    9  C   UNL     1     -10.283  12.126  68.456  1.00  0.00    -0.207 A  
HETATM   10  C   UNL     1      -9.773  10.844  68.668  1.00  0.00    -0.188 A  
HETATM   11  F   UNL     1      -9.872   8.716  69.638  1.00  0.00    -0.175 F  
HETATM   12  C   UNL     1     -10.369   9.962  69.570  1.00  0.00    -0.229 A  
BRANCH   9  13
HETATM   13  N   UNL     1      -9.816  12.949  67.383  1.00  0.00    -0.204 N  
HETATM   14  N   UNL     1      -9.036  14.967  66.582  1.00  0.00    -0.271 N  
HETATM   15  S   UNL     1      -7.366  13.694  68.388  1.00  0.00    -0.128 S  
HETATM   16  C   UNL     1      -8.777  13.927  67.500  1.00  0.00    -0.193 C  
HETATM   17  C   UNL     1      -9.861  14.508  65.565  1.00  0.00    -0.285 C  
HETATM   18  C   UNL     1     -10.626  11.976  65.110  1.00  0.00    -0.330 C  
HETATM   19  C   UNL     1     -12.143  11.874  65.394  1.00  0.00     0.062 C  
HETATM   20  O   UNL     1     -10.041  15.014  64.461  1.00  0.00    -0.030 OA 
HETATM   21  C   UNL     1     -10.542  13.178  66.081  1.00  0.00    -0.279 C  
HETATM   22  C   UNL     1     -12.090  13.263  66.040  1.00  0.00    -0.491 C  
BRANCH  14  23
HETATM   23  C   UNL     1      -8.607  16.341  66.694  1.00  0.00    -0.267 A  
HETATM   24  C   UNL     1      -9.497  17.400  66.940  1.00  0.00    -0.275 A  
HETATM   25  C   UNL     1      -7.694  18.973  67.079  1.00  0.00    -0.233 A  
HETATM   26  C   UNL     1     -10.017  19.843  67.418  1.00  0.00    -0.423 C  
HETATM   27  F   UNL     1      -9.766  20.449  68.611  1.00  0.00    -0.305 F  
HETATM   28  F   UNL     1     -11.311  19.434  67.480  1.00  0.00    -0.503 F  
HETATM   29  F   UNL     1      -9.979  20.817  66.475  1.00  0.00    -0.505 F  
HETATM   30  C   UNL     1      -7.127  20.288  67.236  1.00  0.00    -0.280 C  
HETATM   31  N   UNL     1      -6.792  17.986  66.878  1.00  0.00    -0.182 NA 
HETATM   32  C   UNL     1      -9.054  18.728  67.137  1.00  0.00    -0.295 A  
HETATM   33  N   UNL     1      -6.703  21.364  67.364  1.00  0.00    -0.602 NA 
HETATM   34  C   UNL     1      -7.262  16.719  66.710  1.00  0.00    -0.235 A  
ENDBRANCH  14  23
ENDBRANCH   9  13
ENDBRANCH   3   6
TORSDOF 3
ENDMDL
MODEL        5
REMARK 921   NORMALIZED FREE ENERGY PREDICTED BY IDOCK:   -8.11 KCAL/MOL
REMARK 922        TOTAL FREE ENERGY PREDICTED BY IDOCK:  -10.65 KCAL/MOL
REMARK 923 INTER-LIGAND FREE ENERGY PREDICTED BY IDOCK:   -9.59 KCAL/MOL
REMARK 924 INTRA-LIGAND FREE ENERGY PREDICTED BY IDOCK:   -1.06 KCAL/MOL
REMARK 927      BINDING AFFINITY PREDICTED BY RF-SCORE:    0.00 PKD
ROOT
HETATM    1  C   UNL     1     -12.890   7.229  71.739  1.00  0.00    -0.331 C  
HETATM    2  N   UNL     1     -12.539   8.188  70.725  1.00  0.00    -0.485 N  
HETATM    3  C   UNL     1     -11.533   9.108  70.923  1.00  0.00    -0.296 C  
HETATM    4  H   UNL     1     -13.046   8.187  69.840  1.00  0.00     0.000 HD 
HETATM    5  O   UNL     1     -10.834   9.136  71.930  1.00  0.00    -0.359 OA 
ENDROOT
BRANCH   3   6
HETATM    6  C   UNL     1     -11.318  10.113  69.853  1.00  0.00    -0.335 A  
HETATM    7  C   UNL     1     -10.698   9.724  68.663  1.00  0.00    -0.247 A  
HETATM    8  C   UNL     1     -10.349  10.680  67.696  1.00  0.00    -0.246 A  
HETATM    9  C   UNL     1     -10.622  12.046  67.884  1.00  0.00    -0.202 A  
HETATM   10  C   UNL     1     -11.354  12.391  69.020  1.00  0.00    -0.336 A  
HETATM   11  F   UNL     1     -12.286  11.888  71.109  1.00  0.00    -0.420 F  
HETATM   12  C   UNL     1     -11.664  11.449  70.002  1.00  0.00    -0.334 A  
BRANCH   9  13
HETATM   13  N   UNL     1     -10.115  13.043  66.989  1.00  0.00    -0.240 N  
HETATM   14  N   UNL     1      -9.096  15.076  66.605  1.00  0.00    -0.264 N  
HETATM   15  S   UNL     1      -7.511  13.185  67.861  1.00  0.00    -0.155 S  
HETATM   16  C   UNL     1      -8.932  13.815  67.217  1.00  0.00    -0.224 C  
HETATM   17  C   UNL     1     -10.058  14.997  65.607  1.00  0.00    -0.362 C  
HETATM   18  C   UNL     1     -11.238  12.783  64.657  1.00  0.00    -0.356 C  
HETATM   19  C   UNL     1     -12.727  12.813  65.076  1.00  0.00    -0.455 C  
HETATM   20  O   UNL     1     -10.241  15.782  64.681  1.00  0.00    -0.296 OA 
HETATM   21  C   UNL     1     -10.895  13.683  65.867  1.00  0.00    -0.275 C  
HETATM   22  C   UNL     1     -12.410  13.978  66.021  1.00  0.00    -0.504 C  
BRANCH  14  23
HETATM   23  C   UNL     1      -8.452  16.310  66.989  1.00  0.00    -0.202 A  
HETATM   24  C   UNL     1      -7.729  17.106  66.085  1.00  0.00    -0.302 A  
HETATM   25  C   UNL     1      -7.370  18.792  67.751  1.00  0.00    -0.233 A  
HETATM   26  C   UNL     1      -6.426  19.201  65.468  1.00  0.00    -0.268 C  
HETATM   27  F   UNL     1      -7.000  20.424  65.297  1.00  0.00    -0.299 F  
HETATM   28  F   UNL     1      -6.359  18.652  64.227  1.00  0.00    -0.160 F  
HETATM   29  F   UNL     1      -5.143  19.426  65.847  1.00  0.00    -0.150 F  
HETATM   30  C   UNL     1      -6.834  20.033  68.248  1.00  0.00    -0.302 C  
HETATM   31  N   UNL     1      -8.086  18.080  68.651  1.00  0.00    -0.303 NA 
HETATM   32  C   UNL     1      -7.180  18.356  66.451  1.00  0.00    -0.276 A  
HETATM   33  N   UNL     1      -6.385  21.041  68.616  1.00  0.00    -0.144 NA 
HETATM   34  C   UNL     1      -8.611  16.890  68.250  1.00  0.00    -0.230 A  
ENDBRANCH  14  23
ENDBRANCH   9  13
ENDBRANCH   3   6
TORSDOF 3
ENDMDL
MODEL        6
REMARK 921   NORMALIZED FREE ENERGY PREDICTED BY IDOCK:   -7.83 KCAL/MOL
REMARK 922        TOTAL FREE ENERGY PREDICTED BY IDOCK:  -10.33 KCAL/MOL
REMARK 923 INTER-LIGAND FREE ENERGY PREDICTED BY IDOCK:   -9.10 KCAL/MOL
REMARK 924 INTRA-LIGAND FREE ENERGY PREDICTED BY IDOCK:   -1.23 KCAL/MOL
REMARK 927      BINDING AFFINITY PREDICTED BY RF-SCORE:    0.00 PKD
ROOT
HETATM    1  C   UNL     1      -7.876  20.376  67.735  1.00  0.00    -0.210 C  
HETATM    2  N   UNL     1      -8.296  19.005  67.620  1.00  0.00    -0.283 N  
HETATM    3  C   UNL     1      -8.064  18.276  66.475  1.00  0.00    -0.269 C  
HETATM    4  H   UNL     1      -8.775  18.563  68.404  1.00  0.00     0.000 HD 
HETATM    5  O   UNL     1      -7.440  18.712  65.513  1.00  0.00    -0.505 OA 
ENDROOT
BRANCH   3   6
HETATM    6  C   UNL     1      -8.624  16.902  66.424  1.00  0.00    -0.328 A  
HETATM    7  C   UNL     1      -9.924  16.710  65.953  1.00  0.00    -0.320 A  
HETATM    8  C   UNL     1     -10.530  15.446  66.031  1.00  0.00    -0.333 A  
HETATM    9  C   UNL     1      -9.852  14.339  66.570  1.00  0.00    -0.288 A  
HETATM   10  C   UNL     1      -8.513  14.529  66.915  1.00  0.00    -0.179 A  
HETATM   11  F   UNL     1      -6.659  15.901  67.320  1.00  0.00    -0.174 F  
HETATM   12  C   UNL     1      -7.923  15.793  66.877  1.00  0.00    -0.250 A  
BRANCH   9  13
HETATM   13  N   UNL     1     -10.518  13.096  66.815  1.00  0.00    -0.259 N  
HETATM   14  N   UNL     1     -10.980  11.290  68.173  1.00  0.00    -0.212 N  
HETATM   15  S   UNL     1     -11.878  13.732  69.119  1.00  0.00    -0.367 S  
HETATM   16  C   UNL     1     -11.054  12.696  68.080  1.00  0.00    -0.251 C  
HETATM   17  C   UNL     1     -10.901  10.734  66.904  1.00  0.00    -0.229 C  
HETATM   18  C   UNL     1     -11.190  11.997  64.554  1.00  0.00    -0.390 C  
HETATM   19  C   UNL     1      -9.817  12.005  63.840  1.00  0.00    -0.266 C  
HETATM   20  O   UNL     1     -11.130   9.572  66.580  1.00  0.00     0.128 OA 
HETATM   21  C   UNL     1     -10.463  11.886  65.915  1.00  0.00    -0.258 C  
HETATM   22  C   UNL     1      -9.165  11.530  65.144  1.00  0.00    -0.065 C  
BRANCH  14  23
HETATM   23  C   UNL     1     -10.898  10.510  69.386  1.00  0.00    -0.249 A  
HETATM   24  C   UNL     1     -12.032  10.006  70.045  1.00  0.00    -0.146 A  
HETATM   25  C   UNL     1     -10.671   8.850  71.644  1.00  0.00    -0.347 A  
HETATM   26  C   UNL     1     -13.155   8.625  71.861  1.00  0.00    -0.373 C  
HETATM   27  F   UNL     1     -13.171   7.263  71.873  1.00  0.00    -0.347 F  
HETATM   28  F   UNL     1     -14.317   8.999  71.264  1.00  0.00    -0.412 F  
HETATM   29  F   UNL     1     -13.255   9.023  73.154  1.00  0.00    -0.395 F  
HETATM   30  C   UNL     1     -10.446   8.030  72.807  1.00  0.00    -0.345 C  
HETATM   31  N   UNL     1      -9.547   9.281  71.027  1.00  0.00    -0.276 NA 
HETATM   32  C   UNL     1     -11.934   9.169  71.180  1.00  0.00    -0.374 A  
HETATM   33  N   UNL     1     -10.302   7.367  73.752  1.00  0.00    -0.321 NA 
HETATM   34  C   UNL     1      -9.688  10.071  69.928  1.00  0.00    -0.203 A  
ENDBRANCH  14  23
ENDBRANCH   9  13
ENDBRANCH   3   6
TORSDOF 3
ENDMDL
MODEL        7
REMARK 921   NORMALIZED FREE ENERGY PREDICTED BY IDOCK:   -7.70 KCAL/MOL
REMARK 922        TOTAL FREE ENERGY PREDICTED BY IDOCK:  -10.17 KCAL/MOL
REMARK 923 INTER-LIGAND FREE ENERGY PREDICTED BY IDOCK:   -9.97 KCAL/MOL
REMARK 924 INTRA-LIGAND FREE ENERGY PREDICTED BY IDOCK:   -0.20 KCAL/MOL
REMARK 927      BINDING AFFINITY PREDICTED BY RF-SCORE:    0.00 PKD
ROOT
HETATM    1  C   UNL     1      -9.668   6.673  74.016  1.00  0.00    -0.262 C  
HETATM    2  N   UNL     1     -10.161   7.832  73.320  1.00  0.00    -0.328 N  
HETATM    3  C   UNL     1     -11.192   7.741  72.412  1.00  0.00    -0.337 C  
HETATM    4  H   UNL     1      -9.737   8.742  73.504  1.00  0.00     0.000 HD 
HETATM    5  O   UNL     1     -11.797   6.699  72.181  1.00  0.00    -0.299 OA 
ENDROOT
BRANCH   3   6
HETATM    6  C   UNL     1     -11.558   8.979  71.680  1.00  0.00    -0.426 A  
HETATM    7  C   UNL     1     -10.642   9.543  70.789  1.00  0.00    -0.387 A  
HETATM    8  C   UNL     1     -10.900  10.789  70.195  1.00  0.00    -0.148 A  
HETATM    9  C   UNL     1     -12.084  11.498  70.464  1.00  0.00    -0.378 A  
HETATM   10  C   UNL     1     -13.036  10.855  71.256  1.00  0.00    -0.492 A  
HETATM   11  F   UNL     1     -13.701   9.139  72.703  1.00  0.00    -0.459 F  
HETATM   12  C   UNL     1     -12.763   9.637  71.880  1.00  0.00    -0.411 A  
BRANCH   9  13
HETATM   13  N   UNL     1     -12.275  12.840  70.005  1.00  0.00    -0.255 N  
HETATM   14  N   UNL     1     -11.515  14.727  68.918  1.00  0.00    -0.282 N  
HETATM   15  S   UNL     1     -11.827  12.491  67.315  1.00  0.00    -0.226 S  
HETATM   16  C   UNL     1     -11.789  13.352  68.760  1.00  0.00    -0.351 C  
HETATM   17  C   UNL     1     -12.235  15.235  69.990  1.00  0.00    -0.349 C  
HETATM   18  C   UNL     1     -14.148  13.988  71.401  1.00  0.00    -0.163 C  
HETATM   19  C   UNL     1     -13.605  13.735  72.827  1.00  0.00    -0.460 C  
HETATM   20  O   UNL     1     -12.489  16.411  70.231  1.00  0.00     0.167 OA 
HETATM   21  C   UNL     1     -12.695  14.004  70.868  1.00  0.00    -0.350 C  
HETATM   22  C   UNL     1     -12.205  14.121  72.336  1.00  0.00    -0.008 C  
BRANCH  14  23
HETATM   23  C   UNL     1     -10.564  15.508  68.162  1.00  0.00    -0.266 A  
HETATM   24  C   UNL     1     -10.781  16.853  67.822  1.00  0.00    -0.315 A  
HETATM   25  C   UNL     1      -8.600  17.029  66.843  1.00  0.00    -0.225 A  
HETATM   26  C   UNL     1     -10.047  19.073  66.820  1.00  0.00    -0.379 C  
HETATM   27  F   UNL     1      -9.132  19.897  67.402  1.00  0.00    -0.349 F  
HETATM   28  F   UNL     1     -11.260  19.525  67.230  1.00  0.00    -0.580 F  
HETATM   29  F   UNL     1      -9.990  19.312  65.486  1.00  0.00    -0.242 F  
HETATM   30  C   UNL     1      -7.541  17.711  66.145  1.00  0.00    -0.280 C  
HETATM   31  N   UNL     1      -8.327  15.747  67.178  1.00  0.00    -0.183 NA 
HETATM   32  C   UNL     1      -9.804  17.632  67.160  1.00  0.00    -0.306 A  
HETATM   33  N   UNL     1      -6.708  18.293  65.578  1.00  0.00    -0.453 NA 
HETATM   34  C   UNL     1      -9.290  15.040  67.829  1.00  0.00    -0.186 A  
ENDBRANCH  14  23
ENDBRANCH   9  13
ENDBRANCH   3   6
TORSDOF 3
ENDMDL
MODEL        8
REMARK 921   NORMALIZED FREE ENERGY PREDICTED BY IDOCK:   -7.68 KCAL/MOL
REMARK 922        TOTAL FREE ENERGY PREDICTED BY IDOCK:  -10.14 KCAL/MOL
REMARK 923 INTER-LIGAND FREE ENERGY PREDICTED BY IDOCK:   -8.93 KCAL/MOL
REMARK 924 INTRA-LIGAND FREE ENERGY PREDICTED BY IDOCK:   -1.21 KCAL/MOL
REMARK 927      BINDING AFFINITY PREDICTED BY RF-SCORE:    0.00 PKD
ROOT
HETATM    1  C   UNL     1      -7.144  20.672  67.922  1.00  0.00    -0.249 C  
HETATM    2  N   UNL     1      -7.721  19.372  67.705  1.00  0.00    -0.270 N  
HETATM    3  C   UNL     1      -8.841  18.960  68.393  1.00  0.00    -0.344 C  
HETATM    4  H   UNL     1      -7.292  18.742  67.027  1.00  0.00     0.000 HD 
HETATM    5  O   UNL     1      -9.454  19.677  69.176  1.00  0.00    -0.351 OA 
ENDROOT
BRANCH   3   6
HETATM    6  C   UNL     1      -9.297  17.565  68.165  1.00  0.00    -0.276 A  
HETATM    7  C   UNL     1     -10.443  17.337  67.400  1.00  0.00    -0.338 A  
HETATM    8  C   UNL     1     -10.980  16.044  67.291  1.00  0.00    -0.207 A  
HETATM    9  C   UNL     1     -10.380  14.945  67.930  1.00  0.00    -0.237 A  
HETATM   10  C   UNL     1      -9.168  15.179  68.580  1.00  0.00    -0.196 A  
HETATM   11  F   UNL     1      -7.535  16.613  69.451  1.00  0.00    -0.241 F  
HETATM   12  C   UNL     1      -8.656  16.469  68.725  1.00  0.00    -0.262 A  
BRANCH   9  13
HETATM   13  N   UNL     1     -11.015  13.662  67.969  1.00  0.00    -0.244 N  
HETATM   14  N   UNL     1     -11.320  11.593  68.943  1.00  0.00    -0.241 N  
HETATM   15  S   UNL     1     -12.107  13.750  70.492  1.00  0.00    -0.323 S  
HETATM   16  C   UNL     1     -11.405  12.984  69.168  1.00  0.00    -0.273 C  
HETATM   17  C   UNL     1     -11.385  11.328  67.582  1.00  0.00    -0.282 C  
HETATM   18  C   UNL     1     -11.936  13.063  65.611  1.00  0.00    -0.479 C  
HETATM   19  C   UNL     1     -10.653  13.259  64.770  1.00  0.00    -0.402 C  
HETATM   20  O   UNL     1     -11.649  10.258  67.040  1.00  0.00     0.021 OA 
HETATM   21  C   UNL     1     -11.061  12.678  66.827  1.00  0.00    -0.277 C  
HETATM   22  C   UNL     1      -9.858  12.529  65.859  1.00  0.00    -0.257 C  
BRANCH  14  23
HETATM   23  C   UNL     1     -11.102  10.571  69.940  1.00  0.00    -0.307 A  
HETATM   24  C   UNL     1      -9.852   9.967  70.151  1.00  0.00    -0.272 A  
HETATM   25  C   UNL     1     -10.696   8.716  72.014  1.00  0.00    -0.357 A  
HETATM   26  C   UNL     1      -8.284   8.411  71.412  1.00  0.00    -0.139 C  
HETATM   27  F   UNL     1      -7.796   8.677  72.654  1.00  0.00    -0.175 F  
HETATM   28  F   UNL     1      -7.337   8.853  70.544  1.00  0.00    -0.049 F  
HETATM   29  F   UNL     1      -8.305   7.061  71.285  1.00  0.00    -0.110 F  
HETATM   30  C   UNL     1     -10.599   7.759  73.086  1.00  0.00    -0.352 C  
HETATM   31  N   UNL     1     -11.910   9.294  71.875  1.00  0.00    -0.370 NA 
HETATM   32  C   UNL     1      -9.631   9.033  71.189  1.00  0.00    -0.356 A  
HETATM   33  N   UNL     1     -10.486   6.979  73.942  1.00  0.00    -0.365 NA 
HETATM   34  C   UNL     1     -12.074  10.199  70.872  1.00  0.00    -0.356 A  
ENDBRANCH  14  23
ENDBRANCH   9  13
ENDBRANCH   3   6
TORSDOF 3
ENDMDL
MODEL        9
REMARK 921   NORMALIZED FREE ENERGY PREDICTED BY IDOCK:   -7.68 KCAL/MOL
REMARK 922        TOTAL FREE ENERGY PREDICTED BY IDOCK:  -10.14 KCAL/MOL
REMARK 923 INTER-LIGAND FREE ENERGY PREDICTED BY IDOCK:   -9.13 KCAL/MOL
REMARK 924 INTRA-LIGAND FREE ENERGY PREDICTED BY IDOCK:   -1.01 KCAL/MOL
REMARK 927      BINDING AFFINITY PREDICTED BY RF-SCORE:    0.00 PKD
ROOT
HETATM    1  C   UNL     1     -11.066   5.634  69.835  1.00  0.00    -0.114 C  
HETATM    2  N   UNL     1     -11.165   6.847  69.067  1.00  0.00    -0.505 N  
HETATM    3  C   UNL     1     -10.124   7.284  68.278  1.00  0.00    -0.170 C  
HETATM    4  H   UNL     1     -12.025   7.394  69.107  1.00  0.00     0.000 HD 
HETATM    5  O   UNL     1      -9.083   6.654  68.124  1.00  0.00    -0.121 OA 
ENDROOT
BRANCH   3   6
HETATM    6  C   UNL     1     -10.294   8.596  67.604  1.00  0.00    -0.317 A  
HETATM    7  C   UNL     1      -9.804   8.768  66.308  1.00  0.00    -0.342 A  
HETATM    8  C   UNL     1      -9.819  10.035  65.703  1.00  0.00    -0.363 A  
HETATM    9  C   UNL     1     -10.335  11.160  66.369  1.00  0.00    -0.252 A  
HETATM   10  C   UNL     1     -10.933  10.936  67.610  1.00  0.00    -0.350 A  
HETATM   11  F   UNL     1     -11.397   9.586  69.466  1.00  0.00    -0.223 F  
HETATM   12  C   UNL     1     -10.882   9.687  68.230  1.00  0.00    -0.182 A  
BRANCH   9  13
HETATM   13  N   UNL     1     -10.194  12.479  65.834  1.00  0.00    -0.256 N  
HETATM   14  N   UNL     1     -10.047  14.764  66.115  1.00  0.00    -0.281 N  
HETATM   15  S   UNL     1      -7.953  13.308  67.196  1.00  0.00     0.009 S  
HETATM   16  C   UNL     1      -9.445  13.532  66.450  1.00  0.00    -0.224 C  
HETATM   17  C   UNL     1     -10.804  14.625  64.961  1.00  0.00    -0.417 C  
HETATM   18  C   UNL     1     -10.908  12.494  63.332  1.00  0.00    -0.351 C  
HETATM   19  C   UNL     1     -12.315  11.862  63.456  1.00  0.00    -0.603 C  
HETATM   20  O   UNL     1     -11.204  15.515  64.216  1.00  0.00    -0.260 OA 
HETATM   21  C   UNL     1     -11.063  13.079  64.756  1.00  0.00    -0.322 C  
HETATM   22  C   UNL     1     -12.576  12.747  64.681  1.00  0.00    -0.491 C  
BRANCH  14  23
HETATM   23  C   UNL     1      -9.988  15.987  66.881  1.00  0.00    -0.251 A  
HETATM   24  C   UNL     1      -9.180  17.076  66.517  1.00  0.00    -0.296 A  
HETATM   25  C   UNL     1     -10.048  18.408  68.311  1.00  0.00    -0.383 A  
HETATM   26  C   UNL     1      -8.343  19.460  66.809  1.00  0.00    -0.296 C  
HETATM   27  F   UNL     1      -9.084  20.562  66.509  1.00  0.00    -0.363 F  
HETATM   28  F   UNL     1      -7.595  19.209  65.703  1.00  0.00    -0.296 F  
HETATM   29  F   UNL     1      -7.467  19.835  67.775  1.00  0.00    -0.286 F  
HETATM   30  C   UNL     1     -10.134  19.593  69.125  1.00  0.00    -0.304 C  
HETATM   31  N   UNL     1     -10.871  17.401  68.684  1.00  0.00    -0.234 NA 
HETATM   32  C   UNL     1      -9.199  18.300  67.224  1.00  0.00    -0.256 A  
HETATM   33  N   UNL     1     -10.176  20.566  69.762  1.00  0.00     0.307 NA 
HETATM   34  C   UNL     1     -10.831  16.247  67.964  1.00  0.00    -0.339 A  
ENDBRANCH  14  23
ENDBRANCH   9  13
ENDBRANCH   3   6
TORSDOF 3
ENDMDL
MODEL       10
REMARK 921   NORMALIZED FREE ENERGY PREDICTED BY IDOCK:   -7.67 KCAL/MOL
REMARK 922        TOTAL FREE ENERGY PREDICTED BY IDOCK:  -10.13 KCAL/MOL
REMARK 923 INTER-LIGAND FREE ENERGY PREDICTED BY IDOCK:   -8.81 KCAL/MOL
REMARK 924 INTRA-LIGAND FREE ENERGY PREDICTED BY IDOCK:   -1.32 KCAL/MOL
REMARK 927      BINDING AFFINITY PREDICTED BY RF-SCORE:    0.00 PKD
ROOT
HETATM    1  C   UNL     1      -8.544   4.801  63.421  1.00  0.00    -0.131 C  
HETATM    2  N   UNL     1      -8.651   6.162  63.876  1.00  0.00    -0.323 N  
HETATM    3  C   UNL     1      -8.283   6.524  65.152  1.00  0.00    -0.126 C  
HETATM    4  H   UNL     1      -9.008   6.874  63.238  1.00  0.00     0.000 HD 
HETATM    5  O   UNL     1      -7.786   5.744  65.958  1.00  0.00    -0.092 OA 
ENDROOT
BRANCH   3   6
HETATM    6  C   UNL     1      -8.525   7.934  65.550  1.00  0.00    -0.153 A  
HETATM    7  C   UNL     1      -9.480   8.214  66.530  1.00  0.00    -0.286 A  
HETATM    8  C   UNL     1      -9.834   9.541  66.820  1.00  0.00    -0.277 A  
HETATM    9  C   UNL     1      -9.237  10.623  66.150  1.00  0.00    -0.172 A  
HETATM   10  C   UNL     1      -8.198  10.321  65.269  1.00  0.00    -0.161 A  
HETATM   11  F   UNL     1      -6.926   8.805  64.017  1.00  0.00    -0.084 F  
HETATM   12  C   UNL     1      -7.873   9.002  64.949  1.00  0.00    -0.119 A  
BRANCH   9  13
HETATM   13  N   UNL     1      -9.715  11.962  66.312  1.00  0.00    -0.223 N  
HETATM   14  N   UNL     1     -10.596  13.644  67.622  1.00  0.00    -0.240 N  
HETATM   15  S   UNL     1      -8.045  12.823  68.321  1.00  0.00    -0.141 S  
HETATM   16  C   UNL     1      -9.499  12.768  67.475  1.00  0.00    -0.187 C  
HETATM   17  C   UNL     1     -11.241  13.806  66.404  1.00  0.00    -0.316 C  
HETATM   18  C   UNL     1     -10.426  12.928  64.003  1.00  0.00    -0.395 C  
HETATM   19  C   UNL     1     -11.398  11.816  63.542  1.00  0.00    -0.496 C  
HETATM   20  O   UNL     1     -12.016  14.701  66.081  1.00  0.00    -0.338 OA 
HETATM   21  C   UNL     1     -10.787  12.611  65.474  1.00  0.00    -0.279 C  
HETATM   22  C   UNL     1     -11.995  11.788  64.954  1.00  0.00    -0.069 C  
BRANCH  14  23
HETATM   23  C   UNL     1     -11.069  14.231  68.854  1.00  0.00    -0.262 A  
HETATM   24  C   UNL     1     -11.911  13.549  69.749  1.00  0.00    -0.395 A  
HETATM   25  C   UNL     1     -11.816  15.357  71.321  1.00  0.00    -0.380 A  
HETATM   26  C   UNL     1     -13.179  13.351  71.944  1.00  0.00    -0.431 C  
HETATM   27  F   UNL     1     -12.577  13.142  73.147  1.00  0.00     0.167 F  
HETATM   28  F   UNL     1     -13.532  12.119  71.494  1.00  0.00    -0.401 F  
HETATM   29  F   UNL     1     -14.341  14.002  72.202  1.00  0.00    -0.524 F  
HETATM   30  C   UNL     1     -12.160  16.032  72.546  1.00  0.00    -0.537 C  
HETATM   31  N   UNL     1     -10.977  16.041  70.510  1.00  0.00    -0.333 NA 
HETATM   32  C   UNL     1     -12.294  14.101  70.993  1.00  0.00    -0.438 A  
HETATM   33  N   UNL     1     -12.461  16.549  73.544  1.00  0.00    -0.419 NA 
HETATM   34  C   UNL     1     -10.621  15.465  69.330  1.00  0.00    -0.251 A  
ENDBRANCH  14  23
ENDBRANCH   9  13
ENDBRANCH   3   6
TORSDOF 3
ENDMDL
MODEL       11
REMARK 921   NORMALIZED FREE ENERGY PREDICTED BY IDOCK:   -7.60 KCAL/MOL
REMARK 922        TOTAL FREE ENERGY PREDICTED BY IDOCK:  -10.05 KCAL/MOL
REMARK 923 INTER-LIGAND FREE ENERGY PREDICTED BY IDOCK:   -8.86 KCAL/MOL
REMARK 924 INTRA-LIGAND FREE ENERGY PREDICTED BY IDOCK:   -1.20 KCAL/MOL
REMARK 927      BINDING AFFINITY PREDICTED BY RF-SCORE:    0.00 PKD
ROOT
HETATM    1  C   UNL     1      -5.877  21.074  65.453  1.00  0.00    -0.238 C  
HETATM    2  N   UNL     1      -6.758  19.935  65.468  1.00  0.00    -0.274 N  
HETATM    3  C   UNL     1      -7.575  19.674  66.545  1.00  0.00    -0.269 C  
HETATM    4  H   UNL     1      -6.777  19.309  64.664  1.00  0.00     0.000 HD 
HETATM    5  O   UNL     1      -7.660  20.411  67.522  1.00  0.00    -0.298 OA 
ENDROOT
BRANCH   3   6
HETATM    6  C   UNL     1      -8.371  18.422  66.499  1.00  0.00    -0.290 A  
HETATM    7  C   UNL     1      -9.764  18.493  66.575  1.00  0.00    -0.354 A  
HETATM    8  C   UNL     1     -10.532  17.323  66.682  1.00  0.00    -0.257 A  
HETATM    9  C   UNL     1      -9.933  16.051  66.703  1.00  0.00    -0.267 A  
HETATM   10  C   UNL     1      -8.553  16.003  66.498  1.00  0.00    -0.344 A  
HETATM   11  F   UNL     1      -6.452  17.024  66.333  1.00  0.00    -0.224 F  
HETATM   12  C   UNL     1      -7.784  17.166  66.433  1.00  0.00    -0.310 A  
BRANCH   9  13
HETATM   13  N   UNL     1     -10.688  14.870  66.987  1.00  0.00    -0.300 N  
HETATM   14  N   UNL     1     -10.902  12.808  68.000  1.00  0.00    -0.225 N  
HETATM   15  S   UNL     1     -10.685  14.954  69.736  1.00  0.00    -0.160 S  
HETATM   16  C   UNL     1     -10.679  14.180  68.242  1.00  0.00    -0.249 C  
HETATM   17  C   UNL     1     -11.531  12.638  66.774  1.00  0.00    -0.351 C  
HETATM   18  C   UNL     1     -12.535  14.551  65.183  1.00  0.00    -0.286 C  
HETATM   19  C   UNL     1     -11.667  14.617  63.904  1.00  0.00     0.129 C  
HETATM   20  O   UNL     1     -12.144  11.651  66.379  1.00  0.00    -0.371 OA 
HETATM   21  C   UNL     1     -11.325  13.973  65.955  1.00  0.00    -0.317 C  
HETATM   22  C   UNL     1     -10.632  13.718  64.590  1.00  0.00    -0.443 C  
BRANCH  14  23
HETATM   23  C   UNL     1     -10.471  11.707  68.829  1.00  0.00    -0.204 A  
HETATM   24  C   UNL     1     -11.355  10.968  69.633  1.00  0.00    -0.363 A  
HETATM   25  C   UNL     1      -9.608   9.461  70.285  1.00  0.00    -0.249 A  
HETATM   26  C   UNL     1     -11.898   9.047  71.209  1.00  0.00    -0.312 C  
HETATM   27  F   UNL     1     -11.974   7.746  70.816  1.00  0.00    -0.300 F  
HETATM   28  F   UNL     1     -13.170   9.520  71.158  1.00  0.00    -0.369 F  
HETATM   29  F   UNL     1     -11.557   9.034  72.522  1.00  0.00    -0.385 F  
HETATM   30  C   UNL     1      -9.060   8.344  71.011  1.00  0.00    -0.165 C  
HETATM   31  N   UNL     1      -8.723  10.118  69.500  1.00  0.00    -0.183 NA 
HETATM   32  C   UNL     1     -10.937   9.836  70.370  1.00  0.00    -0.371 A  
HETATM   33  N   UNL     1      -8.651   7.438  71.615  1.00  0.00    -0.115 NA 
HETATM   34  C   UNL     1      -9.173  11.191  68.795  1.00  0.00    -0.145 A  
ENDBRANCH  14  23
ENDBRANCH   9  13
ENDBRANCH   3   6
TORSDOF 3
ENDMDL
MODEL       12
REMARK 921   NORMALIZED FREE ENERGY PREDICTED BY IDOCK:   -7.34 KCAL/MOL
REMARK 922        TOTAL FREE ENERGY PREDICTED BY IDOCK:   -9.75 KCAL/MOL
REMARK 923 INTER-LIGAND FREE ENERGY PREDICTED BY IDOCK:   -9.39 KCAL/MOL
REMARK 924 INTRA-LIGAND FREE ENERGY PREDICTED BY IDOCK:   -0.36 KCAL/MOL
REMARK 927      BINDING AFFINITY PREDICTED BY RF-SCORE:    0.00 PKD
ROOT
HETATM    1  C   UNL     1     -12.247   6.954  71.286  1.00  0.00    -0.380 C  
HETATM    2  N   UNL     1     -12.015   7.980  70.303  1.00  0.00    -0.424 N  
HETATM    3  C   UNL     1     -11.346   9.140  70.621  1.00  0.00    -0.273 C  
HETATM    4  H   UNL     1     -12.355   7.844  69.351  1.00  0.00     0.000 HD 
HETATM    5  O   UNL     1     -10.851   9.354  71.722  1.00  0.00    -0.354 OA 
ENDROOT
BRANCH   3   6
HETATM    6  C   UNL     1     -11.246  10.173  69.559  1.00  0.00    -0.288 A  
HETATM    7  C   UNL     1     -10.735   9.822  68.308  1.00  0.00    -0.277 A  
HETATM    8  C   UNL     1     -10.493  10.806  67.336  1.00  0.00    -0.268 A  
HETATM    9  C   UNL     1     -10.767  12.162  67.582  1.00  0.00    -0.220 A  
HETATM   10  C   UNL     1     -11.394  12.469  68.790  1.00  0.00    -0.337 A  
HETATM   11  F   UNL     1     -12.118  11.903  70.943  1.00  0.00    -0.440 F  
HETATM   12  C   UNL     1     -11.597  11.499  69.773  1.00  0.00    -0.326 A  
BRANCH   9  13
HETATM   13  N   UNL     1     -10.361  13.187  66.668  1.00  0.00    -0.262 N  
HETATM   14  N   UNL     1      -9.491  15.281  66.244  1.00  0.00    -0.287 N  
HETATM   15  S   UNL     1      -7.739  13.498  67.437  1.00  0.00    -0.094 S  
HETATM   16  C   UNL     1      -9.222  14.035  66.849  1.00  0.00    -0.260 C  
HETATM   17  C   UNL     1     -10.484  15.139  65.285  1.00  0.00    -0.409 C  
HETATM   18  C   UNL     1     -11.556  12.851  64.382  1.00  0.00    -0.415 C  
HETATM   19  C   UNL     1     -13.026  12.786  64.860  1.00  0.00    -0.187 C  
HETATM   20  O   UNL     1     -10.753  15.908  64.368  1.00  0.00    -0.412 OA 
HETATM   21  C   UNL     1     -11.224  13.773  65.578  1.00  0.00    -0.299 C  
HETATM   22  C   UNL     1     -12.747  13.971  65.792  1.00  0.00    -0.487 C  
BRANCH  14  23
HETATM   23  C   UNL     1      -8.913  16.555  66.603  1.00  0.00    -0.255 A  
HETATM   24  C   UNL     1      -8.071  16.723  67.716  1.00  0.00    -0.186 A  
HETATM   25  C   UNL     1      -7.674  19.019  67.152  1.00  0.00    -0.234 A  
HETATM   26  C   UNL     1      -6.530  18.112  69.187  1.00  0.00    -0.255 C  
HETATM   27  F   UNL     1      -5.274  18.488  68.820  1.00  0.00    -0.175 F  
HETATM   28  F   UNL     1      -6.374  16.968  69.902  1.00  0.00    -0.226 F  
HETATM   29  F   UNL     1      -6.971  19.045  70.066  1.00  0.00    -0.119 F  
HETATM   30  C   UNL     1      -7.109  20.328  67.359  1.00  0.00    -0.283 C  
HETATM   31  N   UNL     1      -8.448  18.902  66.050  1.00  0.00    -0.479 NA 
HETATM   32  C   UNL     1      -7.440  17.955  68.005  1.00  0.00    -0.233 A  
HETATM   33  N   UNL     1      -6.639  21.373  67.558  1.00  0.00    -0.557 NA 
HETATM   34  C   UNL     1      -9.022  17.693  65.801  1.00  0.00     0.313 A  
ENDBRANCH  14  23
ENDBRANCH   9  13
ENDBRANCH   3   6
TORSDOF 3
ENDMDL
MODEL       13
REMARK 921   NORMALIZED FREE ENERGY PREDICTED BY IDOCK:   -7.30 KCAL/MOL
REMARK 922        TOTAL FREE ENERGY PREDICTED BY IDOCK:   -9.70 KCAL/MOL
REMARK 923 INTER-LIGAND FREE ENERGY PREDICTED BY IDOCK:   -9.22 KCAL/MOL
REMARK 924 INTRA-LIGAND FREE ENERGY PREDICTED BY IDOCK:   -0.48 KCAL/MOL
REMARK 927      BINDING AFFINITY PREDICTED BY RF-SCORE:    0.00 PKD
ROOT
HETATM    1  C   UNL     1     -11.401   5.404  72.381  1.00  0.00    -0.179 C  
HETATM    2  N   UNL     1     -11.603   6.666  71.720  1.00  0.00    -0.287 N  
HETATM    3  C   UNL     1     -11.167   7.847  72.278  1.00  0.00    -0.331 C  
HETATM    4  H   UNL     1     -12.080   6.686  70.818  1.00  0.00     0.000 HD 
HETATM    5  O   UNL     1     -10.530   7.904  73.324  1.00  0.00    -0.339 OA 
ENDROOT
BRANCH   3   6
HETATM    6  C   UNL     1     -11.512   9.100  71.560  1.00  0.00    -0.437 A  
HETATM    7  C   UNL     1     -10.598   9.644  70.655  1.00  0.00    -0.386 A  
HETATM    8  C   UNL     1     -10.834  10.900  70.074  1.00  0.00    -0.139 A  
HETATM    9  C   UNL     1     -11.991  11.640  70.370  1.00  0.00    -0.358 A  
HETATM   10  C   UNL     1     -12.945  11.019  71.177  1.00  0.00    -0.421 A  
HETATM   11  F   UNL     1     -13.629   9.312  72.627  1.00  0.00    -0.470 F  
HETATM   12  C   UNL     1     -12.695   9.789  71.788  1.00  0.00    -0.426 A  
BRANCH   9  13
HETATM   13  N   UNL     1     -12.154  12.990  69.923  1.00  0.00    -0.304 N  
HETATM   14  N   UNL     1     -11.337  14.885  68.893  1.00  0.00    -0.268 N  
HETATM   15  S   UNL     1     -11.604  12.674  67.247  1.00  0.00    -0.373 S  
HETATM   16  C   UNL     1     -11.616  13.515  68.706  1.00  0.00    -0.325 C  
HETATM   17  C   UNL     1     -12.095  15.384  69.943  1.00  0.00    -0.355 C  
HETATM   18  C   UNL     1     -14.070  14.134  71.261  1.00  0.00    -0.145 C  
HETATM   19  C   UNL     1     -13.586  13.856  72.704  1.00  0.00    -0.626 C  
HETATM   20  O   UNL     1     -12.349  16.559  70.191  1.00  0.00     0.348 OA 
HETATM   21  C   UNL     1     -12.598  14.145  70.786  1.00  0.00    -0.362 C  
HETATM   22  C   UNL     1     -12.165  14.238  72.273  1.00  0.00    -0.132 C  
BRANCH  14  23
HETATM   23  C   UNL     1     -10.351  15.668  68.186  1.00  0.00    -0.246 A  
HETATM   24  C   UNL     1      -9.080  15.948  68.713  1.00  0.00    -0.219 A  
HETATM   25  C   UNL     1      -8.408  17.046  66.691  1.00  0.00    -0.250 A  
HETATM   26  C   UNL     1      -6.732  16.912  68.546  1.00  0.00    -0.168 C  
HETATM   27  F   UNL     1      -5.740  16.357  67.797  1.00  0.00    -0.102 F  
HETATM   28  F   UNL     1      -6.565  16.416  69.800  1.00  0.00    -0.204 F  
HETATM   29  F   UNL     1      -6.458  18.238  68.630  1.00  0.00    -0.196 F  
HETATM   30  C   UNL     1      -7.495  17.781  65.854  1.00  0.00    -0.165 C  
HETATM   31  N   UNL     1      -9.606  16.774  66.124  1.00  0.00    -0.376 NA 
HETATM   32  C   UNL     1      -8.092  16.638  67.974  1.00  0.00    -0.181 A  
HETATM   33  N   UNL     1      -6.733  18.375  65.206  1.00  0.00    -0.499 NA 
HETATM   34  C   UNL     1     -10.521  16.092  66.866  1.00  0.00    -0.300 A  
ENDBRANCH  14  23
ENDBRANCH   9  13
ENDBRANCH   3   6
TORSDOF 3
ENDMDL
MODEL       14
REMARK 921   NORMALIZED FREE ENERGY PREDICTED BY IDOCK:   -7.25 KCAL/MOL
REMARK 922        TOTAL FREE ENERGY PREDICTED BY IDOCK:   -9.64 KCAL/MOL
REMARK 923 INTER-LIGAND FREE ENERGY PREDICTED BY IDOCK:   -9.46 KCAL/MOL
REMARK 924 INTRA-LIGAND FREE ENERGY PREDICTED BY IDOCK:   -0.18 KCAL/MOL
REMARK 927      BINDING AFFINITY PREDICTED BY RF-SCORE:    0.00 PKD
ROOT
HETATM    1  C   UNL     1     -12.603   7.109  71.310  1.00  0.00    -0.380 C  
HETATM    2  N   UNL     1     -12.057   8.166  70.500  1.00  0.00    -0.482 N  
HETATM    3  C   UNL     1     -11.193   7.902  69.462  1.00  0.00     0.136 C  
HETATM    4  H   UNL     1     -12.317   9.132  70.701  1.00  0.00     0.000 HD 
HETATM    5  O   UNL     1     -10.881   6.768  69.115  1.00  0.00    -0.238 OA 
ENDROOT
BRANCH   3   6
HETATM    6  C   UNL     1     -10.613   9.071  68.754  1.00  0.00    -0.196 A  
HETATM    7  C   UNL     1     -10.312  10.228  69.475  1.00  0.00    -0.267 A  
HETATM    8  C   UNL     1      -9.902  11.395  68.811  1.00  0.00    -0.175 A  
HETATM    9  C   UNL     1      -9.769  11.435  67.413  1.00  0.00    -0.181 A  
HETATM   10  C   UNL     1      -9.952  10.232  66.729  1.00  0.00    -0.261 A  
HETATM   11  F   UNL     1     -10.643   7.997  66.630  1.00  0.00    -0.387 F  
HETATM   12  C   UNL     1     -10.400   9.083  67.382  1.00  0.00    -0.268 A  
BRANCH   9  13
HETATM   13  N   UNL     1      -9.524  12.661  66.716  1.00  0.00    -0.231 N  
HETATM   14  N   UNL     1      -8.908  14.884  66.703  1.00  0.00    -0.267 N  
HETATM   15  S   UNL     1      -6.915  13.116  67.457  1.00  0.00    -0.115 S  
HETATM   16  C   UNL     1      -8.475  13.582  67.034  1.00  0.00    -0.123 C  
HETATM   17  C   UNL     1      -9.928  14.821  65.764  1.00  0.00    -0.347 C  
HETATM   18  C   UNL     1     -10.791  12.650  64.444  1.00  0.00    -0.386 C  
HETATM   19  C   UNL     1     -12.219  12.322  64.941  1.00  0.00    -0.410 C  
HETATM   20  O   UNL     1     -10.325  15.721  65.030  1.00  0.00    -0.468 OA 
HETATM   21  C   UNL     1     -10.500  13.348  65.794  1.00  0.00    -0.290 C  
HETATM   22  C   UNL     1     -12.023  13.321  66.087  1.00  0.00    -0.470 C  
BRANCH  14  23
HETATM   23  C   UNL     1      -8.453  16.120  67.298  1.00  0.00    -0.180 A  
HETATM   24  C   UNL     1      -9.288  17.237  67.464  1.00  0.00    -0.236 A  
HETATM   25  C   UNL     1      -7.565  18.436  68.622  1.00  0.00    -0.302 A  
HETATM   26  C   UNL     1      -9.768  19.586  68.314  1.00  0.00    -0.404 C  
HETATM   27  F   UNL     1      -9.951  19.890  69.629  1.00  0.00    -0.457 F  
HETATM   28  F   UNL     1     -11.013  19.388  67.808  1.00  0.00    -0.508 F  
HETATM   29  F   UNL     1      -9.296  20.710  67.719  1.00  0.00    -0.439 F  
HETATM   30  C   UNL     1      -7.005  19.582  69.291  1.00  0.00    -0.350 C  
HETATM   31  N   UNL     1      -6.732  17.376  68.517  1.00  0.00    -0.187 NA 
HETATM   32  C   UNL     1      -8.857  18.408  68.129  1.00  0.00    -0.319 A  
HETATM   33  N   UNL     1      -6.584  20.527  69.824  1.00  0.00    -0.142 NA 
HETATM   34  C   UNL     1      -7.194  16.263  67.885  1.00  0.00    -0.132 A  
ENDBRANCH  14  23
ENDBRANCH   9  13
ENDBRANCH   3   6
TORSDOF 3
ENDMDL
MODEL       15
REMARK 921   NORMALIZED FREE ENERGY PREDICTED BY IDOCK:   -7.12 KCAL/MOL
REMARK 922        TOTAL FREE ENERGY PREDICTED BY IDOCK:   -9.49 KCAL/MOL
REMARK 923 INTER-LIGAND FREE ENERGY PREDICTED BY IDOCK:   -8.38 KCAL/MOL
REMARK 924 INTRA-LIGAND FREE ENERGY PREDICTED BY IDOCK:   -1.11 KCAL/MOL
REMARK 927      BINDING AFFINITY PREDICTED BY RF-SCORE:    0.00 PKD
ROOT
HETATM    1  C   UNL     1      -7.761  20.758  67.260  1.00  0.00    -0.278 C  
HETATM    2  N   UNL     1      -8.359  19.474  67.518  1.00  0.00    -0.290 N  
HETATM    3  C   UNL     1      -8.341  18.472  66.574  1.00  0.00    -0.281 C  
HETATM    4  H   UNL     1      -8.805  19.304  68.419  1.00  0.00     0.000 HD 
HETATM    5  O   UNL     1      -7.771  18.573  65.493  1.00  0.00    -0.472 OA 
ENDROOT
BRANCH   3   6
HETATM    6  C   UNL     1      -9.070  17.221  66.905  1.00  0.00    -0.250 A  
HETATM    7  C   UNL     1      -8.540  16.352  67.861  1.00  0.00    -0.175 A  
HETATM    8  C   UNL     1      -9.128  15.098  68.087  1.00  0.00    -0.176 A  
HETATM    9  C   UNL     1     -10.267  14.683  67.375  1.00  0.00    -0.240 A  
HETATM   10  C   UNL     1     -10.849  15.619  66.520  1.00  0.00    -0.260 A  
HETATM   11  F   UNL     1     -10.822  17.647  65.351  1.00  0.00    -0.402 F  
HETATM   12  C   UNL     1     -10.243  16.849  66.263  1.00  0.00    -0.329 A  
BRANCH   9  13
HETATM   13  N   UNL     1     -10.766  13.344  67.471  1.00  0.00    -0.253 N  
HETATM   14  N   UNL     1     -10.877  11.306  68.546  1.00  0.00    -0.190 N  
HETATM   15  S   UNL     1     -11.916  13.444  69.967  1.00  0.00    -0.301 S  
HETATM   16  C   UNL     1     -11.110  12.690  68.696  1.00  0.00    -0.266 C  
HETATM   17  C   UNL     1     -10.884  10.968  67.200  1.00  0.00    -0.282 C  
HETATM   18  C   UNL     1     -11.568  12.535  65.132  1.00  0.00    -0.395 C  
HETATM   19  C   UNL     1     -10.294  12.822  64.303  1.00  0.00    -0.402 C  
HETATM   20  O   UNL     1     -11.024   9.851  66.710  1.00  0.00    -0.089 OA 
HETATM   21  C   UNL     1     -10.685  12.305  66.381  1.00  0.00    -0.251 C  
HETATM   22  C   UNL     1      -9.452  12.234  65.442  1.00  0.00     0.014 C  
BRANCH  14  23
HETATM   23  C   UNL     1     -10.576  10.364  69.598  1.00  0.00    -0.253 A  
HETATM   24  C   UNL     1     -11.568   9.624  70.263  1.00  0.00    -0.255 A  
HETATM   25  C   UNL     1      -9.920   8.415  71.516  1.00  0.00    -0.217 A  
HETATM   26  C   UNL     1     -12.325   7.845  71.916  1.00  0.00    -0.315 C  
HETATM   27  F   UNL     1     -12.189   6.508  71.701  1.00  0.00    -0.356 F  
HETATM   28  F   UNL     1     -13.579   8.158  71.498  1.00  0.00    -0.340 F  
HETATM   29  F   UNL     1     -12.325   8.022  73.261  1.00  0.00    -0.077 F  
HETATM   30  C   UNL     1      -9.479   7.459  72.499  1.00  0.00    -0.152 C  
HETATM   31  N   UNL     1      -8.926   9.076  70.881  1.00  0.00    -0.226 NA 
HETATM   32  C   UNL     1     -11.254   8.640  71.229  1.00  0.00    -0.338 A  
HETATM   33  N   UNL     1      -9.159   6.681  73.303  1.00  0.00    -0.127 NA 
HETATM   34  C   UNL     1      -9.273  10.003  69.947  1.00  0.00    -0.158 A  
ENDBRANCH  14  23
ENDBRANCH   9  13
ENDBRANCH   3   6
TORSDOF 3
ENDMDL
MODEL       16
REMARK 921   NORMALIZED FREE ENERGY PREDICTED BY IDOCK:   -7.05 KCAL/MOL
REMARK 922        TOTAL FREE ENERGY PREDICTED BY IDOCK:   -9.41 KCAL/MOL
REMARK 923 INTER-LIGAND FREE ENERGY PREDICTED BY IDOCK:   -8.63 KCAL/MOL
REMARK 924 INTRA-LIGAND FREE ENERGY PREDICTED BY IDOCK:   -0.78 KCAL/MOL
REMARK 927      BINDING AFFINITY PREDICTED BY RF-SCORE:    0.00 PKD
ROOT
HETATM    1  C   UNL     1     -10.649  18.976  65.957  1.00  0.00    -0.423 C  
HETATM    2  N   UNL     1     -10.273  17.592  66.079  1.00  0.00    -0.333 N  
HETATM    3  C   UNL     1     -10.708  16.648  65.175  1.00  0.00    -0.189 C  
HETATM    4  H   UNL     1      -9.672  17.304  66.850  1.00  0.00     0.000 HD 
HETATM    5  O   UNL     1     -11.379  16.920  64.185  1.00  0.00    -1.208 OA 
ENDROOT
BRANCH   3   6
HETATM    6  C   UNL     1     -10.342  15.235  65.448  1.00  0.00    -0.421 A  
HETATM    7  C   UNL     1     -10.830  14.229  64.611  1.00  0.00    -0.384 A  
HETATM    8  C   UNL     1     -10.622  12.876  64.928  1.00  0.00    -0.342 A  
HETATM    9  C   UNL     1      -9.914  12.493  66.079  1.00  0.00    -0.257 A  
HETATM   10  C   UNL     1      -9.330  13.516  66.828  1.00  0.00    -0.262 A  
HETATM   11  F   UNL     1      -9.048  15.777  67.370  1.00  0.00    -0.188 F  
HETATM   12  C   UNL     1      -9.570  14.860  66.538  1.00  0.00    -0.276 A  
BRANCH   9  13
HETATM   13  N   UNL     1      -9.850  11.127  66.502  1.00  0.00    -0.203 N  
HETATM   14  N   UNL     1      -9.610   9.538  68.156  1.00  0.00    -0.137 N  
HETATM   15  S   UNL     1     -11.884  11.107  68.353  1.00  0.00    -0.138 S  
HETATM   16  C   UNL     1     -10.397  10.628  67.726  1.00  0.00    -0.204 C  
HETATM   17  C   UNL     1      -8.920   8.998  67.081  1.00  0.00    -0.130 C  
HETATM   18  C   UNL     1      -9.214   9.612  64.485  1.00  0.00    -0.277 C  
HETATM   19  C   UNL     1      -7.928  10.329  64.012  1.00  0.00    -0.126 C  
HETATM   20  O   UNL     1      -8.400   7.888  67.007  1.00  0.00    -0.114 OA 
HETATM   21  C   UNL     1      -8.925  10.082  65.931  1.00  0.00    -0.154 C  
HETATM   22  C   UNL     1      -7.490  10.455  65.476  1.00  0.00    -0.142 C  
BRANCH  14  23
HETATM   23  C   UNL     1      -9.445   9.079  69.516  1.00  0.00    -0.164 A  
HETATM   24  C   UNL     1     -10.227   8.055  70.075  1.00  0.00    -0.205 A  
HETATM   25  C   UNL     1      -8.960   8.105  72.109  1.00  0.00    -0.184 A  
HETATM   26  C   UNL     1     -10.829   6.446  71.951  1.00  0.00    -0.240 C  
HETATM   27  F   UNL     1     -10.080   5.359  72.282  1.00  0.00    -0.192 F  
HETATM   28  F   UNL     1     -11.779   5.988  71.094  1.00  0.00    -0.355 F  
HETATM   29  F   UNL     1     -11.489   6.819  73.076  1.00  0.00    -0.249 F  
HETATM   30  C   UNL     1      -8.646   7.696  73.454  1.00  0.00    -0.188 C  
HETATM   31  N   UNL     1      -8.156   9.069  71.606  1.00  0.00    -0.347 NA 
HETATM   32  C   UNL     1      -9.996   7.553  71.376  1.00  0.00    -0.200 A  
HETATM   33  N   UNL     1      -8.423   7.343  74.540  1.00  0.00    -0.202 NA 
HETATM   34  C   UNL     1      -8.405   9.510  70.343  1.00  0.00    -0.192 A  
ENDBRANCH  14  23
ENDBRANCH   9  13
ENDBRANCH   3   6
TORSDOF 3
ENDMDL
MODEL       17
REMARK 921   NORMALIZED FREE ENERGY PREDICTED BY IDOCK:   -6.99 KCAL/MOL
REMARK 922        TOTAL FREE ENERGY PREDICTED BY IDOCK:   -9.33 KCAL/MOL
REMARK 923 INTER-LIGAND FREE ENERGY PREDICTED BY IDOCK:   -8.09 KCAL/MOL
REMARK 924 INTRA-LIGAND FREE ENERGY PREDICTED BY IDOCK:   -1.24 KCAL/MOL
REMARK 927      BINDING AFFINITY PREDICTED BY RF-SCORE:    0.00 PKD
ROOT
HETATM    1  C   UNL     1      -9.113  20.140  66.855  1.00  0.00    -0.356 C  
HETATM    2  N   UNL     1      -9.345  18.720  66.903  1.00  0.00    -0.291 N  
HETATM    3  C   UNL     1      -8.524  17.836  66.238  1.00  0.00    -0.190 C  
HETATM    4  H   UNL     1     -10.133  18.362  67.441  1.00  0.00     0.000 HD 
HETATM    5  O   UNL     1      -7.520  18.179  65.623  1.00  0.00    -0.535 OA 
ENDROOT
BRANCH   3   6
HETATM    6  C   UNL     1      -8.909  16.403  66.274  1.00  0.00    -0.367 A  
HETATM    7  C   UNL     1     -10.085  15.994  65.640  1.00  0.00    -0.384 A  
HETATM    8  C   UNL     1     -10.549  14.676  65.781  1.00  0.00    -0.330 A  
HETATM    9  C   UNL     1      -9.846  13.729  66.546  1.00  0.00    -0.290 A  
HETATM   10  C   UNL     1      -8.612  14.128  67.061  1.00  0.00    -0.204 A  
HETATM   11  F   UNL     1      -7.017  15.765  67.568  1.00  0.00    -0.138 F  
HETATM   12  C   UNL     1      -8.170  15.447  66.958  1.00  0.00    -0.236 A  
BRANCH   9  13
HETATM   13  N   UNL     1     -10.399  12.442  66.839  1.00  0.00    -0.223 N  
HETATM   14  N   UNL     1     -10.637  10.620  68.234  1.00  0.00    -0.180 N  
HETATM   15  S   UNL     1     -11.664  12.997  69.217  1.00  0.00    -0.318 S  
HETATM   16  C   UNL     1     -10.826  12.016  68.137  1.00  0.00    -0.221 C  
HETATM   17  C   UNL     1     -10.592  10.058  66.966  1.00  0.00    -0.212 C  
HETATM   18  C   UNL     1     -11.117  11.270  64.630  1.00  0.00    -0.223 C  
HETATM   19  C   UNL     1      -9.795  11.375  63.834  1.00  0.00    -0.335 C  
HETATM   20  O   UNL     1     -10.750   8.879  66.664  1.00  0.00    -0.161 OA 
HETATM   21  C   UNL     1     -10.304  11.230  65.946  1.00  0.00    -0.253 C  
HETATM   22  C   UNL     1      -9.031  10.966  65.099  1.00  0.00    -0.195 C  
BRANCH  14  23
HETATM   23  C   UNL     1     -10.423   9.863  69.445  1.00  0.00    -0.231 A  
HETATM   24  C   UNL     1      -9.158   9.398  69.839  1.00  0.00    -0.221 A  
HETATM   25  C   UNL     1     -10.038   8.547  71.900  1.00  0.00    -0.297 A  
HETATM   26  C   UNL     1      -7.585   8.262  71.484  1.00  0.00    -0.092 C  
HETATM   27  F   UNL     1      -7.179   8.829  72.653  1.00  0.00    -0.116 F  
HETATM   28  F   UNL     1      -6.615   8.556  70.579  1.00  0.00    -0.035 F  
HETATM   29  F   UNL     1      -7.531   6.919  71.666  1.00  0.00    -0.080 F  
HETATM   30  C   UNL     1      -9.952   7.862  73.164  1.00  0.00    -0.290 C  
HETATM   31  N   UNL     1     -11.271   9.003  71.583  1.00  0.00    -0.337 NA 
HETATM   32  C   UNL     1      -8.947   8.736  71.070  1.00  0.00    -0.269 A  
HETATM   33  N   UNL     1      -9.847   7.301  74.178  1.00  0.00    -0.219 NA 
HETATM   34  C   UNL     1     -11.424   9.650  70.396  1.00  0.00    -0.263 A  
ENDBRANCH  14  23
ENDBRANCH   9  13
ENDBRANCH   3   6
TORSDOF 3
ENDMDL
MODEL       18
REMARK 921   NORMALIZED FREE ENERGY PREDICTED BY IDOCK:   -6.97 KCAL/MOL
REMARK 922        TOTAL FREE ENERGY PREDICTED BY IDOCK:   -9.31 KCAL/MOL
REMARK 923 INTER-LIGAND FREE ENERGY PREDICTED BY IDOCK:   -8.07 KCAL/MOL
REMARK 924 INTRA-LIGAND FREE ENERGY PREDICTED BY IDOCK:   -1.24 KCAL/MOL
REMARK 927      BINDING AFFINITY PREDICTED BY RF-SCORE:    0.00 PKD
ROOT
HETATM    1  C   UNL     1      -5.900   2.810  73.184  1.00  0.00    -0.007 C  
HETATM    2  N   UNL     1      -6.820   3.696  72.520  1.00  0.00    -0.039 N  
HETATM    3  C   UNL     1      -6.681   4.008  71.187  1.00  0.00    -0.031 C  
HETATM    4  H   UNL     1      -7.591   4.101  73.050  1.00  0.00     0.000 HD 
HETATM    5  O   UNL     1      -5.822   3.514  70.464  1.00  0.00    -0.016 OA 
ENDROOT
BRANCH   3   6
HETATM    6  C   UNL     1      -7.626   5.007  70.626  1.00  0.00    -0.070 A  
HETATM    7  C   UNL     1      -7.181   6.309  70.386  1.00  0.00    -0.083 A  
HETATM    8  C   UNL     1      -8.086   7.309  69.996  1.00  0.00    -0.130 A  
HETATM    9  C   UNL     1      -9.454   7.034  69.823  1.00  0.00    -0.145 A  
HETATM   10  C   UNL     1      -9.848   5.701  69.945  1.00  0.00    -0.250 A  
HETATM   11  F   UNL     1      -9.448   3.477  70.557  1.00  0.00    -0.192 F  
HETATM   12  C   UNL     1      -8.959   4.714  70.373  1.00  0.00    -0.101 A  
BRANCH   9  13
HETATM   13  N   UNL     1     -10.407   8.078  69.599  1.00  0.00    -0.216 N  
HETATM   14  N   UNL     1     -10.976  10.136  68.724  1.00  0.00    -0.229 N  
HETATM   15  S   UNL     1     -10.350   8.194  66.852  1.00  0.00    -0.293 S  
HETATM   16  C   UNL     1     -10.505   8.846  68.396  1.00  0.00    -0.187 C  
HETATM   17  C   UNL     1     -11.642  10.102  69.941  1.00  0.00    -0.223 C  
HETATM   18  C   UNL     1     -12.306   7.930  71.371  1.00  0.00    -0.334 C  
HETATM   19  C   UNL     1     -11.458   7.929  72.666  1.00  0.00    -0.454 C  
HETATM   20  O   UNL     1     -12.430  10.931  70.386  1.00  0.00    -0.316 OA 
HETATM   21  C   UNL     1     -11.209   8.770  70.673  1.00  0.00    -0.257 C  
HETATM   22  C   UNL     1     -10.593   9.046  72.070  1.00  0.00    -0.321 C  
BRANCH  14  23
HETATM   23  C   UNL     1     -10.740  11.353  67.984  1.00  0.00    -0.200 A  
HETATM   24  C   UNL     1     -11.520  11.736  66.880  1.00  0.00    -0.364 A  
HETATM   25  C   UNL     1     -10.348  13.819  66.690  1.00  0.00    -0.279 A  
HETATM   26  C   UNL     1     -12.191  13.374  65.053  1.00  0.00    -0.424 C  
HETATM   27  F   UNL     1     -12.869  14.531  65.289  1.00  0.00    -0.419 F  
HETATM   28  F   UNL     1     -13.138  12.453  64.738  1.00  0.00    -0.547 F  
HETATM   29  F   UNL     1     -11.470  13.572  63.921  1.00  0.00    -0.397 F  
HETATM   30  C   UNL     1     -10.050  15.091  66.083  1.00  0.00    -0.294 C  
HETATM   31  N   UNL     1      -9.592  13.513  67.769  1.00  0.00    -0.212 NA 
HETATM   32  C   UNL     1     -11.336  12.973  66.219  1.00  0.00    -0.354 A  
HETATM   33  N   UNL     1      -9.835  16.110  65.565  1.00  0.00    -0.487 NA 
HETATM   34  C   UNL     1      -9.815  12.320  68.384  1.00  0.00    -0.199 A  
ENDBRANCH  14  23
ENDBRANCH   9  13
ENDBRANCH   3   6
TORSDOF 3
ENDMDL
MODEL       19
REMARK 921   NORMALIZED FREE ENERGY PREDICTED BY IDOCK:   -6.73 KCAL/MOL
REMARK 922        TOTAL FREE ENERGY PREDICTED BY IDOCK:   -9.03 KCAL/MOL
REMARK 923 INTER-LIGAND FREE ENERGY PREDICTED BY IDOCK:   -7.77 KCAL/MOL
REMARK 924 INTRA-LIGAND FREE ENERGY PREDICTED BY IDOCK:   -1.26 KCAL/MOL
REMARK 927      BINDING AFFINITY PREDICTED BY RF-SCORE:    0.00 PKD
ROOT
HETATM    1  C   UNL     1      -5.576   1.561  70.711  1.00  0.00    -0.012 C  
HETATM    2  N   UNL     1      -6.506   2.659  70.752  1.00  0.00    -0.023 N  
HETATM    3  C   UNL     1      -6.939   3.276  69.600  1.00  0.00    -0.041 C  
HETATM    4  H   UNL     1      -6.850   2.987  71.655  1.00  0.00     0.000 HD 
HETATM    5  O   UNL     1      -6.624   2.903  68.476  1.00  0.00    -0.032 OA 
ENDROOT
BRANCH   3   6
HETATM    6  C   UNL     1      -7.821   4.460  69.760  1.00  0.00    -0.057 A  
HETATM    7  C   UNL     1      -9.202   4.276  69.860  1.00  0.00    -0.208 A  
HETATM    8  C   UNL     1     -10.069   5.381  69.864  1.00  0.00    -0.322 A  
HETATM    9  C   UNL     1      -9.581   6.696  69.782  1.00  0.00    -0.149 A  
HETATM   10  C   UNL     1      -8.195   6.856  69.812  1.00  0.00    -0.131 A  
HETATM   11  F   UNL     1      -6.015   6.008  69.699  1.00  0.00    -0.020 F  
HETATM   12  C   UNL     1      -7.333   5.759  69.766  1.00  0.00    -0.071 A  
BRANCH   9  13
HETATM   13  N   UNL     1     -10.458   7.813  69.609  1.00  0.00    -0.226 N  
HETATM   14  N   UNL     1     -10.897   9.925  68.790  1.00  0.00    -0.221 N  
HETATM   15  S   UNL     1     -10.478   7.980  66.864  1.00  0.00    -0.234 S  
HETATM   16  C   UNL     1     -10.536   8.611  68.423  1.00  0.00    -0.176 C  
HETATM   17  C   UNL     1     -11.526   9.916  70.027  1.00  0.00    -0.217 C  
HETATM   18  C   UNL     1     -12.307   7.772  71.439  1.00  0.00    -0.346 C  
HETATM   19  C   UNL     1     -11.422   7.680  72.704  1.00  0.00    -0.403 C  
HETATM   20  O   UNL     1     -12.234  10.793  70.513  1.00  0.00    -0.304 OA 
HETATM   21  C   UNL     1     -11.173   8.540  70.721  1.00  0.00    -0.257 C  
HETATM   22  C   UNL     1     -10.495   8.741  72.101  1.00  0.00    -0.384 C  
BRANCH  14  23
HETATM   23  C   UNL     1     -10.593  11.136  68.065  1.00  0.00    -0.198 A  
HETATM   24  C   UNL     1     -11.385  11.609  67.006  1.00  0.00    -0.373 A  
HETATM   25  C   UNL     1     -10.053  13.592  66.805  1.00  0.00    -0.269 A  
HETATM   26  C   UNL     1     -11.996  13.341  65.246  1.00  0.00    -0.388 C  
HETATM   27  F   UNL     1     -12.564  14.543  65.536  1.00  0.00    -0.390 F  
HETATM   28  F   UNL     1     -13.030  12.509  64.955  1.00  0.00    -0.569 F  
HETATM   29  F   UNL     1     -11.312  13.506  64.086  1.00  0.00    -0.373 F  
HETATM   30  C   UNL     1      -9.677  14.849  66.211  1.00  0.00    -0.296 C  
HETATM   31  N   UNL     1      -9.279  13.199  67.842  1.00  0.00    -0.199 NA 
HETATM   32  C   UNL     1     -11.128  12.842  66.363  1.00  0.00    -0.320 A  
HETATM   33  N   UNL     1      -9.399  15.859  65.705  1.00  0.00    -0.367 NA 
HETATM   34  C   UNL     1      -9.573  12.013  68.442  1.00  0.00    -0.190 A  
ENDBRANCH  14  23
ENDBRANCH   9  13
ENDBRANCH   3   6
TORSDOF 3
ENDMDL
MODEL       20
REMARK 921   NORMALIZED FREE ENERGY PREDICTED BY IDOCK:   -6.72 KCAL/MOL
REMARK 922        TOTAL FREE ENERGY PREDICTED BY IDOCK:   -9.01 KCAL/MOL
REMARK 923 INTER-LIGAND FREE ENERGY PREDICTED BY IDOCK:   -7.94 KCAL/MOL
REMARK 924 INTRA-LIGAND FREE ENERGY PREDICTED BY IDOCK:   -1.08 KCAL/MOL
REMARK 927      BINDING AFFINITY PREDICTED BY RF-SCORE:    0.00 PKD
ROOT
HETATM    1  C   UNL     1     -11.280   2.402  73.751  1.00  0.00    -0.201 C  
HETATM    2  N   UNL     1     -11.155   3.719  73.184  1.00  0.00    -0.140 N  
HETATM    3  C   UNL     1     -10.312   3.967  72.123  1.00  0.00    -0.085 C  
HETATM    4  H   UNL     1     -11.702   4.485  73.577  1.00  0.00     0.000 HD 
HETATM    5  O   UNL     1      -9.670   3.092  71.553  1.00  0.00    -0.150 OA 
ENDROOT
BRANCH   3   6
HETATM    6  C   UNL     1     -10.185   5.378  71.679  1.00  0.00    -0.268 A  
HETATM    7  C   UNL     1     -10.376   5.691  70.331  1.00  0.00    -0.330 A  
HETATM    8  C   UNL     1     -10.119   6.988  69.858  1.00  0.00    -0.202 A  
HETATM    9  C   UNL     1      -9.677   8.008  70.718  1.00  0.00    -0.165 A  
HETATM   10  C   UNL     1      -9.617   7.702  72.078  1.00  0.00    -0.200 A  
HETATM   11  F   UNL     1      -9.657   6.180  73.857  1.00  0.00    -0.141 F  
HETATM   12  C   UNL     1      -9.832   6.404  72.544  1.00  0.00    -0.166 A  
BRANCH   9  13
HETATM   13  N   UNL     1      -9.246   9.277  70.217  1.00  0.00    -0.217 N  
HETATM   14  N   UNL     1      -9.448  11.035  68.737  1.00  0.00    -0.194 N  
HETATM   15  S   UNL     1     -11.581  10.708  70.473  1.00  0.00    -0.334 S  
HETATM   16  C   UNL     1     -10.121  10.304  69.739  1.00  0.00    -0.203 C  
HETATM   17  C   UNL     1      -8.076  10.883  68.880  1.00  0.00    -0.144 C  
HETATM   18  C   UNL     1      -6.773   9.700  70.905  1.00  0.00    -0.063 C  
HETATM   19  C   UNL     1      -6.125   8.402  70.367  1.00  0.00    -0.031 C  
HETATM   20  O   UNL     1      -7.191  11.591  68.407  1.00  0.00    -0.077 OA 
HETATM   21  C   UNL     1      -7.839   9.611  69.787  1.00  0.00    -0.142 C  
HETATM   22  C   UNL     1      -6.951   8.551  69.084  1.00  0.00    -0.063 C  
BRANCH  14  23
HETATM   23  C   UNL     1     -10.055  11.768  67.651  1.00  0.00    -0.193 A  
HETATM   24  C   UNL     1     -10.050  11.306  66.324  1.00  0.00    -0.271 A  
HETATM   25  C   UNL     1     -11.407  13.148  65.607  1.00  0.00    -0.303 A  
HETATM   26  C   UNL     1     -10.725  11.471  63.877  1.00  0.00    -0.395 C  
HETATM   27  F   UNL     1     -11.984  11.219  63.423  1.00  0.00    -0.419 F  
HETATM   28  F   UNL     1     -10.045  10.304  63.732  1.00  0.00    -0.371 F  
HETATM   29  F   UNL     1     -10.165  12.341  63.001  1.00  0.00    -0.401 F  
HETATM   30  C   UNL     1     -12.107  13.942  64.631  1.00  0.00    -0.431 C  
HETATM   31  N   UNL     1     -11.471  13.618  66.874  1.00  0.00    -0.330 NA 
HETATM   32  C   UNL     1     -10.725  11.988  65.285  1.00  0.00    -0.331 A  
HETATM   33  N   UNL     1     -12.661  14.561  63.815  1.00  0.00    -0.750 NA 
HETATM   34  C   UNL     1     -10.820  12.920  67.844  1.00  0.00    -0.227 A  
ENDBRANCH  14  23
ENDBRANCH   9  13
ENDBRANCH   3   6
TORSDOF 3
ENDMDL
MODEL       21
REMARK 921   NORMALIZED FREE ENERGY PREDICTED BY IDOCK:   -6.71 KCAL/MOL
REMARK 922        TOTAL FREE ENERGY PREDICTED BY IDOCK:   -9.00 KCAL/MOL
REMARK 923 INTER-LIGAND FREE ENERGY PREDICTED BY IDOCK:   -7.78 KCAL/MOL
REMARK 924 INTRA-LIGAND FREE ENERGY PREDICTED BY IDOCK:   -1.22 KCAL/MOL
REMARK 927      BINDING AFFINITY PREDICTED BY RF-SCORE:    0.00 PKD
ROOT
HETATM    1  C   UNL     1     -11.650  15.818  64.273  1.00  0.00    -0.191 C  
HETATM    2  N   UNL     1     -11.152  14.521  64.649  1.00  0.00    -0.550 N  
HETATM    3  C   UNL     1     -12.003  13.506  65.024  1.00  0.00    -0.372 C  
HETATM    4  H   UNL     1     -10.146  14.351  64.638  1.00  0.00     0.000 HD 
HETATM    5  O   UNL     1     -13.225  13.608  65.003  1.00  0.00    -0.729 OA 
ENDROOT
BRANCH   3   6
HETATM    6  C   UNL     1     -11.381  12.240  65.486  1.00  0.00    -0.394 A  
HETATM    7  C   UNL     1     -11.451  11.897  66.838  1.00  0.00    -0.390 A  
HETATM    8  C   UNL     1     -10.748  10.784  67.327  1.00  0.00    -0.325 A  
HETATM    9  C   UNL     1      -9.968   9.978  66.480  1.00  0.00    -0.225 A  
HETATM   10  C   UNL     1     -10.018  10.268  65.116  1.00  0.00    -0.395 A  
HETATM   11  F   UNL     1     -10.595  11.652  63.318  1.00  0.00    -0.368 F  
HETATM   12  C   UNL     1     -10.681  11.397  64.634  1.00  0.00    -0.314 A  
BRANCH   9  13
HETATM   13  N   UNL     1      -9.113   8.954  66.997  1.00  0.00    -0.132 N  
HETATM   14  N   UNL     1      -8.637   7.319  68.553  1.00  0.00    -0.125 N  
HETATM   15  S   UNL     1     -10.850   6.822  66.964  1.00  0.00    -0.332 S  
HETATM   16  C   UNL     1      -9.569   7.727  67.575  1.00  0.00    -0.148 C  
HETATM   17  C   UNL     1      -7.404   7.905  68.306  1.00  0.00    -0.098 C  
HETATM   18  C   UNL     1      -6.682   9.328  66.149  1.00  0.00    -0.074 C  
HETATM   19  C   UNL     1      -6.473  10.797  66.589  1.00  0.00    -0.108 C  
HETATM   20  O   UNL     1      -6.310   7.557  68.740  1.00  0.00    -0.037 OA 
HETATM   21  C   UNL     1      -7.653   9.128  67.336  1.00  0.00    -0.085 C  
HETATM   22  C   UNL     1      -7.130  10.461  67.932  1.00  0.00    -0.083 C  
BRANCH  14  23
HETATM   23  C   UNL     1      -8.906   6.494  69.708  1.00  0.00    -0.143 A  
HETATM   24  C   UNL     1      -9.872   6.825  70.672  1.00  0.00    -0.191 A  
HETATM   25  C   UNL     1      -9.510   4.762  71.839  1.00  0.00    -0.143 A  
HETATM   26  C   UNL     1     -11.236   6.326  72.760  1.00  0.00    -0.237 C  
HETATM   27  F   UNL     1     -12.244   5.412  72.802  1.00  0.00    -0.333 F  
HETATM   28  F   UNL     1     -11.835   7.519  72.512  1.00  0.00    -0.304 F  
HETATM   29  F   UNL     1     -10.739   6.412  74.020  1.00  0.00    -0.291 F  
HETATM   30  C   UNL     1      -9.726   3.819  72.906  1.00  0.00    -0.131 C  
HETATM   31  N   UNL     1      -8.595   4.381  70.919  1.00  0.00    -0.090 NA 
HETATM   32  C   UNL     1     -10.188   5.965  71.749  1.00  0.00    -0.248 A  
HETATM   33  N   UNL     1      -9.924   3.081  73.783  1.00  0.00    -0.105 NA 
HETATM   34  C   UNL     1      -8.334   5.233  69.890  1.00  0.00    -0.094 A  
ENDBRANCH  14  23
ENDBRANCH   9  13
ENDBRANCH   3   6
TORSDOF 3
ENDMDL
MODEL       22
REMARK 921   NORMALIZED FREE ENERGY PREDICTED BY IDOCK:   -6.61 KCAL/MOL
REMARK 922        TOTAL FREE ENERGY PREDICTED BY IDOCK:   -8.88 KCAL/MOL
REMARK 923 INTER-LIGAND FREE ENERGY PREDICTED BY IDOCK:   -7.69 KCAL/MOL
REMARK 924 INTRA-LIGAND FREE ENERGY PREDICTED BY IDOCK:   -1.19 KCAL/MOL
REMARK 927      BINDING AFFINITY PREDICTED BY RF-SCORE:    0.00 PKD
ROOT
HETATM    1  C   UNL     1      -9.422   4.885  65.421  1.00  0.00    -0.123 C  
HETATM    2  N   UNL     1      -9.290   6.210  65.967  1.00  0.00    -0.320 N  
HETATM    3  C   UNL     1     -10.309   6.797  66.683  1.00  0.00    -0.149 C  
HETATM    4  H   UNL     1      -8.422   6.726  65.820  1.00  0.00     0.000 HD 
HETATM    5  O   UNL     1     -11.357   6.224  66.958  1.00  0.00    -0.263 OA 
ENDROOT
BRANCH   3   6
HETATM    6  C   UNL     1     -10.106   8.202  67.117  1.00  0.00    -0.334 A  
HETATM    7  C   UNL     1     -10.156   9.226  66.168  1.00  0.00    -0.304 A  
HETATM    8  C   UNL     1      -9.823  10.543  66.523  1.00  0.00    -0.255 A  
HETATM    9  C   UNL     1      -9.445  10.876  67.836  1.00  0.00    -0.159 A  
HETATM   10  C   UNL     1      -9.527   9.861  68.790  1.00  0.00    -0.157 A  
HETATM   11  F   UNL     1      -9.777   7.614  69.400  1.00  0.00    -0.161 F  
HETATM   12  C   UNL     1      -9.816   8.544  68.431  1.00  0.00    -0.173 A  
BRANCH   9  13
HETATM   13  N   UNL     1      -8.937  12.173  68.165  1.00  0.00    -0.190 N  
HETATM   14  N   UNL     1      -8.959  14.467  67.926  1.00  0.00    -0.179 N  
HETATM   15  S   UNL     1     -11.247  13.379  69.045  1.00  0.00    -0.266 S  
HETATM   16  C   UNL     1      -9.738  13.351  68.298  1.00  0.00    -0.226 C  
HETATM   17  C   UNL     1      -7.610  14.162  68.038  1.00  0.00    -0.141 C  
HETATM   18  C   UNL     1      -6.525  11.957  69.115  1.00  0.00    -0.098 C  
HETATM   19  C   UNL     1      -5.866  11.140  67.978  1.00  0.00    -0.042 C  
HETATM   20  O   UNL     1      -6.668  14.947  68.101  1.00  0.00    -0.106 OA 
HETATM   21  C   UNL     1      -7.489  12.587  68.082  1.00  0.00    -0.117 C  
HETATM   22  C   UNL     1      -6.570  12.042  66.958  1.00  0.00    -0.108 C  
BRANCH  14  23
HETATM   23  C   UNL     1      -9.447  15.724  67.408  1.00  0.00    -0.212 A  
HETATM   24  C   UNL     1      -9.274  16.944  68.083  1.00  0.00    -0.234 A  
HETATM   25  C   UNL     1     -10.262  18.163  66.270  1.00  0.00    -0.395 A  
HETATM   26  C   UNL     1      -9.467  19.474  68.251  1.00  0.00    -0.366 C  
HETATM   27  F   UNL     1      -8.690  20.339  67.542  1.00  0.00    -0.363 F  
HETATM   28  F   UNL     1      -8.848  19.325  69.451  1.00  0.00    -0.278 F  
HETATM   29  F   UNL     1     -10.631  20.123  68.509  1.00  0.00    -0.532 F  
HETATM   30  C   UNL     1     -10.737  19.353  65.612  1.00  0.00    -0.286 C  
HETATM   31  N   UNL     1     -10.421  17.021  65.565  1.00  0.00    -0.604 NA 
HETATM   32  C   UNL     1      -9.677  18.178  67.524  1.00  0.00    -0.304 A  
HETATM   33  N   UNL     1     -11.112  20.334  65.111  1.00  0.00     0.064 NA 
HETATM   34  C   UNL     1     -10.004  15.857  66.134  1.00  0.00    -0.314 A  
ENDBRANCH  14  23
ENDBRANCH   9  13
ENDBRANCH   3   6
TORSDOF 3
ENDMDL
MODEL       23
REMARK 921   NORMALIZED FREE ENERGY PREDICTED BY IDOCK:   -6.57 KCAL/MOL
REMARK 922        TOTAL FREE ENERGY PREDICTED BY IDOCK:   -8.84 KCAL/MOL
REMARK 923 INTER-LIGAND FREE ENERGY PREDICTED BY IDOCK:   -7.82 KCAL/MOL
REMARK 924 INTRA-LIGAND FREE ENERGY PREDICTED BY IDOCK:   -1.02 KCAL/MOL
REMARK 927      BINDING AFFINITY PREDICTED BY RF-SCORE:    0.00 PKD
ROOT
HETATM    1  C   UNL     1     -10.714   1.949  74.509  1.00  0.00    -0.097 C  
HETATM    2  N   UNL     1     -10.493   2.792  73.363  1.00  0.00    -0.135 N  
HETATM    3  C   UNL     1     -10.600   4.162  73.449  1.00  0.00    -0.199 C  
HETATM    4  H   UNL     1     -10.252   2.365  72.469  1.00  0.00     0.000 HD 
HETATM    5  O   UNL     1     -10.822   4.757  74.497  1.00  0.00    -0.347 OA 
ENDROOT
BRANCH   3   6
HETATM    6  C   UNL     1     -10.448   4.930  72.187  1.00  0.00    -0.257 A  
HETATM    7  C   UNL     1      -9.282   4.784  71.433  1.00  0.00    -0.188 A  
HETATM    8  C   UNL     1      -9.048   5.604  70.317  1.00  0.00    -0.163 A  
HETATM    9  C   UNL     1      -9.976   6.581  69.918  1.00  0.00    -0.167 A  
HETATM   10  C   UNL     1     -11.186   6.620  70.611  1.00  0.00    -0.370 A  
HETATM   11  F   UNL     1     -12.559   6.008  72.407  1.00  0.00    -0.325 F  
HETATM   12  C   UNL     1     -11.403   5.835  71.745  1.00  0.00    -0.174 A  
BRANCH   9  13
HETATM   13  N   UNL     1      -9.668   7.535  68.896  1.00  0.00    -0.150 N  
HETATM   14  N   UNL     1      -9.780   9.671  68.032  1.00  0.00    -0.144 N  
HETATM   15  S   UNL     1      -8.355   9.431  70.394  1.00  0.00    -0.205 S  
HETATM   16  C   UNL     1      -9.342   8.908  69.135  1.00  0.00    -0.148 C  
HETATM   17  C   UNL     1      -9.910   8.858  66.914  1.00  0.00    -0.223 C  
HETATM   18  C   UNL     1      -9.144   6.298  66.668  1.00  0.00    -0.152 C  
HETATM   19  C   UNL     1     -10.416   5.425  66.546  1.00  0.00    -0.352 C  
HETATM   20  O   UNL     1      -9.963   9.206  65.738  1.00  0.00    -0.277 OA 
HETATM   21  C   UNL     1      -9.968   7.364  67.428  1.00  0.00    -0.183 C  
HETATM   22  C   UNL     1     -11.257   6.638  66.960  1.00  0.00    -0.265 C  
BRANCH  14  23
HETATM   23  C   UNL     1     -10.143  11.069  68.041  1.00  0.00    -0.179 A  
HETATM   24  C   UNL     1     -10.927  11.645  69.054  1.00  0.00    -0.283 A  
HETATM   25  C   UNL     1     -10.669  13.831  68.102  1.00  0.00    -0.248 A  
HETATM   26  C   UNL     1     -12.023  13.634  70.200  1.00  0.00    -0.337 C  
HETATM   27  F   UNL     1     -11.333  14.576  70.900  1.00  0.00    -0.296 F  
HETATM   28  F   UNL     1     -12.438  12.726  71.120  1.00  0.00    -0.435 F  
HETATM   29  F   UNL     1     -13.146  14.240  69.740  1.00  0.00    -0.180 F  
HETATM   30  C   UNL     1     -10.901  15.250  68.028  1.00  0.00    -0.288 C  
HETATM   31  N   UNL     1      -9.881  13.331  67.123  1.00  0.00    -0.232 NA 
HETATM   32  C   UNL     1     -11.199  13.032  69.100  1.00  0.00    -0.297 A  
HETATM   33  N   UNL     1     -11.111  16.394  67.997  1.00  0.00    -0.329 NA 
HETATM   34  C   UNL     1      -9.631  11.993  67.128  1.00  0.00    -0.192 A  
ENDBRANCH  14  23
ENDBRANCH   9  13
ENDBRANCH   3   6
TORSDOF 3
ENDMDL
MODEL       24
REMARK 921   NORMALIZED FREE ENERGY PREDICTED BY IDOCK:   -6.56 KCAL/MOL
REMARK 922        TOTAL FREE ENERGY PREDICTED BY IDOCK:   -8.83 KCAL/MOL
REMARK 923 INTER-LIGAND FREE ENERGY PREDICTED BY IDOCK:   -8.43 KCAL/MOL
REMARK 924 INTRA-LIGAND FREE ENERGY PREDICTED BY IDOCK:   -0.40 KCAL/MOL
REMARK 927      BINDING AFFINITY PREDICTED BY RF-SCORE:    0.00 PKD
ROOT
HETATM    1  C   UNL     1      -6.452  21.086  67.890  1.00  0.00    -0.312 C  
HETATM    2  N   UNL     1      -7.214  19.868  67.961  1.00  0.00    -0.286 N  
HETATM    3  C   UNL     1      -8.117  19.528  66.978  1.00  0.00    -0.275 C  
HETATM    4  H   UNL     1      -7.083  19.243  68.756  1.00  0.00     0.000 HD 
HETATM    5  O   UNL     1      -8.288  20.190  65.960  1.00  0.00    -0.283 OA 
ENDROOT
BRANCH   3   6
HETATM    6  C   UNL     1      -8.921  18.299  67.197  1.00  0.00    -0.264 A  
HETATM    7  C   UNL     1      -8.300  17.051  67.113  1.00  0.00    -0.213 A  
HETATM    8  C   UNL     1      -9.061  15.872  67.169  1.00  0.00    -0.226 A  
HETATM    9  C   UNL     1     -10.458  15.907  67.324  1.00  0.00    -0.310 A  
HETATM   10  C   UNL     1     -11.036  17.159  67.534  1.00  0.00    -0.108 A  
HETATM   11  F   UNL     1     -10.945  19.499  67.555  1.00  0.00    -0.548 F  
HETATM   12  C   UNL     1     -10.288  18.334  67.436  1.00  0.00    -0.392 A  
BRANCH   9  13
HETATM   13  N   UNL     1     -11.256  14.725  67.206  1.00  0.00    -0.336 N  
HETATM   14  N   UNL     1     -11.699  12.528  67.754  1.00  0.00    -0.354 N  
HETATM   15  S   UNL     1     -11.912  14.329  69.848  1.00  0.00    -0.357 S  
HETATM   16  C   UNL     1     -11.546  13.828  68.283  1.00  0.00    -0.338 C  
HETATM   17  C   UNL     1     -12.015  12.599  66.405  1.00  0.00    -0.357 C  
HETATM   18  C   UNL     1     -12.615  14.799  64.989  1.00  0.00    -0.074 C  
HETATM   19  C   UNL     1     -11.465  15.052  63.985  1.00  0.00     0.196 C  
HETATM   20  O   UNL     1     -12.513  11.722  65.706  1.00  0.00     0.049 OA 
HETATM   21  C   UNL     1     -11.623  14.048  65.909  1.00  0.00    -0.347 C  
HETATM   22  C   UNL     1     -10.622  14.007  64.724  1.00  0.00    -0.441 C  
BRANCH  14  23
HETATM   23  C   UNL     1     -11.476  11.283  68.451  1.00  0.00    -0.307 A  
HETATM   24  C   UNL     1     -11.119  10.095  67.793  1.00  0.00    -0.293 A  
HETATM   25  C   UNL     1     -10.882   8.932  69.876  1.00  0.00    -0.211 A  
HETATM   26  C   UNL     1     -10.418   7.650  67.776  1.00  0.00    -0.216 C  
HETATM   27  F   UNL     1      -9.182   7.217  68.147  1.00  0.00    -0.133 F  
HETATM   28  F   UNL     1     -10.363   7.797  66.426  1.00  0.00    -0.313 F  
HETATM   29  F   UNL     1     -11.273   6.622  68.006  1.00  0.00    -0.305 F  
HETATM   30  C   UNL     1     -10.623   7.777  70.696  1.00  0.00    -0.222 C  
HETATM   31  N   UNL     1     -11.189  10.058  70.560  1.00  0.00    -0.313 NA 
HETATM   32  C   UNL     1     -10.816   8.905  68.494  1.00  0.00    -0.038 A  
HETATM   33  N   UNL     1     -10.410   6.823  71.327  1.00  0.00    -0.203 NA 
HETATM   34  C   UNL     1     -11.457  11.184  69.844  1.00  0.00    -0.306 A  
ENDBRANCH  14  23
ENDBRANCH   9  13
ENDBRANCH   3   6
TORSDOF 3
ENDMDL
MODEL       25
REMARK 921   NORMALIZED FREE ENERGY PREDICTED BY IDOCK:   -6.54 KCAL/MOL
REMARK 922        TOTAL FREE ENERGY PREDICTED BY IDOCK:   -8.81 KCAL/MOL
REMARK 923 INTER-LIGAND FREE ENERGY PREDICTED BY IDOCK:   -7.46 KCAL/MOL
REMARK 924 INTRA-LIGAND FREE ENERGY PREDICTED BY IDOCK:   -1.35 KCAL/MOL
REMARK 927      BINDING AFFINITY PREDICTED BY RF-SCORE:    0.00 PKD
ROOT
HETATM    1  C   UNL     1      -6.123  20.967  65.221  1.00  0.00    -0.218 C  
HETATM    2  N   UNL     1      -6.987  19.818  65.291  1.00  0.00    -0.271 N  
HETATM    3  C   UNL     1      -7.622  19.467  66.461  1.00  0.00    -0.260 C  
HETATM    4  H   UNL     1      -7.132  19.252  64.455  1.00  0.00     0.000 HD 
HETATM    5  O   UNL     1      -7.552  20.128  67.491  1.00  0.00    -0.275 OA 
ENDROOT
BRANCH   3   6
HETATM    6  C   UNL     1      -8.411  18.210  66.449  1.00  0.00    -0.263 A  
HETATM    7  C   UNL     1      -9.806  18.278  66.463  1.00  0.00    -0.363 A  
HETATM    8  C   UNL     1     -10.575  17.111  66.600  1.00  0.00    -0.179 A  
HETATM    9  C   UNL     1      -9.973  15.846  66.713  1.00  0.00    -0.248 A  
HETATM   10  C   UNL     1      -8.586  15.793  66.568  1.00  0.00    -0.343 A  
HETATM   11  F   UNL     1      -6.483  16.815  66.437  1.00  0.00    -0.235 F  
HETATM   12  C   UNL     1      -7.819  16.955  66.474  1.00  0.00    -0.294 A  
BRANCH   9  13
HETATM   13  N   UNL     1     -10.737  14.677  67.028  1.00  0.00    -0.285 N  
HETATM   14  N   UNL     1     -10.946  12.621  68.054  1.00  0.00    -0.225 N  
HETATM   15  S   UNL     1     -10.635  14.769  69.775  1.00  0.00    -0.046 S  
HETATM   16  C   UNL     1     -10.694  13.991  68.284  1.00  0.00    -0.254 C  
HETATM   17  C   UNL     1     -11.621  12.458  66.853  1.00  0.00    -0.370 C  
HETATM   18  C   UNL     1     -12.651  14.381  65.291  1.00  0.00    -0.333 C  
HETATM   19  C   UNL     1     -11.828  14.430  63.982  1.00  0.00    -0.222 C  
HETATM   20  O   UNL     1     -12.263  11.480  66.482  1.00  0.00     0.012 OA 
HETATM   21  C   UNL     1     -11.423  13.787  66.022  1.00  0.00    -0.326 C  
HETATM   22  C   UNL     1     -10.783  13.517  64.634  1.00  0.00    -0.429 C  
BRANCH  14  23
HETATM   23  C   UNL     1     -10.504  11.516  68.872  1.00  0.00    -0.187 A  
HETATM   24  C   UNL     1      -9.166  11.089  68.916  1.00  0.00    -0.139 A  
HETATM   25  C   UNL     1      -9.668   9.474  70.615  1.00  0.00    -0.245 A  
HETATM   26  C   UNL     1      -7.294   9.633  69.834  1.00  0.00    -0.120 C  
HETATM   27  F   UNL     1      -6.751   9.794  71.072  1.00  0.00    -0.099 F  
HETATM   28  F   UNL     1      -6.493  10.334  68.990  1.00  0.00    -0.043 F  
HETATM   29  F   UNL     1      -7.129   8.327  69.507  1.00  0.00    -0.049 F  
HETATM   30  C   UNL     1      -9.348   8.403  71.523  1.00  0.00    -0.200 C  
HETATM   31  N   UNL     1     -10.960   9.870  70.635  1.00  0.00    -0.318 NA 
HETATM   32  C   UNL     1      -8.730  10.064  69.787  1.00  0.00    -0.198 A  
HETATM   33  N   UNL     1      -9.055   7.537  72.243  1.00  0.00    -0.133 NA 
HETATM   34  C   UNL     1     -11.333  10.871  69.792  1.00  0.00    -0.301 A  
ENDBRANCH  14  23
ENDBRANCH   9  13
ENDBRANCH   3   6
TORSDOF 3
ENDMDL
MODEL       26
REMARK 921   NORMALIZED FREE ENERGY PREDICTED BY IDOCK:   -6.49 KCAL/MOL
REMARK 922        TOTAL FREE ENERGY PREDICTED BY IDOCK:   -8.75 KCAL/MOL
REMARK 923 INTER-LIGAND FREE ENERGY PREDICTED BY IDOCK:   -7.71 KCAL/MOL
REMARK 924 INTRA-LIGAND FREE ENERGY PREDICTED BY IDOCK:   -1.03 KCAL/MOL
REMARK 927      BINDING AFFINITY PREDICTED BY RF-SCORE:    0.00 PKD
ROOT
HETATM    1  C   UNL     1     -10.596  20.214  66.328  1.00  0.00    -0.245 C  
HETATM    2  N   UNL     1     -10.062  18.950  66.760  1.00  0.00    -0.349 N  
HETATM    3  C   UNL     1     -10.301  17.790  66.056  1.00  0.00    -0.304 C  
HETATM    4  H   UNL     1      -9.493  18.911  67.606  1.00  0.00     0.000 HD 
HETATM    5  O   UNL     1     -10.919  17.759  64.997  1.00  0.00    -0.784 OA 
ENDROOT
BRANCH   3   6
HETATM    6  C   UNL     1      -9.786  16.527  66.642  1.00  0.00    -0.275 A  
HETATM    7  C   UNL     1      -8.654  15.927  66.085  1.00  0.00    -0.276 A  
HETATM    8  C   UNL     1      -8.232  14.661  66.522  1.00  0.00     0.324 A  
HETATM    9  C   UNL     1      -8.919  13.968  67.534  1.00  0.00    -0.195 A  
HETATM   10  C   UNL     1      -9.967  14.644  68.159  1.00  0.00    -0.224 A  
HETATM   11  F   UNL     1     -11.491  16.416  68.298  1.00  0.00    -0.353 F  
HETATM   12  C   UNL     1     -10.414  15.883  67.699  1.00  0.00    -0.289 A  
BRANCH   9  13
HETATM   13  N   UNL     1      -8.603  12.610  67.860  1.00  0.00    -0.170 N  
HETATM   14  N   UNL     1      -9.117  10.615  68.897  1.00  0.00    -0.173 N  
HETATM   15  S   UNL     1     -10.825  11.348  66.844  1.00  0.00    -0.294 S  
HETATM   16  C   UNL     1      -9.559  11.548  67.935  1.00  0.00    -0.177 C  
HETATM   17  C   UNL     1      -7.747  10.736  69.081  1.00  0.00    -0.138 C  
HETATM   18  C   UNL     1      -6.039  12.227  67.645  1.00  0.00    -0.120 C  
HETATM   19  C   UNL     1      -5.525  13.373  68.548  1.00  0.00    -0.083 C  
HETATM   20  O   UNL     1      -6.984   9.917  69.584  1.00  0.00    -0.065 OA 
HETATM   21  C   UNL     1      -7.322  12.146  68.506  1.00  0.00    -0.105 C  
HETATM   22  C   UNL     1      -6.609  13.018  69.573  1.00  0.00    -0.030 C  
BRANCH  14  23
HETATM   23  C   UNL     1      -9.943   9.715  69.667  1.00  0.00    -0.221 A  
HETATM   24  C   UNL     1     -11.050  10.150  70.415  1.00  0.00    -0.393 A  
HETATM   25  C   UNL     1     -11.621   7.897  71.005  1.00  0.00    -0.282 A  
HETATM   26  C   UNL     1     -13.092   9.729  71.871  1.00  0.00    -0.446 C  
HETATM   27  F   UNL     1     -14.258   9.205  71.403  1.00  0.00    -0.398 F  
HETATM   28  F   UNL     1     -13.255  11.077  71.829  1.00  0.00    -0.497 F  
HETATM   29  F   UNL     1     -13.023   9.402  73.186  1.00  0.00    -0.195 F  
HETATM   30  C   UNL     1     -12.401   6.888  71.674  1.00  0.00    -0.371 C  
HETATM   31  N   UNL     1     -10.588   7.424  70.272  1.00  0.00    -0.226 NA 
HETATM   32  C   UNL     1     -11.904   9.249  71.092  1.00  0.00    -0.396 A  
HETATM   33  N   UNL     1     -13.052   6.100  72.230  1.00  0.00     0.222 NA 
HETATM   34  C   UNL     1      -9.802   8.326  69.623  1.00  0.00    -0.184 A  
ENDBRANCH  14  23
ENDBRANCH   9  13
ENDBRANCH   3   6
TORSDOF 3
ENDMDL
MODEL       27
REMARK 921   NORMALIZED FREE ENERGY PREDICTED BY IDOCK:   -6.46 KCAL/MOL
REMARK 922        TOTAL FREE ENERGY PREDICTED BY IDOCK:   -8.72 KCAL/MOL
REMARK 923 INTER-LIGAND FREE ENERGY PREDICTED BY IDOCK:   -7.92 KCAL/MOL
REMARK 924 INTRA-LIGAND FREE ENERGY PREDICTED BY IDOCK:   -0.80 KCAL/MOL
REMARK 927      BINDING AFFINITY PREDICTED BY RF-SCORE:    0.00 PKD
ROOT
HETATM    1  C   UNL     1     -10.880   2.549  73.351  1.00  0.00    -0.189 C  
HETATM    2  N   UNL     1     -10.388   3.578  72.473  1.00  0.00    -0.154 N  
HETATM    3  C   UNL     1     -10.722   4.901  72.660  1.00  0.00    -0.213 C  
HETATM    4  H   UNL     1      -9.780   3.322  71.696  1.00  0.00     0.000 HD 
HETATM    5  O   UNL     1     -11.394   5.301  73.605  1.00  0.00    -0.209 OA 
ENDROOT
BRANCH   3   6
HETATM    6  C   UNL     1     -10.241   5.868  71.641  1.00  0.00    -0.249 A  
HETATM    7  C   UNL     1     -11.171   6.579  70.880  1.00  0.00    -0.366 A  
HETATM    8  C   UNL     1     -10.749   7.388  69.812  1.00  0.00    -0.252 A  
HETATM    9  C   UNL     1      -9.388   7.518  69.485  1.00  0.00    -0.153 A  
HETATM   10  C   UNL     1      -8.474   6.900  70.339  1.00  0.00    -0.134 A  
HETATM   11  F   UNL     1      -7.943   5.431  72.084  1.00  0.00    -0.099 F  
HETATM   12  C   UNL     1      -8.893   6.063  71.374  1.00  0.00    -0.136 A  
BRANCH   9  13
HETATM   13  N   UNL     1      -8.963   8.195  68.298  1.00  0.00    -0.136 N  
HETATM   14  N   UNL     1      -8.995  10.032  66.903  1.00  0.00    -0.135 N  
HETATM   15  S   UNL     1      -7.895  10.474  69.406  1.00  0.00    -0.120 S  
HETATM   16  C   UNL     1      -8.695   9.598  68.212  1.00  0.00    -0.120 C  
HETATM   17  C   UNL     1      -8.960   8.957  66.027  1.00  0.00    -0.193 C  
HETATM   18  C   UNL     1      -8.125   6.461  66.549  1.00  0.00    -0.111 C  
HETATM   19  C   UNL     1      -9.354   5.522  66.500  1.00  0.00    -0.154 C  
HETATM   20  O   UNL     1      -8.862   8.991  64.804  1.00  0.00    -0.185 OA 
HETATM   21  C   UNL     1      -9.061   7.642  66.898  1.00  0.00    -0.144 C  
HETATM   22  C   UNL     1     -10.263   6.756  66.477  1.00  0.00    -0.125 C  
BRANCH  14  23
HETATM   23  C   UNL     1      -9.379  11.366  66.505  1.00  0.00    -0.189 A  
HETATM   24  C   UNL     1     -10.576  11.643  65.823  1.00  0.00    -0.320 A  
HETATM   25  C   UNL     1     -10.161  14.002  65.913  1.00  0.00    -0.321 A  
HETATM   26  C   UNL     1     -12.274  13.240  64.806  1.00  0.00    -0.417 C  
HETATM   27  F   UNL     1     -13.108  14.025  65.543  1.00  0.00    -0.550 F  
HETATM   28  F   UNL     1     -12.984  12.118  64.522  1.00  0.00    -0.533 F  
HETATM   29  F   UNL     1     -12.091  13.876  63.622  1.00  0.00    -0.483 F  
HETATM   30  C   UNL     1     -10.456  15.384  65.634  1.00  0.00    -0.372 C  
HETATM   31  N   UNL     1      -9.015  13.793  66.600  1.00  0.00    -0.182 NA 
HETATM   32  C   UNL     1     -10.984  12.962  65.519  1.00  0.00    -0.301 A  
HETATM   33  N   UNL     1     -10.725  16.489  65.390  1.00  0.00    -0.497 NA 
HETATM   34  C   UNL     1      -8.670  12.508  66.886  1.00  0.00    -0.182 A  
ENDBRANCH  14  23
ENDBRANCH   9  13
ENDBRANCH   3   6
TORSDOF 3
ENDMDL
MODEL       28
REMARK 921   NORMALIZED FREE ENERGY PREDICTED BY IDOCK:   -6.43 KCAL/MOL
REMARK 922        TOTAL FREE ENERGY PREDICTED BY IDOCK:   -8.67 KCAL/MOL
REMARK 923 INTER-LIGAND FREE ENERGY PREDICTED BY IDOCK:   -7.49 KCAL/MOL
REMARK 924 INTRA-LIGAND FREE ENERGY PREDICTED BY IDOCK:   -1.19 KCAL/MOL
REMARK 927      BINDING AFFINITY PREDICTED BY RF-SCORE:    0.00 PKD
ROOT
HETATM    1  C   UNL     1     -10.494   2.386  73.963  1.00  0.00    -0.145 C  
HETATM    2  N   UNL     1      -9.980   3.577  73.340  1.00  0.00    -0.111 N  
HETATM    3  C   UNL     1     -10.813   4.605  72.960  1.00  0.00    -0.247 C  
HETATM    4  H   UNL     1      -8.977   3.661  73.176  1.00  0.00     0.000 HD 
HETATM    5  O   UNL     1     -12.020   4.612  73.178  1.00  0.00    -0.176 OA 
ENDROOT
BRANCH   3   6
HETATM    6  C   UNL     1     -10.193   5.744  72.238  1.00  0.00    -0.233 A  
HETATM    7  C   UNL     1      -9.697   6.828  72.966  1.00  0.00    -0.182 A  
HETATM    8  C   UNL     1      -9.240   7.980  72.306  1.00  0.00    -0.243 A  
HETATM    9  C   UNL     1      -9.253   8.076  70.904  1.00  0.00    -0.149 A  
HETATM   10  C   UNL     1      -9.633   6.934  70.199  1.00  0.00    -0.162 A  
HETATM   11  F   UNL     1     -10.561   4.787  70.090  1.00  0.00    -0.311 F  
HETATM   12  C   UNL     1     -10.127   5.804  70.852  1.00  0.00    -0.199 A  
BRANCH   9  13
HETATM   13  N   UNL     1      -8.957   9.305  70.233  1.00  0.00    -0.209 N  
HETATM   14  N   UNL     1      -9.353  10.827  68.546  1.00  0.00    -0.167 N  
HETATM   15  S   UNL     1     -11.419  10.524  70.365  1.00  0.00    -0.346 S  
HETATM   16  C   UNL     1      -9.937  10.171  69.651  1.00  0.00    -0.232 C  
HETATM   17  C   UNL     1      -7.971  10.828  68.670  1.00  0.00    -0.133 C  
HETATM   18  C   UNL     1      -6.529  10.051  70.795  1.00  0.00    -0.060 C  
HETATM   19  C   UNL     1      -5.763   8.763  70.411  1.00  0.00    -0.027 C  
HETATM   20  O   UNL     1      -7.168  11.551  68.087  1.00  0.00    -0.072 OA 
HETATM   21  C   UNL     1      -7.597   9.715  69.727  1.00  0.00    -0.123 C  
HETATM   22  C   UNL     1      -6.618   8.663  69.142  1.00  0.00    -0.047 C  
BRANCH  14  23
HETATM   23  C   UNL     1     -10.046  11.350  67.391  1.00  0.00    -0.184 A  
HETATM   24  C   UNL     1     -10.756  12.562  67.412  1.00  0.00    -0.254 A  
HETATM   25  C   UNL     1     -11.225  12.406  65.066  1.00  0.00    -0.312 A  
HETATM   26  C   UNL     1     -12.092  14.411  66.289  1.00  0.00    -0.366 C  
HETATM   27  F   UNL     1     -11.547  15.334  65.449  1.00  0.00    -0.326 F  
HETATM   28  F   UNL     1     -12.097  14.993  67.517  1.00  0.00    -0.349 F  
HETATM   29  F   UNL     1     -13.395  14.285  65.931  1.00  0.00    -0.438 F  
HETATM   30  C   UNL     1     -11.813  12.846  63.828  1.00  0.00    -0.504 C  
HETATM   31  N   UNL     1     -10.524  11.252  64.984  1.00  0.00    -0.290 NA 
HETATM   32  C   UNL     1     -11.353  13.107  66.252  1.00  0.00    -0.348 A  
HETATM   33  N   UNL     1     -12.304  13.231  62.845  1.00  0.00    -0.309 NA 
HETATM   34  C   UNL     1      -9.952  10.773  66.122  1.00  0.00    -0.232 A  
ENDBRANCH  14  23
ENDBRANCH   9  13
ENDBRANCH   3   6
TORSDOF 3
ENDMDL
MODEL       29
REMARK 921   NORMALIZED FREE ENERGY PREDICTED BY IDOCK:   -6.26 KCAL/MOL
REMARK 922        TOTAL FREE ENERGY PREDICTED BY IDOCK:   -8.47 KCAL/MOL
REMARK 923 INTER-LIGAND FREE ENERGY PREDICTED BY IDOCK:   -7.25 KCAL/MOL
REMARK 924 INTRA-LIGAND FREE ENERGY PREDICTED BY IDOCK:   -1.23 KCAL/MOL
REMARK 927      BINDING AFFINITY PREDICTED BY RF-SCORE:    0.00 PKD
ROOT
HETATM    1  C   UNL     1     -10.873   1.686  74.361  1.00  0.00    -0.110 C  
HETATM    2  N   UNL     1     -10.635   2.573  73.253  1.00  0.00    -0.150 N  
HETATM    3  C   UNL     1     -10.690   3.940  73.403  1.00  0.00    -0.208 C  
HETATM    4  H   UNL     1     -10.420   2.179  72.337  1.00  0.00     0.000 HD 
HETATM    5  O   UNL     1     -10.878   4.494  74.482  1.00  0.00    -0.324 OA 
ENDROOT
BRANCH   3   6
HETATM    6  C   UNL     1     -10.526   4.761  72.177  1.00  0.00    -0.243 A  
HETATM    7  C   UNL     1      -9.417   4.547  71.355  1.00  0.00    -0.219 A  
HETATM    8  C   UNL     1      -9.158   5.402  70.272  1.00  0.00    -0.166 A  
HETATM    9  C   UNL     1     -10.004   6.485  69.974  1.00  0.00    -0.169 A  
HETATM   10  C   UNL     1     -11.170   6.599  70.732  1.00  0.00    -0.366 A  
HETATM   11  F   UNL     1     -12.507   6.020  72.565  1.00  0.00    -0.288 F  
HETATM   12  C   UNL     1     -11.407   5.776  71.833  1.00  0.00    -0.204 A  
BRANCH   9  13
HETATM   13  N   UNL     1      -9.655   7.461  68.987  1.00  0.00    -0.148 N  
HETATM   14  N   UNL     1      -9.707   9.622  68.182  1.00  0.00    -0.144 N  
HETATM   15  S   UNL     1      -8.344   9.288  70.570  1.00  0.00    -0.209 S  
HETATM   16  C   UNL     1      -9.309   8.820  69.274  1.00  0.00    -0.149 C  
HETATM   17  C   UNL     1      -9.824   8.844  67.039  1.00  0.00    -0.214 C  
HETATM   18  C   UNL     1      -9.099   6.278  66.738  1.00  0.00    -0.141 C  
HETATM   19  C   UNL     1     -10.383   5.433  66.561  1.00  0.00    -0.320 C  
HETATM   20  O   UNL     1      -9.842   9.226  65.873  1.00  0.00    -0.281 OA 
HETATM   21  C   UNL     1      -9.922   7.338  67.508  1.00  0.00    -0.169 C  
HETATM   22  C   UNL     1     -11.212   6.650  66.989  1.00  0.00    -0.265 C  
BRANCH  14  23
HETATM   23  C   UNL     1     -10.044  11.026  68.223  1.00  0.00    -0.177 A  
HETATM   24  C   UNL     1      -9.135  12.038  67.874  1.00  0.00    -0.183 A  
HETATM   25  C   UNL     1     -10.810  13.731  68.151  1.00  0.00    -0.246 A  
HETATM   26  C   UNL     1      -8.525  14.469  67.439  1.00  0.00    -0.205 C  
HETATM   27  F   UNL     1      -8.939  15.166  66.345  1.00  0.00    -0.268 F  
HETATM   28  F   UNL     1      -7.298  13.981  67.119  1.00  0.00    -0.183 F  
HETATM   29  F   UNL     1      -8.320  15.379  68.423  1.00  0.00    -0.135 F  
HETATM   30  C   UNL     1     -11.294  15.087  68.171  1.00  0.00    -0.330 C  
HETATM   31  N   UNL     1     -11.732  12.792  68.462  1.00  0.00    -0.316 NA 
HETATM   32  C   UNL     1      -9.504  13.402  67.832  1.00  0.00    -0.216 A  
HETATM   33  N   UNL     1     -11.651  16.194  68.179  1.00  0.00    -0.224 NA 
HETATM   34  C   UNL     1     -11.337  11.490  68.474  1.00  0.00    -0.277 A  
ENDBRANCH  14  23
ENDBRANCH   9  13
ENDBRANCH   3   6
TORSDOF 3
ENDMDL
MODEL       30
REMARK 921   NORMALIZED FREE ENERGY PREDICTED BY IDOCK:   -6.24 KCAL/MOL
REMARK 922        TOTAL FREE ENERGY PREDICTED BY IDOCK:   -8.45 KCAL/MOL
REMARK 923 INTER-LIGAND FREE ENERGY PREDICTED BY IDOCK:   -7.23 KCAL/MOL
REMARK 924 INTRA-LIGAND FREE ENERGY PREDICTED BY IDOCK:   -1.22 KCAL/MOL
REMARK 927      BINDING AFFINITY PREDICTED BY RF-SCORE:    0.00 PKD
ROOT
HETATM    1  C   UNL     1     -12.845  16.107  73.413  1.00  0.00    -0.517 C  
HETATM    2  N   UNL     1     -12.155  15.520  72.295  1.00  0.00    -0.385 N  
HETATM    3  C   UNL     1     -12.806  15.242  71.114  1.00  0.00    -0.427 C  
HETATM    4  H   UNL     1     -11.161  15.305  72.379  1.00  0.00     0.000 HD 
HETATM    5  O   UNL     1     -13.981  15.528  70.908  1.00  0.00    -0.489 OA 
ENDROOT
BRANCH   3   6
HETATM    6  C   UNL     1     -12.025  14.548  70.059  1.00  0.00    -0.388 A  
HETATM    7  C   UNL     1     -11.915  13.157  70.093  1.00  0.00    -0.381 A  
HETATM    8  C   UNL     1     -11.065  12.487  69.198  1.00  0.00    -0.254 A  
HETATM    9  C   UNL     1     -10.313  13.187  68.239  1.00  0.00    -0.252 A  
HETATM   10  C   UNL     1     -10.538  14.561  68.143  1.00  0.00    -0.238 A  
HETATM   11  F   UNL     1     -11.432  16.569  68.950  1.00  0.00    -0.316 F  
HETATM   12  C   UNL     1     -11.350  15.232  69.058  1.00  0.00    -0.300 A  
BRANCH   9  13
HETATM   13  N   UNL     1      -9.317  12.535  67.445  1.00  0.00    -0.181 N  
HETATM   14  N   UNL     1      -8.453  10.642  66.449  1.00  0.00    -0.146 N  
HETATM   15  S   UNL     1     -10.906  11.472  65.467  1.00  0.00    -0.219 S  
HETATM   16  C   UNL     1      -9.581  11.487  66.506  1.00  0.00    -0.205 C  
HETATM   17  C   UNL     1      -7.327  11.322  66.890  1.00  0.00    -0.145 C  
HETATM   18  C   UNL     1      -7.126  13.938  67.456  1.00  0.00    -0.175 C  
HETATM   19  C   UNL     1      -6.916  14.085  68.982  1.00  0.00    -0.112 C  
HETATM   20  O   UNL     1      -6.151  11.029  66.696  1.00  0.00    -0.096 OA 
HETATM   21  C   UNL     1      -7.831  12.582  67.700  1.00  0.00    -0.162 C  
HETATM   22  C   UNL     1      -7.275  12.604  69.149  1.00  0.00     0.078 C  
BRANCH  14  23
HETATM   23  C   UNL     1      -8.442   9.244  66.084  1.00  0.00    -0.128 A  
HETATM   24  C   UNL     1      -9.181   8.270  66.776  1.00  0.00    -0.212 A  
HETATM   25  C   UNL     1      -8.522   6.569  65.221  1.00  0.00    -0.087 A  
HETATM   26  C   UNL     1     -10.041   5.898  67.095  1.00  0.00    -0.177 C  
HETATM   27  F   UNL     1     -10.993   5.328  66.306  1.00  0.00    -0.329 F  
HETATM   28  F   UNL     1     -10.709   6.409  68.162  1.00  0.00    -0.192 F  
HETATM   29  F   UNL     1      -9.283   4.884  67.581  1.00  0.00    -0.112 F  
HETATM   30  C   UNL     1      -8.475   5.222  64.713  1.00  0.00    -0.149 C  
HETATM   31  N   UNL     1      -7.822   7.474  64.500  1.00  0.00    -0.126 NA 
HETATM   32  C   UNL     1      -9.232   6.922  66.355  1.00  0.00    -0.186 A  
HETATM   33  N   UNL     1      -8.458   4.123  64.331  1.00  0.00    -0.104 NA 
HETATM   34  C   UNL     1      -7.813   8.764  64.933  1.00  0.00    -0.120 A  
ENDBRANCH  14  23
ENDBRANCH   9  13
ENDBRANCH   3   6
TORSDOF 3
ENDMDL
MODEL       31
REMARK 921   NORMALIZED FREE ENERGY PREDICTED BY IDOCK:   -6.20 KCAL/MOL
REMARK 922        TOTAL FREE ENERGY PREDICTED BY IDOCK:   -8.40 KCAL/MOL
REMARK 923 INTER-LIGAND FREE ENERGY PREDICTED BY IDOCK:   -7.74 KCAL/MOL
REMARK 924 INTRA-LIGAND FREE ENERGY PREDICTED BY IDOCK:   -0.66 KCAL/MOL
REMARK 927      BINDING AFFINITY PREDICTED BY RF-SCORE:    0.00 PKD
ROOT
HETATM    1  C   UNL     1     -10.719   2.673  63.208  1.00  0.00    -0.231 C  
HETATM    2  N   UNL     1     -10.395   3.917  63.854  1.00  0.00    -0.312 N  
HETATM    3  C   UNL     1      -9.837   3.949  65.113  1.00  0.00    -0.184 C  
HETATM    4  H   UNL     1     -10.582   4.795  63.370  1.00  0.00     0.000 HD 
HETATM    5  O   UNL     1      -9.522   2.941  65.737  1.00  0.00    -0.101 OA 
ENDROOT
BRANCH   3   6
HETATM    6  C   UNL     1      -9.633   5.285  65.727  1.00  0.00    -0.108 A  
HETATM    7  C   UNL     1     -10.645   5.839  66.513  1.00  0.00    -0.294 A  
HETATM    8  C   UNL     1     -10.540   7.158  66.983  1.00  0.00    -0.413 A  
HETATM    9  C   UNL     1      -9.418   7.953  66.693  1.00  0.00    -0.211 A  
HETATM   10  C   UNL     1      -8.367   7.334  66.016  1.00  0.00    -0.140 A  
HETATM   11  F   UNL     1      -7.463   5.557  64.788  1.00  0.00    -0.062 F  
HETATM   12  C   UNL     1      -8.487   6.038  65.512  1.00  0.00    -0.151 A  
BRANCH   9  13
HETATM   13  N   UNL     1      -9.381   9.347  67.017  1.00  0.00    -0.144 N  
HETATM   14  N   UNL     1     -10.155  11.159  68.216  1.00  0.00    -0.178 N  
HETATM   15  S   UNL     1      -8.916   9.194  69.723  1.00  0.00    -0.175 S  
HETATM   16  C   UNL     1      -9.565   9.882  68.331  1.00  0.00    -0.148 C  
HETATM   17  C   UNL     1      -9.913  11.681  66.953  1.00  0.00    -0.202 C  
HETATM   18  C   UNL     1      -8.299  10.676  65.060  1.00  0.00    -0.106 C  
HETATM   19  C   UNL     1      -9.180  10.183  63.888  1.00  0.00    -0.322 C  
HETATM   20  O   UNL     1      -9.995  12.854  66.600  1.00  0.00    -0.239 OA 
HETATM   21  C   UNL     1      -9.493  10.475  66.022  1.00  0.00    -0.183 C  
HETATM   22  C   UNL     1     -10.415  10.349  64.781  1.00  0.00    -0.087 C  
BRANCH  14  23
HETATM   23  C   UNL     1     -10.976  11.821  69.203  1.00  0.00    -0.209 A  
HETATM   24  C   UNL     1     -11.047  13.219  69.320  1.00  0.00    -0.208 A  
HETATM   25  C   UNL     1     -12.725  13.057  71.025  1.00  0.00    -0.262 A  
HETATM   26  C   UNL     1     -12.000  15.351  70.329  1.00  0.00    -0.355 C  
HETATM   27  F   UNL     1     -13.251  15.818  70.064  1.00  0.00    -0.195 F  
HETATM   28  F   UNL     1     -11.178  15.991  69.457  1.00  0.00    -0.265 F  
HETATM   29  F   UNL     1     -11.669  15.811  71.561  1.00  0.00    -0.337 F  
HETATM   30  C   UNL     1     -13.634  13.590  72.007  1.00  0.00    -0.499 C  
HETATM   31  N   UNL     1     -12.718  11.708  70.929  1.00  0.00    -0.300 NA 
HETATM   32  C   UNL     1     -11.922  13.856  70.230  1.00  0.00    -0.401 A  
HETATM   33  N   UNL     1     -14.355  14.055  72.793  1.00  0.00    -0.363 NA 
HETATM   34  C   UNL     1     -11.873  11.139  70.028  1.00  0.00    -0.361 A  
ENDBRANCH  14  23
ENDBRANCH   9  13
ENDBRANCH   3   6
TORSDOF 3
ENDMDL
MODEL       32
REMARK 921   NORMALIZED FREE ENERGY PREDICTED BY IDOCK:   -6.18 KCAL/MOL
REMARK 922        TOTAL FREE ENERGY PREDICTED BY IDOCK:   -8.38 KCAL/MOL
REMARK 923 INTER-LIGAND FREE ENERGY PREDICTED BY IDOCK:   -7.11 KCAL/MOL
REMARK 924 INTRA-LIGAND FREE ENERGY PREDICTED BY IDOCK:   -1.27 KCAL/MOL
REMARK 927      BINDING AFFINITY PREDICTED BY RF-SCORE:    0.00 PKD
ROOT
HETATM    1  C   UNL     1     -11.360  15.797  64.672  1.00  0.00    -0.337 C  
HETATM    2  N   UNL     1     -10.938  14.477  65.064  1.00  0.00    -0.374 N  
HETATM    3  C   UNL     1     -11.851  13.488  65.353  1.00  0.00    -0.357 C  
HETATM    4  H   UNL     1      -9.942  14.271  65.129  1.00  0.00     0.000 HD 
HETATM    5  O   UNL     1     -13.064  13.634  65.238  1.00  0.00    -0.735 OA 
ENDROOT
BRANCH   3   6
HETATM    6  C   UNL     1     -11.311  12.194  65.840  1.00  0.00    -0.407 A  
HETATM    7  C   UNL     1     -11.434  11.867  67.193  1.00  0.00    -0.386 A  
HETATM    8  C   UNL     1     -10.806  10.722  67.708  1.00  0.00    -0.320 A  
HETATM    9  C   UNL     1     -10.051   9.867  66.887  1.00  0.00    -0.225 A  
HETATM   10  C   UNL     1     -10.051  10.147  65.520  1.00  0.00    -0.338 A  
HETATM   11  F   UNL     1     -10.506  11.544  63.697  1.00  0.00    -0.318 F  
HETATM   12  C   UNL     1     -10.639  11.306  65.013  1.00  0.00    -0.289 A  
BRANCH   9  13
HETATM   13  N   UNL     1      -9.266   8.802  67.433  1.00  0.00    -0.135 N  
HETATM   14  N   UNL     1      -8.992   7.052  68.911  1.00  0.00    -0.130 N  
HETATM   15  S   UNL     1     -10.975   6.688  67.012  1.00  0.00    -0.295 S  
HETATM   16  C   UNL     1      -9.790   7.538  67.852  1.00  0.00    -0.154 C  
HETATM   17  C   UNL     1      -7.740   7.648  68.874  1.00  0.00    -0.117 C  
HETATM   18  C   UNL     1      -6.746   9.226  66.944  1.00  0.00    -0.076 C  
HETATM   19  C   UNL     1      -6.604  10.656  67.517  1.00  0.00    -0.065 C  
HETATM   20  O   UNL     1      -6.711   7.262  69.421  1.00  0.00    -0.046 OA 
HETATM   21  C   UNL     1      -7.865   8.942  67.974  1.00  0.00    -0.102 C  
HETATM   22  C   UNL     1      -7.431  10.223  68.733  1.00  0.00    -0.089 C  
BRANCH  14  23
HETATM   23  C   UNL     1      -9.407   6.143  69.954  1.00  0.00    -0.149 A  
HETATM   24  C   UNL     1      -9.214   4.754  69.875  1.00  0.00    -0.183 A  
HETATM   25  C   UNL     1     -10.072   4.442  72.092  1.00  0.00    -0.195 A  
HETATM   26  C   UNL     1      -9.313   2.406  70.847  1.00  0.00    -0.143 C  
HETATM   27  F   UNL     1      -8.472   1.955  71.818  1.00  0.00    -0.055 F  
HETATM   28  F   UNL     1      -8.753   2.022  69.671  1.00  0.00    -0.073 F  
HETATM   29  F   UNL     1     -10.459   1.690  70.966  1.00  0.00    -0.027 F  
HETATM   30  C   UNL     1     -10.471   3.656  73.231  1.00  0.00    -0.177 C  
HETATM   31  N   UNL     1     -10.247   5.775  72.232  1.00  0.00    -0.191 NA 
HETATM   32  C   UNL     1      -9.542   3.885  70.941  1.00  0.00    -0.258 A  
HETATM   33  N   UNL     1     -10.784   2.990  74.133  1.00  0.00    -0.183 NA 
HETATM   34  C   UNL     1      -9.902   6.576  71.187  1.00  0.00    -0.182 A  
ENDBRANCH  14  23
ENDBRANCH   9  13
ENDBRANCH   3   6
TORSDOF 3
ENDMDL
MODEL       33
REMARK 921   NORMALIZED FREE ENERGY PREDICTED BY IDOCK:   -6.18 KCAL/MOL
REMARK 922        TOTAL FREE ENERGY PREDICTED BY IDOCK:   -8.38 KCAL/MOL
REMARK 923 INTER-LIGAND FREE ENERGY PREDICTED BY IDOCK:   -7.94 KCAL/MOL
REMARK 924 INTRA-LIGAND FREE ENERGY PREDICTED BY IDOCK:   -0.44 KCAL/MOL
REMARK 927      BINDING AFFINITY PREDICTED BY RF-SCORE:    0.00 PKD
ROOT
HETATM    1  C   UNL     1      -6.438  19.963  69.664  1.00  0.00    -0.353 C  
HETATM    2  N   UNL     1      -7.170  18.765  69.347  1.00  0.00    -0.138 N  
HETATM    3  C   UNL     1      -8.248  18.788  68.492  1.00  0.00    -0.346 C  
HETATM    4  H   UNL     1      -6.884  17.880  69.766  1.00  0.00     0.000 HD 
HETATM    5  O   UNL     1      -8.617  19.796  67.898  1.00  0.00    -0.309 OA 
ENDROOT
BRANCH   3   6
HETATM    6  C   UNL     1      -8.992  17.516  68.310  1.00  0.00    -0.267 A  
HETATM    7  C   UNL     1      -8.299  16.305  68.361  1.00  0.00    -0.190 A  
HETATM    8  C   UNL     1      -8.947  15.100  68.047  1.00  0.00    -0.172 A  
HETATM    9  C   UNL     1     -10.306  15.070  67.688  1.00  0.00    -0.243 A  
HETATM   10  C   UNL     1     -11.004  16.275  67.768  1.00  0.00    -0.281 A  
HETATM   11  F   UNL     1     -11.086  18.603  67.999  1.00  0.00    -0.303 F  
HETATM   12  C   UNL     1     -10.353  17.479  68.038  1.00  0.00    -0.368 A  
BRANCH   9  13
HETATM   13  N   UNL     1     -10.926  13.876  67.198  1.00  0.00    -0.287 N  
HETATM   14  N   UNL     1     -10.960  11.585  66.930  1.00  0.00    -0.284 N  
HETATM   15  S   UNL     1     -11.164  12.466  69.548  1.00  0.00    -0.027 S  
HETATM   16  C   UNL     1     -10.935  12.622  67.888  1.00  0.00    -0.230 C  
HETATM   17  C   UNL     1     -11.457  12.063  65.726  1.00  0.00    -0.320 C  
HETATM   18  C   UNL     1     -12.559  14.466  65.261  1.00  0.00    -0.333 C  
HETATM   19  C   UNL     1     -11.602  15.264  64.344  1.00  0.00    -0.265 C  
HETATM   20  O   UNL     1     -11.905  11.409  64.789  1.00  0.00     0.038 OA 
HETATM   21  C   UNL     1     -11.355  13.640  65.771  1.00  0.00    -0.306 C  
HETATM   22  C   UNL     1     -10.523  14.204  64.589  1.00  0.00    -0.366 C  
BRANCH  14  23
HETATM   23  C   UNL     1     -10.464  10.240  67.105  1.00  0.00    -0.254 A  
HETATM   24  C   UNL     1     -10.822   9.432  68.197  1.00  0.00    -0.174 A  
HETATM   25  C   UNL     1      -9.610   7.568  67.301  1.00  0.00    -0.156 A  
HETATM   26  C   UNL     1     -10.808   7.233  69.474  1.00  0.00    -0.209 C  
HETATM   27  F   UNL     1     -11.501   6.129  69.082  1.00  0.00    -0.455 F  
HETATM   28  F   UNL     1     -11.614   7.876  70.358  1.00  0.00    -0.272 F  
HETATM   29  F   UNL     1      -9.746   6.789  70.192  1.00  0.00    -0.165 F  
HETATM   30  C   UNL     1      -9.099   6.222  67.319  1.00  0.00    -0.116 C  
HETATM   31  N   UNL     1      -9.265   8.292  66.212  1.00  0.00    -0.193 NA 
HETATM   32  C   UNL     1     -10.401   8.087  68.310  1.00  0.00    -0.240 A  
HETATM   33  N   UNL     1      -8.701   5.129  67.368  1.00  0.00    -0.104 NA 
HETATM   34  C   UNL     1      -9.706   9.578  66.137  1.00  0.00    -0.258 A  
ENDBRANCH  14  23
ENDBRANCH   9  13
ENDBRANCH   3   6
TORSDOF 3
ENDMDL
MODEL       34
REMARK 921   NORMALIZED FREE ENERGY PREDICTED BY IDOCK:   -6.10 KCAL/MOL
REMARK 922        TOTAL FREE ENERGY PREDICTED BY IDOCK:   -8.29 KCAL/MOL
REMARK 923 INTER-LIGAND FREE ENERGY PREDICTED BY IDOCK:   -7.22 KCAL/MOL
REMARK 924 INTRA-LIGAND FREE ENERGY PREDICTED BY IDOCK:   -1.06 KCAL/MOL
REMARK 927      BINDING AFFINITY PREDICTED BY RF-SCORE:    0.00 PKD
ROOT
HETATM    1  C   UNL     1     -10.918   4.533  73.676  1.00  0.00    -0.304 C  
HETATM    2  N   UNL     1     -10.571   5.263  72.485  1.00  0.00    -0.215 N  
HETATM    3  C   UNL     1     -10.006   4.636  71.398  1.00  0.00    -0.197 C  
HETATM    4  H   UNL     1     -10.749   6.267  72.447  1.00  0.00     0.000 HD 
HETATM    5  O   UNL     1      -9.819   3.426  71.338  1.00  0.00    -0.174 OA 
ENDROOT
BRANCH   3   6
HETATM    6  C   UNL     1      -9.598   5.498  70.260  1.00  0.00    -0.227 A  
HETATM    7  C   UNL     1      -8.239   5.703  70.009  1.00  0.00    -0.110 A  
HETATM    8  C   UNL     1      -7.826   6.626  69.035  1.00  0.00    -0.111 A  
HETATM    9  C   UNL     1      -8.756   7.358  68.278  1.00  0.00    -0.122 A  
HETATM   10  C   UNL     1     -10.103   7.042  68.458  1.00  0.00    -0.171 A  
HETATM   11  F   UNL     1     -11.838   5.985  69.622  1.00  0.00    -0.430 F  
HETATM   12  C   UNL     1     -10.517   6.156  69.454  1.00  0.00    -0.256 A  
BRANCH   9  13
HETATM   13  N   UNL     1      -8.347   8.423  67.412  1.00  0.00    -0.123 N  
HETATM   14  N   UNL     1      -8.788  10.386  66.285  1.00  0.00    -0.149 N  
HETATM   15  S   UNL     1      -8.839  10.579  69.047  1.00  0.00    -0.153 S  
HETATM   16  C   UNL     1      -8.740   9.790  67.564  1.00  0.00    -0.125 C  
HETATM   17  C   UNL     1      -7.997   9.670  65.398  1.00  0.00    -0.120 C  
HETATM   18  C   UNL     1      -6.317   7.658  65.976  1.00  0.00    -0.042 C  
HETATM   19  C   UNL     1      -6.898   6.358  65.371  1.00  0.00    -0.048 C  
HETATM   20  O   UNL     1      -7.556  10.046  64.316  1.00  0.00    -0.136 OA 
HETATM   21  C   UNL     1      -7.746   8.247  66.040  1.00  0.00    -0.093 C  
HETATM   22  C   UNL     1      -8.215   7.098  65.110  1.00  0.00    -0.114 C  
BRANCH  14  23
HETATM   23  C   UNL     1      -9.597  11.515  65.891  1.00  0.00    -0.230 A  
HETATM   24  C   UNL     1      -9.358  12.821  66.350  1.00  0.00    -0.196 A  
HETATM   25  C   UNL     1     -11.095  13.703  64.952  1.00  0.00    -0.351 A  
HETATM   26  C   UNL     1      -9.820  15.322  66.374  1.00  0.00    -0.275 C  
HETATM   27  F   UNL     1      -9.480  16.162  65.357  1.00  0.00    -0.281 F  
HETATM   28  F   UNL     1      -8.791  15.385  67.259  1.00  0.00    -0.171 F  
HETATM   29  F   UNL     1     -10.885  15.883  66.999  1.00  0.00    -0.315 F  
HETATM   30  C   UNL     1     -11.935  14.749  64.429  1.00  0.00    -0.417 C  
HETATM   31  N   UNL     1     -11.344  12.470  64.453  1.00  0.00    -0.323 NA 
HETATM   32  C   UNL     1     -10.101  13.932  65.887  1.00  0.00    -0.331 A  
HETATM   33  N   UNL     1     -12.597  15.618  64.029  1.00  0.00    -0.607 NA 
HETATM   34  C   UNL     1     -10.593  11.434  64.915  1.00  0.00    -0.307 A  
ENDBRANCH  14  23
ENDBRANCH   9  13
ENDBRANCH   3   6
TORSDOF 3
ENDMDL
MODEL       35
REMARK 921   NORMALIZED FREE ENERGY PREDICTED BY IDOCK:   -6.06 KCAL/MOL
REMARK 922        TOTAL FREE ENERGY PREDICTED BY IDOCK:   -8.25 KCAL/MOL
REMARK 923 INTER-LIGAND FREE ENERGY PREDICTED BY IDOCK:   -7.57 KCAL/MOL
REMARK 924 INTRA-LIGAND FREE ENERGY PREDICTED BY IDOCK:   -0.68 KCAL/MOL
REMARK 927      BINDING AFFINITY PREDICTED BY RF-SCORE:    0.00 PKD
ROOT
HETATM    1  C   UNL     1     -10.068   6.392  74.556  1.00  0.00    -0.339 C  
HETATM    2  N   UNL     1      -9.913   7.001  73.261  1.00  0.00    -0.203 N  
HETATM    3  C   UNL     1      -9.145   8.130  73.087  1.00  0.00    -0.265 C  
HETATM    4  H   UNL     1     -10.381   6.587  72.456  1.00  0.00     0.000 HD 
HETATM    5  O   UNL     1      -8.498   8.653  73.988  1.00  0.00    -0.279 OA 
ENDROOT
BRANCH   3   6
HETATM    6  C   UNL     1      -9.131   8.733  71.730  1.00  0.00    -0.305 A  
HETATM    7  C   UNL     1      -7.935   8.765  71.008  1.00  0.00    -0.170 A  
HETATM    8  C   UNL     1      -7.859   9.457  69.789  1.00  0.00    -0.115 A  
HETATM    9  C   UNL     1      -8.973  10.123  69.252  1.00  0.00    -0.183 A  
HETATM   10  C   UNL     1     -10.184   9.968  69.928  1.00  0.00    -0.304 A  
HETATM   11  F   UNL     1     -11.441   9.301  71.787  1.00  0.00    -0.389 F  
HETATM   12  C   UNL     1     -10.253   9.317  71.160  1.00  0.00    -0.317 A  
BRANCH   9  13
HETATM   13  N   UNL     1      -8.860  10.973  68.106  1.00  0.00    -0.136 N  
HETATM   14  N   UNL     1      -8.997  13.053  67.117  1.00  0.00    -0.216 N  
HETATM   15  S   UNL     1      -7.026  12.795  69.046  1.00  0.00    -0.013 S  
HETATM   16  C   UNL     1      -8.355  12.312  68.133  1.00  0.00    -0.174 C  
HETATM   17  C   UNL     1      -9.493  12.195  66.145  1.00  0.00    -0.224 C  
HETATM   18  C   UNL     1      -9.062   9.555  65.934  1.00  0.00    -0.230 C  
HETATM   19  C   UNL     1     -10.396   8.825  66.220  1.00  0.00    -0.029 C  
HETATM   20  O   UNL     1      -9.823  12.476  64.997  1.00  0.00    -0.204 OA 
HETATM   21  C   UNL     1      -9.552  10.751  66.785  1.00  0.00    -0.172 C  
HETATM   22  C   UNL     1     -10.981  10.148  66.729  1.00  0.00    -0.049 C  
BRANCH  14  23
HETATM   23  C   UNL     1      -9.212  14.481  67.098  1.00  0.00    -0.223 A  
HETATM   24  C   UNL     1      -8.165  15.407  66.958  1.00  0.00    -0.270 A  
HETATM   25  C   UNL     1      -9.707  17.241  66.888  1.00  0.00    -0.273 A  
HETATM   26  C   UNL     1      -7.268  17.771  66.682  1.00  0.00    -0.221 C  
HETATM   27  F   UNL     1      -7.379  18.491  65.532  1.00  0.00    -0.260 F  
HETATM   28  F   UNL     1      -6.048  17.176  66.625  1.00  0.00    -0.183 F  
HETATM   29  F   UNL     1      -7.198  18.670  67.695  1.00  0.00    -0.208 F  
HETATM   30  C   UNL     1     -10.065  18.634  66.816  1.00  0.00    -0.380 C  
HETATM   31  N   UNL     1     -10.753  16.389  66.988  1.00  0.00    -0.268 NA 
HETATM   32  C   UNL     1      -8.397  16.797  66.850  1.00  0.00    -0.241 A  
HETATM   33  N   UNL     1     -10.318  19.768  66.758  1.00  0.00    -0.450 NA 
HETATM   34  C   UNL     1     -10.483  15.058  67.073  1.00  0.00    -0.278 A  
ENDBRANCH  14  23
ENDBRANCH   9  13
ENDBRANCH   3   6
TORSDOF 3
ENDMDL
MODEL       36
REMARK 921   NORMALIZED FREE ENERGY PREDICTED BY IDOCK:   -6.02 KCAL/MOL
REMARK 922        TOTAL FREE ENERGY PREDICTED BY IDOCK:   -8.20 KCAL/MOL
REMARK 923 INTER-LIGAND FREE ENERGY PREDICTED BY IDOCK:   -7.27 KCAL/MOL
REMARK 924 INTRA-LIGAND FREE ENERGY PREDICTED BY IDOCK:   -0.92 KCAL/MOL
REMARK 927      BINDING AFFINITY PREDICTED BY RF-SCORE:    0.00 PKD
ROOT
HETATM    1  C   UNL     1      -9.603  19.385  67.487  1.00  0.00    -0.326 C  
HETATM    2  N   UNL     1      -9.843  17.974  67.631  1.00  0.00    -0.294 N  
HETATM    3  C   UNL     1      -9.692  17.108  66.571  1.00  0.00    -0.287 C  
HETATM    4  H   UNL     1     -10.131  17.607  68.538  1.00  0.00     0.000 HD 
HETATM    5  O   UNL     1      -9.288  17.456  65.467  1.00  0.00    -0.344 OA 
ENDROOT
BRANCH   3   6
HETATM    6  C   UNL     1     -10.059  15.688  66.803  1.00  0.00    -0.277 A  
HETATM    7  C   UNL     1      -9.403  14.966  67.803  1.00  0.00    -0.194 A  
HETATM    8  C   UNL     1      -9.623  13.587  67.946  1.00  0.00    -0.218 A  
HETATM    9  C   UNL     1     -10.513  12.895  67.107  1.00  0.00    -0.238 A  
HETATM   10  C   UNL     1     -11.249  13.662  66.202  1.00  0.00    -0.309 A  
HETATM   11  F   UNL     1     -11.688  15.663  65.068  1.00  0.00    -0.252 F  
HETATM   12  C   UNL     1     -11.001  15.024  66.030  1.00  0.00    -0.334 A  
BRANCH   9  13
HETATM   13  N   UNL     1     -10.611  11.467  67.130  1.00  0.00    -0.226 N  
HETATM   14  N   UNL     1     -10.297   9.442  68.189  1.00  0.00    -0.201 N  
HETATM   15  S   UNL     1     -12.126  11.132  69.401  1.00  0.00    -0.266 S  
HETATM   16  C   UNL     1     -10.943  10.693  68.287  1.00  0.00    -0.263 C  
HETATM   17  C   UNL     1      -9.990   9.169  66.863  1.00  0.00    -0.238 C  
HETATM   18  C   UNL     1     -10.759  10.555  64.698  1.00  0.00     0.135 C  
HETATM   19  C   UNL     1      -9.506  11.229  64.088  1.00  0.00    -0.200 C  
HETATM   20  O   UNL     1      -9.720   8.080  66.366  1.00  0.00    -0.221 OA 
HETATM   21  C   UNL     1     -10.058  10.539  66.077  1.00  0.00    -0.256 C  
HETATM   22  C   UNL     1      -8.724  10.863  65.355  1.00  0.00    -0.162 C  
BRANCH  14  23
HETATM   23  C   UNL     1      -9.910   8.584  69.284  1.00  0.00    -0.185 A  
HETATM   24  C   UNL     1     -10.843   7.929  70.105  1.00  0.00    -0.243 A  
HETATM   25  C   UNL     1      -9.099   6.787  71.290  1.00  0.00    -0.150 A  
HETATM   26  C   UNL     1     -11.461   6.317  71.973  1.00  0.00    -0.310 C  
HETATM   27  F   UNL     1     -11.371   4.963  71.861  1.00  0.00    -0.093 F  
HETATM   28  F   UNL     1     -12.746   6.625  71.654  1.00  0.00    -0.382 F  
HETATM   29  F   UNL     1     -11.324   6.606  73.291  1.00  0.00    -0.220 F  
HETATM   30  C   UNL     1      -8.579   5.907  72.305  1.00  0.00    -0.124 C  
HETATM   31  N   UNL     1      -8.162   7.367  70.505  1.00  0.00    -0.125 NA 
HETATM   32  C   UNL     1     -10.451   7.022  71.117  1.00  0.00    -0.229 A  
HETATM   33  N   UNL     1      -8.194   5.191  73.137  1.00  0.00    -0.108 NA 
HETATM   34  C   UNL     1      -8.585   8.220  69.533  1.00  0.00    -0.134 A  
ENDBRANCH  14  23
ENDBRANCH   9  13
ENDBRANCH   3   6
TORSDOF 3
ENDMDL
MODEL       37
REMARK 921   NORMALIZED FREE ENERGY PREDICTED BY IDOCK:   -6.01 KCAL/MOL
REMARK 922        TOTAL FREE ENERGY PREDICTED BY IDOCK:   -8.19 KCAL/MOL
REMARK 923 INTER-LIGAND FREE ENERGY PREDICTED BY IDOCK:   -7.26 KCAL/MOL
REMARK 924 INTRA-LIGAND FREE ENERGY PREDICTED BY IDOCK:   -0.92 KCAL/MOL
REMARK 927      BINDING AFFINITY PREDICTED BY RF-SCORE:    0.00 PKD
ROOT
HETATM    1  C   UNL     1      -5.989  19.739  64.511  1.00  0.00    -0.265 C  
HETATM    2  N   UNL     1      -6.517  18.520  65.065  1.00  0.00    -0.134 N  
HETATM    3  C   UNL     1      -7.444  18.536  66.083  1.00  0.00    -0.248 C  
HETATM    4  H   UNL     1      -6.197  17.625  64.694  1.00  0.00     0.000 HD 
HETATM    5  O   UNL     1      -7.926  19.567  66.540  1.00  0.00    -0.270 OA 
ENDROOT
BRANCH   3   6
HETATM    6  C   UNL     1      -7.849  17.224  66.647  1.00  0.00    -0.295 A  
HETATM    7  C   UNL     1      -8.796  16.452  65.971  1.00  0.00    -0.296 A  
HETATM    8  C   UNL     1      -9.305  15.280  66.552  1.00  0.00    -0.309 A  
HETATM    9  C   UNL     1      -8.874  14.841  67.816  1.00  0.00    -0.175 A  
HETATM   10  C   UNL     1      -7.837  15.560  68.411  1.00  0.00    -0.126 A  
HETATM   11  F   UNL     1      -6.429  17.426  68.546  1.00  0.00    -0.159 F  
HETATM   12  C   UNL     1      -7.360  16.747  67.855  1.00  0.00    -0.159 A  
BRANCH   9  13
HETATM   13  N   UNL     1      -9.512  13.751  68.490  1.00  0.00    -0.196 N  
HETATM   14  N   UNL     1     -10.089  11.521  68.620  1.00  0.00    -0.214 N  
HETATM   15  S   UNL     1      -7.373  12.044  68.763  1.00  0.00    -0.068 S  
HETATM   16  C   UNL     1      -9.000  12.416  68.544  1.00  0.00    -0.058 C  
HETATM   17  C   UNL     1     -11.209  12.179  69.109  1.00  0.00    -0.244 C  
HETATM   18  C   UNL     1     -11.327  14.663  70.115  1.00  0.00    -0.273 C  
HETATM   19  C   UNL     1     -12.140  15.541  69.135  1.00  0.00    -0.266 C  
HETATM   20  O   UNL     1     -12.220  11.677  69.592  1.00  0.00    -0.273 OA 
HETATM   21  C   UNL     1     -10.951  13.729  68.941  1.00  0.00    -0.252 C  
HETATM   22  C   UNL     1     -12.058  14.415  68.098  1.00  0.00    -0.258 C  
BRANCH  14  23
HETATM   23  C   UNL     1     -10.106  10.146  68.179  1.00  0.00    -0.152 A  
HETATM   24  C   UNL     1     -10.134   9.061  69.070  1.00  0.00    -0.204 A  
HETATM   25  C   UNL     1     -10.319   7.496  67.263  1.00  0.00    -0.296 A  
HETATM   26  C   UNL     1     -10.289   6.576  69.591  1.00  0.00    -0.196 C  
HETATM   27  F   UNL     1     -11.433   5.849  69.469  1.00  0.00    -0.464 F  
HETATM   28  F   UNL     1     -10.241   6.966  70.892  1.00  0.00    -0.198 F  
HETATM   29  F   UNL     1      -9.260   5.708  69.423  1.00  0.00    -0.116 F  
HETATM   30  C   UNL     1     -10.403   6.177  66.691  1.00  0.00    -0.187 C  
HETATM   31  N   UNL     1     -10.330   8.507  66.364  1.00  0.00    -0.161 NA 
HETATM   32  C   UNL     1     -10.242   7.723  68.625  1.00  0.00    -0.217 A  
HETATM   33  N   UNL     1     -10.468   5.097  66.263  1.00  0.00    -0.290 NA 
HETATM   34  C   UNL     1     -10.241   9.780  66.838  1.00  0.00    -0.245 A  
ENDBRANCH  14  23
ENDBRANCH   9  13
ENDBRANCH   3   6
TORSDOF 3
ENDMDL
MODEL       38
REMARK 921   NORMALIZED FREE ENERGY PREDICTED BY IDOCK:   -5.98 KCAL/MOL
REMARK 922        TOTAL FREE ENERGY PREDICTED BY IDOCK:   -8.15 KCAL/MOL
REMARK 923 INTER-LIGAND FREE ENERGY PREDICTED BY IDOCK:   -7.69 KCAL/MOL
REMARK 924 INTRA-LIGAND FREE ENERGY PREDICTED BY IDOCK:   -0.45 KCAL/MOL
REMARK 927      BINDING AFFINITY PREDICTED BY RF-SCORE:    0.00 PKD
ROOT
HETATM    1  C   UNL     1     -10.926   2.019  74.481  1.00  0.00     0.018 C  
HETATM    2  N   UNL     1     -10.625   2.775  73.293  1.00  0.00    -0.153 N  
HETATM    3  C   UNL     1     -10.586   4.151  73.310  1.00  0.00    -0.189 C  
HETATM    4  H   UNL     1     -10.438   2.281  72.421  1.00  0.00     0.000 HD 
HETATM    5  O   UNL     1     -10.736   4.819  74.327  1.00  0.00    -0.289 OA 
ENDROOT
BRANCH   3   6
HETATM    6  C   UNL     1     -10.363   4.835  72.011  1.00  0.00    -0.247 A  
HETATM    7  C   UNL     1      -9.170   4.617  71.318  1.00  0.00    -0.191 A  
HETATM    8  C   UNL     1      -8.870   5.360  70.165  1.00  0.00    -0.142 A  
HETATM    9  C   UNL     1      -9.757   6.329  69.666  1.00  0.00    -0.152 A  
HETATM   10  C   UNL     1     -10.994   6.436  70.302  1.00  0.00    -0.378 A  
HETATM   11  F   UNL     1     -12.455   5.968  72.070  1.00  0.00    -0.362 F  
HETATM   12  C   UNL     1     -11.277   5.730  71.471  1.00  0.00    -0.175 A  
BRANCH   9  13
HETATM   13  N   UNL     1      -9.384   7.209  68.600  1.00  0.00    -0.135 N  
HETATM   14  N   UNL     1      -9.744   9.100  67.328  1.00  0.00    -0.163 N  
HETATM   15  S   UNL     1      -9.155   9.570  69.993  1.00  0.00    -0.240 S  
HETATM   16  C   UNL     1      -9.511   8.634  68.640  1.00  0.00    -0.142 C  
HETATM   17  C   UNL     1      -9.292   8.165  66.406  1.00  0.00    -0.210 C  
HETATM   18  C   UNL     1      -7.868   5.946  66.905  1.00  0.00    -0.101 C  
HETATM   19  C   UNL     1      -8.766   4.722  66.610  1.00  0.00    -0.111 C  
HETATM   20  O   UNL     1      -9.045   8.346  65.218  1.00  0.00    -0.080 OA 
HETATM   21  C   UNL     1      -9.135   6.792  67.173  1.00  0.00    -0.126 C  
HETATM   22  C   UNL     1      -9.974   5.662  66.519  1.00  0.00    -0.210 C  
BRANCH  14  23
HETATM   23  C   UNL     1     -10.430  10.314  66.954  1.00  0.00    -0.229 A  
HETATM   24  C   UNL     1     -10.269  10.924  65.699  1.00  0.00    -0.323 A  
HETATM   25  C   UNL     1     -11.926  12.578  66.215  1.00  0.00    -0.343 A  
HETATM   26  C   UNL     1     -10.843  12.690  63.960  1.00  0.00    -0.415 C  
HETATM   27  F   UNL     1     -12.003  12.698  63.248  1.00  0.00    -0.519 F  
HETATM   28  F   UNL     1      -9.939  12.045  63.178  1.00  0.00    -0.403 F  
HETATM   29  F   UNL     1     -10.423  13.978  64.032  1.00  0.00    -0.240 F  
HETATM   30  C   UNL     1     -12.721  13.748  65.945  1.00  0.00    -0.401 C  
HETATM   31  N   UNL     1     -12.144  12.009  67.423  1.00  0.00    -0.520 NA 
HETATM   32  C   UNL     1     -11.014  12.062  65.312  1.00  0.00    -0.356 A  
HETATM   33  N   UNL     1     -13.345  14.697  65.694  1.00  0.00     0.076 NA 
HETATM   34  C   UNL     1     -11.416  10.905  67.747  1.00  0.00    -0.243 A  
ENDBRANCH  14  23
ENDBRANCH   9  13
ENDBRANCH   3   6
TORSDOF 3
ENDMDL
MODEL       39
REMARK 921   NORMALIZED FREE ENERGY PREDICTED BY IDOCK:   -5.97 KCAL/MOL
REMARK 922        TOTAL FREE ENERGY PREDICTED BY IDOCK:   -8.13 KCAL/MOL
REMARK 923 INTER-LIGAND FREE ENERGY PREDICTED BY IDOCK:   -6.88 KCAL/MOL
REMARK 924 INTRA-LIGAND FREE ENERGY PREDICTED BY IDOCK:   -1.25 KCAL/MOL
REMARK 927      BINDING AFFINITY PREDICTED BY RF-SCORE:    0.00 PKD
ROOT
HETATM    1  C   UNL     1      -6.843   4.286  65.233  1.00  0.00    -0.053 C  
HETATM    2  N   UNL     1      -7.536   5.492  65.601  1.00  0.00    -0.076 N  
HETATM    3  C   UNL     1      -7.948   5.717  66.896  1.00  0.00    -0.102 C  
HETATM    4  H   UNL     1      -7.725   6.196  64.888  1.00  0.00     0.000 HD 
HETATM    5  O   UNL     1      -7.704   4.952  67.824  1.00  0.00    -0.082 OA 
ENDROOT
BRANCH   3   6
HETATM    6  C   UNL     1      -8.739   6.948  67.148  1.00  0.00    -0.120 A  
HETATM    7  C   UNL     1      -8.091   8.093  67.616  1.00  0.00    -0.127 A  
HETATM    8  C   UNL     1      -8.832   9.222  68.002  1.00  0.00    -0.128 A  
HETATM    9  C   UNL     1     -10.234   9.243  67.918  1.00  0.00    -0.214 A  
HETATM   10  C   UNL     1     -10.846   8.135  67.329  1.00  0.00    -0.130 A  
HETATM   11  F   UNL     1     -10.800   5.941  66.514  1.00  0.00    -0.319 F  
HETATM   12  C   UNL     1     -10.116   6.997  66.984  1.00  0.00    -0.229 A  
BRANCH   9  13
HETATM   13  N   UNL     1     -11.004  10.316  68.471  1.00  0.00    -0.242 N  
HETATM   14  N   UNL     1     -11.306  12.559  68.917  1.00  0.00    -0.277 N  
HETATM   15  S   UNL     1     -11.312  11.882  66.231  1.00  0.00    -0.288 S  
HETATM   16  C   UNL     1     -11.129  11.615  67.883  1.00  0.00    -0.247 C  
HETATM   17  C   UNL     1     -11.790  11.930  70.055  1.00  0.00    -0.328 C  
HETATM   18  C   UNL     1     -12.630   9.392  70.279  1.00  0.00     0.408 C  
HETATM   19  C   UNL     1     -11.624   8.629  71.173  1.00  0.00    -0.330 C  
HETATM   20  O   UNL     1     -12.343  12.451  71.019  1.00  0.00    -0.349 OA 
HETATM   21  C   UNL     1     -11.509  10.384  69.891  1.00  0.00    -0.297 C  
HETATM   22  C   UNL     1     -10.663   9.818  71.062  1.00  0.00    -0.342 C  
BRANCH  14  23
HETATM   23  C   UNL     1     -10.959  13.960  68.872  1.00  0.00    -0.263 A  
HETATM   24  C   UNL     1      -9.650  14.414  68.638  1.00  0.00    -0.208 A  
HETATM   25  C   UNL     1     -10.374  16.699  68.619  1.00  0.00    -0.304 A  
HETATM   26  C   UNL     1      -7.939  16.253  68.239  1.00  0.00    -0.166 C  
HETATM   27  F   UNL     1      -7.848  16.959  67.078  1.00  0.00    -0.176 F  
HETATM   28  F   UNL     1      -7.047  15.235  68.119  1.00  0.00    -0.099 F  
HETATM   29  F   UNL     1      -7.459  17.057  69.220  1.00  0.00    -0.246 F  
HETATM   30  C   UNL     1     -10.176  18.123  68.531  1.00  0.00    -0.384 C  
HETATM   31  N   UNL     1     -11.656  16.314  68.811  1.00  0.00    -0.302 NA 
HETATM   32  C   UNL     1      -9.340  15.787  68.507  1.00  0.00    -0.198 A  
HETATM   33  N   UNL     1      -9.979  19.267  68.458  1.00  0.00    -0.410 NA 
HETATM   34  C   UNL     1     -11.911  14.981  68.914  1.00  0.00    -0.254 A  
ENDBRANCH  14  23
ENDBRANCH   9  13
ENDBRANCH   3   6
TORSDOF 3
ENDMDL
MODEL       40
REMARK 921   NORMALIZED FREE ENERGY PREDICTED BY IDOCK:   -5.94 KCAL/MOL
REMARK 922        TOTAL FREE ENERGY PREDICTED BY IDOCK:   -8.10 KCAL/MOL
REMARK 923 INTER-LIGAND FREE ENERGY PREDICTED BY IDOCK:   -6.92 KCAL/MOL
REMARK 924 INTRA-LIGAND FREE ENERGY PREDICTED BY IDOCK:   -1.18 KCAL/MOL
REMARK 927      BINDING AFFINITY PREDICTED BY RF-SCORE:    0.00 PKD
ROOT
HETATM    1  C   UNL     1      -6.554  20.419  69.062  1.00  0.00    -0.191 C  
HETATM    2  N   UNL     1      -7.032  19.105  68.720  1.00  0.00    -0.307 N  
HETATM    3  C   UNL     1      -8.200  18.927  68.013  1.00  0.00    -0.293 C  
HETATM    4  H   UNL     1      -6.493  18.288  69.006  1.00  0.00     0.000 HD 
HETATM    5  O   UNL     1      -8.873  19.855  67.577  1.00  0.00    -0.318 OA 
ENDROOT
BRANCH   3   6
HETATM    6  C   UNL     1      -8.652  17.529  67.798  1.00  0.00    -0.230 A  
HETATM    7  C   UNL     1      -7.938  16.707  66.924  1.00  0.00    -0.255 A  
HETATM    8  C   UNL     1      -8.423  15.432  66.589  1.00  0.00    -0.296 A  
HETATM    9  C   UNL     1      -9.626  14.941  67.125  1.00  0.00    -0.225 A  
HETATM   10  C   UNL     1     -10.252  15.730  68.091  1.00  0.00    -0.230 A  
HETATM   11  F   UNL     1     -10.515  17.739  69.264  1.00  0.00    -0.360 F  
HETATM   12  C   UNL     1      -9.794  17.013  68.394  1.00  0.00    -0.283 A  
BRANCH   9  13
HETATM   13  N   UNL     1     -10.215  13.724  66.657  1.00  0.00    -0.271 N  
HETATM   14  N   UNL     1     -10.026  11.557  65.888  1.00  0.00    -0.221 N  
HETATM   15  S   UNL     1      -9.185  11.958  68.496  1.00  0.00    -0.079 S  
HETATM   16  C   UNL     1      -9.735  12.413  66.972  1.00  0.00    -0.211 C  
HETATM   17  C   UNL     1     -11.066  12.082  65.134  1.00  0.00    -0.318 C  
HETATM   18  C   UNL     1     -12.601  14.200  65.734  1.00  0.00    -0.475 C  
HETATM   19  C   UNL     1     -12.273  15.331  64.730  1.00  0.00    -0.049 C  
HETATM   20  O   UNL     1     -11.779  11.491  64.328  1.00  0.00    -0.229 OA 
HETATM   21  C   UNL     1     -11.187  13.613  65.509  1.00  0.00    -0.293 C  
HETATM   22  C   UNL     1     -11.053  14.529  64.264  1.00  0.00    -0.024 C  
BRANCH  14  23
HETATM   23  C   UNL     1      -9.312  10.356  65.524  1.00  0.00    -0.197 A  
HETATM   24  C   UNL     1      -9.472   9.139  66.207  1.00  0.00    -0.299 A  
HETATM   25  C   UNL     1      -8.031   8.005  64.662  1.00  0.00    -0.151 A  
HETATM   26  C   UNL     1      -9.033   6.652  66.515  1.00  0.00    -0.145 C  
HETATM   27  F   UNL     1      -9.561   5.687  65.713  1.00  0.00    -0.171 F  
HETATM   28  F   UNL     1      -9.880   6.754  67.573  1.00  0.00    -0.127 F  
HETATM   29  F   UNL     1      -7.874   6.151  67.012  1.00  0.00    -0.096 F  
HETATM   30  C   UNL     1      -7.310   6.866  64.155  1.00  0.00    -0.086 C  
HETATM   31  N   UNL     1      -7.869   9.144  63.950  1.00  0.00    -0.122 NA 
HETATM   32  C   UNL     1      -8.836   7.948  65.786  1.00  0.00    -0.155 A  
HETATM   33  N   UNL     1      -6.740   5.926  63.774  1.00  0.00    -0.036 NA 
HETATM   34  C   UNL     1      -8.514  10.262  64.382  1.00  0.00    -0.179 A  
ENDBRANCH  14  23
ENDBRANCH   9  13
ENDBRANCH   3   6
TORSDOF 3
ENDMDL
MODEL       41
REMARK 921   NORMALIZED FREE ENERGY PREDICTED BY IDOCK:   -5.93 KCAL/MOL
REMARK 922        TOTAL FREE ENERGY PREDICTED BY IDOCK:   -8.09 KCAL/MOL
REMARK 923 INTER-LIGAND FREE ENERGY PREDICTED BY IDOCK:   -7.40 KCAL/MOL
REMARK 924 INTRA-LIGAND FREE ENERGY PREDICTED BY IDOCK:   -0.70 KCAL/MOL
REMARK 927      BINDING AFFINITY PREDICTED BY RF-SCORE:    0.00 PKD
ROOT
HETATM    1  C   UNL     1      -5.933   5.507  65.959  1.00  0.00    -0.022 C  
HETATM    2  N   UNL     1      -6.755   6.672  66.155  1.00  0.00    -0.048 N  
HETATM    3  C   UNL     1      -7.793   6.971  65.301  1.00  0.00    -0.121 C  
HETATM    4  H   UNL     1      -6.563   7.290  66.943  1.00  0.00     0.000 HD 
HETATM    5  O   UNL     1      -8.129   6.248  64.369  1.00  0.00    -0.124 OA 
ENDROOT
BRANCH   3   6
HETATM    6  C   UNL     1      -8.514   8.247  65.537  1.00  0.00    -0.177 A  
HETATM    7  C   UNL     1      -7.900   9.453  65.194  1.00  0.00    -0.110 A  
HETATM    8  C   UNL     1      -8.494  10.678  65.539  1.00  0.00    -0.177 A  
HETATM    9  C   UNL     1      -9.721  10.731  66.223  1.00  0.00    -0.205 A  
HETATM   10  C   UNL     1     -10.373   9.517  66.440  1.00  0.00    -0.243 A  
HETATM   11  F   UNL     1     -10.425   7.176  66.469  1.00  0.00    -0.302 F  
HETATM   12  C   UNL     1      -9.765   8.298  66.135  1.00  0.00    -0.119 A  
BRANCH   9  13
HETATM   13  N   UNL     1     -10.244  11.962  66.732  1.00  0.00    -0.204 N  
HETATM   14  N   UNL     1     -10.135  14.254  66.968  1.00  0.00    -0.257 N  
HETATM   15  S   UNL     1     -10.548  13.357  64.381  1.00  0.00    -0.332 S  
HETATM   16  C   UNL     1     -10.226  13.207  66.026  1.00  0.00    -0.286 C  
HETATM   17  C   UNL     1     -10.583  13.818  68.207  1.00  0.00    -0.255 C  
HETATM   18  C   UNL     1     -11.785  11.486  68.773  1.00  0.00    -0.397 C  
HETATM   19  C   UNL     1     -10.819  10.646  69.642  1.00  0.00    -0.318 C  
HETATM   20  O   UNL     1     -10.936  14.507  69.160  1.00  0.00    -0.252 OA 
HETATM   21  C   UNL     1     -10.570  12.238  68.178  1.00  0.00    -0.214 C  
HETATM   22  C   UNL     1      -9.700  11.642  69.316  1.00  0.00     0.330 C  
BRANCH  14  23
HETATM   23  C   UNL     1      -9.578  15.568  66.745  1.00  0.00    -0.235 A  
HETATM   24  C   UNL     1     -10.300  16.751  66.975  1.00  0.00    -0.300 A  
HETATM   25  C   UNL     1      -8.385  18.099  66.462  1.00  0.00    -0.265 A  
HETATM   26  C   UNL     1     -10.495  19.283  67.106  1.00  0.00    -0.457 C  
HETATM   27  F   UNL     1      -9.937  20.033  68.097  1.00  0.00    -0.460 F  
HETATM   28  F   UNL     1     -11.773  19.047  67.502  1.00  0.00     0.034 F  
HETATM   29  F   UNL     1     -10.584  20.087  66.017  1.00  0.00    -0.533 F  
HETATM   30  C   UNL     1      -7.689  19.344  66.264  1.00  0.00    -0.297 C  
HETATM   31  N   UNL     1      -7.636  16.991  66.261  1.00  0.00    -0.307 NA 
HETATM   32  C   UNL     1      -9.715  18.030  66.838  1.00  0.00    -0.314 A  
HETATM   33  N   UNL     1      -7.159  20.368  66.111  1.00  0.00    -0.257 NA 
HETATM   34  C   UNL     1      -8.236  15.780  66.420  1.00  0.00    -0.171 A  
ENDBRANCH  14  23
ENDBRANCH   9  13
ENDBRANCH   3   6
TORSDOF 3
ENDMDL
MODEL       42
REMARK 921   NORMALIZED FREE ENERGY PREDICTED BY IDOCK:   -5.86 KCAL/MOL
REMARK 922        TOTAL FREE ENERGY PREDICTED BY IDOCK:   -8.01 KCAL/MOL
REMARK 923 INTER-LIGAND FREE ENERGY PREDICTED BY IDOCK:   -7.69 KCAL/MOL
REMARK 924 INTRA-LIGAND FREE ENERGY PREDICTED BY IDOCK:   -0.32 KCAL/MOL
REMARK 927      BINDING AFFINITY PREDICTED BY RF-SCORE:    0.00 PKD
ROOT
HETATM    1  C   UNL     1      -6.426  18.675  66.653  1.00  0.00    -0.186 C  
HETATM    2  N   UNL     1      -6.874  17.311  66.559  1.00  0.00    -0.232 N  
HETATM    3  C   UNL     1      -8.214  16.993  66.573  1.00  0.00    -0.279 C  
HETATM    4  H   UNL     1      -6.185  16.564  66.481  1.00  0.00     0.000 HD 
HETATM    5  O   UNL     1      -9.107  17.833  66.600  1.00  0.00    -0.252 OA 
ENDROOT
BRANCH   3   6
HETATM    6  C   UNL     1      -8.565  15.550  66.569  1.00  0.00    -0.320 A  
HETATM    7  C   UNL     1      -9.567  15.092  65.712  1.00  0.00    -0.327 A  
HETATM    8  C   UNL     1     -10.020  13.765  65.791  1.00  0.00    -0.293 A  
HETATM    9  C   UNL     1      -9.477  12.858  66.717  1.00  0.00    -0.245 A  
HETATM   10  C   UNL     1      -8.392  13.305  67.472  1.00  0.00    -0.186 A  
HETATM   11  F   UNL     1      -6.980  15.000  68.258  1.00  0.00    -0.097 F  
HETATM   12  C   UNL     1      -7.968  14.634  67.425  1.00  0.00    -0.201 A  
BRANCH   9  13
HETATM   13  N   UNL     1     -10.050  11.563  66.924  1.00  0.00    -0.209 N  
HETATM   14  N   UNL     1     -10.535   9.769  68.290  1.00  0.00    -0.205 N  
HETATM   15  S   UNL     1     -11.797  12.138  68.969  1.00  0.00    -0.278 S  
HETATM   16  C   UNL     1     -10.730  11.156  68.116  1.00  0.00    -0.204 C  
HETATM   17  C   UNL     1     -10.213   9.179  67.076  1.00  0.00    -0.263 C  
HETATM   18  C   UNL     1     -10.263  10.321  64.648  1.00  0.00    -0.204 C  
HETATM   19  C   UNL     1      -8.805  10.444  64.144  1.00  0.00    -0.228 C  
HETATM   20  O   UNL     1     -10.277   7.989  66.782  1.00  0.00    -0.279 OA 
HETATM   21  C   UNL     1      -9.743  10.334  66.105  1.00  0.00    -0.211 C  
HETATM   22  C   UNL     1      -8.315  10.086  65.552  1.00  0.00    -0.151 C  
BRANCH  14  23
HETATM   23  C   UNL     1     -10.563   9.046  69.539  1.00  0.00    -0.225 A  
HETATM   24  C   UNL     1     -10.473   7.646  69.612  1.00  0.00    -0.235 A  
HETATM   25  C   UNL     1     -10.444   7.703  72.008  1.00  0.00    -0.213 A  
HETATM   26  C   UNL     1     -10.297   5.461  70.903  1.00  0.00    -0.242 C  
HETATM   27  F   UNL     1      -9.171   5.059  71.554  1.00  0.00    -0.146 F  
HETATM   28  F   UNL     1     -10.239   4.878  69.678  1.00  0.00    -0.279 F  
HETATM   29  F   UNL     1     -11.342   4.882  71.544  1.00  0.00     0.023 F  
HETATM   30  C   UNL     1     -10.416   7.112  73.321  1.00  0.00    -0.349 C  
HETATM   31  N   UNL     1     -10.497   9.055  71.994  1.00  0.00    -0.321 NA 
HETATM   32  C   UNL     1     -10.411   6.956  70.844  1.00  0.00    -0.233 A  
HETATM   33  N   UNL     1     -10.394   6.600  74.366  1.00  0.00    -0.300 NA 
HETATM   34  C   UNL     1     -10.538   9.678  70.785  1.00  0.00    -0.322 A  
ENDBRANCH  14  23
ENDBRANCH   9  13
ENDBRANCH   3   6
TORSDOF 3
ENDMDL
MODEL       43
REMARK 921   NORMALIZED FREE ENERGY PREDICTED BY IDOCK:   -5.84 KCAL/MOL
REMARK 922        TOTAL FREE ENERGY PREDICTED BY IDOCK:   -7.98 KCAL/MOL
REMARK 923 INTER-LIGAND FREE ENERGY PREDICTED BY IDOCK:   -7.02 KCAL/MOL
REMARK 924 INTRA-LIGAND FREE ENERGY PREDICTED BY IDOCK:   -0.96 KCAL/MOL
REMARK 927      BINDING AFFINITY PREDICTED BY RF-SCORE:    0.00 PKD
ROOT
HETATM    1  C   UNL     1      -7.985  20.584  65.774  1.00  0.00     0.228 C  
HETATM    2  N   UNL     1      -8.473  19.385  66.403  1.00  0.00    -0.335 N  
HETATM    3  C   UNL     1      -9.763  18.945  66.206  1.00  0.00    -0.344 C  
HETATM    4  H   UNL     1      -7.850  18.851  67.008  1.00  0.00     0.000 HD 
HETATM    5  O   UNL     1     -10.554  19.492  65.445  1.00  0.00    -0.467 OA 
ENDROOT
BRANCH   3   6
HETATM    6  C   UNL     1     -10.194  17.753  66.978  1.00  0.00    -0.346 A  
HETATM    7  C   UNL     1     -10.118  17.777  68.373  1.00  0.00    -0.376 A  
HETATM    8  C   UNL     1     -10.378  16.617  69.120  1.00  0.00    -0.326 A  
HETATM    9  C   UNL     1     -10.734  15.408  68.498  1.00  0.00    -0.256 A  
HETATM   10  C   UNL     1     -10.926  15.445  67.116  1.00  0.00    -0.317 A  
HETATM   11  F   UNL     1     -10.749  16.499  65.033  1.00  0.00    -0.388 F  
HETATM   12  C   UNL     1     -10.627  16.584  66.368  1.00  0.00    -0.221 A  
BRANCH   9  13
HETATM   13  N   UNL     1     -10.828  14.184  69.234  1.00  0.00    -0.226 N  
HETATM   14  N   UNL     1     -10.845  11.879  69.320  1.00  0.00    -0.160 N  
HETATM   15  S   UNL     1      -8.450  13.009  68.509  1.00  0.00     0.021 S  
HETATM   16  C   UNL     1     -10.075  13.002  68.947  1.00  0.00     0.046 C  
HETATM   17  C   UNL     1     -11.800  12.249  70.257  1.00  0.00    -0.240 C  
HETATM   18  C   UNL     1     -12.023  14.614  71.505  1.00  0.00    -0.400 C  
HETATM   19  C   UNL     1     -13.311  15.306  70.998  1.00  0.00    -0.537 C  
HETATM   20  O   UNL     1     -12.422  11.516  71.020  1.00  0.00    -0.380 OA 
HETATM   21  C   UNL     1     -11.946  13.820  70.179  1.00  0.00    -0.334 C  
HETATM   22  C   UNL     1     -13.406  14.255  69.885  1.00  0.00     0.980 C  
BRANCH  14  23
HETATM   23  C   UNL     1     -10.752  10.549  68.766  1.00  0.00    -0.216 A  
HETATM   24  C   UNL     1     -10.679   9.395  69.564  1.00  0.00    -0.238 A  
HETATM   25  C   UNL     1     -10.751   7.974  67.635  1.00  0.00    -0.132 A  
HETATM   26  C   UNL     1     -10.619   6.872  69.880  1.00  0.00    -0.228 C  
HETATM   27  F   UNL     1     -11.700   6.063  69.701  1.00  0.00    -0.477 F  
HETATM   28  F   UNL     1     -10.590   7.156  71.208  1.00  0.00    -0.215 F  
HETATM   29  F   UNL     1      -9.523   6.111  69.637  1.00  0.00    -0.141 F  
HETATM   30  C   UNL     1     -10.730   6.704  66.956  1.00  0.00    -0.366 C  
HETATM   31  N   UNL     1     -10.856   9.051  66.824  1.00  0.00    -0.022 NA 
HETATM   32  C   UNL     1     -10.679   8.094  69.012  1.00  0.00    -0.099 A  
HETATM   33  N   UNL     1     -10.708   5.661  66.441  1.00  0.00    -0.228 NA 
HETATM   34  C   UNL     1     -10.869  10.283  67.400  1.00  0.00    -0.277 A  
ENDBRANCH  14  23
ENDBRANCH   9  13
ENDBRANCH   3   6
TORSDOF 3
ENDMDL
MODEL       44
REMARK 921   NORMALIZED FREE ENERGY PREDICTED BY IDOCK:   -5.83 KCAL/MOL
REMARK 922        TOTAL FREE ENERGY PREDICTED BY IDOCK:   -7.98 KCAL/MOL
REMARK 923 INTER-LIGAND FREE ENERGY PREDICTED BY IDOCK:   -6.86 KCAL/MOL
REMARK 924 INTRA-LIGAND FREE ENERGY PREDICTED BY IDOCK:   -1.11 KCAL/MOL
REMARK 927      BINDING AFFINITY PREDICTED BY RF-SCORE:    0.00 PKD
ROOT
HETATM    1  C   UNL     1     -12.380  14.746  64.239  1.00  0.00    -0.320 C  
HETATM    2  N   UNL     1     -11.970  13.434  64.667  1.00  0.00    -0.381 N  
HETATM    3  C   UNL     1     -11.303  13.243  65.856  1.00  0.00    -0.311 C  
HETATM    4  H   UNL     1     -12.179  12.629  64.076  1.00  0.00     0.000 HD 
HETATM    5  O   UNL     1     -11.070  14.146  66.652  1.00  0.00    -0.302 OA 
ENDROOT
BRANCH   3   6
HETATM    6  C   UNL     1     -10.840  11.864  66.155  1.00  0.00    -0.334 A  
HETATM    7  C   UNL     1     -11.080  11.321  67.419  1.00  0.00    -0.358 A  
HETATM    8  C   UNL     1     -10.528  10.081  67.777  1.00  0.00    -0.282 A  
HETATM    9  C   UNL     1      -9.734   9.345  66.881  1.00  0.00    -0.186 A  
HETATM   10  C   UNL     1      -9.615   9.849  65.586  1.00  0.00    -0.320 A  
HETATM   11  F   UNL     1      -9.883  11.550  63.999  1.00  0.00    -0.246 F  
HETATM   12  C   UNL     1     -10.128  11.100  65.240  1.00  0.00    -0.276 A  
BRANCH   9  13
HETATM   13  N   UNL     1      -9.025   8.172  67.295  1.00  0.00    -0.136 N  
HETATM   14  N   UNL     1      -8.779   6.353  68.692  1.00  0.00    -0.122 N  
HETATM   15  S   UNL     1     -11.035   6.305  67.087  1.00  0.00    -0.319 S  
HETATM   16  C   UNL     1      -9.645   6.970  67.765  1.00  0.00    -0.123 C  
HETATM   17  C   UNL     1      -7.477   6.788  68.488  1.00  0.00    -0.092 C  
HETATM   18  C   UNL     1      -6.564   8.291  66.461  1.00  0.00    -0.056 C  
HETATM   19  C   UNL     1      -6.160   9.672  67.030  1.00  0.00    -0.063 C  
HETATM   20  O   UNL     1      -6.441   6.257  68.878  1.00  0.00    -0.039 OA 
HETATM   21  C   UNL     1      -7.557   8.116  67.634  1.00  0.00    -0.098 C  
HETATM   22  C   UNL     1      -6.860   9.307  68.344  1.00  0.00    -0.063 C  
BRANCH  14  23
HETATM   23  C   UNL     1      -9.159   5.470  69.770  1.00  0.00    -0.132 A  
HETATM   24  C   UNL     1      -9.912   5.899  70.876  1.00  0.00    -0.238 A  
HETATM   25  C   UNL     1     -10.022   3.669  71.750  1.00  0.00    -0.140 A  
HETATM   26  C   UNL     1     -11.173   5.477  73.044  1.00  0.00    -0.293 C  
HETATM   27  F   UNL     1     -12.383   4.856  73.105  1.00  0.00    -0.335 F  
HETATM   28  F   UNL     1     -11.446   6.807  73.007  1.00  0.00    -0.249 F  
HETATM   29  F   UNL     1     -10.564   5.254  74.236  1.00  0.00    -0.265 F  
HETATM   30  C   UNL     1     -10.392   2.671  72.721  1.00  0.00    -0.154 C  
HETATM   31  N   UNL     1      -9.328   3.199  70.688  1.00  0.00    -0.143 NA 
HETATM   32  C   UNL     1     -10.354   5.006  71.879  1.00  0.00    -0.270 A  
HETATM   33  N   UNL     1     -10.705   1.893  73.527  1.00  0.00    -0.121 NA 
HETATM   34  C   UNL     1      -8.937   4.092  69.738  1.00  0.00    -0.100 A  
ENDBRANCH  14  23
ENDBRANCH   9  13
ENDBRANCH   3   6
TORSDOF 3
ENDMDL
MODEL       45
REMARK 921   NORMALIZED FREE ENERGY PREDICTED BY IDOCK:   -5.83 KCAL/MOL
REMARK 922        TOTAL FREE ENERGY PREDICTED BY IDOCK:   -7.97 KCAL/MOL
REMARK 923 INTER-LIGAND FREE ENERGY PREDICTED BY IDOCK:   -6.68 KCAL/MOL
REMARK 924 INTRA-LIGAND FREE ENERGY PREDICTED BY IDOCK:   -1.29 KCAL/MOL
REMARK 927      BINDING AFFINITY PREDICTED BY RF-SCORE:    0.00 PKD
ROOT
HETATM    1  C   UNL     1      -5.171   2.236  70.422  1.00  0.00    -0.004 C  
HETATM    2  N   UNL     1      -6.200   3.243  70.428  1.00  0.00    -0.023 N  
HETATM    3  C   UNL     1      -6.218   4.256  69.496  1.00  0.00    -0.027 C  
HETATM    4  H   UNL     1      -6.931   3.205  71.138  1.00  0.00     0.000 HD 
HETATM    5  O   UNL     1      -5.415   4.338  68.573  1.00  0.00    -0.011 OA 
ENDROOT
BRANCH   3   6
HETATM    6  C   UNL     1      -7.265   5.297  69.651  1.00  0.00    -0.060 A  
HETATM    7  C   UNL     1      -8.610   4.920  69.650  1.00  0.00    -0.098 A  
HETATM    8  C   UNL     1      -9.622   5.893  69.648  1.00  0.00    -0.183 A  
HETATM    9  C   UNL     1      -9.320   7.265  69.659  1.00  0.00    -0.153 A  
HETATM   10  C   UNL     1      -7.975   7.612  69.788  1.00  0.00    -0.116 A  
HETATM   11  F   UNL     1      -5.695   7.081  69.781  1.00  0.00    -0.020 F  
HETATM   12  C   UNL     1      -6.966   6.649  69.749  1.00  0.00    -0.066 A  
BRANCH   9  13
HETATM   13  N   UNL     1     -10.335   8.258  69.479  1.00  0.00    -0.215 N  
HETATM   14  N   UNL     1     -11.024  10.320  68.707  1.00  0.00    -0.236 N  
HETATM   15  S   UNL     1     -10.260   8.524  66.743  1.00  0.00    -0.270 S  
HETATM   16  C   UNL     1     -10.470   9.082  68.316  1.00  0.00    -0.200 C  
HETATM   17  C   UNL     1     -11.698  10.180  69.912  1.00  0.00    -0.179 C  
HETATM   18  C   UNL     1     -12.237   7.897  71.217  1.00  0.00    -0.314 C  
HETATM   19  C   UNL     1     -11.403   7.880  72.520  1.00  0.00    -0.449 C  
HETATM   20  O   UNL     1     -12.540  10.933  70.390  1.00  0.00    -0.320 OA 
HETATM   21  C   UNL     1     -11.190   8.839  70.578  1.00  0.00    -0.247 C  
HETATM   22  C   UNL     1     -10.605   9.079  71.995  1.00  0.00    -0.321 C  
BRANCH  14  23
HETATM   23  C   UNL     1     -10.858  11.588  68.035  1.00  0.00    -0.213 A  
HETATM   24  C   UNL     1      -9.807  12.473  68.328  1.00  0.00    -0.227 A  
HETATM   25  C   UNL     1     -10.483  13.960  66.573  1.00  0.00    -0.282 A  
HETATM   26  C   UNL     1      -8.466  14.594  67.914  1.00  0.00    -0.158 C  
HETATM   27  F   UNL     1      -7.638  14.768  66.848  1.00  0.00    -0.205 F  
HETATM   28  F   UNL     1      -7.673  14.150  68.924  1.00  0.00    -0.128 F  
HETATM   29  F   UNL     1      -8.883  15.831  68.285  1.00  0.00    -0.170 F  
HETATM   30  C   UNL     1     -10.394  15.161  65.782  1.00  0.00    -0.339 C  
HETATM   31  N   UNL     1     -11.490  13.127  66.229  1.00  0.00    -0.320 NA 
HETATM   32  C   UNL     1      -9.604  13.669  67.601  1.00  0.00    -0.221 A  
HETATM   33  N   UNL     1     -10.294  16.142  65.165  1.00  0.00    -0.584 NA 
HETATM   34  C   UNL     1     -11.638  11.978  66.945  1.00  0.00    -0.318 A  
ENDBRANCH  14  23
ENDBRANCH   9  13
ENDBRANCH   3   6
TORSDOF 3
ENDMDL
MODEL       46
REMARK 921   NORMALIZED FREE ENERGY PREDICTED BY IDOCK:   -5.80 KCAL/MOL
REMARK 922        TOTAL FREE ENERGY PREDICTED BY IDOCK:   -7.94 KCAL/MOL
REMARK 923 INTER-LIGAND FREE ENERGY PREDICTED BY IDOCK:   -7.86 KCAL/MOL
REMARK 924 INTRA-LIGAND FREE ENERGY PREDICTED BY IDOCK:   -0.08 KCAL/MOL
REMARK 927      BINDING AFFINITY PREDICTED BY RF-SCORE:    0.00 PKD
ROOT
HETATM    1  C   UNL     1     -10.617  19.295  65.868  1.00  0.00    -0.435 C  
HETATM    2  N   UNL     1     -10.265  17.967  66.299  1.00  0.00    -0.380 N  
HETATM    3  C   UNL     1     -10.643  16.855  65.580  1.00  0.00    -0.221 C  
HETATM    4  H   UNL     1      -9.724  17.848  67.155  1.00  0.00     0.000 HD 
HETATM    5  O   UNL     1     -11.238  16.914  64.510  1.00  0.00    -1.057 OA 
ENDROOT
BRANCH   3   6
HETATM    6  C   UNL     1     -10.312  15.531  66.164  1.00  0.00    -0.327 A  
HETATM    7  C   UNL     1      -9.874  15.457  67.488  1.00  0.00    -0.217 A  
HETATM    8  C   UNL     1      -9.415  14.240  68.019  1.00  0.00    -0.204 A  
HETATM    9  C   UNL     1      -9.394  13.065  67.249  1.00  0.00    -0.220 A  
HETATM   10  C   UNL     1      -9.955  13.139  65.973  1.00  0.00    -0.283 A  
HETATM   11  F   UNL     1     -10.808  14.349  64.159  1.00  0.00    -0.273 F  
HETATM   12  C   UNL     1     -10.372  14.355  65.429  1.00  0.00    -0.378 A  
BRANCH   9  13
HETATM   13  N   UNL     1      -8.768  11.868  67.722  1.00  0.00    -0.151 N  
HETATM   14  N   UNL     1      -8.669  10.087  69.185  1.00  0.00    -0.155 N  
HETATM   15  S   UNL     1     -10.875  10.114  67.511  1.00  0.00    -0.251 S  
HETATM   16  C   UNL     1      -9.470  10.721  68.210  1.00  0.00    -0.164 C  
HETATM   17  C   UNL     1      -7.339  10.440  69.007  1.00  0.00    -0.097 C  
HETATM   18  C   UNL     1      -6.280  11.818  66.963  1.00  0.00    -0.152 C  
HETATM   19  C   UNL     1      -5.814  13.192  67.499  1.00  0.00    -0.075 C  
HETATM   20  O   UNL     1      -6.347   9.864  69.447  1.00  0.00    -0.043 OA 
HETATM   21  C   UNL     1      -7.316  11.740  68.109  1.00  0.00    -0.094 C  
HETATM   22  C   UNL     1      -6.573  12.913  68.802  1.00  0.00    -0.090 C  
BRANCH  14  23
HETATM   23  C   UNL     1      -9.132   9.265  70.278  1.00  0.00    -0.237 A  
HETATM   24  C   UNL     1     -10.044   8.210  70.104  1.00  0.00    -0.194 A  
HETATM   25  C   UNL     1      -9.862   7.584  72.411  1.00  0.00    -0.171 A  
HETATM   26  C   UNL     1     -11.381   6.222  70.959  1.00  0.00    -0.316 C  
HETATM   27  F   UNL     1     -10.827   5.018  71.269  1.00  0.00    -0.251 F  
HETATM   28  F   UNL     1     -11.809   6.108  69.675  1.00  0.00    -0.482 F  
HETATM   29  F   UNL     1     -12.499   6.340  71.717  1.00  0.00    -0.381 F  
HETATM   30  C   UNL     1     -10.189   6.798  73.573  1.00  0.00    -0.293 C  
HETATM   31  N   UNL     1      -8.955   8.564  72.624  1.00  0.00    -0.347 NA 
HETATM   32  C   UNL     1     -10.420   7.355  71.166  1.00  0.00    -0.220 A  
HETATM   33  N   UNL     1     -10.479   6.145  74.491  1.00  0.00    -0.200 NA 
HETATM   34  C   UNL     1      -8.609   9.352  71.570  1.00  0.00     0.497 A  
ENDBRANCH  14  23
ENDBRANCH   9  13
ENDBRANCH   3   6
TORSDOF 3
ENDMDL
MODEL       47
REMARK 921   NORMALIZED FREE ENERGY PREDICTED BY IDOCK:   -5.80 KCAL/MOL
REMARK 922        TOTAL FREE ENERGY PREDICTED BY IDOCK:   -7.93 KCAL/MOL
REMARK 923 INTER-LIGAND FREE ENERGY PREDICTED BY IDOCK:   -7.57 KCAL/MOL
REMARK 924 INTRA-LIGAND FREE ENERGY PREDICTED BY IDOCK:   -0.37 KCAL/MOL
REMARK 927      BINDING AFFINITY PREDICTED BY RF-SCORE:    0.00 PKD
ROOT
HETATM    1  C   UNL     1      -5.652   2.093  70.312  1.00  0.00    -0.016 C  
HETATM    2  N   UNL     1      -6.624   3.131  70.089  1.00  0.00    -0.032 N  
HETATM    3  C   UNL     1      -6.319   4.254  69.354  1.00  0.00    -0.028 C  
HETATM    4  H   UNL     1      -7.559   3.031  70.484  1.00  0.00     0.000 HD 
HETATM    5  O   UNL     1      -5.242   4.421  68.792  1.00  0.00    -0.006 OA 
ENDROOT
BRANCH   3   6
HETATM    6  C   UNL     1      -7.363   5.307  69.267  1.00  0.00    -0.058 A  
HETATM    7  C   UNL     1      -7.122   6.558  69.838  1.00  0.00    -0.068 A  
HETATM    8  C   UNL     1      -8.142   7.521  69.900  1.00  0.00    -0.129 A  
HETATM    9  C   UNL     1      -9.423   7.266  69.383  1.00  0.00    -0.154 A  
HETATM   10  C   UNL     1      -9.599   6.059  68.705  1.00  0.00    -0.148 A  
HETATM   11  F   UNL     1      -8.891   3.914  68.089  1.00  0.00    -0.102 F  
HETATM   12  C   UNL     1      -8.600   5.085  68.679  1.00  0.00    -0.093 A  
BRANCH   9  13
HETATM   13  N   UNL     1     -10.513   8.169  69.597  1.00  0.00    -0.223 N  
HETATM   14  N   UNL     1     -11.379  10.306  69.655  1.00  0.00    -0.255 N  
HETATM   15  S   UNL     1     -10.574   9.429  67.154  1.00  0.00    -0.170 S  
HETATM   16  C   UNL     1     -10.757   9.349  68.825  1.00  0.00    -0.171 C  
HETATM   17  C   UNL     1     -11.990   9.676  70.730  1.00  0.00    -0.277 C  
HETATM   18  C   UNL     1     -12.308   7.038  71.103  1.00  0.00    -0.423 C  
HETATM   19  C   UNL     1     -11.420   6.610  72.295  1.00  0.00    -0.319 C  
HETATM   20  O   UNL     1     -12.862  10.129  71.466  1.00  0.00    -0.370 OA 
HETATM   21  C   UNL     1     -11.359   8.232  70.845  1.00  0.00    -0.268 C  
HETATM   22  C   UNL     1     -10.732   7.979  72.242  1.00  0.00    -0.360 C  
BRANCH  14  23
HETATM   23  C   UNL     1     -11.334  11.741  69.498  1.00  0.00    -0.248 A  
HETATM   24  C   UNL     1     -11.962  12.625  70.391  1.00  0.00    -0.331 A  
HETATM   25  C   UNL     1     -11.062  14.529  69.245  1.00  0.00    -0.270 A  
HETATM   26  C   UNL     1     -12.498  14.957  71.252  1.00  0.00    -0.329 C  
HETATM   27  F   UNL     1     -11.598  15.748  71.900  1.00  0.00    -0.396 F  
HETATM   28  F   UNL     1     -13.187  14.312  72.228  1.00  0.00    -0.370 F  
HETATM   29  F   UNL     1     -13.386  15.791  70.656  1.00  0.00    -0.511 F  
HETATM   30  C   UNL     1     -10.882  15.938  69.012  1.00  0.00    -0.266 C  
HETATM   31  N   UNL     1     -10.410  13.721  68.378  1.00  0.00    -0.243 NA 
HETATM   32  C   UNL     1     -11.835  14.028  70.278  1.00  0.00    -0.373 A  
HETATM   33  N   UNL     1     -10.761  17.084  68.853  1.00  0.00    -0.327 NA 
HETATM   34  C   UNL     1     -10.547  12.376  68.535  1.00  0.00    -0.231 A  
ENDBRANCH  14  23
ENDBRANCH   9  13
ENDBRANCH   3   6
TORSDOF 3
ENDMDL
MODEL       48
REMARK 921   NORMALIZED FREE ENERGY PREDICTED BY IDOCK:   -5.79 KCAL/MOL
REMARK 922        TOTAL FREE ENERGY PREDICTED BY IDOCK:   -7.93 KCAL/MOL
REMARK 923 INTER-LIGAND FREE ENERGY PREDICTED BY IDOCK:   -6.87 KCAL/MOL
REMARK 924 INTRA-LIGAND FREE ENERGY PREDICTED BY IDOCK:   -1.06 KCAL/MOL
REMARK 927      BINDING AFFINITY PREDICTED BY RF-SCORE:    0.00 PKD
ROOT
HETATM    1  C   UNL     1     -11.115  16.913  68.055  1.00  0.00    -0.190 C  
HETATM    2  N   UNL     1     -11.131  15.568  68.567  1.00  0.00    -0.289 N  
HETATM    3  C   UNL     1     -11.682  14.532  67.847  1.00  0.00    -0.351 C  
HETATM    4  H   UNL     1     -10.725  15.379  69.483  1.00  0.00     0.000 HD 
HETATM    5  O   UNL     1     -12.132  14.662  66.714  1.00  0.00    -0.353 OA 
ENDROOT
BRANCH   3   6
HETATM    6  C   UNL     1     -11.733  13.204  68.509  1.00  0.00    -0.387 A  
HETATM    7  C   UNL     1     -12.012  13.130  69.875  1.00  0.00    -0.387 A  
HETATM    8  C   UNL     1     -11.922  11.905  70.556  1.00  0.00    -0.360 A  
HETATM    9  C   UNL     1     -11.566  10.720  69.889  1.00  0.00    -0.331 A  
HETATM   10  C   UNL     1     -11.417  10.799  68.503  1.00  0.00    -0.362 A  
HETATM   11  F   UNL     1     -11.214  12.015  66.513  1.00  0.00    -0.305 F  
HETATM   12  C   UNL     1     -11.465  12.022  67.833  1.00  0.00    -0.330 A  
BRANCH   9  13
HETATM   13  N   UNL     1     -11.301   9.508  70.602  1.00  0.00    -0.281 N  
HETATM   14  N   UNL     1     -10.446   7.367  70.691  1.00  0.00    -0.213 N  
HETATM   15  S   UNL     1      -8.570   9.368  70.304  1.00  0.00    -0.231 S  
HETATM   16  C   UNL     1     -10.116   8.719  70.454  1.00  0.00    -0.192 C  
HETATM   17  C   UNL     1     -11.607   7.288  71.447  1.00  0.00    -0.276 C  
HETATM   18  C   UNL     1     -12.919   9.309  72.629  1.00  0.00    -0.282 C  
HETATM   19  C   UNL     1     -14.273   9.493  71.904  1.00  0.00    -0.044 C  
HETATM   20  O   UNL     1     -12.016   6.328  72.093  1.00  0.00    -0.329 OA 
HETATM   21  C   UNL     1     -12.331   8.689  71.339  1.00  0.00    -0.304 C  
HETATM   22  C   UNL     1     -13.778   8.557  70.795  1.00  0.00     0.442 C  
BRANCH  14  23
HETATM   23  C   UNL     1      -9.761   6.209  70.167  1.00  0.00    -0.163 A  
HETATM   24  C   UNL     1      -9.977   5.720  68.868  1.00  0.00    -0.211 A  
HETATM   25  C   UNL     1      -8.271   4.057  69.138  1.00  0.00    -0.069 A  
HETATM   26  C   UNL     1      -9.466   4.143  66.939  1.00  0.00    -0.191 C  
HETATM   27  F   UNL     1      -8.343   4.226  66.174  1.00  0.00    -0.107 F  
HETATM   28  F   UNL     1     -10.418   4.842  66.269  1.00  0.00    -0.246 F  
HETATM   29  F   UNL     1      -9.862   2.846  66.905  1.00  0.00    -0.082 F  
HETATM   30  C   UNL     1      -7.473   2.935  68.716  1.00  0.00    -0.048 C  
HETATM   31  N   UNL     1      -8.001   4.511  70.384  1.00  0.00    -0.059 NA 
HETATM   32  C   UNL     1      -9.235   4.640  68.336  1.00  0.00    -0.170 A  
HETATM   33  N   UNL     1      -6.848   2.027  68.344  1.00  0.00    -0.039 NA 
HETATM   34  C   UNL     1      -8.728   5.563  70.849  1.00  0.00    -0.135 A  
ENDBRANCH  14  23
ENDBRANCH   9  13
ENDBRANCH   3   6
TORSDOF 3
ENDMDL
MODEL       49
REMARK 921   NORMALIZED FREE ENERGY PREDICTED BY IDOCK:   -5.79 KCAL/MOL
REMARK 922        TOTAL FREE ENERGY PREDICTED BY IDOCK:   -7.92 KCAL/MOL
REMARK 923 INTER-LIGAND FREE ENERGY PREDICTED BY IDOCK:   -6.84 KCAL/MOL
REMARK 924 INTRA-LIGAND FREE ENERGY PREDICTED BY IDOCK:   -1.08 KCAL/MOL
REMARK 927      BINDING AFFINITY PREDICTED BY RF-SCORE:    0.00 PKD
ROOT
HETATM    1  C   UNL     1      -5.995  20.981  65.229  1.00  0.00    -0.227 C  
HETATM    2  N   UNL     1      -6.406  19.678  65.682  1.00  0.00    -0.207 N  
HETATM    3  C   UNL     1      -7.512  19.513  66.486  1.00  0.00    -0.259 C  
HETATM    4  H   UNL     1      -5.866  18.859  65.401  1.00  0.00     0.000 HD 
HETATM    5  O   UNL     1      -8.250  20.435  66.816  1.00  0.00    -0.287 OA 
ENDROOT
BRANCH   3   6
HETATM    6  C   UNL     1      -7.790  18.139  66.976  1.00  0.00    -0.238 A  
HETATM    7  C   UNL     1      -8.097  17.134  66.056  1.00  0.00    -0.183 A  
HETATM    8  C   UNL     1      -8.507  15.866  66.498  1.00  0.00    -0.348 A  
HETATM    9  C   UNL     1      -8.610  15.563  67.867  1.00  0.00    -0.155 A  
HETATM   10  C   UNL     1      -8.176  16.543  68.761  1.00  0.00    -0.248 A  
HETATM   11  F   UNL     1      -7.498  18.727  69.264  1.00  0.00    -0.306 F  
HETATM   12  C   UNL     1      -7.808  17.816  68.326  1.00  0.00    -0.279 A  
BRANCH   9  13
HETATM   13  N   UNL     1      -9.192  14.339  68.324  1.00  0.00    -0.192 N  
HETATM   14  N   UNL     1      -9.562  12.073  68.095  1.00  0.00    -0.195 N  
HETATM   15  S   UNL     1      -6.929  12.794  68.558  1.00  0.00    -0.100 S  
HETATM   16  C   UNL     1      -8.561  13.057  68.242  1.00  0.00    -0.167 C  
HETATM   17  C   UNL     1     -10.776  12.558  68.563  1.00  0.00    -0.239 C  
HETATM   18  C   UNL     1     -11.210  14.853  69.884  1.00  0.00    -0.307 C  
HETATM   19  C   UNL     1     -12.022  15.792  68.962  1.00  0.00    -0.294 C  
HETATM   20  O   UNL     1     -11.769  11.909  68.877  1.00  0.00    -0.278 OA 
HETATM   21  C   UNL     1     -10.654  14.132  68.633  1.00  0.00    -0.249 C  
HETATM   22  C   UNL     1     -11.750  14.839  67.793  1.00  0.00    -0.368 C  
BRANCH  14  23
HETATM   23  C   UNL     1      -9.414  10.780  67.470  1.00  0.00    -0.154 A  
HETATM   24  C   UNL     1      -8.781  10.602  66.228  1.00  0.00    -0.163 A  
HETATM   25  C   UNL     1      -8.995   8.219  66.384  1.00  0.00    -0.166 A  
HETATM   26  C   UNL     1      -7.869   9.149  64.350  1.00  0.00    -0.125 C  
HETATM   27  F   UNL     1      -6.740   8.396  64.460  1.00  0.00    -0.066 F  
HETATM   28  F   UNL     1      -7.473  10.323  63.793  1.00  0.00    -0.142 F  
HETATM   29  F   UNL     1      -8.651   8.541  63.424  1.00  0.00    -0.172 F  
HETATM   30  C   UNL     1      -8.853   6.869  65.905  1.00  0.00    -0.105 C  
HETATM   31  N   UNL     1      -9.579   8.333  67.599  1.00  0.00    -0.148 NA 
HETATM   32  C   UNL     1      -8.562   9.322  65.669  1.00  0.00    -0.172 A  
HETATM   33  N   UNL     1      -8.724   5.791  65.486  1.00  0.00    -0.151 NA 
HETATM   34  C   UNL     1      -9.755   9.584  68.106  1.00  0.00    -0.147 A  
ENDBRANCH  14  23
ENDBRANCH   9  13
ENDBRANCH   3   6
TORSDOF 3
ENDMDL
MODEL       50
REMARK 921   NORMALIZED FREE ENERGY PREDICTED BY IDOCK:   -5.78 KCAL/MOL
REMARK 922        TOTAL FREE ENERGY PREDICTED BY IDOCK:   -7.92 KCAL/MOL
REMARK 923 INTER-LIGAND FREE ENERGY PREDICTED BY IDOCK:   -7.09 KCAL/MOL
REMARK 924 INTRA-LIGAND FREE ENERGY PREDICTED BY IDOCK:   -0.83 KCAL/MOL
REMARK 927      BINDING AFFINITY PREDICTED BY RF-SCORE:    0.00 PKD
ROOT
HETATM    1  C   UNL     1     -10.890  20.501  65.109  1.00  0.00     0.764 C  
HETATM    2  N   UNL     1     -10.590  19.183  65.605  1.00  0.00    -0.367 N  
HETATM    3  C   UNL     1      -9.932  18.998  66.800  1.00  0.00    -0.360 C  
HETATM    4  H   UNL     1     -10.871  18.369  65.058  1.00  0.00     0.000 HD 
HETATM    5  O   UNL     1      -9.618  19.918  67.547  1.00  0.00    -0.331 OA 
ENDROOT
BRANCH   3   6
HETATM    6  C   UNL     1      -9.587  17.602  67.170  1.00  0.00    -0.278 A  
HETATM    7  C   UNL     1      -9.017  16.761  66.212  1.00  0.00    -0.325 A  
HETATM    8  C   UNL     1      -8.816  15.399  66.489  1.00  0.00    -0.347 A  
HETATM    9  C   UNL     1      -9.166  14.844  67.732  1.00  0.00    -0.186 A  
HETATM   10  C   UNL     1      -9.614  15.730  68.712  1.00  0.00    -0.216 A  
HETATM   11  F   UNL     1     -10.378  17.833  69.403  1.00  0.00    -0.352 F  
HETATM   12  C   UNL     1      -9.854  17.074  68.426  1.00  0.00    -0.283 A  
BRANCH   9  13
HETATM   13  N   UNL     1      -9.129  13.432  67.960  1.00  0.00    -0.198 N  
HETATM   14  N   UNL     1      -9.974  11.526  68.948  1.00  0.00    -0.153 N  
HETATM   15  S   UNL     1     -11.657  12.748  67.120  1.00  0.00    -0.378 S  
HETATM   16  C   UNL     1     -10.285  12.597  68.082  1.00  0.00    -0.240 C  
HETATM   17  C   UNL     1      -8.600  11.338  68.996  1.00  0.00     0.025 C  
HETATM   18  C   UNL     1      -6.742  12.522  67.464  1.00  0.00    -0.151 C  
HETATM   19  C   UNL     1      -5.909  13.467  68.362  1.00  0.00    -0.089 C  
HETATM   20  O   UNL     1      -7.994  10.342  69.379  1.00  0.00    -0.133 OA 
HETATM   21  C   UNL     1      -7.928  12.659  68.448  1.00  0.00    -0.134 C  
HETATM   22  C   UNL     1      -6.947  13.283  69.475  1.00  0.00     0.157 C  
BRANCH  14  23
HETATM   23  C   UNL     1     -10.905  10.775  69.757  1.00  0.00    -0.226 A  
HETATM   24  C   UNL     1     -10.783   9.392  69.972  1.00  0.00    -0.270 A  
HETATM   25  C   UNL     1     -12.645   9.395  71.483  1.00  0.00    -0.362 A  
HETATM   26  C   UNL     1     -11.492   7.211  71.071  1.00  0.00    -0.297 C  
HETATM   27  F   UNL     1     -11.272   6.920  72.383  1.00  0.00    -0.246 F  
HETATM   28  F   UNL     1     -10.447   6.666  70.395  1.00  0.00    -0.211 F  
HETATM   29  F   UNL     1     -12.588   6.503  70.697  1.00  0.00    -0.373 F  
HETATM   30  C   UNL     1     -13.602   8.779  72.366  1.00  0.00    -0.406 C  
HETATM   31  N   UNL     1     -12.785  10.732  71.336  1.00  0.00    -0.416 NA 
HETATM   32  C   UNL     1     -11.648   8.684  70.838  1.00  0.00    -0.307 A  
HETATM   33  N   UNL     1     -14.360   8.248  73.070  1.00  0.00    -0.042 NA 
HETATM   34  C   UNL     1     -11.919  11.376  70.506  1.00  0.00    -0.356 A  
ENDBRANCH  14  23
ENDBRANCH   9  13
ENDBRANCH   3   6
TORSDOF 3
ENDMDL
MODEL       51
REMARK 921   NORMALIZED FREE ENERGY PREDICTED BY IDOCK:   -5.78 KCAL/MOL
REMARK 922        TOTAL FREE ENERGY PREDICTED BY IDOCK:   -7.91 KCAL/MOL
REMARK 923 INTER-LIGAND FREE ENERGY PREDICTED BY IDOCK:   -6.99 KCAL/MOL
REMARK 924 INTRA-LIGAND FREE ENERGY PREDICTED BY IDOCK:   -0.92 KCAL/MOL
REMARK 927      BINDING AFFINITY PREDICTED BY RF-SCORE:    0.00 PKD
ROOT
HETATM    1  C   UNL     1      -9.520   5.021  74.558  1.00  0.00    -0.132 C  
HETATM    2  N   UNL     1      -9.369   5.777  73.343  1.00  0.00    -0.135 N  
HETATM    3  C   UNL     1      -9.007   7.106  73.364  1.00  0.00    -0.150 C  
HETATM    4  H   UNL     1      -9.533   5.319  72.447  1.00  0.00     0.000 HD 
HETATM    5  O   UNL     1      -8.729   7.713  74.393  1.00  0.00    -0.221 OA 
ENDROOT
BRANCH   3   6
HETATM    6  C   UNL     1      -8.974   7.817  72.061  1.00  0.00    -0.175 A  
HETATM    7  C   UNL     1      -7.905   7.598  71.190  1.00  0.00    -0.090 A  
HETATM    8  C   UNL     1      -7.772   8.364  70.020  1.00  0.00    -0.090 A  
HETATM    9  C   UNL     1      -8.707   9.357  69.683  1.00  0.00    -0.167 A  
HETATM   10  C   UNL     1      -9.831   9.467  70.504  1.00  0.00    -0.331 A  
HETATM   11  F   UNL     1     -11.012   8.977  72.465  1.00  0.00    -0.350 F  
HETATM   12  C   UNL     1      -9.944   8.736  71.687  1.00  0.00    -0.311 A  
BRANCH   9  13
HETATM   13  N   UNL     1      -8.487  10.257  68.592  1.00  0.00    -0.120 N  
HETATM   14  N   UNL     1      -8.319  12.396  67.746  1.00  0.00    -0.153 N  
HETATM   15  S   UNL     1      -6.372  11.705  69.590  1.00  0.00    -0.126 S  
HETATM   16  C   UNL     1      -7.780  11.497  68.690  1.00  0.00    -0.139 C  
HETATM   17  C   UNL     1      -8.963  11.694  66.736  1.00  0.00    -0.189 C  
HETATM   18  C   UNL     1      -8.954   9.040  66.340  1.00  0.00    -0.189 C  
HETATM   19  C   UNL     1     -10.379   8.507  66.620  1.00  0.00    -0.303 C  
HETATM   20  O   UNL     1      -9.270  12.101  65.620  1.00  0.00    -0.108 OA 
HETATM   21  C   UNL     1      -9.234  10.235  67.282  1.00  0.00    -0.141 C  
HETATM   22  C   UNL     1     -10.739   9.865  67.232  1.00  0.00    -0.304 C  
BRANCH  14  23
HETATM   23  C   UNL     1      -8.310  13.838  67.826  1.00  0.00    -0.180 A  
HETATM   24  C   UNL     1      -9.476  14.598  68.012  1.00  0.00    -0.207 A  
HETATM   25  C   UNL     1      -8.211  16.629  68.153  1.00  0.00    -0.192 A  
HETATM   26  C   UNL     1     -10.697  16.796  68.394  1.00  0.00    -0.362 C  
HETATM   27  F   UNL     1     -10.678  17.475  69.575  1.00  0.00    -0.290 F  
HETATM   28  F   UNL     1     -11.820  16.031  68.431  1.00  0.00    -0.369 F  
HETATM   29  F   UNL     1     -10.906  17.718  67.422  1.00  0.00    -0.361 F  
HETATM   30  C   UNL     1      -8.054  18.055  68.284  1.00  0.00    -0.291 C  
HETATM   31  N   UNL     1      -7.055  15.941  68.010  1.00  0.00    -0.123 NA 
HETATM   32  C   UNL     1      -9.443  16.002  68.179  1.00  0.00    -0.208 A  
HETATM   33  N   UNL     1      -7.964  19.210  68.390  1.00  0.00    -0.327 NA 
HETATM   34  C   UNL     1      -7.133  14.589  67.870  1.00  0.00    -0.157 A  
ENDBRANCH  14  23
ENDBRANCH   9  13
ENDBRANCH   3   6
TORSDOF 3
ENDMDL
MODEL       52
REMARK 921   NORMALIZED FREE ENERGY PREDICTED BY IDOCK:   -5.76 KCAL/MOL
REMARK 922        TOTAL FREE ENERGY PREDICTED BY IDOCK:   -7.89 KCAL/MOL
REMARK 923 INTER-LIGAND FREE ENERGY PREDICTED BY IDOCK:   -6.57 KCAL/MOL
REMARK 924 INTRA-LIGAND FREE ENERGY PREDICTED BY IDOCK:   -1.32 KCAL/MOL
REMARK 927      BINDING AFFINITY PREDICTED BY RF-SCORE:    0.00 PKD
ROOT
HETATM    1  C   UNL     1      -9.516  18.797  67.628  1.00  0.00    -0.300 C  
HETATM    2  N   UNL     1      -9.735  17.388  67.825  1.00  0.00    -0.262 N  
HETATM    3  C   UNL     1      -9.274  16.457  66.921  1.00  0.00    -0.218 C  
HETATM    4  H   UNL     1     -10.243  17.073  68.651  1.00  0.00     0.000 HD 
HETATM    5  O   UNL     1      -8.601  16.747  65.938  1.00  0.00    -0.500 OA 
ENDROOT
BRANCH   3   6
HETATM    6  C   UNL     1      -9.638  15.040  67.168  1.00  0.00    -0.222 A  
HETATM    7  C   UNL     1      -8.967  14.325  68.163  1.00  0.00    -0.189 A  
HETATM    8  C   UNL     1      -9.186  12.947  68.320  1.00  0.00    -0.187 A  
HETATM    9  C   UNL     1     -10.088  12.249  67.498  1.00  0.00    -0.201 A  
HETATM   10  C   UNL     1     -10.837  13.010  66.599  1.00  0.00    -0.291 A  
HETATM   11  F   UNL     1     -11.291  15.002  65.457  1.00  0.00    -0.338 F  
HETATM   12  C   UNL     1     -10.591  14.370  66.413  1.00  0.00    -0.297 A  
BRANCH   9  13
HETATM   13  N   UNL     1     -10.186  10.822  67.533  1.00  0.00    -0.188 N  
HETATM   14  N   UNL     1     -10.011   8.816  68.659  1.00  0.00    -0.177 N  
HETATM   15  S   UNL     1     -11.985  10.520  69.592  1.00  0.00    -0.158 S  
HETATM   16  C   UNL     1     -10.666  10.066  68.650  1.00  0.00    -0.226 C  
HETATM   17  C   UNL     1      -9.532   8.522  67.390  1.00  0.00    -0.150 C  
HETATM   18  C   UNL     1     -10.013   9.868  65.119  1.00  0.00    -0.278 C  
HETATM   19  C   UNL     1      -8.692  10.536  64.667  1.00  0.00    -0.193 C  
HETATM   20  O   UNL     1      -9.198   7.426  66.952  1.00  0.00    -0.139 OA 
HETATM   21  C   UNL     1      -9.499   9.878  66.578  1.00  0.00    -0.181 C  
HETATM   22  C   UNL     1      -8.082  10.195  66.032  1.00  0.00    -0.129 C  
BRANCH  14  23
HETATM   23  C   UNL     1      -9.769   7.979  69.811  1.00  0.00    -0.176 A  
HETATM   24  C   UNL     1      -8.744   8.234  70.736  1.00  0.00    -0.151 A  
HETATM   25  C   UNL     1      -9.457   6.418  72.129  1.00  0.00    -0.149 A  
HETATM   26  C   UNL     1      -7.485   7.758  72.894  1.00  0.00    -0.104 C  
HETATM   27  F   UNL     1      -7.978   8.036  74.133  1.00  0.00    -0.194 F  
HETATM   28  F   UNL     1      -6.728   8.833  72.552  1.00  0.00    -0.100 F  
HETATM   29  F   UNL     1      -6.619   6.725  73.046  1.00  0.00    -0.064 F  
HETATM   30  C   UNL     1      -9.367   5.544  73.270  1.00  0.00    -0.131 C  
HETATM   31  N   UNL     1     -10.481   6.150  71.287  1.00  0.00    -0.216 NA 
HETATM   32  C   UNL     1      -8.574   7.460  71.907  1.00  0.00    -0.122 A  
HETATM   33  N   UNL     1      -9.263   4.855  74.202  1.00  0.00    -0.114 NA 
HETATM   34  C   UNL     1     -10.616   6.932  70.181  1.00  0.00    -0.220 A  
ENDBRANCH  14  23
ENDBRANCH   9  13
ENDBRANCH   3   6
TORSDOF 3
ENDMDL
MODEL       53
REMARK 921   NORMALIZED FREE ENERGY PREDICTED BY IDOCK:   -5.74 KCAL/MOL
REMARK 922        TOTAL FREE ENERGY PREDICTED BY IDOCK:   -7.86 KCAL/MOL
REMARK 923 INTER-LIGAND FREE ENERGY PREDICTED BY IDOCK:   -6.87 KCAL/MOL
REMARK 924 INTRA-LIGAND FREE ENERGY PREDICTED BY IDOCK:   -0.99 KCAL/MOL
REMARK 927      BINDING AFFINITY PREDICTED BY RF-SCORE:    0.00 PKD
ROOT
HETATM    1  C   UNL     1      -6.428   3.030  70.296  1.00  0.00    -0.032 C  
HETATM    2  N   UNL     1      -7.342   4.127  70.112  1.00  0.00    -0.045 N  
HETATM    3  C   UNL     1      -7.524   4.711  68.878  1.00  0.00    -0.060 C  
HETATM    4  H   UNL     1      -7.866   4.479  70.913  1.00  0.00     0.000 HD 
HETATM    5  O   UNL     1      -6.983   4.308  67.854  1.00  0.00    -0.054 OA 
ENDROOT
BRANCH   3   6
HETATM    6  C   UNL     1      -8.415   5.897  68.819  1.00  0.00    -0.111 A  
HETATM    7  C   UNL     1      -7.865   7.174  68.950  1.00  0.00    -0.115 A  
HETATM    8  C   UNL     1      -8.696   8.301  69.045  1.00  0.00    -0.143 A  
HETATM    9  C   UNL     1     -10.096   8.186  68.998  1.00  0.00    -0.205 A  
HETATM   10  C   UNL     1     -10.615   6.917  68.739  1.00  0.00    -0.247 A  
HETATM   11  F   UNL     1     -10.387   4.596  68.531  1.00  0.00    -0.177 F  
HETATM   12  C   UNL     1      -9.793   5.790  68.687  1.00  0.00    -0.138 A  
BRANCH   9  13
HETATM   13  N   UNL     1     -10.951   9.302  69.270  1.00  0.00    -0.146 N  
HETATM   14  N   UNL     1     -11.380  11.568  69.236  1.00  0.00    -0.264 N  
HETATM   15  S   UNL     1     -11.141  10.379  66.746  1.00  0.00     0.197 S  
HETATM   16  C   UNL     1     -11.081  10.451  68.427  1.00  0.00    -0.268 C  
HETATM   17  C   UNL     1     -11.928  11.149  70.440  1.00  0.00    -0.378 C  
HETATM   18  C   UNL     1     -12.679   8.660  71.105  1.00  0.00    -0.148 C  
HETATM   19  C   UNL     1     -11.718   8.145  72.203  1.00  0.00    -0.418 C  
HETATM   20  O   UNL     1     -12.578  11.816  71.239  1.00  0.00    -0.365 OA 
HETATM   21  C   UNL     1     -11.571   9.618  70.607  1.00  0.00    -0.299 C  
HETATM   22  C   UNL     1     -10.801   9.341  71.925  1.00  0.00    -0.248 C  
BRANCH  14  23
HETATM   23  C   UNL     1     -11.088  12.951  68.937  1.00  0.00    -0.255 A  
HETATM   24  C   UNL     1      -9.887  13.363  68.336  1.00  0.00    -0.216 A  
HETATM   25  C   UNL     1     -10.648  15.633  68.217  1.00  0.00    -0.262 A  
HETATM   26  C   UNL     1      -8.370  15.127  67.308  1.00  0.00    -0.201 C  
HETATM   27  F   UNL     1      -8.582  15.684  66.084  1.00  0.00    -0.318 F  
HETATM   28  F   UNL     1      -7.510  14.096  67.098  1.00  0.00    -0.187 F  
HETATM   29  F   UNL     1      -7.684  16.043  68.036  1.00  0.00    -0.126 F  
HETATM   30  C   UNL     1     -10.512  17.034  67.911  1.00  0.00    -0.354 C  
HETATM   31  N   UNL     1     -11.835  15.283  68.763  1.00  0.00    -0.332 NA 
HETATM   32  C   UNL     1      -9.651  14.707  67.967  1.00  0.00    -0.212 A  
HETATM   33  N   UNL     1     -10.366  18.159  67.653  1.00  0.00    -0.380 NA 
HETATM   34  C   UNL     1     -12.025  13.975  69.087  1.00  0.00    -0.360 A  
ENDBRANCH  14  23
ENDBRANCH   9  13
ENDBRANCH   3   6
TORSDOF 3
ENDMDL
MODEL       54
REMARK 921   NORMALIZED FREE ENERGY PREDICTED BY IDOCK:   -5.72 KCAL/MOL
REMARK 922        TOTAL FREE ENERGY PREDICTED BY IDOCK:   -7.84 KCAL/MOL
REMARK 923 INTER-LIGAND FREE ENERGY PREDICTED BY IDOCK:   -6.69 KCAL/MOL
REMARK 924 INTRA-LIGAND FREE ENERGY PREDICTED BY IDOCK:   -1.15 KCAL/MOL
REMARK 927      BINDING AFFINITY PREDICTED BY RF-SCORE:    0.00 PKD
ROOT
HETATM    1  C   UNL     1      -5.881   3.950  64.010  1.00  0.00    -0.014 C  
HETATM    2  N   UNL     1      -6.319   5.199  64.574  1.00  0.00    -0.033 N  
HETATM    3  C   UNL     1      -7.402   5.878  64.063  1.00  0.00    -0.061 C  
HETATM    4  H   UNL     1      -5.815   5.590  65.371  1.00  0.00     0.000 HD 
HETATM    5  O   UNL     1      -8.099   5.448  63.151  1.00  0.00    -0.092 OA 
ENDROOT
BRANCH   3   6
HETATM    6  C   UNL     1      -7.708   7.204  64.657  1.00  0.00    -0.112 A  
HETATM    7  C   UNL     1      -8.679   7.298  65.657  1.00  0.00    -0.092 A  
HETATM    8  C   UNL     1      -9.093   8.553  66.132  1.00  0.00    -0.245 A  
HETATM    9  C   UNL     1      -8.542   9.745  65.632  1.00  0.00    -0.141 A  
HETATM   10  C   UNL     1      -7.486   9.618  64.727  1.00  0.00    -0.122 A  
HETATM   11  F   UNL     1      -6.143   8.356  63.283  1.00  0.00    -0.073 F  
HETATM   12  C   UNL     1      -7.102   8.375  64.224  1.00  0.00    -0.082 A  
BRANCH   9  13
HETATM   13  N   UNL     1      -9.079  11.025  65.980  1.00  0.00    -0.190 N  
HETATM   14  N   UNL     1     -10.213  12.406  67.438  1.00  0.00    -0.207 N  
HETATM   15  S   UNL     1      -7.788  11.447  68.372  1.00  0.00    -0.141 S  
HETATM   16  C   UNL     1      -9.081  11.574  67.301  1.00  0.00    -0.164 C  
HETATM   17  C   UNL     1     -10.654  12.817  66.188  1.00  0.00    -0.266 C  
HETATM   18  C   UNL     1      -9.429  12.446  63.829  1.00  0.00     0.387 C  
HETATM   19  C   UNL     1     -10.279  11.458  62.996  1.00  0.00    -0.311 C  
HETATM   20  O   UNL     1     -11.391  13.763  65.928  1.00  0.00    -0.302 OA 
HETATM   21  C   UNL     1     -10.018  11.837  65.124  1.00  0.00    -0.253 C  
HETATM   22  C   UNL     1     -11.099  11.143  64.253  1.00  0.00    -0.175 C  
BRANCH  14  23
HETATM   23  C   UNL     1     -10.900  12.730  68.666  1.00  0.00    -0.253 A  
HETATM   24  C   UNL     1     -10.990  14.040  69.166  1.00  0.00    -0.263 A  
HETATM   25  C   UNL     1     -12.401  13.328  70.969  1.00  0.00    -0.291 A  
HETATM   26  C   UNL     1     -11.842  15.765  70.830  1.00  0.00    -0.404 C  
HETATM   27  F   UNL     1     -13.130  16.205  70.867  1.00  0.00    -0.367 F  
HETATM   28  F   UNL     1     -11.171  16.664  70.063  1.00  0.00    -0.332 F  
HETATM   29  F   UNL     1     -11.349  15.903  72.086  1.00  0.00    -0.450 F  
HETATM   30  C   UNL     1     -13.172  13.524  72.169  1.00  0.00    -0.458 C  
HETATM   31  N   UNL     1     -12.373  12.056  70.511  1.00  0.00    -0.319 NA 
HETATM   32  C   UNL     1     -11.741  14.358  70.321  1.00  0.00    -0.355 A  
HETATM   33  N   UNL     1     -13.785  13.718  73.139  1.00  0.00    -0.186 NA 
HETATM   34  C   UNL     1     -11.651  11.799  69.386  1.00  0.00    -0.322 A  
ENDBRANCH  14  23
ENDBRANCH   9  13
ENDBRANCH   3   6
TORSDOF 3
ENDMDL
MODEL       55
REMARK 921   NORMALIZED FREE ENERGY PREDICTED BY IDOCK:   -5.67 KCAL/MOL
REMARK 922        TOTAL FREE ENERGY PREDICTED BY IDOCK:   -7.78 KCAL/MOL
REMARK 923 INTER-LIGAND FREE ENERGY PREDICTED BY IDOCK:   -7.47 KCAL/MOL
REMARK 924 INTRA-LIGAND FREE ENERGY PREDICTED BY IDOCK:   -0.31 KCAL/MOL
REMARK 927      BINDING AFFINITY PREDICTED BY RF-SCORE:    0.00 PKD
ROOT
HETATM    1  C   UNL     1      -6.290   4.501  65.731  1.00  0.00    -0.036 C  
HETATM    2  N   UNL     1      -7.105   5.437  66.459  1.00  0.00    -0.068 N  
HETATM    3  C   UNL     1      -8.095   6.164  65.836  1.00  0.00    -0.121 C  
HETATM    4  H   UNL     1      -6.945   5.566  67.458  1.00  0.00     0.000 HD 
HETATM    5  O   UNL     1      -8.394   6.023  64.655  1.00  0.00    -0.131 OA 
ENDROOT
BRANCH   3   6
HETATM    6  C   UNL     1      -8.810   7.172  66.659  1.00  0.00    -0.142 A  
HETATM    7  C   UNL     1     -10.184   7.035  66.867  1.00  0.00    -0.318 A  
HETATM    8  C   UNL     1     -10.911   8.047  67.514  1.00  0.00    -0.132 A  
HETATM    9  C   UNL     1     -10.284   9.215  67.982  1.00  0.00    -0.211 A  
HETATM   10  C   UNL     1      -8.894   9.269  67.875  1.00  0.00    -0.124 A  
HETATM   11  F   UNL     1      -6.853   8.466  67.056  1.00  0.00    -0.064 F  
HETATM   12  C   UNL     1      -8.176   8.284  67.195  1.00  0.00    -0.119 A  
BRANCH   9  13
HETATM   13  N   UNL     1     -11.039  10.324  68.481  1.00  0.00    -0.253 N  
HETATM   14  N   UNL     1     -11.314  12.590  68.814  1.00  0.00    -0.271 N  
HETATM   15  S   UNL     1     -11.335  11.779  66.166  1.00  0.00    -0.207 S  
HETATM   16  C   UNL     1     -11.151  11.593  67.829  1.00  0.00    -0.249 C  
HETATM   17  C   UNL     1     -11.803  12.025  69.984  1.00  0.00    -0.314 C  
HETATM   18  C   UNL     1     -12.672   9.511  70.337  1.00  0.00     0.236 C  
HETATM   19  C   UNL     1     -11.672   8.782  71.266  1.00  0.00    -0.356 C  
HETATM   20  O   UNL     1     -12.347  12.600  70.922  1.00  0.00    -0.374 OA 
HETATM   21  C   UNL     1     -11.540  10.469  69.897  1.00  0.00    -0.307 C  
HETATM   22  C   UNL     1     -10.698   9.953  71.093  1.00  0.00    -0.150 C  
BRANCH  14  23
HETATM   23  C   UNL     1     -10.951  13.983  68.698  1.00  0.00    -0.263 A  
HETATM   24  C   UNL     1     -10.648  14.591  67.469  1.00  0.00    -0.262 A  
HETATM   25  C   UNL     1     -10.424  16.739  68.510  1.00  0.00    -0.335 A  
HETATM   26  C   UNL     1     -10.078  16.612  66.034  1.00  0.00    -0.340 C  
HETATM   27  F   UNL     1     -10.972  17.590  65.718  1.00  0.00    -0.257 F  
HETATM   28  F   UNL     1     -10.112  15.737  64.995  1.00  0.00    -0.355 F  
HETATM   29  F   UNL     1      -8.850  17.186  65.999  1.00  0.00    -0.284 F  
HETATM   30  C   UNL     1     -10.143  18.151  68.526  1.00  0.00    -0.400 C  
HETATM   31  N   UNL     1     -10.742  16.209  69.713  1.00  0.00    -0.317 NA 
HETATM   32  C   UNL     1     -10.382  15.975  67.357  1.00  0.00    -0.294 A  
HETATM   33  N   UNL     1      -9.908  19.291  68.502  1.00  0.00    -0.398 NA 
HETATM   34  C   UNL     1     -11.008  14.875  69.771  1.00  0.00    -0.258 A  
ENDBRANCH  14  23
ENDBRANCH   9  13
ENDBRANCH   3   6
TORSDOF 3
ENDMDL
MODEL       56
REMARK 921   NORMALIZED FREE ENERGY PREDICTED BY IDOCK:   -5.63 KCAL/MOL
REMARK 922        TOTAL FREE ENERGY PREDICTED BY IDOCK:   -7.74 KCAL/MOL
REMARK 923 INTER-LIGAND FREE ENERGY PREDICTED BY IDOCK:   -6.62 KCAL/MOL
REMARK 924 INTRA-LIGAND FREE ENERGY PREDICTED BY IDOCK:   -1.12 KCAL/MOL
REMARK 927      BINDING AFFINITY PREDICTED BY RF-SCORE:    0.00 PKD
ROOT
HETATM    1  C   UNL     1      -7.101   3.837  67.466  1.00  0.00    -0.059 C  
HETATM    2  N   UNL     1      -7.794   5.097  67.400  1.00  0.00    -0.095 N  
HETATM    3  C   UNL     1      -7.913   5.789  66.216  1.00  0.00    -0.102 C  
HETATM    4  H   UNL     1      -8.206   5.484  68.248  1.00  0.00     0.000 HD 
HETATM    5  O   UNL     1      -7.503   5.364  65.141  1.00  0.00    -0.070 OA 
ENDROOT
BRANCH   3   6
HETATM    6  C   UNL     1      -8.561   7.124  66.277  1.00  0.00    -0.143 A  
HETATM    7  C   UNL     1      -7.774   8.272  66.167  1.00  0.00    -0.097 A  
HETATM    8  C   UNL     1      -8.337   9.543  66.368  1.00  0.00    -0.120 A  
HETATM    9  C   UNL     1      -9.700   9.701  66.670  1.00  0.00    -0.209 A  
HETATM   10  C   UNL     1     -10.488   8.549  66.648  1.00  0.00    -0.235 A  
HETATM   11  F   UNL     1     -10.743   6.223  66.580  1.00  0.00    -0.299 F  
HETATM   12  C   UNL     1      -9.923   7.283  66.490  1.00  0.00    -0.112 A  
BRANCH   9  13
HETATM   13  N   UNL     1     -10.243  10.971  67.048  1.00  0.00    -0.203 N  
HETATM   14  N   UNL     1     -10.109  13.271  67.149  1.00  0.00    -0.237 N  
HETATM   15  S   UNL     1     -10.295  12.215  64.596  1.00  0.00    -0.307 S  
HETATM   16  C   UNL     1     -10.133  12.167  66.271  1.00  0.00    -0.224 C  
HETATM   17  C   UNL     1     -10.680  12.923  68.365  1.00  0.00    -0.255 C  
HETATM   18  C   UNL     1     -11.978  10.651  68.960  1.00  0.00    -0.186 C  
HETATM   19  C   UNL     1     -11.116   9.854  69.967  1.00  0.00    -0.335 C  
HETATM   20  O   UNL     1     -11.106  13.677  69.235  1.00  0.00    -0.248 OA 
HETATM   21  C   UNL     1     -10.698  11.344  68.437  1.00  0.00    -0.203 C  
HETATM   22  C   UNL     1      -9.951  10.810  69.687  1.00  0.00    -0.005 C  
BRANCH  14  23
HETATM   23  C   UNL     1      -9.505  14.559  66.897  1.00  0.00    -0.252 A  
HETATM   24  C   UNL     1      -8.226  14.905  67.364  1.00  0.00    -0.217 A  
HETATM   25  C   UNL     1      -8.308  17.014  66.226  1.00  0.00    -0.273 A  
HETATM   26  C   UNL     1      -6.236  16.481  67.526  1.00  0.00    -0.154 C  
HETATM   27  F   UNL     1      -5.367  16.707  66.503  1.00  0.00    -0.145 F  
HETATM   28  F   UNL     1      -5.670  15.499  68.276  1.00  0.00    -0.090 F  
HETATM   29  F   UNL     1      -6.222  17.596  68.299  1.00  0.00    -0.162 F  
HETATM   30  C   UNL     1      -7.797  18.306  65.847  1.00  0.00    -0.047 C  
HETATM   31  N   UNL     1      -9.528  16.716  65.724  1.00  0.00    -0.519 NA 
HETATM   32  C   UNL     1      -7.610  16.135  67.035  1.00  0.00    -0.260 A  
HETATM   33  N   UNL     1      -7.353  19.343  65.563  1.00  0.00    -0.432 NA 
HETATM   34  C   UNL     1     -10.076  15.514  66.053  1.00  0.00    -0.332 A  
ENDBRANCH  14  23
ENDBRANCH   9  13
ENDBRANCH   3   6
TORSDOF 3
ENDMDL
MODEL       57
REMARK 921   NORMALIZED FREE ENERGY PREDICTED BY IDOCK:   -5.62 KCAL/MOL
REMARK 922        TOTAL FREE ENERGY PREDICTED BY IDOCK:   -7.73 KCAL/MOL
REMARK 923 INTER-LIGAND FREE ENERGY PREDICTED BY IDOCK:   -6.99 KCAL/MOL
REMARK 924 INTRA-LIGAND FREE ENERGY PREDICTED BY IDOCK:   -0.73 KCAL/MOL
REMARK 927      BINDING AFFINITY PREDICTED BY RF-SCORE:    0.00 PKD
ROOT
HETATM    1  C   UNL     1      -6.847   1.469  70.313  1.00  0.00    -0.032 C  
HETATM    2  N   UNL     1      -7.635   2.669  70.408  1.00  0.00    -0.043 N  
HETATM    3  C   UNL     1      -7.860   3.469  69.310  1.00  0.00    -0.051 C  
HETATM    4  H   UNL     1      -8.035   2.933  71.308  1.00  0.00     0.000 HD 
HETATM    5  O   UNL     1      -7.470   3.191  68.181  1.00  0.00    -0.053 OA 
ENDROOT
BRANCH   3   6
HETATM    6  C   UNL     1      -8.604   4.734  69.538  1.00  0.00    -0.103 A  
HETATM    7  C   UNL     1      -9.991   4.750  69.380  1.00  0.00    -0.269 A  
HETATM    8  C   UNL     1     -10.701   5.960  69.444  1.00  0.00    -0.406 A  
HETATM    9  C   UNL     1     -10.049   7.182  69.681  1.00  0.00    -0.192 A  
HETATM   10  C   UNL     1      -8.683   7.121  69.961  1.00  0.00    -0.141 A  
HETATM   11  F   UNL     1      -6.641   5.979  70.047  1.00  0.00    -0.034 F  
HETATM   12  C   UNL     1      -7.969   5.926  69.856  1.00  0.00    -0.104 A  
BRANCH   9  13
HETATM   13  N   UNL     1     -10.735   8.433  69.574  1.00  0.00    -0.210 N  
HETATM   14  N   UNL     1     -10.781  10.664  68.989  1.00  0.00    -0.206 N  
HETATM   15  S   UNL     1     -10.451   8.901  66.879  1.00  0.00    -0.181 S  
HETATM   16  C   UNL     1     -10.577   9.358  68.494  1.00  0.00    -0.197 C  
HETATM   17  C   UNL     1     -11.528  10.616  70.158  1.00  0.00    -0.329 C  
HETATM   18  C   UNL     1     -12.748   8.476  71.222  1.00  0.00    -0.221 C  
HETATM   19  C   UNL     1     -12.018   8.111  72.537  1.00  0.00    -0.410 C  
HETATM   20  O   UNL     1     -12.149  11.533  70.687  1.00  0.00    -0.363 OA 
HETATM   21  C   UNL     1     -11.448   9.135  70.703  1.00  0.00    -0.262 C  
HETATM   22  C   UNL     1     -10.892   9.076  72.150  1.00  0.00    -0.237 C  
BRANCH  14  23
HETATM   23  C   UNL     1     -10.235  11.886  68.448  1.00  0.00    -0.204 A  
HETATM   24  C   UNL     1     -10.848  13.137  68.622  1.00  0.00    -0.287 A  
HETATM   25  C   UNL     1      -9.034  14.255  67.523  1.00  0.00    -0.196 A  
HETATM   26  C   UNL     1     -10.918  15.668  68.375  1.00  0.00    -0.308 C  
HETATM   27  F   UNL     1     -10.138  16.518  69.098  1.00  0.00    -0.234 F  
HETATM   28  F   UNL     1     -12.093  15.584  69.052  1.00  0.00    -0.350 F  
HETATM   29  F   UNL     1     -11.203  16.301  67.209  1.00  0.00    -0.253 F  
HETATM   30  C   UNL     1      -8.349  15.404  66.989  1.00  0.00    -0.236 C  
HETATM   31  N   UNL     1      -8.386  13.080  67.359  1.00  0.00    -0.185 NA 
HETATM   32  C   UNL     1     -10.258  14.338  68.164  1.00  0.00    -0.231 A  
HETATM   33  N   UNL     1      -7.825  16.354  66.568  1.00  0.00    -0.284 NA 
HETATM   34  C   UNL     1      -8.984  11.952  67.830  1.00  0.00    -0.179 A  
ENDBRANCH  14  23
ENDBRANCH   9  13
ENDBRANCH   3   6
TORSDOF 3
ENDMDL
MODEL       58
REMARK 921   NORMALIZED FREE ENERGY PREDICTED BY IDOCK:   -5.58 KCAL/MOL
REMARK 922        TOTAL FREE ENERGY PREDICTED BY IDOCK:   -7.68 KCAL/MOL
REMARK 923 INTER-LIGAND FREE ENERGY PREDICTED BY IDOCK:   -6.61 KCAL/MOL
REMARK 924 INTRA-LIGAND FREE ENERGY PREDICTED BY IDOCK:   -1.07 KCAL/MOL
REMARK 927      BINDING AFFINITY PREDICTED BY RF-SCORE:    0.00 PKD
ROOT
HETATM    1  C   UNL     1      -7.089  20.530  66.741  1.00  0.00    -0.275 C  
HETATM    2  N   UNL     1      -7.819  19.290  66.724  1.00  0.00    -0.253 N  
HETATM    3  C   UNL     1      -8.035  18.567  67.877  1.00  0.00    -0.255 C  
HETATM    4  H   UNL     1      -8.185  18.938  65.839  1.00  0.00     0.000 HD 
HETATM    5  O   UNL     1      -7.685  18.950  68.988  1.00  0.00    -0.306 OA 
ENDROOT
BRANCH   3   6
HETATM    6  C   UNL     1      -8.714  17.255  67.733  1.00  0.00    -0.226 A  
HETATM    7  C   UNL     1      -7.986  16.154  67.278  1.00  0.00    -0.203 A  
HETATM    8  C   UNL     1      -8.633  14.941  66.993  1.00  0.00    -0.265 A  
HETATM    9  C   UNL     1     -10.020  14.791  67.167  1.00  0.00    -0.236 A  
HETATM   10  C   UNL     1     -10.701  15.864  67.741  1.00  0.00    -0.320 A  
HETATM   11  F   UNL     1     -10.824  18.093  68.449  1.00  0.00    -0.313 F  
HETATM   12  C   UNL     1     -10.068  17.084  67.986  1.00  0.00    -0.305 A  
BRANCH   9  13
HETATM   13  N   UNL     1     -10.711  13.622  66.715  1.00  0.00    -0.272 N  
HETATM   14  N   UNL     1     -10.728  11.392  66.125  1.00  0.00    -0.270 N  
HETATM   15  S   UNL     1     -10.138  11.902  68.783  1.00  0.00    -0.055 S  
HETATM   16  C   UNL     1     -10.449  12.292  67.175  1.00  0.00    -0.219 C  
HETATM   17  C   UNL     1     -11.599  11.977  65.217  1.00  0.00    -0.279 C  
HETATM   18  C   UNL     1     -12.893  14.313  65.479  1.00  0.00    -0.334 C  
HETATM   19  C   UNL     1     -12.308  15.306  64.447  1.00  0.00    -0.172 C  
HETATM   20  O   UNL     1     -12.289  11.414  64.373  1.00  0.00     0.157 OA 
HETATM   21  C   UNL     1     -11.555  13.537  65.467  1.00  0.00    -0.320 C  
HETATM   22  C   UNL     1     -11.161  14.322  64.188  1.00  0.00    -0.002 C  
BRANCH  14  23
HETATM   23  C   UNL     1     -10.146  10.084  65.935  1.00  0.00    -0.249 A  
HETATM   24  C   UNL     1      -9.254   9.793  64.889  1.00  0.00    -0.314 A  
HETATM   25  C   UNL     1      -8.904   7.570  65.716  1.00  0.00    -0.090 A  
HETATM   26  C   UNL     1      -7.658   8.246  63.652  1.00  0.00    -0.134 C  
HETATM   27  F   UNL     1      -6.424   7.907  64.117  1.00  0.00    -0.057 F  
HETATM   28  F   UNL     1      -7.458   9.305  62.825  1.00  0.00    -0.105 F  
HETATM   29  F   UNL     1      -8.066   7.225  62.859  1.00  0.00    -0.131 F  
HETATM   30  C   UNL     1      -8.343   6.244  65.679  1.00  0.00    -0.147 C  
HETATM   31  N   UNL     1      -9.729   7.810  66.761  1.00  0.00    -0.210 NA 
HETATM   32  C   UNL     1      -8.621   8.535  64.765  1.00  0.00    -0.106 A  
HETATM   33  N   UNL     1      -7.873   5.182  65.617  1.00  0.00    -0.094 NA 
HETATM   34  C   UNL     1     -10.303   9.040  66.849  1.00  0.00    -0.254 A  
ENDBRANCH  14  23
ENDBRANCH   9  13
ENDBRANCH   3   6
TORSDOF 3
ENDMDL
MODEL       59
REMARK 921   NORMALIZED FREE ENERGY PREDICTED BY IDOCK:   -5.51 KCAL/MOL
REMARK 922        TOTAL FREE ENERGY PREDICTED BY IDOCK:   -7.60 KCAL/MOL
REMARK 923 INTER-LIGAND FREE ENERGY PREDICTED BY IDOCK:   -6.60 KCAL/MOL
REMARK 924 INTRA-LIGAND FREE ENERGY PREDICTED BY IDOCK:   -1.00 KCAL/MOL
REMARK 927      BINDING AFFINITY PREDICTED BY RF-SCORE:    0.00 PKD
ROOT
HETATM    1  C   UNL     1      -6.163   4.890  65.255  1.00  0.00    -0.034 C  
HETATM    2  N   UNL     1      -6.925   5.964  65.834  1.00  0.00    -0.060 N  
HETATM    3  C   UNL     1      -7.679   6.812  65.053  1.00  0.00    -0.108 C  
HETATM    4  H   UNL     1      -6.906   6.101  66.844  1.00  0.00     0.000 HD 
HETATM    5  O   UNL     1      -7.807   6.678  63.841  1.00  0.00    -0.114 OA 
ENDROOT
BRANCH   3   6
HETATM    6  C   UNL     1      -8.348   7.945  65.740  1.00  0.00    -0.139 A  
HETATM    7  C   UNL     1      -9.689   7.825  66.111  1.00  0.00    -0.057 A  
HETATM    8  C   UNL     1     -10.386   8.929  66.627  1.00  0.00    -0.294 A  
HETATM    9  C   UNL     1      -9.762  10.176  66.799  1.00  0.00    -0.187 A  
HETATM   10  C   UNL     1      -8.392  10.234  66.541  1.00  0.00    -0.126 A  
HETATM   11  F   UNL     1      -6.411   9.328  65.682  1.00  0.00    -0.064 F  
HETATM   12  C   UNL     1      -7.707   9.151  65.989  1.00  0.00    -0.095 A  
BRANCH   9  13
HETATM   13  N   UNL     1     -10.506  11.346  67.156  1.00  0.00    -0.215 N  
HETATM   14  N   UNL     1     -10.723  13.639  67.273  1.00  0.00    -0.277 N  
HETATM   15  S   UNL     1     -10.628  12.597  64.710  1.00  0.00    -0.334 S  
HETATM   16  C   UNL     1     -10.540  12.554  66.390  1.00  0.00    -0.247 C  
HETATM   17  C   UNL     1     -11.292  13.196  68.458  1.00  0.00    -0.286 C  
HETATM   18  C   UNL     1     -12.262  10.748  68.980  1.00  0.00    -0.046 C  
HETATM   19  C   UNL     1     -11.339  10.078  70.024  1.00  0.00    -0.334 C  
HETATM   20  O   UNL     1     -11.868  13.867  69.310  1.00  0.00    -0.303 OA 
HETATM   21  C   UNL     1     -11.077  11.631  68.523  1.00  0.00    -0.235 C  
HETATM   22  C   UNL     1     -10.318  11.200  69.805  1.00  0.00     0.220 C  
BRANCH  14  23
HETATM   23  C   UNL     1     -10.308  15.006  67.057  1.00  0.00    -0.269 A  
HETATM   24  C   UNL     1      -9.333  15.640  67.844  1.00  0.00    -0.195 A  
HETATM   25  C   UNL     1      -9.412  17.608  66.478  1.00  0.00    -0.283 A  
HETATM   26  C   UNL     1      -7.815  17.602  68.406  1.00  0.00    -0.268 C  
HETATM   27  F   UNL     1      -6.715  17.938  67.678  1.00  0.00    -0.173 F  
HETATM   28  F   UNL     1      -7.359  16.810  69.412  1.00  0.00    -0.238 F  
HETATM   29  F   UNL     1      -8.251  18.742  68.998  1.00  0.00    -0.336 F  
HETATM   30  C   UNL     1      -9.042  18.951  66.113  1.00  0.00    -0.163 C  
HETATM   31  N   UNL     1     -10.329  17.031  65.669  1.00  0.00    -0.591 NA 
HETATM   32  C   UNL     1      -8.871  16.947  67.566  1.00  0.00    -0.213 A  
HETATM   33  N   UNL     1      -8.721  20.038  65.848  1.00  0.00    -0.236 NA 
HETATM   34  C   UNL     1     -10.733  15.765  65.964  1.00  0.00    -0.306 A  
ENDBRANCH  14  23
ENDBRANCH   9  13
ENDBRANCH   3   6
TORSDOF 3
ENDMDL
MODEL       60
REMARK 921   NORMALIZED FREE ENERGY PREDICTED BY IDOCK:   -5.43 KCAL/MOL
REMARK 922        TOTAL FREE ENERGY PREDICTED BY IDOCK:   -7.50 KCAL/MOL
REMARK 923 INTER-LIGAND FREE ENERGY PREDICTED BY IDOCK:   -6.22 KCAL/MOL
REMARK 924 INTRA-LIGAND FREE ENERGY PREDICTED BY IDOCK:   -1.28 KCAL/MOL
REMARK 927      BINDING AFFINITY PREDICTED BY RF-SCORE:    0.00 PKD
ROOT
HETATM    1  C   UNL     1      -7.926   4.178  74.525  1.00  0.00    -0.087 C  
HETATM    2  N   UNL     1      -7.957   5.249  73.564  1.00  0.00    -0.109 N  
HETATM    3  C   UNL     1      -8.666   5.139  72.388  1.00  0.00    -0.124 C  
HETATM    4  H   UNL     1      -7.442   6.108  73.758  1.00  0.00     0.000 HD 
HETATM    5  O   UNL     1      -9.361   4.168  72.108  1.00  0.00    -0.119 OA 
ENDROOT
BRANCH   3   6
HETATM    6  C   UNL     1      -8.551   6.262  71.424  1.00  0.00    -0.131 A  
HETATM    7  C   UNL     1      -9.479   7.304  71.474  1.00  0.00    -0.160 A  
HETATM    8  C   UNL     1      -9.484   8.301  70.485  1.00  0.00    -0.178 A  
HETATM    9  C   UNL     1      -8.556   8.292  69.430  1.00  0.00    -0.134 A  
HETATM   10  C   UNL     1      -7.562   7.314  69.475  1.00  0.00    -0.100 A  
HETATM   11  F   UNL     1      -6.641   5.343  70.341  1.00  0.00    -0.033 F  
HETATM   12  C   UNL     1      -7.581   6.299  70.432  1.00  0.00    -0.096 A  
BRANCH   9  13
HETATM   13  N   UNL     1      -8.665   9.198  68.327  1.00  0.00    -0.129 N  
HETATM   14  N   UNL     1      -9.166  11.280  67.471  1.00  0.00    -0.157 N  
HETATM   15  S   UNL     1      -7.004  11.209  69.200  1.00  0.00    -0.116 S  
HETATM   16  C   UNL     1      -8.339  10.591  68.383  1.00  0.00    -0.126 C  
HETATM   17  C   UNL     1      -9.635  10.406  66.501  1.00  0.00    -0.179 C  
HETATM   18  C   UNL     1      -8.884   7.860  66.107  1.00  0.00    -0.197 C  
HETATM   19  C   UNL     1     -10.078   6.945  66.468  1.00  0.00    -0.140 C  
HETATM   20  O   UNL     1     -10.106  10.689  65.403  1.00  0.00    -0.264 OA 
HETATM   21  C   UNL     1      -9.444   8.941  67.062  1.00  0.00    -0.166 C  
HETATM   22  C   UNL     1     -10.780   8.153  67.099  1.00  0.00    -0.264 C  
BRANCH  14  23
HETATM   23  C   UNL     1      -9.567  12.666  67.549  1.00  0.00    -0.184 A  
HETATM   24  C   UNL     1     -10.357  13.172  68.594  1.00  0.00    -0.207 A  
HETATM   25  C   UNL     1     -10.169  15.406  67.745  1.00  0.00    -0.241 A  
HETATM   26  C   UNL     1     -11.498  15.072  69.841  1.00  0.00    -0.289 C  
HETATM   27  F   UNL     1     -10.829  16.000  70.580  1.00  0.00    -0.288 F  
HETATM   28  F   UNL     1     -11.880  14.110  70.721  1.00  0.00    -0.346 F  
HETATM   29  F   UNL     1     -12.642  15.667  69.419  1.00  0.00    -0.268 F  
HETATM   30  C   UNL     1     -10.441  16.820  67.740  1.00  0.00    -0.335 C  
HETATM   31  N   UNL     1      -9.376  14.975  66.738  1.00  0.00    -0.236 NA 
HETATM   32  C   UNL     1     -10.668  14.546  68.708  1.00  0.00    -0.257 A  
HETATM   33  N   UNL     1     -10.683  17.958  67.765  1.00  0.00    -0.382 NA 
HETATM   34  C   UNL     1      -9.089  13.646  66.677  1.00  0.00    -0.174 A  
ENDBRANCH  14  23
ENDBRANCH   9  13
ENDBRANCH   3   6
TORSDOF 3
ENDMDL
MODEL       61
REMARK 921   NORMALIZED FREE ENERGY PREDICTED BY IDOCK:   -5.42 KCAL/MOL
REMARK 922        TOTAL FREE ENERGY PREDICTED BY IDOCK:   -7.49 KCAL/MOL
REMARK 923 INTER-LIGAND FREE ENERGY PREDICTED BY IDOCK:   -6.61 KCAL/MOL
REMARK 924 INTRA-LIGAND FREE ENERGY PREDICTED BY IDOCK:   -0.88 KCAL/MOL
REMARK 927      BINDING AFFINITY PREDICTED BY RF-SCORE:    0.00 PKD
ROOT
HETATM    1  C   UNL     1      -6.012   2.392  68.448  1.00  0.00    -0.024 C  
HETATM    2  N   UNL     1      -6.938   3.444  68.780  1.00  0.00    -0.048 N  
HETATM    3  C   UNL     1      -6.816   4.704  68.241  1.00  0.00    -0.055 C  
HETATM    4  H   UNL     1      -7.700   3.250  69.430  1.00  0.00     0.000 HD 
HETATM    5  O   UNL     1      -5.968   5.002  67.406  1.00  0.00    -0.024 OA 
ENDROOT
BRANCH   3   6
HETATM    6  C   UNL     1      -7.764   5.739  68.724  1.00  0.00    -0.090 A  
HETATM    7  C   UNL     1      -9.125   5.436  68.806  1.00  0.00    -0.135 A  
HETATM    8  C   UNL     1     -10.059   6.437  69.118  1.00  0.00    -0.194 A  
HETATM    9  C   UNL     1      -9.660   7.761  69.370  1.00  0.00    -0.156 A  
HETATM   10  C   UNL     1      -8.287   8.007  69.408  1.00  0.00    -0.131 A  
HETATM   11  F   UNL     1      -6.065   7.378  69.026  1.00  0.00    -0.029 F  
HETATM   12  C   UNL     1      -7.360   7.025  69.057  1.00  0.00    -0.093 A  
BRANCH   9  13
HETATM   13  N   UNL     1     -10.614   8.818  69.514  1.00  0.00    -0.227 N  
HETATM   14  N   UNL     1     -11.210  11.037  69.314  1.00  0.00    -0.235 N  
HETATM   15  S   UNL     1     -10.704   9.734  66.923  1.00  0.00    -0.055 S  
HETATM   16  C   UNL     1     -10.770   9.904  68.596  1.00  0.00    -0.226 C  
HETATM   17  C   UNL     1     -11.811  10.643  70.501  1.00  0.00    -0.357 C  
HETATM   18  C   UNL     1     -12.417   8.143  71.265  1.00  0.00    -0.269 C  
HETATM   19  C   UNL     1     -11.500   7.768  72.455  1.00  0.00    -0.418 C  
HETATM   20  O   UNL     1     -12.565  11.300  71.212  1.00  0.00    -0.387 OA 
HETATM   21  C   UNL     1     -11.352   9.158  70.786  1.00  0.00    -0.280 C  
HETATM   22  C   UNL     1     -10.659   9.017  72.167  1.00  0.00    -0.209 C  
BRANCH  14  23
HETATM   23  C   UNL     1     -11.003  12.420  68.951  1.00  0.00    -0.223 A  
HETATM   24  C   UNL     1      -9.811  12.885  68.373  1.00  0.00    -0.197 A  
HETATM   25  C   UNL     1     -10.722  15.086  68.102  1.00  0.00    -0.256 A  
HETATM   26  C   UNL     1      -8.379  14.698  67.308  1.00  0.00    -0.213 C  
HETATM   27  F   UNL     1      -8.579  15.174  66.048  1.00  0.00    -0.246 F  
HETATM   28  F   UNL     1      -7.442  13.722  67.186  1.00  0.00    -0.173 F  
HETATM   29  F   UNL     1      -7.789  15.698  68.010  1.00  0.00    -0.122 F  
HETATM   30  C   UNL     1     -10.671  16.475  67.726  1.00  0.00    -0.329 C  
HETATM   31  N   UNL     1     -11.903  14.681  68.622  1.00  0.00    -0.323 NA 
HETATM   32  C   UNL     1      -9.654  14.222  67.940  1.00  0.00    -0.221 A  
HETATM   33  N   UNL     1     -10.594  17.593  67.413  1.00  0.00    -0.346 NA 
HETATM   34  C   UNL     1     -12.015  13.381  69.010  1.00  0.00    -0.315 A  
ENDBRANCH  14  23
ENDBRANCH   9  13
ENDBRANCH   3   6
TORSDOF 3
ENDMDL
MODEL       62
REMARK 921   NORMALIZED FREE ENERGY PREDICTED BY IDOCK:   -5.38 KCAL/MOL
REMARK 922        TOTAL FREE ENERGY PREDICTED BY IDOCK:   -7.44 KCAL/MOL
REMARK 923 INTER-LIGAND FREE ENERGY PREDICTED BY IDOCK:   -6.13 KCAL/MOL
REMARK 924 INTRA-LIGAND FREE ENERGY PREDICTED BY IDOCK:   -1.32 KCAL/MOL
REMARK 927      BINDING AFFINITY PREDICTED BY RF-SCORE:    0.00 PKD
ROOT
HETATM    1  C   UNL     1     -11.050   4.002  73.382  1.00  0.00    -0.246 C  
HETATM    2  N   UNL     1     -10.574   4.830  72.305  1.00  0.00    -0.188 N  
HETATM    3  C   UNL     1      -9.961   4.287  71.198  1.00  0.00    -0.156 C  
HETATM    4  H   UNL     1     -10.693   5.842  72.363  1.00  0.00     0.000 HD 
HETATM    5  O   UNL     1      -9.836   3.080  71.021  1.00  0.00    -0.152 OA 
ENDROOT
BRANCH   3   6
HETATM    6  C   UNL     1      -9.421   5.236  70.192  1.00  0.00    -0.217 A  
HETATM    7  C   UNL     1      -8.039   5.335  70.017  1.00  0.00    -0.084 A  
HETATM    8  C   UNL     1      -7.496   6.324  69.182  1.00  0.00    -0.094 A  
HETATM    9  C   UNL     1      -8.316   7.232  68.490  1.00  0.00    -0.125 A  
HETATM   10  C   UNL     1      -9.694   7.030  68.583  1.00  0.00    -0.139 A  
HETATM   11  F   UNL     1     -11.574   6.017  69.543  1.00  0.00    -0.481 F  
HETATM   12  C   UNL     1     -10.236   6.075  69.444  1.00  0.00    -0.211 A  
BRANCH   9  13
HETATM   13  N   UNL     1      -7.770   8.348  67.781  1.00  0.00    -0.102 N  
HETATM   14  N   UNL     1      -7.825  10.571  67.169  1.00  0.00    -0.110 N  
HETATM   15  S   UNL     1      -7.403  10.103  69.866  1.00  0.00    -0.165 S  
HETATM   16  C   UNL     1      -7.748   9.692  68.271  1.00  0.00    -0.082 C  
HETATM   17  C   UNL     1      -7.403   9.925  66.016  1.00  0.00    -0.106 C  
HETATM   18  C   UNL     1      -6.266   7.501  65.834  1.00  0.00    -0.041 C  
HETATM   19  C   UNL     1      -7.263   6.555  65.124  1.00  0.00    -0.070 C  
HETATM   20  O   UNL     1      -7.045  10.437  64.959  1.00  0.00    -0.128 OA 
HETATM   21  C   UNL     1      -7.454   8.372  66.306  1.00  0.00    -0.089 C  
HETATM   22  C   UNL     1      -8.353   7.620  65.290  1.00  0.00    -0.121 C  
BRANCH  14  23
HETATM   23  C   UNL     1      -8.347  11.918  67.177  1.00  0.00    -0.174 A  
HETATM   24  C   UNL     1      -9.723  12.201  67.170  1.00  0.00    -0.203 A  
HETATM   25  C   UNL     1      -9.308  14.554  67.372  1.00  0.00    -0.197 A  
HETATM   26  C   UNL     1     -11.696  13.804  67.279  1.00  0.00    -0.382 C  
HETATM   27  F   UNL     1     -12.087  14.443  68.416  1.00  0.00    -0.362 F  
HETATM   28  F   UNL     1     -12.460  12.683  67.209  1.00  0.00    -0.226 F  
HETATM   29  F   UNL     1     -12.085  14.587  66.242  1.00  0.00    -0.389 F  
HETATM   30  C   UNL     1      -9.696  15.939  67.450  1.00  0.00    -0.227 C  
HETATM   31  N   UNL     1      -7.975  14.333  67.416  1.00  0.00    -0.191 NA 
HETATM   32  C   UNL     1     -10.222  13.520  67.269  1.00  0.00    -0.242 A  
HETATM   33  N   UNL     1     -10.045  17.047  67.508  1.00  0.00    -0.285 NA 
HETATM   34  C   UNL     1      -7.540  13.046  67.335  1.00  0.00    -0.137 A  
ENDBRANCH  14  23
ENDBRANCH   9  13
ENDBRANCH   3   6
TORSDOF 3
ENDMDL
MODEL       63
REMARK 921   NORMALIZED FREE ENERGY PREDICTED BY IDOCK:   -5.35 KCAL/MOL
REMARK 922        TOTAL FREE ENERGY PREDICTED BY IDOCK:   -7.41 KCAL/MOL
REMARK 923 INTER-LIGAND FREE ENERGY PREDICTED BY IDOCK:   -6.64 KCAL/MOL
REMARK 924 INTRA-LIGAND FREE ENERGY PREDICTED BY IDOCK:   -0.77 KCAL/MOL
REMARK 927      BINDING AFFINITY PREDICTED BY RF-SCORE:    0.00 PKD
ROOT
HETATM    1  C   UNL     1     -10.655   3.221  63.841  1.00  0.00    -0.215 C  
HETATM    2  N   UNL     1     -10.128   4.390  64.493  1.00  0.00    -0.384 N  
HETATM    3  C   UNL     1      -9.536   4.314  65.735  1.00  0.00    -0.189 C  
HETATM    4  H   UNL     1     -10.193   5.294  64.026  1.00  0.00     0.000 HD 
HETATM    5  O   UNL     1      -9.361   3.259  66.335  1.00  0.00    -0.165 OA 
ENDROOT
BRANCH   3   6
HETATM    6  C   UNL     1      -9.114   5.593  66.360  1.00  0.00    -0.150 A  
HETATM    7  C   UNL     1      -9.360   5.804  67.718  1.00  0.00    -0.105 A  
HETATM    8  C   UNL     1      -9.105   7.056  68.301  1.00  0.00    -0.126 A  
HETATM    9  C   UNL     1      -8.588   8.124  67.549  1.00  0.00    -0.129 A  
HETATM   10  C   UNL     1      -8.233   7.849  66.227  1.00  0.00    -0.117 A  
HETATM   11  F   UNL     1      -8.235   6.475  64.331  1.00  0.00    -0.126 F  
HETATM   12  C   UNL     1      -8.523   6.619  65.636  1.00  0.00    -0.144 A  
BRANCH   9  13
HETATM   13  N   UNL     1      -8.492   9.446  68.089  1.00  0.00    -0.120 N  
HETATM   14  N   UNL     1      -8.880  11.715  67.946  1.00  0.00    -0.149 N  
HETATM   15  S   UNL     1     -11.153  10.142  68.117  1.00  0.00    -0.180 S  
HETATM   16  C   UNL     1      -9.505  10.450  67.968  1.00  0.00    -0.143 C  
HETATM   17  C   UNL     1      -7.623  11.634  68.528  1.00  0.00    -0.127 C  
HETATM   18  C   UNL     1      -6.571   9.543  69.840  1.00  0.00    -0.059 C  
HETATM   19  C   UNL     1      -5.410   8.976  68.989  1.00  0.00    -0.037 C  
HETATM   20  O   UNL     1      -6.936  12.557  68.958  1.00  0.00    -0.102 OA 
HETATM   21  C   UNL     1      -7.218  10.107  68.553  1.00  0.00    -0.080 C  
HETATM   22  C   UNL     1      -5.877   9.848  67.817  1.00  0.00    -0.039 C  
BRANCH  14  23
HETATM   23  C   UNL     1      -9.394  12.919  67.335  1.00  0.00    -0.194 A  
HETATM   24  C   UNL     1      -9.519  14.133  68.031  1.00  0.00    -0.213 A  
HETATM   25  C   UNL     1     -10.235  15.274  66.048  1.00  0.00    -0.317 A  
HETATM   26  C   UNL     1     -10.048  16.618  68.153  1.00  0.00    -0.267 C  
HETATM   27  F   UNL     1      -9.247  17.586  67.629  1.00  0.00    -0.235 F  
HETATM   28  F   UNL     1      -9.687  16.511  69.458  1.00  0.00    -0.240 F  
HETATM   29  F   UNL     1     -11.309  17.118  68.154  1.00  0.00    -0.311 F  
HETATM   30  C   UNL     1     -10.698  16.416  65.303  1.00  0.00    -0.295 C  
HETATM   31  N   UNL     1     -10.100  14.139  65.325  1.00  0.00    -0.354 NA 
HETATM   32  C   UNL     1      -9.938  15.326  67.399  1.00  0.00    -0.223 A  
HETATM   33  N   UNL     1     -11.073  17.358  64.732  1.00  0.00    -0.883 NA 
HETATM   34  C   UNL     1      -9.677  13.019  65.971  1.00  0.00    -0.216 A  
ENDBRANCH  14  23
ENDBRANCH   9  13
ENDBRANCH   3   6
TORSDOF 3
ENDMDL
MODEL       64
REMARK 921   NORMALIZED FREE ENERGY PREDICTED BY IDOCK:   -5.32 KCAL/MOL
REMARK 922        TOTAL FREE ENERGY PREDICTED BY IDOCK:   -7.38 KCAL/MOL
REMARK 923 INTER-LIGAND FREE ENERGY PREDICTED BY IDOCK:   -6.51 KCAL/MOL
REMARK 924 INTRA-LIGAND FREE ENERGY PREDICTED BY IDOCK:   -0.87 KCAL/MOL
REMARK 927      BINDING AFFINITY PREDICTED BY RF-SCORE:    0.00 PKD
ROOT
HETATM    1  C   UNL     1      -7.525   4.944  72.978  1.00  0.00    -0.091 C  
HETATM    2  N   UNL     1      -7.646   5.929  71.935  1.00  0.00    -0.095 N  
HETATM    3  C   UNL     1      -7.227   7.227  72.121  1.00  0.00    -0.068 C  
HETATM    4  H   UNL     1      -8.051   5.659  71.039  1.00  0.00     0.000 HD 
HETATM    5  O   UNL     1      -6.672   7.617  73.143  1.00  0.00    -0.064 OA 
ENDROOT
BRANCH   3   6
HETATM    6  C   UNL     1      -7.486   8.185  71.017  1.00  0.00    -0.067 A  
HETATM    7  C   UNL     1      -8.541   9.093  71.132  1.00  0.00    -0.196 A  
HETATM    8  C   UNL     1      -8.901   9.908  70.047  1.00  0.00    -0.194 A  
HETATM    9  C   UNL     1      -8.211   9.847  68.824  1.00  0.00    -0.114 A  
HETATM   10  C   UNL     1      -7.084   9.025  68.777  1.00  0.00    -0.070 A  
HETATM   11  F   UNL     1      -5.707   7.356  69.671  1.00  0.00    -0.022 F  
HETATM   12  C   UNL     1      -6.750   8.185  69.840  1.00  0.00    -0.043 A  
BRANCH   9  13
HETATM   13  N   UNL     1      -8.679  10.542  67.663  1.00  0.00    -0.122 N  
HETATM   14  N   UNL     1      -9.366  12.476  66.611  1.00  0.00    -0.232 N  
HETATM   15  S   UNL     1      -6.723  12.462  67.437  1.00  0.00    -0.136 S  
HETATM   16  C   UNL     1      -8.293  11.871  67.299  1.00  0.00    -0.169 C  
HETATM   17  C   UNL     1     -10.201  11.502  66.082  1.00  0.00    -0.232 C  
HETATM   18  C   UNL     1      -9.767   8.854  66.008  1.00  0.00    -0.308 C  
HETATM   19  C   UNL     1     -10.782   8.174  66.956  1.00  0.00    -0.247 C  
HETATM   20  O   UNL     1     -11.032  11.633  65.189  1.00  0.00    -0.294 OA 
HETATM   21  C   UNL     1      -9.883  10.153  66.842  1.00  0.00    -0.195 C  
HETATM   22  C   UNL     1     -11.144   9.554  67.518  1.00  0.00     0.021 C  
BRANCH  14  23
HETATM   23  C   UNL     1      -9.646  13.890  66.525  1.00  0.00    -0.287 A  
HETATM   24  C   UNL     1      -9.517  14.760  67.621  1.00  0.00    -0.204 A  
HETATM   25  C   UNL     1     -10.031  16.663  66.257  1.00  0.00    -0.320 A  
HETATM   26  C   UNL     1      -9.546  17.073  68.679  1.00  0.00    -0.275 C  
HETATM   27  F   UNL     1      -8.581  18.010  68.471  1.00  0.00    -0.278 F  
HETATM   28  F   UNL     1      -9.189  16.427  69.820  1.00  0.00    -0.124 F  
HETATM   29  F   UNL     1     -10.685  17.749  68.974  1.00  0.00    -0.290 F  
HETATM   30  C   UNL     1     -10.276  18.062  66.020  1.00  0.00    -0.303 C  
HETATM   31  N   UNL     1     -10.135  15.874  65.164  1.00  0.00    -0.453 NA 
HETATM   32  C   UNL     1      -9.706  16.156  67.503  1.00  0.00    -0.233 A  
HETATM   33  N   UNL     1     -10.469  19.199  65.864  1.00  0.00    -0.514 NA 
HETATM   34  C   UNL     1      -9.928  14.538  65.321  1.00  0.00    -0.287 A  
ENDBRANCH  14  23
ENDBRANCH   9  13
ENDBRANCH   3   6
TORSDOF 3
ENDMDL
MODEL       65
REMARK 921   NORMALIZED FREE ENERGY PREDICTED BY IDOCK:   -5.28 KCAL/MOL
REMARK 922        TOTAL FREE ENERGY PREDICTED BY IDOCK:   -7.33 KCAL/MOL
REMARK 923 INTER-LIGAND FREE ENERGY PREDICTED BY IDOCK:   -6.27 KCAL/MOL
REMARK 924 INTRA-LIGAND FREE ENERGY PREDICTED BY IDOCK:   -1.06 KCAL/MOL
REMARK 927      BINDING AFFINITY PREDICTED BY RF-SCORE:    0.00 PKD
ROOT
HETATM    1  C   UNL     1      -9.154  20.917  67.025  1.00  0.00    -0.024 C  
HETATM    2  N   UNL     1      -9.086  19.529  67.400  1.00  0.00    -0.301 N  
HETATM    3  C   UNL     1      -8.423  18.607  66.622  1.00  0.00    -0.292 C  
HETATM    4  H   UNL     1      -9.539  19.222  68.261  1.00  0.00     0.000 HD 
HETATM    5  O   UNL     1      -7.800  18.903  65.608  1.00  0.00    -0.459 OA 
ENDROOT
BRANCH   3   6
HETATM    6  C   UNL     1      -8.497  17.187  67.049  1.00  0.00    -0.233 A  
HETATM    7  C   UNL     1      -8.865  16.211  66.120  1.00  0.00    -0.367 A  
HETATM    8  C   UNL     1      -9.085  14.886  66.529  1.00  0.00    -0.309 A  
HETATM    9  C   UNL     1      -8.932  14.497  67.871  1.00  0.00    -0.187 A  
HETATM   10  C   UNL     1      -8.441  15.461  68.753  1.00  0.00    -0.188 A  
HETATM   11  F   UNL     1      -7.880  17.668  69.297  1.00  0.00    -0.191 F  
HETATM   12  C   UNL     1      -8.262  16.787  68.358  1.00  0.00    -0.224 A  
BRANCH   9  13
HETATM   13  N   UNL     1      -9.322  13.197  68.326  1.00  0.00    -0.214 N  
HETATM   14  N   UNL     1      -9.401  10.907  68.059  1.00  0.00    -0.155 N  
HETATM   15  S   UNL     1      -6.865  11.964  68.409  1.00  0.00    -0.077 S  
HETATM   16  C   UNL     1      -8.532  12.013  68.181  1.00  0.00    -0.171 C  
HETATM   17  C   UNL     1     -10.642  11.217  68.598  1.00  0.00    -0.202 C  
HETATM   18  C   UNL     1     -11.305  13.409  69.996  1.00  0.00    -0.009 C  
HETATM   19  C   UNL     1     -12.283  14.249  69.139  1.00  0.00    -0.272 C  
HETATM   20  O   UNL     1     -11.523  10.436  68.945  1.00  0.00    -0.244 OA 
HETATM   21  C   UNL     1     -10.726  12.792  68.701  1.00  0.00    -0.246 C  
HETATM   22  C   UNL     1     -11.948  13.361  67.935  1.00  0.00    -0.360 C  
BRANCH  14  23
HETATM   23  C   UNL     1      -9.115   9.657  67.395  1.00  0.00    -0.130 A  
HETATM   24  C   UNL     1      -8.970   8.443  68.087  1.00  0.00    -0.139 A  
HETATM   25  C   UNL     1      -8.736   7.224  66.036  1.00  0.00    -0.151 A  
HETATM   26  C   UNL     1      -8.644   5.922  68.173  1.00  0.00    -0.113 C  
HETATM   27  F   UNL     1      -9.609   5.025  67.831  1.00  0.00    -0.130 F  
HETATM   28  F   UNL     1      -8.746   6.073  69.519  1.00  0.00    -0.120 F  
HETATM   29  F   UNL     1      -7.453   5.311  67.954  1.00  0.00    -0.072 F  
HETATM   30  C   UNL     1      -8.520   6.038  65.248  1.00  0.00    -0.131 C  
HETATM   31  N   UNL     1      -8.904   8.360  65.321  1.00  0.00    -0.123 NA 
HETATM   32  C   UNL     1      -8.780   7.212  67.419  1.00  0.00    -0.120 A  
HETATM   33  N   UNL     1      -8.341   5.061  64.643  1.00  0.00    -0.135 NA 
HETATM   34  C   UNL     1      -9.101   9.519  66.005  1.00  0.00    -0.176 A  
ENDBRANCH  14  23
ENDBRANCH   9  13
ENDBRANCH   3   6
TORSDOF 3
ENDMDL
MODEL       66
REMARK 921   NORMALIZED FREE ENERGY PREDICTED BY IDOCK:   -5.28 KCAL/MOL
REMARK 922        TOTAL FREE ENERGY PREDICTED BY IDOCK:   -7.32 KCAL/MOL
REMARK 923 INTER-LIGAND FREE ENERGY PREDICTED BY IDOCK:   -6.66 KCAL/MOL
REMARK 924 INTRA-LIGAND FREE ENERGY PREDICTED BY IDOCK:   -0.67 KCAL/MOL
REMARK 927      BINDING AFFINITY PREDICTED BY RF-SCORE:    0.00 PKD
ROOT
HETATM    1  C   UNL     1     -10.978   2.598  73.971  1.00  0.00    -0.160 C  
HETATM    2  N   UNL     1     -10.589   3.298  72.776  1.00  0.00    -0.125 N  
HETATM    3  C   UNL     1     -10.575   4.674  72.723  1.00  0.00    -0.208 C  
HETATM    4  H   UNL     1     -10.318   2.764  71.950  1.00  0.00     0.000 HD 
HETATM    5  O   UNL     1     -10.824   5.389  73.687  1.00  0.00    -0.276 OA 
ENDROOT
BRANCH   3   6
HETATM    6  C   UNL     1     -10.252   5.295  71.413  1.00  0.00    -0.279 A  
HETATM    7  C   UNL     1      -9.025   5.017  70.808  1.00  0.00    -0.165 A  
HETATM    8  C   UNL     1      -8.632   5.701  69.647  1.00  0.00    -0.110 A  
HETATM    9  C   UNL     1      -9.458   6.671  69.052  1.00  0.00    -0.131 A  
HETATM   10  C   UNL     1     -10.729   6.837  69.603  1.00  0.00    -0.290 A  
HETATM   11  F   UNL     1     -12.311   6.483  71.293  1.00  0.00    -0.386 F  
HETATM   12  C   UNL     1     -11.105   6.189  70.780  1.00  0.00    -0.309 A  
BRANCH   9  13
HETATM   13  N   UNL     1      -8.995   7.494  67.977  1.00  0.00    -0.129 N  
HETATM   14  N   UNL     1      -9.138   9.409  66.698  1.00  0.00    -0.145 N  
HETATM   15  S   UNL     1      -8.461   9.815  69.353  1.00  0.00    -0.174 S  
HETATM   16  C   UNL     1      -8.947   8.924  68.010  1.00  0.00    -0.140 C  
HETATM   17  C   UNL     1      -8.815   8.423  65.776  1.00  0.00    -0.165 C  
HETATM   18  C   UNL     1      -7.667   6.048  66.270  1.00  0.00    -0.102 C  
HETATM   19  C   UNL     1      -8.712   4.942  65.994  1.00  0.00    -0.124 C  
HETATM   20  O   UNL     1      -8.564   8.567  64.584  1.00  0.00    -0.150 OA 
HETATM   21  C   UNL     1      -8.818   7.044  66.548  1.00  0.00    -0.141 C  
HETATM   22  C   UNL     1      -9.796   6.022  65.912  1.00  0.00     0.150 C  
BRANCH  14  23
HETATM   23  C   UNL     1      -9.675  10.696  66.326  1.00  0.00    -0.199 A  
HETATM   24  C   UNL     1      -9.218  11.903  66.881  1.00  0.00    -0.193 A  
HETATM   25  C   UNL     1     -10.635  13.185  65.434  1.00  0.00    -0.299 A  
HETATM   26  C   UNL     1      -9.175  14.441  67.034  1.00  0.00    -0.234 C  
HETATM   27  F   UNL     1      -8.600  15.244  66.097  1.00  0.00    -0.308 F  
HETATM   28  F   UNL     1      -8.225  14.251  67.986  1.00  0.00    -0.123 F  
HETATM   29  F   UNL     1     -10.153  15.174  67.624  1.00  0.00    -0.226 F  
HETATM   30  C   UNL     1     -11.209  14.404  64.925  1.00  0.00    -0.389 C  
HETATM   31  N   UNL     1     -11.085  12.055  64.843  1.00  0.00    -0.309 NA 
HETATM   32  C   UNL     1      -9.689  13.162  66.443  1.00  0.00    -0.269 A  
HETATM   33  N   UNL     1     -11.654  15.408  64.540  1.00  0.00    -0.361 NA 
HETATM   34  C   UNL     1     -10.591  10.866  65.285  1.00  0.00    -0.189 A  
ENDBRANCH  14  23
ENDBRANCH   9  13
ENDBRANCH   3   6
TORSDOF 3
ENDMDL
MODEL       67
REMARK 921   NORMALIZED FREE ENERGY PREDICTED BY IDOCK:   -5.26 KCAL/MOL
REMARK 922        TOTAL FREE ENERGY PREDICTED BY IDOCK:   -7.30 KCAL/MOL
REMARK 923 INTER-LIGAND FREE ENERGY PREDICTED BY IDOCK:   -7.35 KCAL/MOL
REMARK 924 INTRA-LIGAND FREE ENERGY PREDICTED BY IDOCK:    0.05 KCAL/MOL
REMARK 927      BINDING AFFINITY PREDICTED BY RF-SCORE:    0.00 PKD
ROOT
HETATM    1  C   UNL     1      -9.224   2.095  64.580  1.00  0.00    -0.133 C  
HETATM    2  N   UNL     1      -8.830   3.381  65.092  1.00  0.00    -0.119 N  
HETATM    3  C   UNL     1      -9.051   3.729  66.406  1.00  0.00    -0.152 C  
HETATM    4  H   UNL     1      -8.378   4.049  64.468  1.00  0.00     0.000 HD 
HETATM    5  O   UNL     1      -9.529   2.964  67.236  1.00  0.00    -0.174 OA 
ENDROOT
BRANCH   3   6
HETATM    6  C   UNL     1      -8.694   5.114  66.806  1.00  0.00    -0.108 A  
HETATM    7  C   UNL     1      -8.593   5.430  68.162  1.00  0.00    -0.096 A  
HETATM    8  C   UNL     1      -8.403   6.760  68.571  1.00  0.00    -0.120 A  
HETATM    9  C   UNL     1      -8.296   7.806  67.639  1.00  0.00    -0.121 A  
HETATM   10  C   UNL     1      -8.273   7.446  66.291  1.00  0.00    -0.126 A  
HETATM   11  F   UNL     1      -8.560   5.894  64.561  1.00  0.00    -0.138 F  
HETATM   12  C   UNL     1      -8.503   6.132  65.882  1.00  0.00    -0.145 A  
BRANCH   9  13
HETATM   13  N   UNL     1      -8.280   9.177  68.048  1.00  0.00    -0.112 N  
HETATM   14  N   UNL     1      -8.751  11.402  67.661  1.00  0.00    -0.134 N  
HETATM   15  S   UNL     1     -10.964   9.753  67.887  1.00  0.00    -0.097 S  
HETATM   16  C   UNL     1      -9.325  10.118  67.782  1.00  0.00    -0.141 C  
HETATM   17  C   UNL     1      -7.521  11.435  68.304  1.00  0.00    -0.101 C  
HETATM   18  C   UNL     1      -6.452   9.532  69.865  1.00  0.00    -0.053 C  
HETATM   19  C   UNL     1      -5.229   8.936  69.127  1.00  0.00    -0.036 C  
HETATM   20  O   UNL     1      -6.894  12.424  68.670  1.00  0.00    -0.076 OA 
HETATM   21  C   UNL     1      -7.057   9.937  68.500  1.00  0.00    -0.071 C  
HETATM   22  C   UNL     1      -5.672   9.667  67.855  1.00  0.00    -0.040 C  
BRANCH  14  23
HETATM   23  C   UNL     1      -9.282  12.516  66.911  1.00  0.00    -0.211 A  
HETATM   24  C   UNL     1     -10.475  12.437  66.173  1.00  0.00    -0.274 A  
HETATM   25  C   UNL     1     -10.361  14.766  65.614  1.00  0.00    -0.349 A  
HETATM   26  C   UNL     1     -12.316  13.462  64.748  1.00  0.00    -0.396 C  
HETATM   27  F   UNL     1     -13.270  14.300  65.237  1.00  0.00    -0.455 F  
HETATM   28  F   UNL     1     -12.868  12.221  64.778  1.00  0.00    -0.539 F  
HETATM   29  F   UNL     1     -12.165  13.772  63.436  1.00  0.00    -0.529 F  
HETATM   30  C   UNL     1     -10.815  15.970  64.966  1.00  0.00    -0.404 C  
HETATM   31  N   UNL     1      -9.228  14.903  66.339  1.00  0.00    -0.288 NA 
HETATM   32  C   UNL     1     -11.031  13.559  65.516  1.00  0.00    -0.295 A  
HETATM   33  N   UNL     1     -11.210  16.922  64.427  1.00  0.00    -1.120 NA 
HETATM   34  C   UNL     1      -8.737  13.801  66.968  1.00  0.00    -0.198 A  
ENDBRANCH  14  23
ENDBRANCH   9  13
ENDBRANCH   3   6
TORSDOF 3
ENDMDL
MODEL       68
REMARK 921   NORMALIZED FREE ENERGY PREDICTED BY IDOCK:   -5.21 KCAL/MOL
REMARK 922        TOTAL FREE ENERGY PREDICTED BY IDOCK:   -7.25 KCAL/MOL
REMARK 923 INTER-LIGAND FREE ENERGY PREDICTED BY IDOCK:   -6.19 KCAL/MOL
REMARK 924 INTRA-LIGAND FREE ENERGY PREDICTED BY IDOCK:   -1.05 KCAL/MOL
REMARK 927      BINDING AFFINITY PREDICTED BY RF-SCORE:    0.00 PKD
ROOT
HETATM    1  C   UNL     1     -10.570  17.068  66.732  1.00  0.00    -0.191 C  
HETATM    2  N   UNL     1     -10.339  15.735  67.223  1.00  0.00    -0.283 N  
HETATM    3  C   UNL     1     -10.592  14.629  66.444  1.00  0.00    -0.301 C  
HETATM    4  H   UNL     1      -9.979  15.607  68.169  1.00  0.00     0.000 HD 
HETATM    5  O   UNL     1     -10.964  14.696  65.277  1.00  0.00    -0.325 OA 
ENDROOT
BRANCH   3   6
HETATM    6  C   UNL     1     -10.411  13.299  67.080  1.00  0.00    -0.249 A  
HETATM    7  C   UNL     1      -9.356  13.107  67.974  1.00  0.00    -0.219 A  
HETATM    8  C   UNL     1      -9.073  11.826  68.476  1.00  0.00    -0.144 A  
HETATM    9  C   UNL     1      -9.843  10.709  68.111  1.00  0.00    -0.155 A  
HETATM   10  C   UNL     1     -10.966  10.950  67.319  1.00  0.00    -0.355 A  
HETATM   11  F   UNL     1     -12.273  12.333  65.954  1.00  0.00    -0.464 F  
HETATM   12  C   UNL     1     -11.224  12.214  66.785  1.00  0.00    -0.322 A  
BRANCH   9  13
HETATM   13  N   UNL     1      -9.457   9.379  68.475  1.00  0.00    -0.145 N  
HETATM   14  N   UNL     1      -9.160   7.152  67.956  1.00  0.00    -0.133 N  
HETATM   15  S   UNL     1      -7.521   8.909  66.579  1.00  0.00    -0.089 S  
HETATM   16  C   UNL     1      -8.773   8.465  67.613  1.00  0.00    -0.137 C  
HETATM   17  C   UNL     1      -9.641   7.123  69.257  1.00  0.00    -0.155 C  
HETATM   18  C   UNL     1      -9.570   9.109  71.060  1.00  0.00    -0.350 C  
HETATM   19  C   UNL     1     -11.021   9.583  71.311  1.00  0.00    -0.440 C  
HETATM   20  O   UNL     1      -9.771   6.144  69.985  1.00  0.00    -0.161 OA 
HETATM   21  C   UNL     1      -9.992   8.611  69.658  1.00  0.00    -0.191 C  
HETATM   22  C   UNL     1     -11.472   8.761  70.098  1.00  0.00    -0.027 C  
BRANCH  14  23
HETATM   23  C   UNL     1      -9.163   6.000  67.084  1.00  0.00    -0.117 A  
HETATM   24  C   UNL     1      -8.023   5.210  66.863  1.00  0.00    -0.104 A  
HETATM   25  C   UNL     1      -9.272   3.666  65.519  1.00  0.00    -0.155 A  
HETATM   26  C   UNL     1      -6.838   3.191  65.868  1.00  0.00    -0.048 C  
HETATM   27  F   UNL     1      -7.008   1.918  66.319  1.00  0.00    -0.039 F  
HETATM   28  F   UNL     1      -5.740   3.665  66.513  1.00  0.00    -0.019 F  
HETATM   29  F   UNL     1      -6.489   3.094  64.560  1.00  0.00    -0.027 F  
HETATM   30  C   UNL     1      -9.427   2.506  64.680  1.00  0.00    -0.120 C  
HETATM   31  N   UNL     1     -10.405   4.373  65.728  1.00  0.00    -0.249 NA 
HETATM   32  C   UNL     1      -8.061   4.033  66.079  1.00  0.00    -0.101 A  
HETATM   33  N   UNL     1      -9.517   1.562  64.005  1.00  0.00    -0.121 NA 
HETATM   34  C   UNL     1     -10.326   5.489  66.503  1.00  0.00    -0.256 A  
ENDBRANCH  14  23
ENDBRANCH   9  13
ENDBRANCH   3   6
TORSDOF 3
ENDMDL
MODEL       69
REMARK 921   NORMALIZED FREE ENERGY PREDICTED BY IDOCK:   -5.20 KCAL/MOL
REMARK 922        TOTAL FREE ENERGY PREDICTED BY IDOCK:   -7.23 KCAL/MOL
REMARK 923 INTER-LIGAND FREE ENERGY PREDICTED BY IDOCK:   -6.58 KCAL/MOL
REMARK 924 INTRA-LIGAND FREE ENERGY PREDICTED BY IDOCK:   -0.64 KCAL/MOL
REMARK 927      BINDING AFFINITY PREDICTED BY RF-SCORE:    0.00 PKD
ROOT
HETATM    1  C   UNL     1     -10.026   3.789  64.702  1.00  0.00    -0.199 C  
HETATM    2  N   UNL     1     -10.044   5.125  65.236  1.00  0.00    -0.382 N  
HETATM    3  C   UNL     1      -8.878   5.809  65.497  1.00  0.00    -0.113 C  
HETATM    4  H   UNL     1     -10.939   5.575  65.425  1.00  0.00     0.000 HD 
HETATM    5  O   UNL     1      -7.763   5.367  65.239  1.00  0.00    -0.084 OA 
ENDROOT
BRANCH   3   6
HETATM    6  C   UNL     1      -9.007   7.142  66.138  1.00  0.00    -0.168 A  
HETATM    7  C   UNL     1      -8.756   8.291  65.384  1.00  0.00    -0.147 A  
HETATM    8  C   UNL     1      -8.727   9.553  65.998  1.00  0.00    -0.166 A  
HETATM    9  C   UNL     1      -8.960   9.704  67.376  1.00  0.00    -0.131 A  
HETATM   10  C   UNL     1      -9.334   8.559  68.079  1.00  0.00    -0.147 A  
HETATM   11  F   UNL     1      -9.601   6.239  68.258  1.00  0.00    -0.122 F  
HETATM   12  C   UNL     1      -9.322   7.299  67.480  1.00  0.00    -0.129 A  
BRANCH   9  13
HETATM   13  N   UNL     1      -8.760  10.957  68.038  1.00  0.00    -0.128 N  
HETATM   14  N   UNL     1      -8.960  13.254  68.111  1.00  0.00    -0.192 N  
HETATM   15  S   UNL     1     -11.355  11.863  68.137  1.00  0.00    -0.315 S  
HETATM   16  C   UNL     1      -9.687  12.048  68.014  1.00  0.00    -0.198 C  
HETATM   17  C   UNL     1      -7.718  13.015  68.681  1.00  0.00    -0.069 C  
HETATM   18  C   UNL     1      -6.848  10.731  69.788  1.00  0.00    -0.151 C  
HETATM   19  C   UNL     1      -5.732  10.153  68.885  1.00  0.00    -0.034 C  
HETATM   20  O   UNL     1      -6.961  13.834  69.195  1.00  0.00    -0.111 OA 
HETATM   21  C   UNL     1      -7.439  11.464  68.560  1.00  0.00    -0.113 C  
HETATM   22  C   UNL     1      -6.119  11.167  67.802  1.00  0.00    -0.047 C  
BRANCH  14  23
HETATM   23  C   UNL     1      -9.371  14.548  67.618  1.00  0.00    -0.202 A  
HETATM   24  C   UNL     1      -8.850  15.753  68.117  1.00  0.00    -0.178 A  
HETATM   25  C   UNL     1     -10.074  17.030  66.499  1.00  0.00    -0.314 A  
HETATM   26  C   UNL     1      -8.612  18.286  68.097  1.00  0.00    -0.278 C  
HETATM   27  F   UNL     1      -7.922  18.972  67.145  1.00  0.00    -0.247 F  
HETATM   28  F   UNL     1      -7.735  18.094  69.118  1.00  0.00    -0.259 F  
HETATM   29  F   UNL     1      -9.559  19.132  68.573  1.00  0.00    -0.348 F  
HETATM   30  C   UNL     1     -10.519  18.249  65.873  1.00  0.00    -0.307 C  
HETATM   31  N   UNL     1     -10.579  15.897  65.960  1.00  0.00    -0.326 NA 
HETATM   32  C   UNL     1      -9.192  17.009  67.565  1.00  0.00    -0.231 A  
HETATM   33  N   UNL     1     -10.858  19.253  65.392  1.00  0.00    -0.469 NA 
HETATM   34  C   UNL     1     -10.209  14.710  66.513  1.00  0.00    -0.278 A  
ENDBRANCH  14  23
ENDBRANCH   9  13
ENDBRANCH   3   6
TORSDOF 3
ENDMDL
MODEL       70
REMARK 921   NORMALIZED FREE ENERGY PREDICTED BY IDOCK:   -5.17 KCAL/MOL
REMARK 922        TOTAL FREE ENERGY PREDICTED BY IDOCK:   -7.20 KCAL/MOL
REMARK 923 INTER-LIGAND FREE ENERGY PREDICTED BY IDOCK:   -6.23 KCAL/MOL
REMARK 924 INTRA-LIGAND FREE ENERGY PREDICTED BY IDOCK:   -0.97 KCAL/MOL
REMARK 927      BINDING AFFINITY PREDICTED BY RF-SCORE:    0.00 PKD
ROOT
HETATM    1  C   UNL     1     -10.776  17.023  66.000  1.00  0.00    -0.116 C  
HETATM    2  N   UNL     1     -10.411  15.701  66.437  1.00  0.00    -0.298 N  
HETATM    3  C   UNL     1     -11.132  14.593  66.050  1.00  0.00    -0.332 C  
HETATM    4  H   UNL     1      -9.602  15.582  67.045  1.00  0.00     0.000 HD 
HETATM    5  O   UNL     1     -12.078  14.641  65.272  1.00  0.00    -0.347 OA 
ENDROOT
BRANCH   3   6
HETATM    6  C   UNL     1     -10.730  13.289  66.635  1.00  0.00    -0.284 A  
HETATM    7  C   UNL     1      -9.834  13.267  67.706  1.00  0.00    -0.224 A  
HETATM    8  C   UNL     1      -9.323  12.048  68.182  1.00  0.00    -0.199 A  
HETATM    9  C   UNL     1      -9.702  10.821  67.612  1.00  0.00    -0.166 A  
HETATM   10  C   UNL     1     -10.693  10.864  66.630  1.00  0.00    -0.289 A  
HETATM   11  F   UNL     1     -12.051  12.022  65.115  1.00  0.00    -0.414 F  
HETATM   12  C   UNL     1     -11.170  12.075  66.127  1.00  0.00    -0.343 A  
BRANCH   9  13
HETATM   13  N   UNL     1      -9.057   9.595  67.971  1.00  0.00    -0.126 N  
HETATM   14  N   UNL     1      -8.340   7.466  67.448  1.00  0.00    -0.115 N  
HETATM   15  S   UNL     1      -7.102   9.503  66.038  1.00  0.00    -0.094 S  
HETATM   16  C   UNL     1      -8.223   8.828  67.096  1.00  0.00    -0.104 C  
HETATM   17  C   UNL     1      -8.781   7.350  68.759  1.00  0.00    -0.128 C  
HETATM   18  C   UNL     1      -9.067   9.321  70.558  1.00  0.00    -0.307 C  
HETATM   19  C   UNL     1     -10.578   9.503  70.836  1.00  0.00    -0.395 C  
HETATM   20  O   UNL     1      -8.704   6.368  69.490  1.00  0.00    -0.131 OA 
HETATM   21  C   UNL     1      -9.410   8.743  69.164  1.00  0.00    -0.149 C  
HETATM   22  C   UNL     1     -10.882   8.603  69.632  1.00  0.00    -0.163 C  
BRANCH  14  23
HETATM   23  C   UNL     1      -8.133   6.331  66.579  1.00  0.00    -0.110 A  
HETATM   24  C   UNL     1      -9.191   5.636  65.970  1.00  0.00    -0.164 A  
HETATM   25  C   UNL     1      -7.665   4.242  64.755  1.00  0.00    -0.078 A  
HETATM   26  C   UNL     1     -10.114   3.864  64.396  1.00  0.00    -0.215 C  
HETATM   27  F   UNL     1     -10.073   3.965  63.039  1.00  0.00    -0.144 F  
HETATM   28  F   UNL     1     -11.332   4.341  64.762  1.00  0.00    -0.369 F  
HETATM   29  F   UNL     1     -10.130   2.538  64.685  1.00  0.00    -0.083 F  
HETATM   30  C   UNL     1      -7.319   3.171  63.857  1.00  0.00    -0.061 C  
HETATM   31  N   UNL     1      -6.611   4.902  65.287  1.00  0.00    -0.036 NA 
HETATM   32  C   UNL     1      -8.973   4.584  65.051  1.00  0.00    -0.149 A  
HETATM   33  N   UNL     1      -7.075   2.298  63.127  1.00  0.00    -0.035 NA 
HETATM   34  C   UNL     1      -6.868   5.918  66.155  1.00  0.00    -0.061 A  
ENDBRANCH  14  23
ENDBRANCH   9  13
ENDBRANCH   3   6
TORSDOF 3
ENDMDL
MODEL       71
REMARK 921   NORMALIZED FREE ENERGY PREDICTED BY IDOCK:   -5.16 KCAL/MOL
REMARK 922        TOTAL FREE ENERGY PREDICTED BY IDOCK:   -7.19 KCAL/MOL
REMARK 923 INTER-LIGAND FREE ENERGY PREDICTED BY IDOCK:   -6.24 KCAL/MOL
REMARK 924 INTRA-LIGAND FREE ENERGY PREDICTED BY IDOCK:   -0.95 KCAL/MOL
REMARK 927      BINDING AFFINITY PREDICTED BY RF-SCORE:    0.00 PKD
ROOT
HETATM    1  C   UNL     1     -10.618  19.135  66.823  1.00  0.00    -0.439 C  
HETATM    2  N   UNL     1     -10.474  17.704  66.761  1.00  0.00    -0.320 N  
HETATM    3  C   UNL     1     -10.615  16.919  67.883  1.00  0.00    -0.361 C  
HETATM    4  H   UNL     1     -10.263  17.263  65.866  1.00  0.00     0.000 HD 
HETATM    5  O   UNL     1     -10.931  17.363  68.982  1.00  0.00    -0.072 OA 
ENDROOT
BRANCH   3   6
HETATM    6  C   UNL     1     -10.350  15.466  67.727  1.00  0.00    -0.253 A  
HETATM    7  C   UNL     1     -11.245  14.683  66.995  1.00  0.00    -0.348 A  
HETATM    8  C   UNL     1     -11.100  13.287  66.954  1.00  0.00    -0.310 A  
HETATM    9  C   UNL     1     -10.053  12.638  67.631  1.00  0.00    -0.218 A  
HETATM   10  C   UNL     1      -9.103  13.453  68.248  1.00  0.00    -0.181 A  
HETATM   11  F   UNL     1      -8.355  15.532  69.023  1.00  0.00    -0.158 F  
HETATM   12  C   UNL     1      -9.268  14.836  68.325  1.00  0.00    -0.187 A  
BRANCH   9  13
HETATM   13  N   UNL     1     -10.000  11.212  67.741  1.00  0.00    -0.172 N  
HETATM   14  N   UNL     1      -9.529   9.298  68.939  1.00  0.00    -0.152 N  
HETATM   15  S   UNL     1     -11.588  10.845  69.955  1.00  0.00    -0.362 S  
HETATM   16  C   UNL     1     -10.308  10.475  68.928  1.00  0.00    -0.208 C  
HETATM   17  C   UNL     1      -9.124   8.984  67.649  1.00  0.00    -0.133 C  
HETATM   18  C   UNL     1      -9.920  10.150  65.367  1.00  0.00    -0.377 C  
HETATM   19  C   UNL     1      -8.716  10.920  64.775  1.00  0.00    -0.055 C  
HETATM   20  O   UNL     1      -8.714   7.904  67.235  1.00  0.00    -0.129 OA 
HETATM   21  C   UNL     1      -9.296  10.290  66.776  1.00  0.00    -0.160 C  
HETATM   22  C   UNL     1      -7.968  10.716  66.097  1.00  0.00    -0.151 C  
BRANCH  14  23
HETATM   23  C   UNL     1      -9.111   8.553  70.104  1.00  0.00    -0.152 A  
HETATM   24  C   UNL     1      -9.103   7.149  70.147  1.00  0.00    -0.152 A  
HETATM   25  C   UNL     1      -8.119   7.155  72.334  1.00  0.00    -0.100 A  
HETATM   26  C   UNL     1      -8.589   4.932  71.283  1.00  0.00    -0.123 C  
HETATM   27  F   UNL     1      -7.330   4.436  71.436  1.00  0.00    -0.048 F  
HETATM   28  F   UNL     1      -9.066   4.371  70.141  1.00  0.00    -0.117 F  
HETATM   29  F   UNL     1      -9.334   4.415  72.292  1.00  0.00    -0.134 F  
HETATM   30  C   UNL     1      -7.615   6.537  73.532  1.00  0.00    -0.088 C  
HETATM   31  N   UNL     1      -8.073   8.507  72.329  1.00  0.00    -0.298 NA 
HETATM   32  C   UNL     1      -8.607   6.431  71.260  1.00  0.00    -0.127 A  
HETATM   33  N   UNL     1      -7.217   6.003  74.487  1.00  0.00    -0.090 NA 
HETATM   34  C   UNL     1      -8.546   9.156  71.230  1.00  0.00    -0.063 A  
ENDBRANCH  14  23
ENDBRANCH   9  13
ENDBRANCH   3   6
TORSDOF 3
ENDMDL
MODEL       72
REMARK 921   NORMALIZED FREE ENERGY PREDICTED BY IDOCK:   -5.15 KCAL/MOL
REMARK 922        TOTAL FREE ENERGY PREDICTED BY IDOCK:   -7.17 KCAL/MOL
REMARK 923 INTER-LIGAND FREE ENERGY PREDICTED BY IDOCK:   -6.25 KCAL/MOL
REMARK 924 INTRA-LIGAND FREE ENERGY PREDICTED BY IDOCK:   -0.92 KCAL/MOL
REMARK 927      BINDING AFFINITY PREDICTED BY RF-SCORE:    0.00 PKD
ROOT
HETATM    1  C   UNL     1     -10.328  18.280  66.133  1.00  0.00    -0.398 C  
HETATM    2  N   UNL     1     -10.113  16.859  66.198  1.00  0.00    -0.329 N  
HETATM    3  C   UNL     1     -10.591  16.108  67.249  1.00  0.00    -0.305 C  
HETATM    4  H   UNL     1      -9.595  16.398  65.450  1.00  0.00     0.000 HD 
HETATM    5  O   UNL     1     -11.276  16.573  68.154  1.00  0.00    -0.341 OA 
ENDROOT
BRANCH   3   6
HETATM    6  C   UNL     1     -10.230  14.668  67.268  1.00  0.00    -0.241 A  
HETATM    7  C   UNL     1     -10.062  14.021  68.494  1.00  0.00    -0.236 A  
HETATM    8  C   UNL     1      -9.580  12.703  68.544  1.00  0.00    -0.112 A  
HETATM    9  C   UNL     1      -9.264  11.993  67.373  1.00  0.00    -0.180 A  
HETATM   10  C   UNL     1      -9.561  12.617  66.160  1.00  0.00    -0.222 A  
HETATM   11  F   UNL     1     -10.168  14.492  64.895  1.00  0.00    -0.399 F  
HETATM   12  C   UNL     1     -10.001  13.940  66.109  1.00  0.00    -0.310 A  
BRANCH   9  13
HETATM   13  N   UNL     1      -8.609  10.722  67.419  1.00  0.00    -0.126 N  
HETATM   14  N   UNL     1      -8.366   8.610  68.315  1.00  0.00    -0.126 N  
HETATM   15  S   UNL     1     -10.762   9.062  67.002  1.00  0.00     0.007 S  
HETATM   16  C   UNL     1      -9.269   9.475  67.659  1.00  0.00    -0.124 C  
HETATM   17  C   UNL     1      -7.061   9.016  68.077  1.00  0.00    -0.079 C  
HETATM   18  C   UNL     1      -6.236  10.916  66.371  1.00  0.00    -0.130 C  
HETATM   19  C   UNL     1      -5.678  12.098  67.199  1.00  0.00    -0.131 C  
HETATM   20  O   UNL     1      -6.035   8.357  68.215  1.00  0.00    -0.044 OA 
HETATM   21  C   UNL     1      -7.123  10.513  67.572  1.00  0.00    -0.089 C  
HETATM   22  C   UNL     1      -6.276  11.462  68.460  1.00  0.00    -0.046 C  
BRANCH  14  23
HETATM   23  C   UNL     1      -8.707   7.513  69.191  1.00  0.00    -0.136 A  
HETATM   24  C   UNL     1      -9.412   7.689  70.394  1.00  0.00    -0.164 A  
HETATM   25  C   UNL     1      -9.498   5.323  70.768  1.00  0.00    -0.168 A  
HETATM   26  C   UNL     1     -10.586   6.804  72.469  1.00  0.00    -0.221 C  
HETATM   27  F   UNL     1     -11.796   6.181  72.443  1.00  0.00    -0.325 F  
HETATM   28  F   UNL     1     -10.853   8.110  72.732  1.00  0.00    -0.362 F  
HETATM   29  F   UNL     1      -9.930   6.331  73.558  1.00  0.00    -0.155 F  
HETATM   30  C   UNL     1      -9.833   4.138  71.514  1.00  0.00    -0.184 C  
HETATM   31  N   UNL     1      -8.851   5.097  69.602  1.00  0.00    -0.101 NA 
HETATM   32  C   UNL     1      -9.817   6.599  71.197  1.00  0.00    -0.195 A  
HETATM   33  N   UNL     1     -10.117   3.202  72.145  1.00  0.00    -0.158 NA 
HETATM   34  C   UNL     1      -8.494   6.175  68.853  1.00  0.00    -0.118 A  
ENDBRANCH  14  23
ENDBRANCH   9  13
ENDBRANCH   3   6
TORSDOF 3
ENDMDL
MODEL       73
REMARK 921   NORMALIZED FREE ENERGY PREDICTED BY IDOCK:   -5.13 KCAL/MOL
REMARK 922        TOTAL FREE ENERGY PREDICTED BY IDOCK:   -7.15 KCAL/MOL
REMARK 923 INTER-LIGAND FREE ENERGY PREDICTED BY IDOCK:   -6.22 KCAL/MOL
REMARK 924 INTRA-LIGAND FREE ENERGY PREDICTED BY IDOCK:   -0.92 KCAL/MOL
REMARK 927      BINDING AFFINITY PREDICTED BY RF-SCORE:    0.00 PKD
ROOT
HETATM    1  C   UNL     1      -7.167   4.198  68.667  1.00  0.00    -0.055 C  
HETATM    2  N   UNL     1      -7.718   5.526  68.610  1.00  0.00    -0.087 N  
HETATM    3  C   UNL     1      -8.816   5.815  67.830  1.00  0.00    -0.105 C  
HETATM    4  H   UNL     1      -7.287   6.269  69.159  1.00  0.00     0.000 HD 
HETATM    5  O   UNL     1      -9.431   4.968  67.191  1.00  0.00    -0.123 OA 
ENDROOT
BRANCH   3   6
HETATM    6  C   UNL     1      -9.244   7.235  67.768  1.00  0.00    -0.127 A  
HETATM    7  C   UNL     1      -8.437   8.219  68.343  1.00  0.00    -0.129 A  
HETATM    8  C   UNL     1      -8.885   9.547  68.429  1.00  0.00    -0.124 A  
HETATM    9  C   UNL     1     -10.142   9.930  67.932  1.00  0.00    -0.173 A  
HETATM   10  C   UNL     1     -10.872   8.956  67.249  1.00  0.00    -0.084 A  
HETATM   11  F   UNL     1     -11.262   6.739  66.607  1.00  0.00    -0.430 F  
HETATM   12  C   UNL     1     -10.448   7.628  67.200  1.00  0.00    -0.342 A  
BRANCH   9  13
HETATM   13  N   UNL     1     -10.678  11.236  68.171  1.00  0.00    -0.192 N  
HETATM   14  N   UNL     1     -10.413  13.519  68.364  1.00  0.00    -0.242 N  
HETATM   15  S   UNL     1      -9.936  12.489  65.838  1.00  0.00    -0.246 S  
HETATM   16  C   UNL     1     -10.264  12.423  67.487  1.00  0.00    -0.209 C  
HETATM   17  C   UNL     1     -11.332  13.211  69.357  1.00  0.00    -0.213 C  
HETATM   18  C   UNL     1     -12.906  11.042  69.499  1.00  0.00     0.392 C  
HETATM   19  C   UNL     1     -12.428  10.179  70.691  1.00  0.00    -0.372 C  
HETATM   20  O   UNL     1     -11.935  13.992  70.087  1.00  0.00    -0.291 OA 
HETATM   21  C   UNL     1     -11.483  11.638  69.381  1.00  0.00    -0.307 C  
HETATM   22  C   UNL     1     -11.166  11.044  70.779  1.00  0.00     0.385 C  
BRANCH  14  23
HETATM   23  C   UNL     1      -9.672  14.758  68.327  1.00  0.00    -0.218 A  
HETATM   24  C   UNL     1     -10.002  15.817  67.464  1.00  0.00    -0.236 A  
HETATM   25  C   UNL     1      -8.305  17.214  68.423  1.00  0.00    -0.251 A  
HETATM   26  C   UNL     1      -9.702  18.185  66.585  1.00  0.00    -0.334 C  
HETATM   27  F   UNL     1     -10.080  19.298  67.271  1.00  0.00    -0.362 F  
HETATM   28  F   UNL     1     -10.745  17.888  65.767  1.00  0.00    -0.388 F  
HETATM   29  F   UNL     1      -8.683  18.560  65.771  1.00  0.00    -0.147 F  
HETATM   30  C   UNL     1      -7.527  18.421  68.534  1.00  0.00    -0.293 C  
HETATM   31  N   UNL     1      -7.971  16.238  69.297  1.00  0.00    -0.218 NA 
HETATM   32  C   UNL     1      -9.325  17.058  67.501  1.00  0.00    -0.233 A  
HETATM   33  N   UNL     1      -6.916  19.409  68.595  1.00  0.00    -0.301 NA 
HETATM   34  C   UNL     1      -8.660  15.066  69.238  1.00  0.00    -0.167 A  
ENDBRANCH  14  23
ENDBRANCH   9  13
ENDBRANCH   3   6
TORSDOF 3
ENDMDL
MODEL       74
REMARK 921   NORMALIZED FREE ENERGY PREDICTED BY IDOCK:   -5.12 KCAL/MOL
REMARK 922        TOTAL FREE ENERGY PREDICTED BY IDOCK:   -7.14 KCAL/MOL
REMARK 923 INTER-LIGAND FREE ENERGY PREDICTED BY IDOCK:   -5.91 KCAL/MOL
REMARK 924 INTRA-LIGAND FREE ENERGY PREDICTED BY IDOCK:   -1.23 KCAL/MOL
REMARK 927      BINDING AFFINITY PREDICTED BY RF-SCORE:    0.00 PKD
ROOT
HETATM    1  C   UNL     1     -11.134   2.255  63.136  1.00  0.00    -0.223 C  
HETATM    2  N   UNL     1     -10.705   3.120  64.203  1.00  0.00    -0.462 N  
HETATM    3  C   UNL     1      -9.453   3.002  64.764  1.00  0.00    -0.143 C  
HETATM    4  H   UNL     1     -11.342   3.836  64.552  1.00  0.00     0.000 HD 
HETATM    5  O   UNL     1      -8.605   2.213  64.362  1.00  0.00    -0.086 OA 
ENDROOT
BRANCH   3   6
HETATM    6  C   UNL     1      -9.148   3.879  65.923  1.00  0.00    -0.146 A  
HETATM    7  C   UNL     1      -9.210   3.351  67.214  1.00  0.00    -0.222 A  
HETATM    8  C   UNL     1      -9.071   4.189  68.333  1.00  0.00    -0.179 A  
HETATM    9  C   UNL     1      -8.853   5.570  68.192  1.00  0.00    -0.105 A  
HETATM   10  C   UNL     1      -8.669   6.049  66.894  1.00  0.00    -0.112 A  
HETATM   11  F   UNL     1      -8.747   5.794  64.568  1.00  0.00    -0.128 F  
HETATM   12  C   UNL     1      -8.848   5.227  65.781  1.00  0.00    -0.149 A  
BRANCH   9  13
HETATM   13  N   UNL     1      -8.887   6.454  69.318  1.00  0.00    -0.128 N  
HETATM   14  N   UNL     1      -9.609   8.393  70.338  1.00  0.00    -0.167 N  
HETATM   15  S   UNL     1     -11.599   6.555  69.763  1.00  0.00    -0.205 S  
HETATM   16  C   UNL     1     -10.040   7.188  69.742  1.00  0.00    -0.195 C  
HETATM   17  C   UNL     1      -8.295   8.267  70.767  1.00  0.00    -0.123 C  
HETATM   18  C   UNL     1      -6.813   6.031  70.830  1.00  0.00    -0.062 C  
HETATM   19  C   UNL     1      -5.687   6.170  69.778  1.00  0.00    -0.013 C  
HETATM   20  O   UNL     1      -7.703   8.969  71.581  1.00  0.00    -0.310 OA 
HETATM   21  C   UNL     1      -7.676   7.022  70.015  1.00  0.00    -0.104 C  
HETATM   22  C   UNL     1      -6.403   7.402  69.212  1.00  0.00    -0.036 C  
BRANCH  14  23
HETATM   23  C   UNL     1     -10.356   9.626  70.425  1.00  0.00    -0.291 A  
HETATM   24  C   UNL     1     -10.289  10.627  69.442  1.00  0.00    -0.234 A  
HETATM   25  C   UNL     1     -11.967  11.927  70.557  1.00  0.00    -0.267 A  
HETATM   26  C   UNL     1     -11.021  12.841  68.425  1.00  0.00    -0.254 C  
HETATM   27  F   UNL     1     -12.221  13.028  67.810  1.00  0.00    -0.359 F  
HETATM   28  F   UNL     1     -10.144  12.541  67.433  1.00  0.00    -0.204 F  
HETATM   29  F   UNL     1     -10.641  14.051  68.907  1.00  0.00    -0.232 F  
HETATM   30  C   UNL     1     -12.814  13.079  70.731  1.00  0.00    -0.074 C  
HETATM   31  N   UNL     1     -12.094  10.978  71.511  1.00  0.00    -0.086 NA 
HETATM   32  C   UNL     1     -11.092  11.790  69.493  1.00  0.00    -0.199 A  
HETATM   33  N   UNL     1     -13.483  14.024  70.842  1.00  0.00    -0.139 NA 
HETATM   34  C   UNL     1     -11.312   9.868  71.413  1.00  0.00    -0.274 A  
ENDBRANCH  14  23
ENDBRANCH   9  13
ENDBRANCH   3   6
TORSDOF 3
ENDMDL
MODEL       75
REMARK 921   NORMALIZED FREE ENERGY PREDICTED BY IDOCK:   -5.11 KCAL/MOL
REMARK 922        TOTAL FREE ENERGY PREDICTED BY IDOCK:   -7.12 KCAL/MOL
REMARK 923 INTER-LIGAND FREE ENERGY PREDICTED BY IDOCK:   -6.28 KCAL/MOL
REMARK 924 INTRA-LIGAND FREE ENERGY PREDICTED BY IDOCK:   -0.84 KCAL/MOL
REMARK 927      BINDING AFFINITY PREDICTED BY RF-SCORE:    0.00 PKD
ROOT
HETATM    1  C   UNL     1     -10.352  18.835  66.349  1.00  0.00    -0.439 C  
HETATM    2  N   UNL     1      -9.931  17.459  66.356  1.00  0.00    -0.305 N  
HETATM    3  C   UNL     1     -10.165  16.641  67.439  1.00  0.00    -0.286 C  
HETATM    4  H   UNL     1      -9.448  17.081  65.540  1.00  0.00     0.000 HD 
HETATM    5  O   UNL     1     -10.793  16.998  68.430  1.00  0.00    -0.367 OA 
ENDROOT
BRANCH   3   6
HETATM    6  C   UNL     1      -9.603  15.268  67.381  1.00  0.00    -0.207 A  
HETATM    7  C   UNL     1      -9.843  14.477  66.256  1.00  0.00    -0.322 A  
HETATM    8  C   UNL     1      -9.451  13.129  66.236  1.00  0.00    -0.194 A  
HETATM    9  C   UNL     1      -8.798  12.539  67.331  1.00  0.00    -0.187 A  
HETATM   10  C   UNL     1      -8.458  13.383  68.390  1.00  0.00    -0.135 A  
HETATM   11  F   UNL     1      -8.594  15.422  69.531  1.00  0.00    -0.225 F  
HETATM   12  C   UNL     1      -8.883  14.711  68.429  1.00  0.00    -0.181 A  
BRANCH   9  13
HETATM   13  N   UNL     1      -8.554  11.130  67.390  1.00  0.00    -0.135 N  
HETATM   14  N   UNL     1      -8.809   9.081  68.418  1.00  0.00    -0.133 N  
HETATM   15  S   UNL     1     -11.142  10.201  67.434  1.00  0.00    -0.002 S  
HETATM   16  C   UNL     1      -9.507  10.157  67.829  1.00  0.00    -0.144 C  
HETATM   17  C   UNL     1      -7.500   9.056  67.958  1.00  0.00    -0.084 C  
HETATM   18  C   UNL     1      -6.438  10.545  65.994  1.00  0.00    -0.127 C  
HETATM   19  C   UNL     1      -5.424  11.527  66.630  1.00  0.00    -0.133 C  
HETATM   20  O   UNL     1      -6.709   8.118  68.001  1.00  0.00    -0.061 OA 
HETATM   21  C   UNL     1      -7.194  10.479  67.342  1.00  0.00    -0.092 C  
HETATM   22  C   UNL     1      -5.968  11.153  68.013  1.00  0.00    -0.049 C  
BRANCH  14  23
HETATM   23  C   UNL     1      -9.312   8.175  69.424  1.00  0.00    -0.155 A  
HETATM   24  C   UNL     1      -8.913   8.234  70.770  1.00  0.00    -0.166 A  
HETATM   25  C   UNL     1     -10.458   6.503  71.373  1.00  0.00    -0.213 A  
HETATM   26  C   UNL     1      -9.055   7.489  73.198  1.00  0.00    -0.177 C  
HETATM   27  F   UNL     1     -10.094   7.797  74.022  1.00  0.00    -0.282 F  
HETATM   28  F   UNL     1      -8.115   8.444  73.423  1.00  0.00    -0.223 F  
HETATM   29  F   UNL     1      -8.527   6.328  73.659  1.00  0.00    -0.121 F  
HETATM   30  C   UNL     1     -11.088   5.585  72.288  1.00  0.00    -0.237 C  
HETATM   31  N   UNL     1     -10.902   6.429  70.098  1.00  0.00    -0.267 NA 
HETATM   32  C   UNL     1      -9.480   7.401  71.762  1.00  0.00    -0.166 A  
HETATM   33  N   UNL     1     -11.574   4.856  73.053  1.00  0.00    -0.262 NA 
HETATM   34  C   UNL     1     -10.340   7.262  69.180  1.00  0.00    -0.205 A  
ENDBRANCH  14  23
ENDBRANCH   9  13
ENDBRANCH   3   6
TORSDOF 3
ENDMDL
MODEL       76
REMARK 921   NORMALIZED FREE ENERGY PREDICTED BY IDOCK:   -5.08 KCAL/MOL
REMARK 922        TOTAL FREE ENERGY PREDICTED BY IDOCK:   -7.09 KCAL/MOL
REMARK 923 INTER-LIGAND FREE ENERGY PREDICTED BY IDOCK:   -6.42 KCAL/MOL
REMARK 924 INTRA-LIGAND FREE ENERGY PREDICTED BY IDOCK:   -0.67 KCAL/MOL
REMARK 927      BINDING AFFINITY PREDICTED BY RF-SCORE:    0.00 PKD
ROOT
HETATM    1  C   UNL     1     -10.606  19.513  66.221  1.00  0.00    -0.481 C  
HETATM    2  N   UNL     1     -10.326  18.120  66.447  1.00  0.00    -0.394 N  
HETATM    3  C   UNL     1      -9.088  17.583  66.172  1.00  0.00    -0.127 C  
HETATM    4  H   UNL     1     -11.060  17.518  66.820  1.00  0.00     0.000 HD 
HETATM    5  O   UNL     1      -8.134  18.250  65.784  1.00  0.00    -0.513 OA 
ENDROOT
BRANCH   3   6
HETATM    6  C   UNL     1      -8.934  16.117  66.350  1.00  0.00    -0.353 A  
HETATM    7  C   UNL     1      -9.724  15.250  65.593  1.00  0.00    -0.360 A  
HETATM    8  C   UNL     1      -9.706  13.868  65.844  1.00  0.00    -0.237 A  
HETATM    9  C   UNL     1      -8.890  13.315  66.846  1.00  0.00    -0.178 A  
HETATM   10  C   UNL     1      -8.018  14.187  67.499  1.00  0.00    -0.202 A  
HETATM   11  F   UNL     1      -7.258  16.338  68.025  1.00  0.00    -0.122 F  
HETATM   12  C   UNL     1      -8.065  15.565  67.281  1.00  0.00    -0.198 A  
BRANCH   9  13
HETATM   13  N   UNL     1      -8.995  11.939  67.225  1.00  0.00    -0.171 N  
HETATM   14  N   UNL     1      -8.831   9.693  66.728  1.00  0.00    -0.134 N  
HETATM   15  S   UNL     1      -6.442  11.092  66.654  1.00  0.00    -0.129 S  
HETATM   16  C   UNL     1      -8.109  10.904  66.787  1.00  0.00    -0.142 C  
HETATM   17  C   UNL     1      -9.949   9.766  67.547  1.00  0.00    -0.184 C  
HETATM   18  C   UNL     1     -10.565  11.713  69.288  1.00  0.00    -0.088 C  
HETATM   19  C   UNL     1     -11.810  12.459  68.754  1.00  0.00    -0.358 C  
HETATM   20  O   UNL     1     -10.619   8.835  67.983  1.00  0.00    -0.219 OA 
HETATM   21  C   UNL     1     -10.214  11.296  67.840  1.00  0.00    -0.181 C  
HETATM   22  C   UNL     1     -11.641  11.732  67.415  1.00  0.00    -0.352 C  
BRANCH  14  23
HETATM   23  C   UNL     1      -8.539   8.557  65.885  1.00  0.00    -0.163 A  
HETATM   24  C   UNL     1      -8.594   7.232  66.346  1.00  0.00    -0.141 A  
HETATM   25  C   UNL     1      -8.135   6.378  64.154  1.00  0.00    -0.052 A  
HETATM   26  C   UNL     1      -8.476   4.715  65.995  1.00  0.00    -0.115 C  
HETATM   27  F   UNL     1      -9.440   3.996  65.356  1.00  0.00    -0.134 F  
HETATM   28  F   UNL     1      -8.775   4.634  67.318  1.00  0.00    -0.105 F  
HETATM   29  F   UNL     1      -7.314   4.034  65.832  1.00  0.00    -0.070 F  
HETATM   30  C   UNL     1      -7.888   5.335  63.192  1.00  0.00    -0.084 C  
HETATM   31  N   UNL     1      -8.104   7.634  63.652  1.00  0.00    -0.089 NA 
HETATM   32  C   UNL     1      -8.395   6.125  65.489  1.00  0.00    -0.147 A  
HETATM   33  N   UNL     1      -7.690   4.467  62.443  1.00  0.00    -0.055 NA 
HETATM   34  C   UNL     1      -8.318   8.668  64.510  1.00  0.00    -0.147 A  
ENDBRANCH  14  23
ENDBRANCH   9  13
ENDBRANCH   3   6
TORSDOF 3
ENDMDL
MODEL       77
REMARK 921   NORMALIZED FREE ENERGY PREDICTED BY IDOCK:   -5.04 KCAL/MOL
REMARK 922        TOTAL FREE ENERGY PREDICTED BY IDOCK:   -7.04 KCAL/MOL
REMARK 923 INTER-LIGAND FREE ENERGY PREDICTED BY IDOCK:   -6.16 KCAL/MOL
REMARK 924 INTRA-LIGAND FREE ENERGY PREDICTED BY IDOCK:   -0.88 KCAL/MOL
REMARK 927      BINDING AFFINITY PREDICTED BY RF-SCORE:    0.00 PKD
ROOT
HETATM    1  C   UNL     1     -14.400  15.392  71.856  1.00  0.00    -0.543 C  
HETATM    2  N   UNL     1     -13.563  14.644  70.954  1.00  0.00    -0.522 N  
HETATM    3  C   UNL     1     -12.359  15.144  70.511  1.00  0.00    -0.358 C  
HETATM    4  H   UNL     1     -13.869  13.725  70.637  1.00  0.00     0.000 HD 
HETATM    5  O   UNL     1     -11.889  16.211  70.893  1.00  0.00    -0.384 OA 
ENDROOT
BRANCH   3   6
HETATM    6  C   UNL     1     -11.621  14.336  69.508  1.00  0.00    -0.353 A  
HETATM    7  C   UNL     1     -11.780  12.948  69.497  1.00  0.00    -0.387 A  
HETATM    8  C   UNL     1     -10.986  12.147  68.661  1.00  0.00    -0.284 A  
HETATM    9  C   UNL     1     -10.024  12.709  67.805  1.00  0.00    -0.218 A  
HETATM   10  C   UNL     1      -9.974  14.102  67.743  1.00  0.00    -0.235 A  
HETATM   11  F   UNL     1     -10.549  16.227  68.541  1.00  0.00    -0.241 F  
HETATM   12  C   UNL     1     -10.732  14.898  68.603  1.00  0.00    -0.250 A  
BRANCH   9  13
HETATM   13  N   UNL     1      -9.094  11.895  67.083  1.00  0.00    -0.173 N  
HETATM   14  N   UNL     1      -8.466   9.866  66.182  1.00  0.00    -0.123 N  
HETATM   15  S   UNL     1     -10.718  11.011  65.047  1.00  0.00    -0.131 S  
HETATM   16  C   UNL     1      -9.460  10.868  66.156  1.00  0.00    -0.200 C  
HETATM   17  C   UNL     1      -7.277  10.391  66.668  1.00  0.00    -0.113 C  
HETATM   18  C   UNL     1      -6.725  12.966  67.181  1.00  0.00     0.084 C  
HETATM   19  C   UNL     1      -6.574  13.130  68.713  1.00  0.00    -0.096 C  
HETATM   20  O   UNL     1      -6.148   9.924  66.547  1.00  0.00    -0.061 OA 
HETATM   21  C   UNL     1      -7.632  11.736  67.419  1.00  0.00    -0.143 C  
HETATM   22  C   UNL     1      -7.154  11.723  68.895  1.00  0.00    -0.114 C  
BRANCH  14  23
HETATM   23  C   UNL     1      -8.641   8.471  65.852  1.00  0.00    -0.163 A  
HETATM   24  C   UNL     1      -8.002   7.861  64.760  1.00  0.00    -0.140 A  
HETATM   25  C   UNL     1      -8.877   5.712  65.363  1.00  0.00    -0.106 A  
HETATM   26  C   UNL     1      -7.405   5.837  63.340  1.00  0.00    -0.062 C  
HETATM   27  F   UNL     1      -6.539   4.865  63.738  1.00  0.00    -0.033 F  
HETATM   28  F   UNL     1      -6.664   6.712  62.613  1.00  0.00    -0.039 F  
HETATM   29  F   UNL     1      -8.262   5.255  62.464  1.00  0.00    -0.075 F  
HETATM   30  C   UNL     1      -9.083   4.297  65.185  1.00  0.00    -0.145 C  
HETATM   31  N   UNL     1      -9.485   6.243  66.447  1.00  0.00    -0.153 NA 
HETATM   32  C   UNL     1      -8.109   6.475  64.501  1.00  0.00    -0.079 A  
HETATM   33  N   UNL     1      -9.230   3.157  65.010  1.00  0.00    -0.145 NA 
HETATM   34  C   UNL     1      -9.341   7.578  66.667  1.00  0.00    -0.174 A  
ENDBRANCH  14  23
ENDBRANCH   9  13
ENDBRANCH   3   6
TORSDOF 3
ENDMDL
MODEL       78
REMARK 921   NORMALIZED FREE ENERGY PREDICTED BY IDOCK:   -4.94 KCAL/MOL
REMARK 922        TOTAL FREE ENERGY PREDICTED BY IDOCK:   -6.93 KCAL/MOL
REMARK 923 INTER-LIGAND FREE ENERGY PREDICTED BY IDOCK:   -5.64 KCAL/MOL
REMARK 924 INTRA-LIGAND FREE ENERGY PREDICTED BY IDOCK:   -1.29 KCAL/MOL
REMARK 927      BINDING AFFINITY PREDICTED BY RF-SCORE:    0.00 PKD
ROOT
HETATM    1  C   UNL     1     -10.695  20.232  65.612  1.00  0.00    -0.015 C  
HETATM    2  N   UNL     1     -10.474  18.890  66.083  1.00  0.00    -0.458 N  
HETATM    3  C   UNL     1      -9.224  18.462  66.472  1.00  0.00    -0.296 C  
HETATM    4  H   UNL     1     -11.260  18.242  66.130  1.00  0.00     0.000 HD 
HETATM    5  O   UNL     1      -8.241  19.194  66.507  1.00  0.00    -0.281 OA 
ENDROOT
BRANCH   3   6
HETATM    6  C   UNL     1      -9.088  17.032  66.848  1.00  0.00    -0.253 A  
HETATM    7  C   UNL     1      -9.232  16.050  65.867  1.00  0.00    -0.321 A  
HETATM    8  C   UNL     1      -9.254  14.690  66.218  1.00  0.00    -0.257 A  
HETATM    9  C   UNL     1      -9.120  14.276  67.554  1.00  0.00    -0.193 A  
HETATM   10  C   UNL     1      -8.850  15.269  68.496  1.00  0.00    -0.185 A  
HETATM   11  F   UNL     1      -8.697  17.513  69.146  1.00  0.00    -0.202 F  
HETATM   12  C   UNL     1      -8.870  16.622  68.156  1.00  0.00    -0.206 A  
BRANCH   9  13
HETATM   13  N   UNL     1      -9.317  12.912  67.940  1.00  0.00    -0.201 N  
HETATM   14  N   UNL     1      -9.096  10.651  67.539  1.00  0.00    -0.139 N  
HETATM   15  S   UNL     1      -6.715  12.022  67.886  1.00  0.00    -0.090 S  
HETATM   16  C   UNL     1      -8.380  11.856  67.704  1.00  0.00    -0.152 C  
HETATM   17  C   UNL     1     -10.348  10.758  68.128  1.00  0.00    -0.171 C  
HETATM   18  C   UNL     1     -11.253  12.758  69.671  1.00  0.00    -0.072 C  
HETATM   19  C   UNL     1     -12.363  13.503  68.891  1.00  0.00    -0.020 C  
HETATM   20  O   UNL     1     -11.104   9.846  68.450  1.00  0.00    -0.217 OA 
HETATM   21  C   UNL     1     -10.640  12.299  68.327  1.00  0.00    -0.227 C  
HETATM   22  C   UNL     1     -11.953  12.738  67.627  1.00  0.00    -0.331 C  
BRANCH  14  23
HETATM   23  C   UNL     1      -8.668   9.490  66.795  1.00  0.00    -0.127 A  
HETATM   24  C   UNL     1      -8.463   9.508  65.405  1.00  0.00    -0.157 A  
HETATM   25  C   UNL     1      -7.662   7.249  65.424  1.00  0.00    -0.111 A  
HETATM   26  C   UNL     1      -7.728   8.435  63.220  1.00  0.00    -0.140 C  
HETATM   27  F   UNL     1      -6.427   8.198  62.895  1.00  0.00    -0.080 F  
HETATM   28  F   UNL     1      -8.031   9.636  62.663  1.00  0.00    -0.118 F  
HETATM   29  F   UNL     1      -8.467   7.516  62.549  1.00  0.00    -0.138 F  
HETATM   30  C   UNL     1      -7.169   6.041  64.815  1.00  0.00    -0.063 C  
HETATM   31  N   UNL     1      -7.809   7.189  66.767  1.00  0.00    -0.101 NA 
HETATM   32  C   UNL     1      -7.958   8.391  64.701  1.00  0.00    -0.147 A  
HETATM   33  N   UNL     1      -6.774   5.081  64.289  1.00  0.00    -0.046 NA 
HETATM   34  C   UNL     1      -8.283   8.294  67.405  1.00  0.00    -0.121 A  
ENDBRANCH  14  23
ENDBRANCH   9  13
ENDBRANCH   3   6
TORSDOF 3
ENDMDL
MODEL       79
REMARK 921   NORMALIZED FREE ENERGY PREDICTED BY IDOCK:   -4.92 KCAL/MOL
REMARK 922        TOTAL FREE ENERGY PREDICTED BY IDOCK:   -6.90 KCAL/MOL
REMARK 923 INTER-LIGAND FREE ENERGY PREDICTED BY IDOCK:   -5.87 KCAL/MOL
REMARK 924 INTRA-LIGAND FREE ENERGY PREDICTED BY IDOCK:   -1.03 KCAL/MOL
REMARK 927      BINDING AFFINITY PREDICTED BY RF-SCORE:    0.00 PKD
ROOT
HETATM    1  C   UNL     1      -6.012   1.838  65.843  1.00  0.00    -0.022 C  
HETATM    2  N   UNL     1      -6.797   2.830  66.529  1.00  0.00    -0.044 N  
HETATM    3  C   UNL     1      -7.004   4.080  65.991  1.00  0.00    -0.065 C  
HETATM    4  H   UNL     1      -7.209   2.601  67.434  1.00  0.00     0.000 HD 
HETATM    5  O   UNL     1      -6.599   4.413  64.882  1.00  0.00    -0.041 OA 
ENDROOT
BRANCH   3   6
HETATM    6  C   UNL     1      -7.746   5.059  66.825  1.00  0.00    -0.092 A  
HETATM    7  C   UNL     1      -9.103   4.848  67.083  1.00  0.00    -0.122 A  
HETATM    8  C   UNL     1      -9.863   5.827  67.742  1.00  0.00    -0.144 A  
HETATM    9  C   UNL     1      -9.288   7.036  68.172  1.00  0.00    -0.125 A  
HETATM   10  C   UNL     1      -7.907   7.166  68.015  1.00  0.00    -0.118 A  
HETATM   11  F   UNL     1      -5.853   6.467  67.134  1.00  0.00    -0.016 F  
HETATM   12  C   UNL     1      -7.158   6.213  67.323  1.00  0.00    -0.070 A  
BRANCH   9  13
HETATM   13  N   UNL     1     -10.087   8.107  68.683  1.00  0.00    -0.191 N  
HETATM   14  N   UNL     1     -10.485  10.360  68.983  1.00  0.00    -0.205 N  
HETATM   15  S   UNL     1     -10.572   9.490  66.356  1.00  0.00     0.101 S  
HETATM   16  C   UNL     1     -10.304   9.353  68.011  1.00  0.00    -0.220 C  
HETATM   17  C   UNL     1     -10.886   9.793  70.185  1.00  0.00    -0.291 C  
HETATM   18  C   UNL     1     -11.584   7.239  70.625  1.00  0.00    -0.322 C  
HETATM   19  C   UNL     1     -10.502   6.593  71.523  1.00  0.00    -0.242 C  
HETATM   20  O   UNL     1     -11.424  10.355  71.135  1.00  0.00    -0.311 OA 
HETATM   21  C   UNL     1     -10.533   8.254  70.116  1.00  0.00    -0.225 C  
HETATM   22  C   UNL     1      -9.609   7.816  71.283  1.00  0.00    -0.178 C  
BRANCH  14  23
HETATM   23  C   UNL     1     -10.213  11.769  68.824  1.00  0.00    -0.160 A  
HETATM   24  C   UNL     1     -11.112  12.769  69.232  1.00  0.00    -0.193 A  
HETATM   25  C   UNL     1      -9.556  14.498  68.652  1.00  0.00    -0.219 A  
HETATM   26  C   UNL     1     -11.761  15.199  69.610  1.00  0.00    -0.327 C  
HETATM   27  F   UNL     1     -11.242  15.973  70.602  1.00  0.00    -0.300 F  
HETATM   28  F   UNL     1     -12.917  14.690  70.109  1.00  0.00    -0.352 F  
HETATM   29  F   UNL     1     -12.125  16.042  68.612  1.00  0.00    -0.375 F  
HETATM   30  C   UNL     1      -9.133  15.866  68.497  1.00  0.00    -0.200 C  
HETATM   31  N   UNL     1      -8.642  13.575  68.276  1.00  0.00    -0.170 NA 
HETATM   32  C   UNL     1     -10.796  14.145  69.153  1.00  0.00    -0.254 A  
HETATM   33  N   UNL     1      -8.826  16.983  68.384  1.00  0.00    -0.239 NA 
HETATM   34  C   UNL     1      -8.982  12.262  68.385  1.00  0.00    -0.141 A  
ENDBRANCH  14  23
ENDBRANCH   9  13
ENDBRANCH   3   6
TORSDOF 3
ENDMDL
MODEL       80
REMARK 921   NORMALIZED FREE ENERGY PREDICTED BY IDOCK:   -4.91 KCAL/MOL
REMARK 922        TOTAL FREE ENERGY PREDICTED BY IDOCK:   -6.89 KCAL/MOL
REMARK 923 INTER-LIGAND FREE ENERGY PREDICTED BY IDOCK:   -5.97 KCAL/MOL
REMARK 924 INTRA-LIGAND FREE ENERGY PREDICTED BY IDOCK:   -0.92 KCAL/MOL
REMARK 927      BINDING AFFINITY PREDICTED BY RF-SCORE:    0.00 PKD
ROOT
HETATM    1  C   UNL     1      -8.262   2.340  66.567  1.00  0.00    -0.088 C  
HETATM    2  N   UNL     1      -8.417   3.750  66.813  1.00  0.00    -0.103 N  
HETATM    3  C   UNL     1      -8.763   4.621  65.804  1.00  0.00    -0.124 C  
HETATM    4  H   UNL     1      -8.267   4.111  67.755  1.00  0.00     0.000 HD 
HETATM    5  O   UNL     1      -9.022   4.261  64.661  1.00  0.00    -0.134 OA 
ENDROOT
BRANCH   3   6
HETATM    6  C   UNL     1      -8.800   6.066  66.145  1.00  0.00    -0.152 A  
HETATM    7  C   UNL     1      -9.955   6.604  66.717  1.00  0.00    -0.238 A  
HETATM    8  C   UNL     1     -10.073   7.989  66.913  1.00  0.00    -0.362 A  
HETATM    9  C   UNL     1      -9.039   8.871  66.556  1.00  0.00    -0.166 A  
HETATM   10  C   UNL     1      -7.850   8.297  66.105  1.00  0.00    -0.098 A  
HETATM   11  F   UNL     1      -6.596   6.472  65.343  1.00  0.00    -0.038 F  
HETATM   12  C   UNL     1      -7.746   6.925  65.870  1.00  0.00    -0.098 A  
BRANCH   9  13
HETATM   13  N   UNL     1      -9.219  10.291  66.588  1.00  0.00    -0.153 N  
HETATM   14  N   UNL     1     -10.147  12.185  67.521  1.00  0.00    -0.195 N  
HETATM   15  S   UNL     1      -8.372  10.819  69.151  1.00  0.00    -0.055 S  
HETATM   16  C   UNL     1      -9.320  11.072  67.783  1.00  0.00    -0.158 C  
HETATM   17  C   UNL     1     -10.179  12.443  66.158  1.00  0.00    -0.242 C  
HETATM   18  C   UNL     1      -8.676  11.299  64.252  1.00  0.00     0.292 C  
HETATM   19  C   UNL     1      -9.600  10.428  63.368  1.00  0.00    -0.361 C  
HETATM   20  O   UNL     1     -10.524  13.480  65.600  1.00  0.00    -0.280 OA 
HETATM   21  C   UNL     1      -9.672  11.138  65.425  1.00  0.00    -0.231 C  
HETATM   22  C   UNL     1     -10.713  10.599  64.409  1.00  0.00     0.047 C  
BRANCH  14  23
HETATM   23  C   UNL     1     -10.936  12.917  68.484  1.00  0.00    -0.259 A  
HETATM   24  C   UNL     1     -11.575  12.300  69.572  1.00  0.00    -0.366 A  
HETATM   25  C   UNL     1     -12.310  14.416  70.428  1.00  0.00    -0.342 A  
HETATM   26  C   UNL     1     -12.931  12.365  71.723  1.00  0.00    -0.316 C  
HETATM   27  F   UNL     1     -12.435  12.798  72.915  1.00  0.00     0.352 F  
HETATM   28  F   UNL     1     -12.768  11.016  71.728  1.00  0.00    -0.464 F  
HETATM   29  F   UNL     1     -14.269  12.580  71.761  1.00  0.00     0.086 F  
HETATM   30  C   UNL     1     -13.009  15.270  71.352  1.00  0.00    -0.431 C  
HETATM   31  N   UNL     1     -11.683  15.062  69.418  1.00  0.00    -0.307 NA 
HETATM   32  C   UNL     1     -12.269  13.039  70.558  1.00  0.00    -0.392 A  
HETATM   33  N   UNL     1     -13.586  15.931  72.117  1.00  0.00    -0.344 NA 
HETATM   34  C   UNL     1     -11.013  14.312  68.501  1.00  0.00    -0.252 A  
ENDBRANCH  14  23
ENDBRANCH   9  13
ENDBRANCH   3   6
TORSDOF 3
ENDMDL
MODEL       81
REMARK 921   NORMALIZED FREE ENERGY PREDICTED BY IDOCK:   -4.90 KCAL/MOL
REMARK 922        TOTAL FREE ENERGY PREDICTED BY IDOCK:   -6.87 KCAL/MOL
REMARK 923 INTER-LIGAND FREE ENERGY PREDICTED BY IDOCK:   -5.67 KCAL/MOL
REMARK 924 INTRA-LIGAND FREE ENERGY PREDICTED BY IDOCK:   -1.21 KCAL/MOL
REMARK 927      BINDING AFFINITY PREDICTED BY RF-SCORE:    0.00 PKD
ROOT
HETATM    1  C   UNL     1     -10.815  16.710  65.181  1.00  0.00    -0.186 C  
HETATM    2  N   UNL     1     -10.436  15.327  65.303  1.00  0.00    -0.390 N  
HETATM    3  C   UNL     1     -11.238  14.318  64.817  1.00  0.00    -0.385 C  
HETATM    4  H   UNL     1      -9.555  15.089  65.758  1.00  0.00     0.000 HD 
HETATM    5  O   UNL     1     -12.279  14.520  64.201  1.00  0.00    -0.524 OA 
ENDROOT
BRANCH   3   6
HETATM    6  C   UNL     1     -10.801  12.924  65.081  1.00  0.00    -0.320 A  
HETATM    7  C   UNL     1     -10.388  12.568  66.367  1.00  0.00    -0.261 A  
HETATM    8  C   UNL     1      -9.832  11.302  66.612  1.00  0.00    -0.235 A  
HETATM    9  C   UNL     1      -9.686  10.354  65.584  1.00  0.00    -0.236 A  
HETATM   10  C   UNL     1     -10.222  10.688  64.340  1.00  0.00    -0.400 A  
HETATM   11  F   UNL     1     -11.140  12.225  62.831  1.00  0.00    -0.368 F  
HETATM   12  C   UNL     1     -10.736  11.960  64.085  1.00  0.00    -0.351 A  
BRANCH   9  13
HETATM   13  N   UNL     1      -8.964   9.134  65.785  1.00  0.00    -0.180 N  
HETATM   14  N   UNL     1      -8.136   7.486  67.170  1.00  0.00    -0.116 N  
HETATM   15  S   UNL     1     -10.898   7.638  67.044  1.00  0.00     0.060 S  
HETATM   16  C   UNL     1      -9.317   8.127  66.738  1.00  0.00    -0.183 C  
HETATM   17  C   UNL     1      -7.131   7.657  66.228  1.00  0.00    -0.070 C  
HETATM   18  C   UNL     1      -7.368   8.717  63.773  1.00  0.00    -0.101 C  
HETATM   19  C   UNL     1      -6.608  10.064  63.756  1.00  0.00    -0.130 C  
HETATM   20  O   UNL     1      -6.098   7.005  66.108  1.00  0.00    -0.034 OA 
HETATM   21  C   UNL     1      -7.561   8.864  65.301  1.00  0.00    -0.098 C  
HETATM   22  C   UNL     1      -6.496   9.992  65.283  1.00  0.00    -0.112 C  
BRANCH  14  23
HETATM   23  C   UNL     1      -7.930   6.823  68.436  1.00  0.00    -0.115 A  
HETATM   24  C   UNL     1      -7.663   7.519  69.626  1.00  0.00    -0.100 A  
HETATM   25  C   UNL     1      -7.713   5.491  70.903  1.00  0.00    -0.092 A  
HETATM   26  C   UNL     1      -7.285   7.626  72.139  1.00  0.00    -0.071 C  
HETATM   27  F   UNL     1      -8.274   7.455  73.059  1.00  0.00    -0.113 F  
HETATM   28  F   UNL     1      -7.189   8.968  71.950  1.00  0.00    -0.104 F  
HETATM   29  F   UNL     1      -6.128   7.251  72.741  1.00  0.00    -0.052 F  
HETATM   30  C   UNL     1      -7.595   4.712  72.109  1.00  0.00    -0.083 C  
HETATM   31  N   UNL     1      -8.004   4.777  69.792  1.00  0.00    -0.065 NA 
HETATM   32  C   UNL     1      -7.552   6.865  70.875  1.00  0.00    -0.087 A  
HETATM   33  N   UNL     1      -7.490   4.115  73.102  1.00  0.00    -0.077 NA 
HETATM   34  C   UNL     1      -8.118   5.450  68.615  1.00  0.00    -0.091 A  
ENDBRANCH  14  23
ENDBRANCH   9  13
ENDBRANCH   3   6
TORSDOF 3
ENDMDL
MODEL       82
REMARK 921   NORMALIZED FREE ENERGY PREDICTED BY IDOCK:   -4.81 KCAL/MOL
REMARK 922        TOTAL FREE ENERGY PREDICTED BY IDOCK:   -6.77 KCAL/MOL
REMARK 923 INTER-LIGAND FREE ENERGY PREDICTED BY IDOCK:   -5.77 KCAL/MOL
REMARK 924 INTRA-LIGAND FREE ENERGY PREDICTED BY IDOCK:   -1.00 KCAL/MOL
REMARK 927      BINDING AFFINITY PREDICTED BY RF-SCORE:    0.00 PKD
ROOT
HETATM    1  C   UNL     1     -10.815  16.710  65.181  1.00  0.00    -0.186 C  
HETATM    2  N   UNL     1     -10.436  15.327  65.303  1.00  0.00    -0.390 N  
HETATM    3  C   UNL     1     -11.238  14.318  64.817  1.00  0.00    -0.385 C  
HETATM    4  H   UNL     1      -9.555  15.089  65.758  1.00  0.00     0.000 HD 
HETATM    5  O   UNL     1     -12.279  14.520  64.201  1.00  0.00    -0.524 OA 
ENDROOT
BRANCH   3   6
HETATM    6  C   UNL     1     -10.801  12.924  65.081  1.00  0.00    -0.320 A  
HETATM    7  C   UNL     1     -10.388  12.568  66.367  1.00  0.00    -0.261 A  
HETATM    8  C   UNL     1      -9.832  11.302  66.612  1.00  0.00    -0.235 A  
HETATM    9  C   UNL     1      -9.686  10.354  65.584  1.00  0.00    -0.236 A  
HETATM   10  C   UNL     1     -10.222  10.688  64.340  1.00  0.00    -0.400 A  
HETATM   11  F   UNL     1     -11.140  12.225  62.831  1.00  0.00    -0.368 F  
HETATM   12  C   UNL     1     -10.736  11.960  64.085  1.00  0.00    -0.351 A  
BRANCH   9  13
HETATM   13  N   UNL     1      -8.964   9.134  65.785  1.00  0.00    -0.180 N  
HETATM   14  N   UNL     1      -8.136   7.486  67.170  1.00  0.00    -0.116 N  
HETATM   15  S   UNL     1     -10.898   7.638  67.044  1.00  0.00     0.060 S  
HETATM   16  C   UNL     1      -9.317   8.127  66.738  1.00  0.00    -0.183 C  
HETATM   17  C   UNL     1      -7.131   7.657  66.228  1.00  0.00    -0.070 C  
HETATM   18  C   UNL     1      -7.368   8.717  63.773  1.00  0.00    -0.101 C  
HETATM   19  C   UNL     1      -6.608  10.064  63.756  1.00  0.00    -0.130 C  
HETATM   20  O   UNL     1      -6.098   7.005  66.108  1.00  0.00    -0.034 OA 
HETATM   21  C   UNL     1      -7.561   8.864  65.301  1.00  0.00    -0.098 C  
HETATM   22  C   UNL     1      -6.496   9.992  65.283  1.00  0.00    -0.112 C  
BRANCH  14  23
HETATM   23  C   UNL     1      -7.930   6.823  68.436  1.00  0.00    -0.115 A  
HETATM   24  C   UNL     1      -8.509   5.582  68.749  1.00  0.00    -0.101 A  
HETATM   25  C   UNL     1      -7.351   5.494  70.846  1.00  0.00    -0.083 A  
HETATM   26  C   UNL     1      -8.842   3.567  70.265  1.00  0.00    -0.089 C  
HETATM   27  F   UNL     1      -7.901   2.601  70.454  1.00  0.00    -0.043 F  
HETATM   28  F   UNL     1      -9.649   3.103  69.276  1.00  0.00    -0.228 F  
HETATM   29  F   UNL     1      -9.603   3.590  71.388  1.00  0.00    -0.190 F  
HETATM   30  C   UNL     1      -7.010   4.909  72.117  1.00  0.00    -0.065 C  
HETATM   31  N   UNL     1      -6.741   6.671  70.579  1.00  0.00    -0.055 NA 
HETATM   32  C   UNL     1      -8.228   4.901  69.955  1.00  0.00    -0.073 A  
HETATM   33  N   UNL     1      -6.759   4.410  73.138  1.00  0.00    -0.051 NA 
HETATM   34  C   UNL     1      -7.028   7.283  69.398  1.00  0.00    -0.062 A  
ENDBRANCH  14  23
ENDBRANCH   9  13
ENDBRANCH   3   6
TORSDOF 3
ENDMDL
MODEL       83
REMARK 921   NORMALIZED FREE ENERGY PREDICTED BY IDOCK:   -4.79 KCAL/MOL
REMARK 922        TOTAL FREE ENERGY PREDICTED BY IDOCK:   -6.75 KCAL/MOL
REMARK 923 INTER-LIGAND FREE ENERGY PREDICTED BY IDOCK:   -5.43 KCAL/MOL
REMARK 924 INTRA-LIGAND FREE ENERGY PREDICTED BY IDOCK:   -1.32 KCAL/MOL
REMARK 927      BINDING AFFINITY PREDICTED BY RF-SCORE:    0.00 PKD
ROOT
HETATM    1  C   UNL     1      -6.491   4.450  71.945  1.00  0.00    -0.022 C  
HETATM    2  N   UNL     1      -7.348   5.560  71.624  1.00  0.00    -0.088 N  
HETATM    3  C   UNL     1      -7.609   5.912  70.318  1.00  0.00    -0.094 C  
HETATM    4  H   UNL     1      -7.772   6.098  72.380  1.00  0.00     0.000 HD 
HETATM    5  O   UNL     1      -7.192   5.280  69.353  1.00  0.00    -0.058 OA 
ENDROOT
BRANCH   3   6
HETATM    6  C   UNL     1      -8.427   7.131  70.099  1.00  0.00    -0.139 A  
HETATM    7  C   UNL     1      -9.707   7.007  69.553  1.00  0.00    -0.160 A  
HETATM    8  C   UNL     1     -10.443   8.149  69.199  1.00  0.00    -0.217 A  
HETATM    9  C   UNL     1      -9.929   9.443  69.392  1.00  0.00    -0.183 A  
HETATM   10  C   UNL     1      -8.705   9.540  70.055  1.00  0.00    -0.242 A  
HETATM   11  F   UNL     1      -6.742   8.599  70.918  1.00  0.00    -0.036 F  
HETATM   12  C   UNL     1      -7.953   8.407  70.369  1.00  0.00    -0.099 A  
BRANCH   9  13
HETATM   13  N   UNL     1     -10.594  10.600  68.876  1.00  0.00    -0.198 N  
HETATM   14  N   UNL     1     -10.544  12.752  68.048  1.00  0.00    -0.220 N  
HETATM   15  S   UNL     1      -9.301  10.853  66.461  1.00  0.00    -0.178 S  
HETATM   16  C   UNL     1     -10.080  11.437  67.834  1.00  0.00    -0.183 C  
HETATM   17  C   UNL     1     -11.686  12.731  68.836  1.00  0.00    -0.326 C  
HETATM   18  C   UNL     1     -13.091  10.579  69.605  1.00  0.00     0.747 C  
HETATM   19  C   UNL     1     -12.917  10.412  71.133  1.00  0.00    -0.506 C  
HETATM   20  O   UNL     1     -12.520  13.622  68.968  1.00  0.00    -0.170 OA 
HETATM   21  C   UNL     1     -11.735  11.321  69.548  1.00  0.00    -0.345 C  
HETATM   22  C   UNL     1     -11.791  11.451  71.093  1.00  0.00     0.189 C  
BRANCH  14  23
HETATM   23  C   UNL     1      -9.905  13.972  67.611  1.00  0.00    -0.233 A  
HETATM   24  C   UNL     1      -8.924  14.632  68.370  1.00  0.00    -0.180 A  
HETATM   25  C   UNL     1      -8.568  16.244  66.631  1.00  0.00    -0.267 A  
HETATM   26  C   UNL     1      -7.185  16.456  68.708  1.00  0.00    -0.191 C  
HETATM   27  F   UNL     1      -5.981  16.478  68.071  1.00  0.00    -0.103 F  
HETATM   28  F   UNL     1      -6.955  15.853  69.903  1.00  0.00    -0.190 F  
HETATM   29  F   UNL     1      -7.495  17.746  68.993  1.00  0.00    -0.259 F  
HETATM   30  C   UNL     1      -7.962  17.414  66.050  1.00  0.00    -0.165 C  
HETATM   31  N   UNL     1      -9.480  15.626  65.847  1.00  0.00    -0.346 NA 
HETATM   32  C   UNL     1      -8.242  15.774  67.892  1.00  0.00    -0.151 A  
HETATM   33  N   UNL     1      -7.454  18.364  65.612  1.00  0.00    -0.534 NA 
HETATM   34  C   UNL     1     -10.100  14.520  66.341  1.00  0.00    -0.284 A  
ENDBRANCH  14  23
ENDBRANCH   9  13
ENDBRANCH   3   6
TORSDOF 3
ENDMDL
MODEL       84
REMARK 921   NORMALIZED FREE ENERGY PREDICTED BY IDOCK:   -4.78 KCAL/MOL
REMARK 922        TOTAL FREE ENERGY PREDICTED BY IDOCK:   -6.74 KCAL/MOL
REMARK 923 INTER-LIGAND FREE ENERGY PREDICTED BY IDOCK:   -5.72 KCAL/MOL
REMARK 924 INTRA-LIGAND FREE ENERGY PREDICTED BY IDOCK:   -1.02 KCAL/MOL
REMARK 927      BINDING AFFINITY PREDICTED BY RF-SCORE:    0.00 PKD
ROOT
HETATM    1  C   UNL     1      -7.573   4.757  64.166  1.00  0.00    -0.072 C  
HETATM    2  N   UNL     1      -7.783   6.014  64.836  1.00  0.00    -0.092 N  
HETATM    3  C   UNL     1      -7.980   7.180  64.130  1.00  0.00    -0.085 C  
HETATM    4  H   UNL     1      -7.785   6.041  65.855  1.00  0.00     0.000 HD 
HETATM    5  O   UNL     1      -8.055   7.223  62.906  1.00  0.00    -0.127 OA 
ENDROOT
BRANCH   3   6
HETATM    6  C   UNL     1      -8.089   8.434  64.916  1.00  0.00    -0.149 A  
HETATM    7  C   UNL     1      -7.159   9.455  64.708  1.00  0.00    -0.102 A  
HETATM    8  C   UNL     1      -7.149  10.588  65.538  1.00  0.00    -0.099 A  
HETATM    9  C   UNL     1      -8.073  10.739  66.586  1.00  0.00    -0.142 A  
HETATM   10  C   UNL     1      -9.069   9.767  66.691  1.00  0.00    -0.174 A  
HETATM   11  F   UNL     1      -9.996   7.691  66.131  1.00  0.00    -0.222 F  
HETATM   12  C   UNL     1      -9.055   8.620  65.895  1.00  0.00    -0.205 A  
BRANCH   9  13
HETATM   13  N   UNL     1      -7.959  11.799  67.541  1.00  0.00    -0.139 N  
HETATM   14  N   UNL     1      -7.771  14.040  68.052  1.00  0.00    -0.133 N  
HETATM   15  S   UNL     1     -10.150  13.306  66.841  1.00  0.00    -0.255 S  
HETATM   16  C   UNL     1      -8.584  13.080  67.412  1.00  0.00    -0.199 C  
HETATM   17  C   UNL     1      -6.949  13.422  68.984  1.00  0.00    -0.084 C  
HETATM   18  C   UNL     1      -7.041  10.863  69.788  1.00  0.00    -0.092 C  
HETATM   19  C   UNL     1      -5.767  10.152  69.276  1.00  0.00    -0.037 C  
HETATM   20  O   UNL     1      -6.353  13.946  69.920  1.00  0.00    -0.134 OA 
HETATM   21  C   UNL     1      -6.919  11.882  68.630  1.00  0.00    -0.095 C  
HETATM   22  C   UNL     1      -5.475  11.368  68.389  1.00  0.00    -0.042 C  
BRANCH  14  23
HETATM   23  C   UNL     1      -7.702  15.450  67.747  1.00  0.00    -0.145 A  
HETATM   24  C   UNL     1      -8.649  16.377  68.213  1.00  0.00    -0.200 A  
HETATM   25  C   UNL     1      -7.421  18.208  67.272  1.00  0.00    -0.211 A  
HETATM   26  C   UNL     1      -9.533  18.744  68.504  1.00  0.00    -0.358 C  
HETATM   27  F   UNL     1      -8.976  19.660  69.344  1.00  0.00    -0.345 F  
HETATM   28  F   UNL     1     -10.533  18.158  69.214  1.00  0.00    -0.328 F  
HETATM   29  F   UNL     1     -10.140  19.446  67.514  1.00  0.00    -0.383 F  
HETATM   30  C   UNL     1      -7.198  19.594  66.952  1.00  0.00    -0.216 C  
HETATM   31  N   UNL     1      -6.463  17.361  66.830  1.00  0.00    -0.183 NA 
HETATM   32  C   UNL     1      -8.522  17.766  67.983  1.00  0.00    -0.253 A  
HETATM   33  N   UNL     1      -7.051  20.723  66.709  1.00  0.00    -0.273 NA 
HETATM   34  C   UNL     1      -6.618  16.034  67.088  1.00  0.00    -0.142 A  
ENDBRANCH  14  23
ENDBRANCH   9  13
ENDBRANCH   3   6
TORSDOF 3
ENDMDL
MODEL       85
REMARK 921   NORMALIZED FREE ENERGY PREDICTED BY IDOCK:   -4.64 KCAL/MOL
REMARK 922        TOTAL FREE ENERGY PREDICTED BY IDOCK:   -6.57 KCAL/MOL
REMARK 923 INTER-LIGAND FREE ENERGY PREDICTED BY IDOCK:   -5.51 KCAL/MOL
REMARK 924 INTRA-LIGAND FREE ENERGY PREDICTED BY IDOCK:   -1.06 KCAL/MOL
REMARK 927      BINDING AFFINITY PREDICTED BY RF-SCORE:    0.00 PKD
ROOT
HETATM    1  C   UNL     1     -10.655  17.905  67.346  1.00  0.00    -0.360 C  
HETATM    2  N   UNL     1      -9.984  16.643  67.514  1.00  0.00    -0.258 N  
HETATM    3  C   UNL     1      -9.839  15.761  66.466  1.00  0.00    -0.269 C  
HETATM    4  H   UNL     1      -9.608  16.396  68.429  1.00  0.00     0.000 HD 
HETATM    5  O   UNL     1     -10.205  16.008  65.322  1.00  0.00    -0.481 OA 
ENDROOT
BRANCH   3   6
HETATM    6  C   UNL     1      -9.218  14.448  66.771  1.00  0.00    -0.287 A  
HETATM    7  C   UNL     1      -7.896  14.404  67.221  1.00  0.00    -0.188 A  
HETATM    8  C   UNL     1      -7.237  13.173  67.375  1.00  0.00    -0.119 A  
HETATM    9  C   UNL     1      -7.883  11.956  67.098  1.00  0.00    -0.168 A  
HETATM   10  C   UNL     1      -9.238  12.022  66.774  1.00  0.00    -0.201 A  
HETATM   11  F   UNL     1     -11.163  13.213  66.173  1.00  0.00    -0.289 F  
HETATM   12  C   UNL     1      -9.883  13.245  66.579  1.00  0.00    -0.281 A  
BRANCH   9  13
HETATM   13  N   UNL     1      -7.170  10.715  67.084  1.00  0.00    -0.093 N  
HETATM   14  N   UNL     1      -7.027   8.479  66.536  1.00  0.00    -0.074 N  
HETATM   15  S   UNL     1      -7.147  10.213  64.380  1.00  0.00    -0.073 S  
HETATM   16  C   UNL     1      -7.194   9.775  66.004  1.00  0.00    -0.101 C  
HETATM   17  C   UNL     1      -6.415   8.551  67.779  1.00  0.00    -0.061 C  
HETATM   18  C   UNL     1      -5.352  10.722  68.945  1.00  0.00    -0.041 C  
HETATM   19  C   UNL     1      -6.228  11.090  70.166  1.00  0.00    -0.146 C  
HETATM   20  O   UNL     1      -5.843   7.650  68.385  1.00  0.00    -0.029 OA 
HETATM   21  C   UNL     1      -6.577  10.037  68.293  1.00  0.00    -0.055 C  
HETATM   22  C   UNL     1      -7.290  10.102  69.669  1.00  0.00    -0.138 C  
BRANCH  14  23
HETATM   23  C   UNL     1      -7.492   7.242  65.952  1.00  0.00    -0.080 A  
HETATM   24  C   UNL     1      -8.646   6.577  66.397  1.00  0.00    -0.136 A  
HETATM   25  C   UNL     1      -8.448   4.933  64.663  1.00  0.00    -0.143 A  
HETATM   26  C   UNL     1     -10.386   4.728  66.236  1.00  0.00    -0.291 C  
HETATM   27  F   UNL     1     -11.344   4.676  65.271  1.00  0.00    -0.333 F  
HETATM   28  F   UNL     1     -10.968   5.345  67.297  1.00  0.00    -0.278 F  
HETATM   29  F   UNL     1     -10.160   3.449  66.627  1.00  0.00    -0.068 F  
HETATM   30  C   UNL     1      -8.839   3.744  63.950  1.00  0.00    -0.103 C  
HETATM   31  N   UNL     1      -7.351   5.554  64.174  1.00  0.00    -0.055 NA 
HETATM   32  C   UNL     1      -9.141   5.416  65.760  1.00  0.00    -0.160 A  
HETATM   33  N   UNL     1      -9.182   2.779  63.399  1.00  0.00    -0.095 NA 
HETATM   34  C   UNL     1      -6.920   6.678  64.809  1.00  0.00    -0.054 A  
ENDBRANCH  14  23
ENDBRANCH   9  13
ENDBRANCH   3   6
TORSDOF 3
ENDMDL
MODEL       86
REMARK 921   NORMALIZED FREE ENERGY PREDICTED BY IDOCK:   -4.61 KCAL/MOL
REMARK 922        TOTAL FREE ENERGY PREDICTED BY IDOCK:   -6.54 KCAL/MOL
REMARK 923 INTER-LIGAND FREE ENERGY PREDICTED BY IDOCK:   -5.63 KCAL/MOL
REMARK 924 INTRA-LIGAND FREE ENERGY PREDICTED BY IDOCK:   -0.91 KCAL/MOL
REMARK 927      BINDING AFFINITY PREDICTED BY RF-SCORE:    0.00 PKD
ROOT
HETATM    1  C   UNL     1      -5.713   3.155  67.963  1.00  0.00    -0.019 C  
HETATM    2  N   UNL     1      -6.529   4.341  67.991  1.00  0.00    -0.037 N  
HETATM    3  C   UNL     1      -7.525   4.549  67.063  1.00  0.00    -0.081 C  
HETATM    4  H   UNL     1      -6.366   5.041  68.714  1.00  0.00     0.000 HD 
HETATM    5  O   UNL     1      -7.828   3.730  66.202  1.00  0.00    -0.088 OA 
ENDROOT
BRANCH   3   6
HETATM    6  C   UNL     1      -8.241   5.848  67.123  1.00  0.00    -0.105 A  
HETATM    7  C   UNL     1      -7.505   7.033  67.191  1.00  0.00    -0.095 A  
HETATM    8  C   UNL     1      -8.152   8.262  67.397  1.00  0.00    -0.121 A  
HETATM    9  C   UNL     1      -9.549   8.344  67.526  1.00  0.00    -0.154 A  
HETATM   10  C   UNL     1     -10.268   7.165  67.327  1.00  0.00    -0.315 A  
HETATM   11  F   UNL     1     -10.397   4.840  67.079  1.00  0.00    -0.226 F  
HETATM   12  C   UNL     1      -9.626   5.937  67.165  1.00  0.00    -0.127 A  
BRANCH   9  13
HETATM   13  N   UNL     1     -10.198   9.560  67.909  1.00  0.00    -0.192 N  
HETATM   14  N   UNL     1     -10.260  11.863  68.022  1.00  0.00    -0.187 N  
HETATM   15  S   UNL     1     -10.352  10.808  65.463  1.00  0.00    -0.208 S  
HETATM   16  C   UNL     1     -10.189  10.766  67.138  1.00  0.00    -0.213 C  
HETATM   17  C   UNL     1     -10.802  11.462  69.235  1.00  0.00    -0.194 C  
HETATM   18  C   UNL     1     -11.903   9.085  69.816  1.00  0.00     0.516 C  
HETATM   19  C   UNL     1     -10.977   8.359  70.821  1.00  0.00    -0.276 C  
HETATM   20  O   UNL     1     -11.292  12.172  70.107  1.00  0.00    -0.074 OA 
HETATM   21  C   UNL     1     -10.685   9.887  69.299  1.00  0.00    -0.224 C  
HETATM   22  C   UNL     1      -9.897   9.412  70.548  1.00  0.00    -0.331 C  
BRANCH  14  23
HETATM   23  C   UNL     1      -9.768  13.199  67.777  1.00  0.00    -0.218 A  
HETATM   24  C   UNL     1     -10.511  14.352  68.081  1.00  0.00    -0.237 A  
HETATM   25  C   UNL     1      -8.690  15.775  67.444  1.00  0.00    -0.183 A  
HETATM   26  C   UNL     1     -10.784  16.874  68.268  1.00  0.00    -0.377 C  
HETATM   27  F   UNL     1     -10.178  17.630  69.224  1.00  0.00    -0.332 F  
HETATM   28  F   UNL     1     -12.018  16.586  68.757  1.00  0.00    -0.236 F  
HETATM   29  F   UNL     1     -10.985  17.688  67.202  1.00  0.00    -0.291 F  
HETATM   30  C   UNL     1      -8.055  17.047  67.213  1.00  0.00    -0.181 C  
HETATM   31  N   UNL     1      -7.921  14.697  67.168  1.00  0.00    -0.192 NA 
HETATM   32  C   UNL     1      -9.983  15.654  67.921  1.00  0.00    -0.223 A  
HETATM   33  N   UNL     1      -7.575  18.092  67.036  1.00  0.00    -0.211 NA 
HETATM   34  C   UNL     1      -8.464  13.463  67.353  1.00  0.00    -0.196 A  
ENDBRANCH  14  23
ENDBRANCH   9  13
ENDBRANCH   3   6
TORSDOF 3
ENDMDL
MODEL       87
REMARK 921   NORMALIZED FREE ENERGY PREDICTED BY IDOCK:   -4.56 KCAL/MOL
REMARK 922        TOTAL FREE ENERGY PREDICTED BY IDOCK:   -6.48 KCAL/MOL
REMARK 923 INTER-LIGAND FREE ENERGY PREDICTED BY IDOCK:   -5.58 KCAL/MOL
REMARK 924 INTRA-LIGAND FREE ENERGY PREDICTED BY IDOCK:   -0.90 KCAL/MOL
REMARK 927      BINDING AFFINITY PREDICTED BY RF-SCORE:    0.00 PKD
ROOT
HETATM    1  C   UNL     1     -11.524   1.499  62.687  1.00  0.00    -0.257 C  
HETATM    2  N   UNL     1     -10.952   2.431  63.624  1.00  0.00    -0.453 N  
HETATM    3  C   UNL     1      -9.629   2.353  63.997  1.00  0.00    -0.137 C  
HETATM    4  H   UNL     1     -11.541   3.163  64.020  1.00  0.00     0.000 HD 
HETATM    5  O   UNL     1      -8.840   1.545  63.520  1.00  0.00    -0.082 OA 
ENDROOT
BRANCH   3   6
HETATM    6  C   UNL     1      -9.166   3.301  65.042  1.00  0.00    -0.148 A  
HETATM    7  C   UNL     1      -9.024   2.853  66.357  1.00  0.00    -0.158 A  
HETATM    8  C   UNL     1      -8.732   3.758  67.390  1.00  0.00    -0.125 A  
HETATM    9  C   UNL     1      -8.560   5.130  67.136  1.00  0.00    -0.105 A  
HETATM   10  C   UNL     1      -8.581   5.530  65.799  1.00  0.00    -0.145 A  
HETATM   11  F   UNL     1      -9.006   5.133  63.531  1.00  0.00    -0.128 F  
HETATM   12  C   UNL     1      -8.913   4.640  64.777  1.00  0.00    -0.153 A  
BRANCH   9  13
HETATM   13  N   UNL     1      -8.437   6.080  68.199  1.00  0.00    -0.115 N  
HETATM   14  N   UNL     1      -9.058   8.052  69.222  1.00  0.00    -0.148 N  
HETATM   15  S   UNL     1     -11.033   6.114  69.109  1.00  0.00    -0.373 S  
HETATM   16  C   UNL     1      -9.531   6.798  68.779  1.00  0.00    -0.130 C  
HETATM   17  C   UNL     1      -7.686   7.999  69.419  1.00  0.00    -0.104 C  
HETATM   18  C   UNL     1      -6.115   5.825  69.344  1.00  0.00    -0.031 C  
HETATM   19  C   UNL     1      -5.197   5.937  68.103  1.00  0.00    -0.004 C  
HETATM   20  O   UNL     1      -6.993   8.771  70.076  1.00  0.00    -0.041 OA 
HETATM   21  C   UNL     1      -7.151   6.733  68.639  1.00  0.00    -0.082 C  
HETATM   22  C   UNL     1      -6.056   7.105  67.605  1.00  0.00    -0.037 C  
BRANCH  14  23
HETATM   23  C   UNL     1      -9.834   9.261  69.371  1.00  0.00    -0.174 A  
HETATM   24  C   UNL     1     -10.889   9.381  70.290  1.00  0.00    -0.303 A  
HETATM   25  C   UNL     1     -11.193  11.695  69.742  1.00  0.00    -0.127 A  
HETATM   26  C   UNL     1     -12.694  10.713  71.489  1.00  0.00    -0.444 C  
HETATM   27  F   UNL     1     -12.433  11.652  72.441  1.00  0.00     0.034 F  
HETATM   28  F   UNL     1     -12.929   9.560  72.168  1.00  0.00    -0.402 F  
HETATM   29  F   UNL     1     -13.875  11.059  70.919  1.00  0.00     0.220 F  
HETATM   30  C   UNL     1     -11.841  12.978  69.837  1.00  0.00    -0.307 C  
HETATM   31  N   UNL     1     -10.163  11.642  68.868  1.00  0.00    -0.170 NA 
HETATM   32  C   UNL     1     -11.581  10.598  70.490  1.00  0.00    -0.444 A  
HETATM   33  N   UNL     1     -12.389  13.999  69.938  1.00  0.00    -0.333 NA 
HETATM   34  C   UNL     1      -9.513  10.455  68.720  1.00  0.00    -0.175 A  
ENDBRANCH  14  23
ENDBRANCH   9  13
ENDBRANCH   3   6
TORSDOF 3
ENDMDL
MODEL       88
REMARK 921   NORMALIZED FREE ENERGY PREDICTED BY IDOCK:   -4.54 KCAL/MOL
REMARK 922        TOTAL FREE ENERGY PREDICTED BY IDOCK:   -6.45 KCAL/MOL
REMARK 923 INTER-LIGAND FREE ENERGY PREDICTED BY IDOCK:   -5.70 KCAL/MOL
REMARK 924 INTRA-LIGAND FREE ENERGY PREDICTED BY IDOCK:   -0.75 KCAL/MOL
REMARK 927      BINDING AFFINITY PREDICTED BY RF-SCORE:    0.00 PKD
ROOT
HETATM    1  C   UNL     1      -6.249  21.317  65.813  1.00  0.00    -0.094 C  
HETATM    2  N   UNL     1      -6.908  20.038  65.795  1.00  0.00    -0.266 N  
HETATM    3  C   UNL     1      -7.725  19.636  66.828  1.00  0.00    -0.266 C  
HETATM    4  H   UNL     1      -6.767  19.415  64.999  1.00  0.00     0.000 HD 
HETATM    5  O   UNL     1      -7.998  20.348  67.788  1.00  0.00    -0.272 OA 
ENDROOT
BRANCH   3   6
HETATM    6  C   UNL     1      -8.277  18.260  66.755  1.00  0.00    -0.269 A  
HETATM    7  C   UNL     1      -9.553  18.007  67.261  1.00  0.00    -0.269 A  
HETATM    8  C   UNL     1     -10.041  16.692  67.340  1.00  0.00    -0.274 A  
HETATM    9  C   UNL     1      -9.274  15.598  66.904  1.00  0.00    -0.236 A  
HETATM   10  C   UNL     1      -8.056  15.890  66.287  1.00  0.00    -0.052 A  
HETATM   11  F   UNL     1      -6.329  17.365  65.721  1.00  0.00    -0.223 F  
HETATM   12  C   UNL     1      -7.552  17.190  66.246  1.00  0.00    -0.317 A  
BRANCH   9  13
HETATM   13  N   UNL     1      -9.688  14.249  67.141  1.00  0.00    -0.247 N  
HETATM   14  N   UNL     1      -9.246  11.986  67.203  1.00  0.00    -0.184 N  
HETATM   15  S   UNL     1      -7.836  13.510  69.036  1.00  0.00     0.260 S  
HETATM   16  C   UNL     1      -8.866  13.238  67.733  1.00  0.00    -0.197 C  
HETATM   17  C   UNL     1     -10.541  12.053  66.708  1.00  0.00    -0.227 C  
HETATM   18  C   UNL     1     -12.278  14.081  66.972  1.00  0.00    -0.387 C  
HETATM   19  C   UNL     1     -12.492  14.715  65.577  1.00  0.00    -0.142 C  
HETATM   20  O   UNL     1     -11.299  11.119  66.466  1.00  0.00    -0.275 OA 
HETATM   21  C   UNL     1     -10.887  13.583  66.514  1.00  0.00    -0.282 C  
HETATM   22  C   UNL     1     -11.300  13.905  65.054  1.00  0.00    -0.336 C  
BRANCH  14  23
HETATM   23  C   UNL     1      -8.413  10.812  67.086  1.00  0.00    -0.126 A  
HETATM   24  C   UNL     1      -8.654   9.632  67.811  1.00  0.00    -0.125 A  
HETATM   25  C   UNL     1      -6.865   8.498  66.687  1.00  0.00    -0.072 A  
HETATM   26  C   UNL     1      -8.168   7.204  68.390  1.00  0.00    -0.125 C  
HETATM   27  F   UNL     1      -8.468   6.158  67.571  1.00  0.00    -0.109 F  
HETATM   28  F   UNL     1      -9.223   7.317  69.238  1.00  0.00    -0.143 F  
HETATM   29  F   UNL     1      -7.117   6.809  69.151  1.00  0.00    -0.074 F  
HETATM   30  C   UNL     1      -5.999   7.377  66.427  1.00  0.00    -0.036 C  
HETATM   31  N   UNL     1      -6.613   9.597  65.940  1.00  0.00    -0.077 NA 
HETATM   32  C   UNL     1      -7.886   8.460  67.621  1.00  0.00    -0.107 A  
HETATM   33  N   UNL     1      -5.317   6.453  66.244  1.00  0.00    -0.013 NA 
HETATM   34  C   UNL     1      -7.389  10.696  66.144  1.00  0.00    -0.138 A  
ENDBRANCH  14  23
ENDBRANCH   9  13
ENDBRANCH   3   6
TORSDOF 3
ENDMDL
MODEL       89
REMARK 921   NORMALIZED FREE ENERGY PREDICTED BY IDOCK:   -4.53 KCAL/MOL
REMARK 922        TOTAL FREE ENERGY PREDICTED BY IDOCK:   -6.44 KCAL/MOL
REMARK 923 INTER-LIGAND FREE ENERGY PREDICTED BY IDOCK:   -5.57 KCAL/MOL
REMARK 924 INTRA-LIGAND FREE ENERGY PREDICTED BY IDOCK:   -0.87 KCAL/MOL
REMARK 927      BINDING AFFINITY PREDICTED BY RF-SCORE:    0.00 PKD
ROOT
HETATM    1  C   UNL     1     -14.379  14.595  72.067  1.00  0.00    -0.558 C  
HETATM    2  N   UNL     1     -13.485  13.699  71.383  1.00  0.00    -0.251 N  
HETATM    3  C   UNL     1     -12.674  14.137  70.360  1.00  0.00    -0.279 C  
HETATM    4  H   UNL     1     -13.450  12.718  71.662  1.00  0.00     0.000 HD 
HETATM    5  O   UNL     1     -12.608  15.309  70.006  1.00  0.00    -0.318 OA 
ENDROOT
BRANCH   3   6
HETATM    6  C   UNL     1     -11.862  13.111  69.657  1.00  0.00    -0.390 A  
HETATM    7  C   UNL     1     -11.730  11.840  70.219  1.00  0.00    -0.317 A  
HETATM    8  C   UNL     1     -10.852  10.899  69.656  1.00  0.00    -0.271 A  
HETATM    9  C   UNL     1     -10.094  11.198  68.511  1.00  0.00    -0.201 A  
HETATM   10  C   UNL     1     -10.338  12.428  67.898  1.00  0.00    -0.215 A  
HETATM   11  F   UNL     1     -11.279  14.571  67.870  1.00  0.00    -0.258 F  
HETATM   12  C   UNL     1     -11.178  13.378  68.479  1.00  0.00    -0.283 A  
BRANCH   9  13
HETATM   13  N   UNL     1      -9.072  10.316  68.037  1.00  0.00    -0.131 N  
HETATM   14  N   UNL     1      -8.088   8.231  67.952  1.00  0.00    -0.125 N  
HETATM   15  S   UNL     1     -10.628   8.378  66.858  1.00  0.00    -0.082 S  
HETATM   16  C   UNL     1      -9.279   8.942  67.691  1.00  0.00    -0.136 C  
HETATM   17  C   UNL     1      -7.008   9.103  67.965  1.00  0.00    -0.077 C  
HETATM   18  C   UNL     1      -7.002  11.696  67.274  1.00  0.00    -0.131 C  
HETATM   19  C   UNL     1      -6.760  12.534  68.552  1.00  0.00    -0.078 C  
HETATM   20  O   UNL     1      -5.818   8.822  67.851  1.00  0.00    -0.041 OA 
HETATM   21  C   UNL     1      -7.588  10.562  68.148  1.00  0.00    -0.091 C  
HETATM   22  C   UNL     1      -6.993  11.273  69.392  1.00  0.00    -0.109 C  
BRANCH  14  23
HETATM   23  C   UNL     1      -7.974   6.824  68.258  1.00  0.00    -0.111 A  
HETATM   24  C   UNL     1      -8.498   6.256  69.431  1.00  0.00    -0.125 A  
HETATM   25  C   UNL     1      -7.880   4.052  68.719  1.00  0.00    -0.067 A  
HETATM   26  C   UNL     1      -9.041   4.271  70.926  1.00  0.00    -0.126 C  
HETATM   27  F   UNL     1     -10.025   3.370  70.656  1.00  0.00    -0.244 F  
HETATM   28  F   UNL     1      -9.606   5.194  71.748  1.00  0.00    -0.160 F  
HETATM   29  F   UNL     1      -8.116   3.621  71.676  1.00  0.00    -0.061 F  
HETATM   30  C   UNL     1      -7.758   2.625  68.870  1.00  0.00    -0.046 C  
HETATM   31  N   UNL     1      -7.391   4.544  67.558  1.00  0.00    -0.072 NA 
HETATM   32  C   UNL     1      -8.460   4.864  69.677  1.00  0.00    -0.090 A  
HETATM   33  N   UNL     1      -7.674   1.475  69.027  1.00  0.00    -0.042 NA 
HETATM   34  C   UNL     1      -7.464   5.888  67.356  1.00  0.00    -0.078 A  
ENDBRANCH  14  23
ENDBRANCH   9  13
ENDBRANCH   3   6
TORSDOF 3
ENDMDL
MODEL       90
REMARK 921   NORMALIZED FREE ENERGY PREDICTED BY IDOCK:   -4.52 KCAL/MOL
REMARK 922        TOTAL FREE ENERGY PREDICTED BY IDOCK:   -6.43 KCAL/MOL
REMARK 923 INTER-LIGAND FREE ENERGY PREDICTED BY IDOCK:   -5.62 KCAL/MOL
REMARK 924 INTRA-LIGAND FREE ENERGY PREDICTED BY IDOCK:   -0.81 KCAL/MOL
REMARK 927      BINDING AFFINITY PREDICTED BY RF-SCORE:    0.00 PKD
ROOT
HETATM    1  C   UNL     1      -8.833   4.203  74.107  1.00  0.00    -0.095 C  
HETATM    2  N   UNL     1      -8.741   5.041  72.941  1.00  0.00    -0.118 N  
HETATM    3  C   UNL     1      -8.401   6.372  73.038  1.00  0.00    -0.116 C  
HETATM    4  H   UNL     1      -8.932   4.641  72.023  1.00  0.00     0.000 HD 
HETATM    5  O   UNL     1      -8.094   6.915  74.094  1.00  0.00    -0.113 OA 
ENDROOT
BRANCH   3   6
HETATM    6  C   UNL     1      -8.430   7.169  71.786  1.00  0.00    -0.114 A  
HETATM    7  C   UNL     1      -9.645   7.687  71.333  1.00  0.00    -0.178 A  
HETATM    8  C   UNL     1      -9.728   8.317  70.081  1.00  0.00    -0.176 A  
HETATM    9  C   UNL     1      -8.600   8.458  69.254  1.00  0.00    -0.130 A  
HETATM   10  C   UNL     1      -7.377   8.046  69.785  1.00  0.00    -0.074 A  
HETATM   11  F   UNL     1      -6.094   6.934  71.397  1.00  0.00    -0.035 F  
HETATM   12  C   UNL     1      -7.299   7.383  71.010  1.00  0.00    -0.073 A  
BRANCH   9  13
HETATM   13  N   UNL     1      -8.709   8.937  67.910  1.00  0.00    -0.129 N  
HETATM   14  N   UNL     1      -9.332  10.558  66.392  1.00  0.00    -0.165 N  
HETATM   15  S   UNL     1      -7.303  11.290  68.129  1.00  0.00    -0.093 S  
HETATM   16  C   UNL     1      -8.515  10.298  67.513  1.00  0.00    -0.118 C  
HETATM   17  C   UNL     1      -9.650   9.369  65.750  1.00  0.00    -0.271 C  
HETATM   18  C   UNL     1      -8.647   6.931  66.254  1.00  0.00    -0.138 C  
HETATM   19  C   UNL     1      -9.777   6.061  66.853  1.00  0.00    -0.173 C  
HETATM   20  O   UNL     1     -10.064   9.225  64.604  1.00  0.00     0.625 OA 
HETATM   21  C   UNL     1      -9.369   8.197  66.773  1.00  0.00    -0.183 C  
HETATM   22  C   UNL     1     -10.629   7.325  67.019  1.00  0.00    -0.415 C  
BRANCH  14  23
HETATM   23  C   UNL     1      -9.861  11.840  65.990  1.00  0.00    -0.232 A  
HETATM   24  C   UNL     1     -10.385  12.768  66.905  1.00  0.00    -0.245 A  
HETATM   25  C   UNL     1     -10.712  14.393  65.173  1.00  0.00    -0.398 A  
HETATM   26  C   UNL     1     -11.357  15.041  67.504  1.00  0.00    -0.333 C  
HETATM   27  F   UNL     1     -10.626  16.190  67.536  1.00  0.00    -0.287 F  
HETATM   28  F   UNL     1     -11.360  14.573  68.779  1.00  0.00    -0.240 F  
HETATM   29  F   UNL     1     -12.636  15.405  67.237  1.00  0.00     0.419 F  
HETATM   30  C   UNL     1     -11.145  15.663  64.648  1.00  0.00    -0.373 C  
HETATM   31  N   UNL     1     -10.184  13.549  64.257  1.00  0.00    -0.307 NA 
HETATM   32  C   UNL     1     -10.817  14.056  66.511  1.00  0.00    -0.300 A  
HETATM   33  N   UNL     1     -11.506  16.698  64.259  1.00  0.00    -1.044 NA 
HETATM   34  C   UNL     1      -9.767  12.327  64.684  1.00  0.00     0.002 A  
ENDBRANCH  14  23
ENDBRANCH   9  13
ENDBRANCH   3   6
TORSDOF 3
ENDMDL
MODEL       91
REMARK 921   NORMALIZED FREE ENERGY PREDICTED BY IDOCK:   -4.50 KCAL/MOL
REMARK 922        TOTAL FREE ENERGY PREDICTED BY IDOCK:   -6.41 KCAL/MOL
REMARK 923 INTER-LIGAND FREE ENERGY PREDICTED BY IDOCK:   -5.39 KCAL/MOL
REMARK 924 INTRA-LIGAND FREE ENERGY PREDICTED BY IDOCK:   -1.02 KCAL/MOL
REMARK 927      BINDING AFFINITY PREDICTED BY RF-SCORE:    0.00 PKD
ROOT
HETATM    1  C   UNL     1      -7.708   4.172  72.050  1.00  0.00    -0.076 C  
HETATM    2  N   UNL     1      -8.237   5.430  71.593  1.00  0.00    -0.117 N  
HETATM    3  C   UNL     1      -7.780   6.023  70.437  1.00  0.00    -0.097 C  
HETATM    4  H   UNL     1      -8.966   5.891  72.136  1.00  0.00     0.000 HD 
HETATM    5  O   UNL     1      -6.953   5.505  69.694  1.00  0.00    -0.058 OA 
ENDROOT
BRANCH   3   6
HETATM    6  C   UNL     1      -8.322   7.365  70.108  1.00  0.00    -0.136 A  
HETATM    7  C   UNL     1      -9.416   7.468  69.246  1.00  0.00    -0.154 A  
HETATM    8  C   UNL     1      -9.857   8.725  68.802  1.00  0.00    -0.180 A  
HETATM    9  C   UNL     1      -9.227   9.911  69.216  1.00  0.00    -0.200 A  
HETATM   10  C   UNL     1      -8.220   9.788  70.174  1.00  0.00    -0.202 A  
HETATM   11  F   UNL     1      -6.716   8.513  71.436  1.00  0.00    -0.046 F  
HETATM   12  C   UNL     1      -7.754   8.538  70.585  1.00  0.00    -0.081 A  
BRANCH   9  13
HETATM   13  N   UNL     1      -9.555  11.178  68.634  1.00  0.00    -0.196 N  
HETATM   14  N   UNL     1      -9.058  13.389  68.208  1.00  0.00    -0.191 N  
HETATM   15  S   UNL     1      -7.346  11.553  67.039  1.00  0.00    -0.139 S  
HETATM   16  C   UNL     1      -8.608  12.064  68.028  1.00  0.00    -0.170 C  
HETATM   17  C   UNL     1     -10.426  13.400  68.438  1.00  0.00    -0.250 C  
HETATM   18  C   UNL     1     -12.123  11.329  68.246  1.00  0.00    -0.058 C  
HETATM   19  C   UNL     1     -12.624  10.985  69.669  1.00  0.00    -0.084 C  
HETATM   20  O   UNL     1     -11.196  14.350  68.331  1.00  0.00    -0.252 OA 
HETATM   21  C   UNL     1     -10.839  11.934  68.863  1.00  0.00    -0.221 C  
HETATM   22  C   UNL     1     -11.542  11.906  70.245  1.00  0.00    -0.178 C  
BRANCH  14  23
HETATM   23  C   UNL     1      -8.238  14.578  68.251  1.00  0.00    -0.149 A  
HETATM   24  C   UNL     1      -8.468  15.691  67.425  1.00  0.00    -0.191 A  
HETATM   25  C   UNL     1      -6.721  16.933  68.500  1.00  0.00    -0.168 A  
HETATM   26  C   UNL     1      -7.986  18.069  66.661  1.00  0.00    -0.251 C  
HETATM   27  F   UNL     1      -8.317  19.175  67.382  1.00  0.00    -0.281 F  
HETATM   28  F   UNL     1      -9.015  17.874  65.796  1.00  0.00    -0.123 F  
HETATM   29  F   UNL     1      -6.917  18.410  65.899  1.00  0.00    -0.247 F  
HETATM   30  C   UNL     1      -5.872  18.080  68.690  1.00  0.00    -0.189 C  
HETATM   31  N   UNL     1      -6.481  15.902  69.342  1.00  0.00    -0.156 NA 
HETATM   32  C   UNL     1      -7.715  16.882  67.538  1.00  0.00    -0.187 A  
HETATM   33  N   UNL     1      -5.202  19.024  68.815  1.00  0.00    -0.191 NA 
HETATM   34  C   UNL     1      -7.241  14.781  69.208  1.00  0.00    -0.167 A  
ENDBRANCH  14  23
ENDBRANCH   9  13
ENDBRANCH   3   6
TORSDOF 3
ENDMDL
MODEL       92
REMARK 921   NORMALIZED FREE ENERGY PREDICTED BY IDOCK:   -4.48 KCAL/MOL
REMARK 922        TOTAL FREE ENERGY PREDICTED BY IDOCK:   -6.39 KCAL/MOL
REMARK 923 INTER-LIGAND FREE ENERGY PREDICTED BY IDOCK:   -5.20 KCAL/MOL
REMARK 924 INTRA-LIGAND FREE ENERGY PREDICTED BY IDOCK:   -1.19 KCAL/MOL
REMARK 927      BINDING AFFINITY PREDICTED BY RF-SCORE:    0.00 PKD
ROOT
HETATM    1  C   UNL     1     -11.534   1.471  62.816  1.00  0.00    -0.256 C  
HETATM    2  N   UNL     1     -10.945   2.517  63.610  1.00  0.00    -0.454 N  
HETATM    3  C   UNL     1      -9.638   2.444  64.038  1.00  0.00    -0.137 C  
HETATM    4  H   UNL     1     -11.508   3.329  63.861  1.00  0.00     0.000 HD 
HETATM    5  O   UNL     1      -8.876   1.534  63.728  1.00  0.00    -0.080 OA 
ENDROOT
BRANCH   3   6
HETATM    6  C   UNL     1      -9.160   3.528  64.932  1.00  0.00    -0.137 A  
HETATM    7  C   UNL     1      -9.145   3.320  66.313  1.00  0.00    -0.161 A  
HETATM    8  C   UNL     1      -8.838   4.374  67.189  1.00  0.00    -0.119 A  
HETATM    9  C   UNL     1      -8.527   5.658  66.710  1.00  0.00    -0.111 A  
HETATM   10  C   UNL     1      -8.425   5.806  65.326  1.00  0.00    -0.148 A  
HETATM   11  F   UNL     1      -8.735   5.033  63.138  1.00  0.00    -0.128 F  
HETATM   12  C   UNL     1      -8.769   4.772  64.455  1.00  0.00    -0.153 A  
BRANCH   9  13
HETATM   13  N   UNL     1      -8.387   6.775  67.594  1.00  0.00    -0.122 N  
HETATM   14  N   UNL     1      -8.665   9.015  68.072  1.00  0.00    -0.129 N  
HETATM   15  S   UNL     1     -11.012   7.577  67.765  1.00  0.00     0.118 S  
HETATM   16  C   UNL     1      -9.348   7.826  67.735  1.00  0.00    -0.143 C  
HETATM   17  C   UNL     1      -7.432   8.711  68.632  1.00  0.00    -0.096 C  
HETATM   18  C   UNL     1      -6.519   6.288  69.338  1.00  0.00    -0.043 C  
HETATM   19  C   UNL     1      -5.360   5.914  68.385  1.00  0.00    -0.004 C  
HETATM   20  O   UNL     1      -6.717   9.443  69.310  1.00  0.00    -0.048 OA 
HETATM   21  C   UNL     1      -7.099   7.216  68.244  1.00  0.00    -0.082 C  
HETATM   22  C   UNL     1      -5.748   7.097  67.490  1.00  0.00    -0.025 C  
BRANCH  14  23
HETATM   23  C   UNL     1      -9.104  10.365  67.807  1.00  0.00    -0.131 A  
HETATM   24  C   UNL     1     -10.111  10.999  68.552  1.00  0.00    -0.198 A  
HETATM   25  C   UNL     1      -9.793  13.054  67.360  1.00  0.00    -0.215 A  
HETATM   26  C   UNL     1     -11.534  13.018  69.159  1.00  0.00    -0.299 C  
HETATM   27  F   UNL     1     -11.060  14.100  69.834  1.00  0.00    -0.258 F  
HETATM   28  F   UNL     1     -12.075  12.205  70.104  1.00  0.00    -0.358 F  
HETATM   29  F   UNL     1     -12.573  13.457  68.406  1.00  0.00    -0.175 F  
HETATM   30  C   UNL     1     -10.088  14.426  67.035  1.00  0.00    -0.256 C  
HETATM   31  N   UNL     1      -8.793  12.501  66.637  1.00  0.00    -0.183 NA 
HETATM   32  C   UNL     1     -10.469  12.350  68.341  1.00  0.00    -0.245 A  
HETATM   33  N   UNL     1     -10.355  15.533  66.797  1.00  0.00    -0.281 NA 
HETATM   34  C   UNL     1      -8.471  11.202  66.885  1.00  0.00    -0.147 A  
ENDBRANCH  14  23
ENDBRANCH   9  13
ENDBRANCH   3   6
TORSDOF 3
ENDMDL
MODEL       93
REMARK 921   NORMALIZED FREE ENERGY PREDICTED BY IDOCK:   -4.48 KCAL/MOL
REMARK 922        TOTAL FREE ENERGY PREDICTED BY IDOCK:   -6.39 KCAL/MOL
REMARK 923 INTER-LIGAND FREE ENERGY PREDICTED BY IDOCK:   -5.39 KCAL/MOL
REMARK 924 INTRA-LIGAND FREE ENERGY PREDICTED BY IDOCK:   -1.00 KCAL/MOL
REMARK 927      BINDING AFFINITY PREDICTED BY RF-SCORE:    0.00 PKD
ROOT
HETATM    1  C   UNL     1     -10.724   2.744  63.549  1.00  0.00    -0.209 C  
HETATM    2  N   UNL     1     -10.511   3.998  64.222  1.00  0.00    -0.393 N  
HETATM    3  C   UNL     1      -9.646   4.103  65.289  1.00  0.00    -0.186 C  
HETATM    4  H   UNL     1     -11.011   4.827  63.901  1.00  0.00     0.000 HD 
HETATM    5  O   UNL     1      -8.960   3.172  65.695  1.00  0.00    -0.134 OA 
ENDROOT
BRANCH   3   6
HETATM    6  C   UNL     1      -9.574   5.420  65.971  1.00  0.00    -0.149 A  
HETATM    7  C   UNL     1      -8.653   6.371  65.527  1.00  0.00    -0.115 A  
HETATM    8  C   UNL     1      -8.461   7.564  66.242  1.00  0.00    -0.141 A  
HETATM    9  C   UNL     1      -9.191   7.845  67.410  1.00  0.00    -0.140 A  
HETATM   10  C   UNL     1     -10.192   6.938  67.759  1.00  0.00    -0.224 A  
HETATM   11  F   UNL     1     -11.279   4.875  67.540  1.00  0.00     0.263 F  
HETATM   12  C   UNL     1     -10.356   5.733  67.075  1.00  0.00    -0.250 A  
BRANCH   9  13
HETATM   13  N   UNL     1      -8.878   8.970  68.238  1.00  0.00    -0.133 N  
HETATM   14  N   UNL     1      -8.397  11.211  68.497  1.00  0.00    -0.148 N  
HETATM   15  S   UNL     1     -10.939  10.656  67.547  1.00  0.00    -0.297 S  
HETATM   16  C   UNL     1      -9.364  10.299  68.023  1.00  0.00    -0.138 C  
HETATM   17  C   UNL     1      -7.574  10.590  69.426  1.00  0.00    -0.145 C  
HETATM   18  C   UNL     1      -7.884   8.149  70.498  1.00  0.00    -0.087 C  
HETATM   19  C   UNL     1      -6.745   7.244  69.971  1.00  0.00    -0.051 C  
HETATM   20  O   UNL     1      -6.846  11.125  70.257  1.00  0.00    -0.187 OA 
HETATM   21  C   UNL     1      -7.747   9.030  69.234  1.00  0.00    -0.090 C  
HETATM   22  C   UNL     1      -6.395   8.327  68.943  1.00  0.00    -0.044 C  
BRANCH  14  23
HETATM   23  C   UNL     1      -8.197  12.567  68.043  1.00  0.00    -0.166 A  
HETATM   24  C   UNL     1      -9.136  13.590  68.262  1.00  0.00    -0.189 A  
HETATM   25  C   UNL     1      -7.676  15.227  67.294  1.00  0.00    -0.211 A  
HETATM   26  C   UNL     1      -9.894  16.015  68.149  1.00  0.00    -0.222 C  
HETATM   27  F   UNL     1      -9.395  16.999  68.946  1.00  0.00    -0.251 F  
HETATM   28  F   UNL     1     -11.015  15.571  68.776  1.00  0.00    -0.228 F  
HETATM   29  F   UNL     1     -10.317  16.617  67.010  1.00  0.00    -0.282 F  
HETATM   30  C   UNL     1      -7.324  16.551  66.849  1.00  0.00    -0.225 C  
HETATM   31  N   UNL     1      -6.726  14.287  67.091  1.00  0.00    -0.075 NA 
HETATM   32  C   UNL     1      -8.889  14.932  67.892  1.00  0.00    -0.165 A  
HETATM   33  N   UNL     1      -7.073  17.632  66.500  1.00  0.00    -0.221 NA 
HETATM   34  C   UNL     1      -7.000  13.011  67.478  1.00  0.00    -0.151 A  
ENDBRANCH  14  23
ENDBRANCH   9  13
ENDBRANCH   3   6
TORSDOF 3
ENDMDL
MODEL       94
REMARK 921   NORMALIZED FREE ENERGY PREDICTED BY IDOCK:   -4.46 KCAL/MOL
REMARK 922        TOTAL FREE ENERGY PREDICTED BY IDOCK:   -6.36 KCAL/MOL
REMARK 923 INTER-LIGAND FREE ENERGY PREDICTED BY IDOCK:   -5.24 KCAL/MOL
REMARK 924 INTRA-LIGAND FREE ENERGY PREDICTED BY IDOCK:   -1.13 KCAL/MOL
REMARK 927      BINDING AFFINITY PREDICTED BY RF-SCORE:    0.00 PKD
ROOT
HETATM    1  C   UNL     1      -9.082   1.562  65.900  1.00  0.00    -0.053 C  
HETATM    2  N   UNL     1      -9.083   2.969  66.202  1.00  0.00    -0.165 N  
HETATM    3  C   UNL     1      -8.721   3.906  65.261  1.00  0.00    -0.116 C  
HETATM    4  H   UNL     1      -9.358   3.278  67.135  1.00  0.00     0.000 HD 
HETATM    5  O   UNL     1      -8.440   3.623  64.101  1.00  0.00    -0.090 OA 
ENDROOT
BRANCH   3   6
HETATM    6  C   UNL     1      -8.663   5.321  65.705  1.00  0.00    -0.143 A  
HETATM    7  C   UNL     1      -9.760   5.875  66.368  1.00  0.00    -0.168 A  
HETATM    8  C   UNL     1      -9.792   7.247  66.669  1.00  0.00    -0.257 A  
HETATM    9  C   UNL     1      -8.726   8.097  66.328  1.00  0.00    -0.150 A  
HETATM   10  C   UNL     1      -7.592   7.496  65.781  1.00  0.00    -0.093 A  
HETATM   11  F   UNL     1      -6.476   5.669  64.833  1.00  0.00    -0.036 F  
HETATM   12  C   UNL     1      -7.575   6.142  65.444  1.00  0.00    -0.087 A  
BRANCH   9  13
HETATM   13  N   UNL     1      -8.825   9.518  66.470  1.00  0.00    -0.137 N  
HETATM   14  N   UNL     1      -9.707  11.385  67.498  1.00  0.00    -0.177 N  
HETATM   15  S   UNL     1      -8.140   9.779  69.121  1.00  0.00    -0.117 S  
HETATM   16  C   UNL     1      -8.968  10.203  67.718  1.00  0.00    -0.128 C  
HETATM   17  C   UNL     1      -9.623  11.755  66.163  1.00  0.00    -0.232 C  
HETATM   18  C   UNL     1      -8.054  10.677  64.272  1.00  0.00     0.054 C  
HETATM   19  C   UNL     1      -8.960   9.943  63.256  1.00  0.00    -0.276 C  
HETATM   20  O   UNL     1      -9.865  12.855  65.675  1.00  0.00    -0.251 OA 
HETATM   21  C   UNL     1      -9.141  10.485  65.356  1.00  0.00    -0.187 C  
HETATM   22  C   UNL     1     -10.134  10.099  64.229  1.00  0.00    -0.030 C  
BRANCH  14  23
HETATM   23  C   UNL     1     -10.520  12.085  68.465  1.00  0.00    -0.229 A  
HETATM   24  C   UNL     1     -10.170  13.341  68.988  1.00  0.00     0.071 A  
HETATM   25  C   UNL     1     -12.228  13.481  70.210  1.00  0.00    -0.347 A  
HETATM   26  C   UNL     1     -10.636  15.404  70.400  1.00  0.00    -0.248 C  
HETATM   27  F   UNL     1     -11.537  16.365  70.057  1.00  0.00    -0.301 F  
HETATM   28  F   UNL     1      -9.437  15.846  69.939  1.00  0.00    -0.253 F  
HETATM   29  F   UNL     1     -10.546  15.424  71.753  1.00  0.00    -0.250 F  
HETATM   30  C   UNL     1     -13.161  14.100  71.115  1.00  0.00    -0.328 C  
HETATM   31  N   UNL     1     -12.627  12.290  69.708  1.00  0.00     0.171 NA 
HETATM   32  C   UNL     1     -11.017  14.056  69.865  1.00  0.00     0.055 A  
HETATM   33  N   UNL     1     -13.889  14.628  71.853  1.00  0.00    -0.409 NA 
HETATM   34  C   UNL     1     -11.787  11.644  68.855  1.00  0.00    -0.329 A  
ENDBRANCH  14  23
ENDBRANCH   9  13
ENDBRANCH   3   6
TORSDOF 3
ENDMDL
MODEL       95
REMARK 921   NORMALIZED FREE ENERGY PREDICTED BY IDOCK:   -4.34 KCAL/MOL
REMARK 922        TOTAL FREE ENERGY PREDICTED BY IDOCK:   -6.21 KCAL/MOL
REMARK 923 INTER-LIGAND FREE ENERGY PREDICTED BY IDOCK:   -5.12 KCAL/MOL
REMARK 924 INTRA-LIGAND FREE ENERGY PREDICTED BY IDOCK:   -1.09 KCAL/MOL
REMARK 927      BINDING AFFINITY PREDICTED BY RF-SCORE:    0.00 PKD
ROOT
HETATM    1  C   UNL     1     -10.069   4.709  73.740  1.00  0.00    -0.172 C  
HETATM    2  N   UNL     1      -9.657   5.792  72.886  1.00  0.00    -0.155 N  
HETATM    3  C   UNL     1     -10.173   5.942  71.618  1.00  0.00    -0.202 C  
HETATM    4  H   UNL     1      -8.968   6.462  73.227  1.00  0.00     0.000 HD 
HETATM    5  O   UNL     1     -11.050   5.220  71.157  1.00  0.00    -0.069 OA 
ENDROOT
BRANCH   3   6
HETATM    6  C   UNL     1      -9.608   7.035  70.786  1.00  0.00    -0.164 A  
HETATM    7  C   UNL     1     -10.410   8.130  70.459  1.00  0.00    -0.211 A  
HETATM    8  C   UNL     1      -9.953   9.103  69.556  1.00  0.00    -0.193 A  
HETATM    9  C   UNL     1      -8.681   9.015  68.965  1.00  0.00    -0.138 A  
HETATM   10  C   UNL     1      -7.853   7.981  69.406  1.00  0.00    -0.113 A  
HETATM   11  F   UNL     1      -7.486   5.980  70.564  1.00  0.00    -0.079 F  
HETATM   12  C   UNL     1      -8.320   6.991  70.271  1.00  0.00    -0.133 A  
BRANCH   9  13
HETATM   13  N   UNL     1      -8.277   9.901  67.916  1.00  0.00    -0.113 N  
HETATM   14  N   UNL     1      -8.367  11.950  66.861  1.00  0.00    -0.173 N  
HETATM   15  S   UNL     1      -7.282  11.985  69.409  1.00  0.00     0.258 S  
HETATM   16  C   UNL     1      -8.054  11.305  68.077  1.00  0.00    -0.128 C  
HETATM   17  C   UNL     1      -8.298  11.045  65.812  1.00  0.00    -0.092 C  
HETATM   18  C   UNL     1      -7.384   8.524  65.898  1.00  0.00    -0.077 C  
HETATM   19  C   UNL     1      -8.582   7.570  65.679  1.00  0.00    -0.131 C  
HETATM   20  O   UNL     1      -8.201  11.294  64.614  1.00  0.00     0.323 OA 
HETATM   21  C   UNL     1      -8.357   9.596  66.441  1.00  0.00    -0.119 C  
HETATM   22  C   UNL     1      -9.531   8.760  65.866  1.00  0.00    -0.278 C  
BRANCH  14  23
HETATM   23  C   UNL     1      -8.794  13.321  66.699  1.00  0.00    -0.058 A  
HETATM   24  C   UNL     1      -7.927  14.413  66.864  1.00  0.00     0.099 A  
HETATM   25  C   UNL     1      -9.635  15.957  66.196  1.00  0.00    -0.333 A  
HETATM   26  C   UNL     1      -7.388  16.898  66.777  1.00  0.00    -0.237 C  
HETATM   27  F   UNL     1      -7.226  17.595  65.619  1.00  0.00    -0.323 F  
HETATM   28  F   UNL     1      -6.139  16.521  67.156  1.00  0.00    -0.149 F  
HETATM   29  F   UNL     1      -7.808  17.789  67.709  1.00  0.00    -0.202 F  
HETATM   30  C   UNL     1     -10.172  17.268  65.938  1.00  0.00    -0.261 C  
HETATM   31  N   UNL     1     -10.500  14.938  65.990  1.00  0.00    -0.301 NA 
HETATM   32  C   UNL     1      -8.333  15.744  66.614  1.00  0.00    -0.319 A  
HETATM   33  N   UNL     1     -10.572  18.343  65.741  1.00  0.00    -0.579 NA 
HETATM   34  C   UNL     1     -10.061  13.672  66.227  1.00  0.00    -0.299 A  
ENDBRANCH  14  23
ENDBRANCH   9  13
ENDBRANCH   3   6
TORSDOF 3
ENDMDL
MODEL       96
REMARK 921   NORMALIZED FREE ENERGY PREDICTED BY IDOCK:   -4.33 KCAL/MOL
REMARK 922        TOTAL FREE ENERGY PREDICTED BY IDOCK:   -6.21 KCAL/MOL
REMARK 923 INTER-LIGAND FREE ENERGY PREDICTED BY IDOCK:   -5.82 KCAL/MOL
REMARK 924 INTRA-LIGAND FREE ENERGY PREDICTED BY IDOCK:   -0.39 KCAL/MOL
REMARK 927      BINDING AFFINITY PREDICTED BY RF-SCORE:    0.00 PKD
ROOT
HETATM    1  C   UNL     1     -11.149  19.674  65.774  1.00  0.00     0.023 C  
HETATM    2  N   UNL     1     -10.423  18.519  66.233  1.00  0.00    -0.421 N  
HETATM    3  C   UNL     1     -10.555  17.296  65.614  1.00  0.00    -0.166 C  
HETATM    4  H   UNL     1      -9.797  18.608  67.033  1.00  0.00     0.000 HD 
HETATM    5  O   UNL     1     -11.235  17.118  64.609  1.00  0.00    -1.003 OA 
ENDROOT
BRANCH   3   6
HETATM    6  C   UNL     1      -9.837  16.149  66.226  1.00  0.00    -0.329 A  
HETATM    7  C   UNL     1      -8.443  16.173  66.294  1.00  0.00    -0.357 A  
HETATM    8  C   UNL     1      -7.732  15.043  66.731  1.00  0.00     0.174 A  
HETATM    9  C   UNL     1      -8.394  13.867  67.125  1.00  0.00    -0.154 A  
HETATM   10  C   UNL     1      -9.788  13.915  67.168  1.00  0.00    -0.241 A  
HETATM   11  F   UNL     1     -11.836  14.941  66.683  1.00  0.00    -0.356 F  
HETATM   12  C   UNL     1     -10.495  15.021  66.695  1.00  0.00    -0.284 A  
BRANCH   9  13
HETATM   13  N   UNL     1      -7.678  12.660  67.402  1.00  0.00    -0.161 N  
HETATM   14  N   UNL     1      -7.633  10.446  68.048  1.00  0.00    -0.091 N  
HETATM   15  S   UNL     1      -8.940  10.948  65.658  1.00  0.00    -0.191 S  
HETATM   16  C   UNL     1      -8.148  11.345  67.090  1.00  0.00    -0.155 C  
HETATM   17  C   UNL     1      -6.499  10.983  68.641  1.00  0.00    -0.052 C  
HETATM   18  C   UNL     1      -5.190  13.213  67.923  1.00  0.00    -0.107 C  
HETATM   19  C   UNL     1      -5.383  14.265  69.041  1.00  0.00    -0.081 C  
HETATM   20  O   UNL     1      -5.630  10.387  69.270  1.00  0.00    -0.038 OA 
HETATM   21  C   UNL     1      -6.514  12.537  68.353  1.00  0.00    -0.066 C  
HETATM   22  C   UNL     1      -6.465  13.372  69.660  1.00  0.00    -0.056 C  
BRANCH  14  23
HETATM   23  C   UNL     1      -8.217   9.188  68.450  1.00  0.00    -0.115 A  
HETATM   24  C   UNL     1      -8.418   8.121  67.559  1.00  0.00    -0.126 A  
HETATM   25  C   UNL     1      -9.195   6.701  69.327  1.00  0.00    -0.140 A  
HETATM   26  C   UNL     1      -9.098   5.730  67.021  1.00  0.00    -0.114 C  
HETATM   27  F   UNL     1      -8.356   4.640  67.360  1.00  0.00    -0.103 F  
HETATM   28  F   UNL     1      -8.736   6.037  65.748  1.00  0.00    -0.140 F  
HETATM   29  F   UNL     1     -10.388   5.314  66.952  1.00  0.00    -0.186 F  
HETATM   30  C   UNL     1      -9.725   5.478  69.873  1.00  0.00    -0.174 C  
HETATM   31  N   UNL     1      -8.989   7.685  70.232  1.00  0.00    -0.145 NA 
HETATM   32  C   UNL     1      -8.908   6.865  67.984  1.00  0.00    -0.123 A  
HETATM   33  N   UNL     1     -10.155   4.476  70.279  1.00  0.00    -0.212 NA 
HETATM   34  C   UNL     1      -8.501   8.872  69.781  1.00  0.00    -0.131 A  
ENDBRANCH  14  23
ENDBRANCH   9  13
ENDBRANCH   3   6
TORSDOF 3
ENDMDL
MODEL       97
REMARK 921   NORMALIZED FREE ENERGY PREDICTED BY IDOCK:   -4.32 KCAL/MOL
REMARK 922        TOTAL FREE ENERGY PREDICTED BY IDOCK:   -6.19 KCAL/MOL
REMARK 923 INTER-LIGAND FREE ENERGY PREDICTED BY IDOCK:   -5.27 KCAL/MOL
REMARK 924 INTRA-LIGAND FREE ENERGY PREDICTED BY IDOCK:   -0.92 KCAL/MOL
REMARK 927      BINDING AFFINITY PREDICTED BY RF-SCORE:    0.00 PKD
ROOT
HETATM    1  C   UNL     1      -8.678   4.575  62.337  1.00  0.00    -0.111 C  
HETATM    2  N   UNL     1      -8.842   5.735  63.173  1.00  0.00    -0.324 N  
HETATM    3  C   UNL     1      -7.762   6.482  63.585  1.00  0.00    -0.114 C  
HETATM    4  H   UNL     1      -9.780   6.008  63.467  1.00  0.00     0.000 HD 
HETATM    5  O   UNL     1      -6.611   6.260  63.225  1.00  0.00    -0.038 OA 
ENDROOT
BRANCH   3   6
HETATM    6  C   UNL     1      -8.033   7.600  64.524  1.00  0.00    -0.130 A  
HETATM    7  C   UNL     1      -7.695   8.903  64.153  1.00  0.00    -0.127 A  
HETATM    8  C   UNL     1      -7.804   9.957  65.074  1.00  0.00    -0.131 A  
HETATM    9  C   UNL     1      -8.265   9.741  66.384  1.00  0.00    -0.120 A  
HETATM   10  C   UNL     1      -8.716   8.456  66.688  1.00  0.00    -0.144 A  
HETATM   11  F   UNL     1      -8.941   6.177  66.201  1.00  0.00    -0.140 F  
HETATM   12  C   UNL     1      -8.570   7.400  65.788  1.00  0.00    -0.136 A  
BRANCH   9  13
HETATM   13  N   UNL     1      -8.213  10.770  67.378  1.00  0.00    -0.115 N  
HETATM   14  N   UNL     1      -8.343  12.990  67.990  1.00  0.00    -0.159 N  
HETATM   15  S   UNL     1     -10.698  11.894  67.029  1.00  0.00    -0.252 S  
HETATM   16  C   UNL     1      -9.056  11.926  67.397  1.00  0.00    -0.178 C  
HETATM   17  C   UNL     1      -7.318  12.492  68.781  1.00  0.00    -0.070 C  
HETATM   18  C   UNL     1      -6.873   9.930  69.444  1.00  0.00    -0.060 C  
HETATM   19  C   UNL     1      -5.571   9.471  68.744  1.00  0.00    -0.036 C  
HETATM   20  O   UNL     1      -6.705  13.078  69.669  1.00  0.00    -0.041 OA 
HETATM   21  C   UNL     1      -7.072  10.995  68.339  1.00  0.00    -0.074 C  
HETATM   22  C   UNL     1      -5.605  10.750  67.900  1.00  0.00    -0.042 C  
BRANCH  14  23
HETATM   23  C   UNL     1      -8.554  14.400  67.760  1.00  0.00    -0.171 A  
HETATM   24  C   UNL     1      -7.551  15.248  67.260  1.00  0.00    -0.244 A  
HETATM   25  C   UNL     1      -9.071  17.100  67.166  1.00  0.00    -0.228 A  
HETATM   26  C   UNL     1      -6.719  17.494  66.405  1.00  0.00    -0.262 C  
HETATM   27  F   UNL     1      -7.050  18.008  65.188  1.00  0.00    -0.114 F  
HETATM   28  F   UNL     1      -5.535  16.853  66.220  1.00  0.00    -0.184 F  
HETATM   29  F   UNL     1      -6.449  18.551  67.211  1.00  0.00    -0.185 F  
HETATM   30  C   UNL     1      -9.432  18.472  66.919  1.00  0.00    -0.298 C  
HETATM   31  N   UNL     1     -10.080  16.318  67.614  1.00  0.00    -0.255 NA 
HETATM   32  C   UNL     1      -7.796  16.607  66.955  1.00  0.00    -0.233 A  
HETATM   33  N   UNL     1      -9.689  19.588  66.711  1.00  0.00    -0.341 NA 
HETATM   34  C   UNL     1      -9.804  15.012  67.878  1.00  0.00    -0.217 A  
ENDBRANCH  14  23
ENDBRANCH   9  13
ENDBRANCH   3   6
TORSDOF 3
ENDMDL
MODEL       98
REMARK 921   NORMALIZED FREE ENERGY PREDICTED BY IDOCK:   -4.28 KCAL/MOL
REMARK 922        TOTAL FREE ENERGY PREDICTED BY IDOCK:   -6.15 KCAL/MOL
REMARK 923 INTER-LIGAND FREE ENERGY PREDICTED BY IDOCK:   -4.89 KCAL/MOL
REMARK 924 INTRA-LIGAND FREE ENERGY PREDICTED BY IDOCK:   -1.25 KCAL/MOL
REMARK 927      BINDING AFFINITY PREDICTED BY RF-SCORE:    0.00 PKD
ROOT
HETATM    1  C   UNL     1      -5.131   1.981  63.755  1.00  0.00    -0.004 C  
HETATM    2  N   UNL     1      -5.734   2.749  64.812  1.00  0.00    -0.013 N  
HETATM    3  C   UNL     1      -6.200   4.027  64.596  1.00  0.00    -0.023 C  
HETATM    4  H   UNL     1      -5.818   2.338  65.742  1.00  0.00     0.000 HD 
HETATM    5  O   UNL     1      -6.195   4.569  63.497  1.00  0.00    -0.021 OA 
ENDROOT
BRANCH   3   6
HETATM    6  C   UNL     1      -6.714   4.766  65.777  1.00  0.00    -0.053 A  
HETATM    7  C   UNL     1      -7.642   4.149  66.618  1.00  0.00    -0.089 A  
HETATM    8  C   UNL     1      -8.255   4.873  67.654  1.00  0.00    -0.105 A  
HETATM    9  C   UNL     1      -7.948   6.225  67.885  1.00  0.00    -0.111 A  
HETATM   10  C   UNL     1      -6.926   6.779  67.113  1.00  0.00    -0.074 A  
HETATM   11  F   UNL     1      -5.440   6.720  65.304  1.00  0.00    -0.023 F  
HETATM   12  C   UNL     1      -6.347   6.074  66.057  1.00  0.00    -0.042 A  
BRANCH   9  13
HETATM   13  N   UNL     1      -8.692   7.014  68.819  1.00  0.00    -0.127 N  
HETATM   14  N   UNL     1      -9.661   9.010  69.450  1.00  0.00    -0.157 N  
HETATM   15  S   UNL     1     -10.773   7.818  67.211  1.00  0.00    -0.171 S  
HETATM   16  C   UNL     1      -9.658   8.006  68.459  1.00  0.00    -0.155 C  
HETATM   17  C   UNL     1      -9.145   8.507  70.636  1.00  0.00    -0.160 C  
HETATM   18  C   UNL     1      -8.533   5.954  71.190  1.00  0.00    -0.124 C  
HETATM   19  C   UNL     1      -6.996   5.847  71.328  1.00  0.00    -0.068 C  
HETATM   20  O   UNL     1      -9.274   8.972  71.765  1.00  0.00    -0.329 OA 
HETATM   21  C   UNL     1      -8.349   7.190  70.278  1.00  0.00    -0.136 C  
HETATM   22  C   UNL     1      -6.871   7.259  70.743  1.00  0.00    -0.052 C  
BRANCH  14  23
HETATM   23  C   UNL     1     -10.043  10.392  69.275  1.00  0.00    -0.230 A  
HETATM   24  C   UNL     1      -9.278  11.306  68.532  1.00  0.00    -0.181 A  
HETATM   25  C   UNL     1     -10.926  13.023  68.820  1.00  0.00    -0.258 A  
HETATM   26  C   UNL     1      -8.886  13.589  67.482  1.00  0.00    -0.209 C  
HETATM   27  F   UNL     1      -9.559  14.042  66.388  1.00  0.00    -0.260 F  
HETATM   28  F   UNL     1      -7.738  13.043  67.006  1.00  0.00    -0.151 F  
HETATM   29  F   UNL     1      -8.514  14.686  68.188  1.00  0.00    -0.136 F  
HETATM   30  C   UNL     1     -11.455  14.354  68.667  1.00  0.00    -0.287 C  
HETATM   31  N   UNL     1     -11.717  12.173  69.514  1.00  0.00    -0.321 NA 
HETATM   32  C   UNL     1      -9.708  12.631  68.294  1.00  0.00    -0.216 A  
HETATM   33  N   UNL     1     -11.851  15.439  68.526  1.00  0.00    -0.325 NA 
HETATM   34  C   UNL     1     -11.270  10.902  69.705  1.00  0.00    -0.281 A  
ENDBRANCH  14  23
ENDBRANCH   9  13
ENDBRANCH   3   6
TORSDOF 3
ENDMDL
MODEL       99
REMARK 921   NORMALIZED FREE ENERGY PREDICTED BY IDOCK:   -4.25 KCAL/MOL
REMARK 922        TOTAL FREE ENERGY PREDICTED BY IDOCK:   -6.11 KCAL/MOL
REMARK 923 INTER-LIGAND FREE ENERGY PREDICTED BY IDOCK:   -5.18 KCAL/MOL
REMARK 924 INTRA-LIGAND FREE ENERGY PREDICTED BY IDOCK:   -0.92 KCAL/MOL
REMARK 927      BINDING AFFINITY PREDICTED BY RF-SCORE:    0.00 PKD
ROOT
HETATM    1  C   UNL     1     -11.273   2.146  73.568  1.00  0.00    -0.206 C  
HETATM    2  N   UNL     1     -10.640   3.060  72.654  1.00  0.00    -0.092 N  
HETATM    3  C   UNL     1     -10.565   4.408  72.924  1.00  0.00    -0.193 C  
HETATM    4  H   UNL     1     -10.238   2.701  71.788  1.00  0.00     0.000 HD 
HETATM    5  O   UNL     1     -10.965   4.910  73.969  1.00  0.00    -0.295 OA 
ENDROOT
BRANCH   3   6
HETATM    6  C   UNL     1      -9.978   5.275  71.871  1.00  0.00    -0.240 A  
HETATM    7  C   UNL     1     -10.349   6.620  71.808  1.00  0.00    -0.218 A  
HETATM    8  C   UNL     1      -9.925   7.425  70.738  1.00  0.00    -0.182 A  
HETATM    9  C   UNL     1      -9.112   6.914  69.712  1.00  0.00    -0.144 A  
HETATM   10  C   UNL     1      -8.653   5.605  69.867  1.00  0.00    -0.125 A  
HETATM   11  F   UNL     1      -8.688   3.515  70.922  1.00  0.00    -0.088 F  
HETATM   12  C   UNL     1      -9.106   4.792  70.906  1.00  0.00    -0.134 A  
BRANCH   9  13
HETATM   13  N   UNL     1      -8.823   7.674  68.534  1.00  0.00    -0.131 N  
HETATM   14  N   UNL     1      -8.402   9.684  67.484  1.00  0.00    -0.117 N  
HETATM   15  S   UNL     1      -6.482   8.889  69.314  1.00  0.00    -0.042 S  
HETATM   16  C   UNL     1      -7.947   8.805  68.490  1.00  0.00    -0.112 C  
HETATM   17  C   UNL     1      -9.185   8.995  66.570  1.00  0.00    -0.179 C  
HETATM   18  C   UNL     1      -9.562   6.342  66.425  1.00  0.00    -0.159 C  
HETATM   19  C   UNL     1     -11.032   6.044  66.805  1.00  0.00    -0.305 C  
HETATM   20  O   UNL     1      -9.487   9.342  65.431  1.00  0.00    -0.254 OA 
HETATM   21  C   UNL     1      -9.628   7.643  67.259  1.00  0.00    -0.157 C  
HETATM   22  C   UNL     1     -11.171   7.488  67.299  1.00  0.00     0.271 C  
BRANCH  14  23
HETATM   23  C   UNL     1      -8.189  11.112  67.428  1.00  0.00    -0.132 A  
HETATM   24  C   UNL     1      -9.105  12.040  67.951  1.00  0.00    -0.183 A  
HETATM   25  C   UNL     1      -7.640  13.870  67.450  1.00  0.00    -0.142 A  
HETATM   26  C   UNL     1      -9.825  14.404  68.550  1.00  0.00    -0.233 C  
HETATM   27  F   UNL     1      -9.292  15.117  69.580  1.00  0.00    -0.218 F  
HETATM   28  F   UNL     1     -10.939  13.812  69.054  1.00  0.00    -0.246 F  
HETATM   29  F   UNL     1     -10.263  15.309  67.639  1.00  0.00    -0.233 F  
HETATM   30  C   UNL     1      -7.275  15.262  67.390  1.00  0.00    -0.204 C  
HETATM   31  N   UNL     1      -6.710  13.016  66.965  1.00  0.00    -0.020 NA 
HETATM   32  C   UNL     1      -8.844  13.429  67.971  1.00  0.00    -0.183 A  
HETATM   33  N   UNL     1      -7.013  16.395  67.354  1.00  0.00    -0.147 NA 
HETATM   34  C   UNL     1      -6.997  11.686  66.981  1.00  0.00    -0.144 A  
ENDBRANCH  14  23
ENDBRANCH   9  13
ENDBRANCH   3   6
TORSDOF 3
ENDMDL
MODEL      100
REMARK 921   NORMALIZED FREE ENERGY PREDICTED BY IDOCK:   -4.12 KCAL/MOL
REMARK 922        TOTAL FREE ENERGY PREDICTED BY IDOCK:   -5.96 KCAL/MOL
REMARK 923 INTER-LIGAND FREE ENERGY PREDICTED BY IDOCK:   -5.22 KCAL/MOL
REMARK 924 INTRA-LIGAND FREE ENERGY PREDICTED BY IDOCK:   -0.73 KCAL/MOL
REMARK 927      BINDING AFFINITY PREDICTED BY RF-SCORE:    0.00 PKD
ROOT
HETATM    1  C   UNL     1      -9.962  17.686  66.424  1.00  0.00    -0.334 C  
HETATM    2  N   UNL     1      -9.568  16.303  66.485  1.00  0.00    -0.247 N  
HETATM    3  C   UNL     1     -10.285  15.383  67.217  1.00  0.00    -0.254 C  
HETATM    4  H   UNL     1      -8.740  15.998  65.974  1.00  0.00     0.000 HD 
HETATM    5  O   UNL     1     -11.326  15.654  67.806  1.00  0.00    -0.326 OA 
ENDROOT
BRANCH   3   6
HETATM    6  C   UNL     1      -9.737  14.006  67.291  1.00  0.00    -0.237 A  
HETATM    7  C   UNL     1     -10.341  12.988  66.549  1.00  0.00    -0.278 A  
HETATM    8  C   UNL     1      -9.938  11.653  66.712  1.00  0.00    -0.229 A  
HETATM    9  C   UNL     1      -8.915  11.300  67.608  1.00  0.00    -0.142 A  
HETATM   10  C   UNL     1      -8.243  12.347  68.241  1.00  0.00    -0.170 A  
HETATM   11  F   UNL     1      -8.025  14.601  68.834  1.00  0.00    -0.132 F  
HETATM   12  C   UNL     1      -8.669  13.669  68.112  1.00  0.00    -0.177 A  
BRANCH   9  13
HETATM   13  N   UNL     1      -8.620   9.932  67.910  1.00  0.00    -0.125 N  
HETATM   14  N   UNL     1      -8.284   7.748  67.246  1.00  0.00    -0.118 N  
HETATM   15  S   UNL     1      -6.408   9.561  66.318  1.00  0.00    -0.070 S  
HETATM   16  C   UNL     1      -7.821   9.072  67.091  1.00  0.00    -0.099 C  
HETATM   17  C   UNL     1      -8.973   7.624  68.445  1.00  0.00    -0.128 C  
HETATM   18  C   UNL     1      -9.162   9.445  70.407  1.00  0.00    -0.305 C  
HETATM   19  C   UNL     1     -10.626   9.944  70.460  1.00  0.00    -0.359 C  
HETATM   20  O   UNL     1      -9.240   6.591  69.050  1.00  0.00    -0.131 OA 
HETATM   21  C   UNL     1      -9.357   9.083  68.915  1.00  0.00    -0.143 C  
HETATM   22  C   UNL     1     -10.886   9.245  69.121  1.00  0.00    -0.154 C  
BRANCH  14  23
HETATM   23  C   UNL     1      -8.166   6.676  66.286  1.00  0.00    -0.120 A  
HETATM   24  C   UNL     1      -8.104   5.323  66.658  1.00  0.00    -0.105 A  
HETATM   25  C   UNL     1      -8.114   4.622  64.366  1.00  0.00    -0.106 A  
HETATM   26  C   UNL     1      -8.031   2.838  66.122  1.00  0.00    -0.082 C  
HETATM   27  F   UNL     1      -9.100   2.135  65.657  1.00  0.00    -0.126 F  
HETATM   28  F   UNL     1      -8.039   2.666  67.469  1.00  0.00    -0.067 F  
HETATM   29  F   UNL     1      -6.923   2.200  65.670  1.00  0.00    -0.042 F  
HETATM   30  C   UNL     1      -8.065   3.648  63.306  1.00  0.00    -0.084 C  
HETATM   31  N   UNL     1      -8.207   5.907  63.954  1.00  0.00    -0.096 NA 
HETATM   32  C   UNL     1      -8.079   4.279  65.706  1.00  0.00    -0.101 A  
HETATM   33  N   UNL     1      -8.022   2.835  62.475  1.00  0.00    -0.066 NA 
HETATM   34  C   UNL     1      -8.246   6.879  64.906  1.00  0.00    -0.074 A  
ENDBRANCH  14  23
ENDBRANCH   9  13
ENDBRANCH   3   6
TORSDOF 3
ENDMDL
MODEL      101
REMARK 921   NORMALIZED FREE ENERGY PREDICTED BY IDOCK:   -4.10 KCAL/MOL
REMARK 922        TOTAL FREE ENERGY PREDICTED BY IDOCK:   -5.94 KCAL/MOL
REMARK 923 INTER-LIGAND FREE ENERGY PREDICTED BY IDOCK:   -5.54 KCAL/MOL
REMARK 924 INTRA-LIGAND FREE ENERGY PREDICTED BY IDOCK:   -0.41 KCAL/MOL
REMARK 927      BINDING AFFINITY PREDICTED BY RF-SCORE:    0.00 PKD
ROOT
HETATM    1  C   UNL     1      -6.448   5.078  71.721  1.00  0.00    -0.031 C  
HETATM    2  N   UNL     1      -6.815   6.281  71.022  1.00  0.00    -0.064 N  
HETATM    3  C   UNL     1      -8.131   6.666  70.897  1.00  0.00    -0.119 C  
HETATM    4  H   UNL     1      -6.084   6.861  70.610  1.00  0.00     0.000 HD 
HETATM    5  O   UNL     1      -9.063   6.061  71.415  1.00  0.00    -0.143 OA 
ENDROOT
BRANCH   3   6
HETATM    6  C   UNL     1      -8.406   7.871  70.073  1.00  0.00    -0.121 A  
HETATM    7  C   UNL     1      -8.129   7.842  68.705  1.00  0.00    -0.127 A  
HETATM    8  C   UNL     1      -8.240   9.008  67.931  1.00  0.00    -0.110 A  
HETATM    9  C   UNL     1      -8.641  10.230  68.499  1.00  0.00    -0.126 A  
HETATM   10  C   UNL     1      -9.033  10.202  69.838  1.00  0.00    -0.103 A  
HETATM   11  F   UNL     1      -9.194   9.146  71.922  1.00  0.00    -0.320 F  
HETATM   12  C   UNL     1      -8.884   9.054  70.618  1.00  0.00    -0.219 A  
BRANCH   9  13
HETATM   13  N   UNL     1      -8.587  11.455  67.761  1.00  0.00    -0.125 N  
HETATM   14  N   UNL     1      -8.010  13.682  67.590  1.00  0.00    -0.162 N  
HETATM   15  S   UNL     1      -5.879  11.929  67.825  1.00  0.00    -0.075 S  
HETATM   16  C   UNL     1      -7.499  12.384  67.804  1.00  0.00    -0.126 C  
HETATM   17  C   UNL     1      -9.232  13.609  66.935  1.00  0.00    -0.250 C  
HETATM   18  C   UNL     1     -10.382  11.427  65.878  1.00  0.00    -0.299 C  
HETATM   19  C   UNL     1     -11.638  11.091  66.717  1.00  0.00     0.302 C  
HETATM   20  O   UNL     1      -9.807  14.503  66.322  1.00  0.00    -0.276 OA 
HETATM   21  C   UNL     1      -9.767  12.132  67.110  1.00  0.00    -0.199 C  
HETATM   22  C   UNL     1     -11.169  12.096  67.775  1.00  0.00    -0.333 C  
BRANCH  14  23
HETATM   23  C   UNL     1      -7.430  14.922  68.049  1.00  0.00    -0.126 A  
HETATM   24  C   UNL     1      -7.920  16.181  67.663  1.00  0.00    -0.162 A  
HETATM   25  C   UNL     1      -6.375  17.302  69.113  1.00  0.00    -0.229 A  
HETATM   26  C   UNL     1      -7.949  18.721  67.780  1.00  0.00    -0.254 C  
HETATM   27  F   UNL     1      -8.436  19.422  68.841  1.00  0.00    -0.385 F  
HETATM   28  F   UNL     1      -8.977  18.633  66.896  1.00  0.00    -0.265 F  
HETATM   29  F   UNL     1      -7.016  19.510  67.191  1.00  0.00    -0.204 F  
HETATM   30  C   UNL     1      -5.748  18.459  69.697  1.00  0.00    -0.242 C  
HETATM   31  N   UNL     1      -5.890  16.115  69.543  1.00  0.00    -0.141 NA 
HETATM   32  C   UNL     1      -7.401  17.386  68.189  1.00  0.00    -0.205 A  
HETATM   33  N   UNL     1      -5.263  19.416  70.147  1.00  0.00    -0.196 NA 
HETATM   34  C   UNL     1      -6.430  14.980  69.022  1.00  0.00    -0.102 A  
ENDBRANCH  14  23
ENDBRANCH   9  13
ENDBRANCH   3   6
TORSDOF 3
ENDMDL
MODEL      102
REMARK 921   NORMALIZED FREE ENERGY PREDICTED BY IDOCK:   -4.10 KCAL/MOL
REMARK 922        TOTAL FREE ENERGY PREDICTED BY IDOCK:   -5.94 KCAL/MOL
REMARK 923 INTER-LIGAND FREE ENERGY PREDICTED BY IDOCK:   -4.75 KCAL/MOL
REMARK 924 INTRA-LIGAND FREE ENERGY PREDICTED BY IDOCK:   -1.19 KCAL/MOL
REMARK 927      BINDING AFFINITY PREDICTED BY RF-SCORE:    0.00 PKD
ROOT
HETATM    1  C   UNL     1     -10.494  18.156  67.241  1.00  0.00    -0.393 C  
HETATM    2  N   UNL     1      -9.875  16.875  67.456  1.00  0.00    -0.254 N  
HETATM    3  C   UNL     1      -9.754  15.956  66.437  1.00  0.00    -0.287 C  
HETATM    4  H   UNL     1      -9.517  16.643  68.382  1.00  0.00     0.000 HD 
HETATM    5  O   UNL     1     -10.099  16.181  65.282  1.00  0.00    -0.505 OA 
ENDROOT
BRANCH   3   6
HETATM    6  C   UNL     1      -9.188  14.630  66.789  1.00  0.00    -0.285 A  
HETATM    7  C   UNL     1      -7.839  14.532  67.138  1.00  0.00    -0.131 A  
HETATM    8  C   UNL     1      -7.243  13.276  67.332  1.00  0.00    -0.119 A  
HETATM    9  C   UNL     1      -7.978  12.086  67.195  1.00  0.00    -0.175 A  
HETATM   10  C   UNL     1      -9.349  12.216  66.972  1.00  0.00    -0.201 A  
HETATM   11  F   UNL     1     -11.243  13.484  66.434  1.00  0.00    -0.294 F  
HETATM   12  C   UNL     1      -9.935  13.461  66.738  1.00  0.00    -0.264 A  
BRANCH   9  13
HETATM   13  N   UNL     1      -7.342  10.804  67.217  1.00  0.00    -0.093 N  
HETATM   14  N   UNL     1      -7.320   8.556  66.701  1.00  0.00    -0.081 N  
HETATM   15  S   UNL     1      -7.272  10.263  64.521  1.00  0.00    -0.017 S  
HETATM   16  C   UNL     1      -7.393   9.852  66.149  1.00  0.00    -0.104 C  
HETATM   17  C   UNL     1      -6.741   8.608  67.961  1.00  0.00    -0.069 C  
HETATM   18  C   UNL     1      -5.582  10.727  69.131  1.00  0.00    -0.040 C  
HETATM   19  C   UNL     1      -6.468  11.164  70.321  1.00  0.00    -0.039 C  
HETATM   20  O   UNL     1      -6.243   7.683  68.595  1.00  0.00    -0.033 OA 
HETATM   21  C   UNL     1      -6.827  10.108  68.452  1.00  0.00    -0.061 C  
HETATM   22  C   UNL     1      -7.575  10.237  69.805  1.00  0.00    -0.168 C  
BRANCH  14  23
HETATM   23  C   UNL     1      -7.843   7.341  66.120  1.00  0.00    -0.108 A  
HETATM   24  C   UNL     1      -7.146   6.599  65.152  1.00  0.00    -0.064 A  
HETATM   25  C   UNL     1      -8.829   4.891  65.153  1.00  0.00    -0.153 A  
HETATM   26  C   UNL     1      -6.861   4.575  63.637  1.00  0.00    -0.044 C  
HETATM   27  F   UNL     1      -6.534   3.334  64.090  1.00  0.00    -0.027 F  
HETATM   28  F   UNL     1      -5.685   5.155  63.281  1.00  0.00    -0.013 F  
HETATM   29  F   UNL     1      -7.554   4.397  62.485  1.00  0.00    -0.050 F  
HETATM   30  C   UNL     1      -9.433   3.663  64.704  1.00  0.00    -0.159 C  
HETATM   31  N   UNL     1      -9.523   5.551  66.108  1.00  0.00    -0.158 NA 
HETATM   32  C   UNL     1      -7.627   5.365  64.657  1.00  0.00    -0.081 A  
HETATM   33  N   UNL     1      -9.893   2.667  64.317  1.00  0.00    -0.136 NA 
HETATM   34  C   UNL     1      -9.014   6.726  66.568  1.00  0.00    -0.149 A  
ENDBRANCH  14  23
ENDBRANCH   9  13
ENDBRANCH   3   6
TORSDOF 3
ENDMDL
MODEL      103
REMARK 921   NORMALIZED FREE ENERGY PREDICTED BY IDOCK:   -4.05 KCAL/MOL
REMARK 922        TOTAL FREE ENERGY PREDICTED BY IDOCK:   -5.87 KCAL/MOL
REMARK 923 INTER-LIGAND FREE ENERGY PREDICTED BY IDOCK:   -4.87 KCAL/MOL
REMARK 924 INTRA-LIGAND FREE ENERGY PREDICTED BY IDOCK:   -1.01 KCAL/MOL
REMARK 927      BINDING AFFINITY PREDICTED BY RF-SCORE:    0.00 PKD
ROOT
HETATM    1  C   UNL     1      -6.824   1.523  66.247  1.00  0.00    -0.041 C  
HETATM    2  N   UNL     1      -7.535   2.671  66.743  1.00  0.00    -0.069 N  
HETATM    3  C   UNL     1      -7.406   3.907  66.150  1.00  0.00    -0.072 C  
HETATM    4  H   UNL     1      -8.147   2.568  67.553  1.00  0.00     0.000 HD 
HETATM    5  O   UNL     1      -6.742   4.103  65.137  1.00  0.00    -0.046 OA 
ENDROOT
BRANCH   3   6
HETATM    6  C   UNL     1      -8.106   5.044  66.800  1.00  0.00    -0.108 A  
HETATM    7  C   UNL     1      -9.500   5.111  66.744  1.00  0.00    -0.143 A  
HETATM    8  C   UNL     1     -10.177   6.245  67.219  1.00  0.00    -0.237 A  
HETATM    9  C   UNL     1      -9.484   7.335  67.775  1.00  0.00    -0.131 A  
HETATM   10  C   UNL     1      -8.106   7.188  67.934  1.00  0.00    -0.119 A  
HETATM   11  F   UNL     1      -6.088   6.068  67.537  1.00  0.00    -0.015 F  
HETATM   12  C   UNL     1      -7.426   6.080  67.425  1.00  0.00    -0.081 A  
BRANCH   9  13
HETATM   13  N   UNL     1     -10.148   8.561  68.098  1.00  0.00    -0.193 N  
HETATM   14  N   UNL     1     -10.258  10.865  68.061  1.00  0.00    -0.173 N  
HETATM   15  S   UNL     1     -10.405   9.640  65.582  1.00  0.00     0.372 S  
HETATM   16  C   UNL     1     -10.189   9.712  67.249  1.00  0.00    -0.233 C  
HETATM   17  C   UNL     1     -10.752  10.533  69.315  1.00  0.00    -0.234 C  
HETATM   18  C   UNL     1     -11.782   8.178  70.086  1.00  0.00     0.195 C  
HETATM   19  C   UNL     1     -10.810   7.539  71.106  1.00  0.00    -0.254 C  
HETATM   20  O   UNL     1     -11.231  11.290  70.154  1.00  0.00    -0.224 OA 
HETATM   21  C   UNL     1     -10.599   8.969  69.478  1.00  0.00    -0.225 C  
HETATM   22  C   UNL     1      -9.763   8.594  70.730  1.00  0.00    -0.237 C  
BRANCH  14  23
HETATM   23  C   UNL     1      -9.803  12.191  67.714  1.00  0.00    -0.199 A  
HETATM   24  C   UNL     1      -8.740  12.829  68.375  1.00  0.00    -0.119 A  
HETATM   25  C   UNL     1      -8.846  14.700  66.879  1.00  0.00    -0.242 A  
HETATM   26  C   UNL     1      -7.099  14.749  68.673  1.00  0.00    -0.112 C  
HETATM   27  F   UNL     1      -6.048  14.980  67.837  1.00  0.00    -0.114 F  
HETATM   28  F   UNL     1      -6.597  14.007  69.694  1.00  0.00    -0.114 F  
HETATM   29  F   UNL     1      -7.435  15.947  69.212  1.00  0.00    -0.170 F  
HETATM   30  C   UNL     1      -8.449  15.995  66.390  1.00  0.00    -0.327 C  
HETATM   31  N   UNL     1      -9.850  14.114  66.188  1.00  0.00    -0.303 NA 
HETATM   32  C   UNL     1      -8.247  14.090  67.967  1.00  0.00    -0.155 A  
HETATM   33  N   UNL     1      -8.103  17.044  66.023  1.00  0.00    -0.492 NA 
HETATM   34  C   UNL     1     -10.282  12.893  66.606  1.00  0.00    -0.247 A  
ENDBRANCH  14  23
ENDBRANCH   9  13
ENDBRANCH   3   6
TORSDOF 3
ENDMDL
MODEL      104
REMARK 921   NORMALIZED FREE ENERGY PREDICTED BY IDOCK:   -3.91 KCAL/MOL
REMARK 922        TOTAL FREE ENERGY PREDICTED BY IDOCK:   -5.72 KCAL/MOL
REMARK 923 INTER-LIGAND FREE ENERGY PREDICTED BY IDOCK:   -4.77 KCAL/MOL
REMARK 924 INTRA-LIGAND FREE ENERGY PREDICTED BY IDOCK:   -0.95 KCAL/MOL
REMARK 927      BINDING AFFINITY PREDICTED BY RF-SCORE:    0.00 PKD
ROOT
HETATM    1  C   UNL     1      -9.224  17.767  66.074  1.00  0.00    -0.018 C  
HETATM    2  N   UNL     1      -9.412  16.398  66.475  1.00  0.00    -0.255 N  
HETATM    3  C   UNL     1      -8.344  15.546  66.643  1.00  0.00    -0.251 C  
HETATM    4  H   UNL     1     -10.358  16.051  66.637  1.00  0.00     0.000 HD 
HETATM    5  O   UNL     1      -7.175  15.899  66.531  1.00  0.00    -0.143 OA 
ENDROOT
BRANCH   3   6
HETATM    6  C   UNL     1      -8.655  14.129  66.963  1.00  0.00    -0.204 A  
HETATM    7  C   UNL     1      -8.052  13.530  68.070  1.00  0.00    -0.156 A  
HETATM    8  C   UNL     1      -8.212  12.155  68.311  1.00  0.00    -0.168 A  
HETATM    9  C   UNL     1      -8.987  11.347  67.461  1.00  0.00    -0.150 A  
HETATM   10  C   UNL     1      -9.680  11.995  66.437  1.00  0.00    -0.239 A  
HETATM   11  F   UNL     1     -10.121  13.870  65.106  1.00  0.00    -0.338 F  
HETATM   12  C   UNL     1      -9.489  13.351  66.172  1.00  0.00    -0.140 A  
BRANCH   9  13
HETATM   13  N   UNL     1      -9.011   9.923  67.597  1.00  0.00    -0.128 N  
HETATM   14  N   UNL     1      -8.700   8.011  68.849  1.00  0.00    -0.131 N  
HETATM   15  S   UNL     1     -10.728   9.678  69.732  1.00  0.00    -0.259 S  
HETATM   16  C   UNL     1      -9.417   9.225  68.778  1.00  0.00    -0.150 C  
HETATM   17  C   UNL     1      -8.247   7.653  67.587  1.00  0.00    -0.121 C  
HETATM   18  C   UNL     1      -8.865   8.813  65.248  1.00  0.00    -0.205 C  
HETATM   19  C   UNL     1      -7.595   9.511  64.706  1.00  0.00    -0.112 C  
HETATM   20  O   UNL     1      -7.871   6.546  67.213  1.00  0.00    -0.102 OA 
HETATM   21  C   UNL     1      -8.307   8.949  66.685  1.00  0.00    -0.111 C  
HETATM   22  C   UNL     1      -6.926   9.295  66.069  1.00  0.00    -0.089 C  
BRANCH  14  23
HETATM   23  C   UNL     1      -8.380   7.268  70.046  1.00  0.00    -0.137 A  
HETATM   24  C   UNL     1      -8.786   5.939  70.248  1.00  0.00    -0.142 A  
HETATM   25  C   UNL     1      -7.578   5.815  72.316  1.00  0.00    -0.101 A  
HETATM   26  C   UNL     1      -8.817   3.769  71.575  1.00  0.00    -0.099 C  
HETATM   27  F   UNL     1      -7.754   2.923  71.663  1.00  0.00    -0.044 F  
HETATM   28  F   UNL     1      -9.579   3.294  70.555  1.00  0.00    -0.216 F  
HETATM   29  F   UNL     1      -9.549   3.589  72.703  1.00  0.00    -0.143 F  
HETATM   30  C   UNL     1      -7.135   5.168  73.524  1.00  0.00    -0.082 C  
HETATM   31  N   UNL     1      -7.133   7.081  72.153  1.00  0.00    -0.072 NA 
HETATM   32  C   UNL     1      -8.390   5.194  71.383  1.00  0.00    -0.119 A  
HETATM   33  N   UNL     1      -6.798   4.615  74.491  1.00  0.00    -0.066 NA 
HETATM   34  C   UNL     1      -7.525   7.755  71.037  1.00  0.00    -0.074 A  
ENDBRANCH  14  23
ENDBRANCH   9  13
ENDBRANCH   3   6
TORSDOF 3
ENDMDL
MODEL      105
REMARK 921   NORMALIZED FREE ENERGY PREDICTED BY IDOCK:   -3.90 KCAL/MOL
REMARK 922        TOTAL FREE ENERGY PREDICTED BY IDOCK:   -5.71 KCAL/MOL
REMARK 923 INTER-LIGAND FREE ENERGY PREDICTED BY IDOCK:   -4.56 KCAL/MOL
REMARK 924 INTRA-LIGAND FREE ENERGY PREDICTED BY IDOCK:   -1.14 KCAL/MOL
REMARK 927      BINDING AFFINITY PREDICTED BY RF-SCORE:    0.00 PKD
ROOT
HETATM    1  C   UNL     1      -7.482   2.259  66.372  1.00  0.00    -0.066 C  
HETATM    2  N   UNL     1      -7.954   3.556  66.778  1.00  0.00    -0.084 N  
HETATM    3  C   UNL     1      -7.664   4.687  66.048  1.00  0.00    -0.094 C  
HETATM    4  H   UNL     1      -8.515   3.639  67.626  1.00  0.00     0.000 HD 
HETATM    5  O   UNL     1      -7.052   4.666  64.986  1.00  0.00    -0.060 OA 
ENDROOT
BRANCH   3   6
HETATM    6  C   UNL     1      -8.117   5.985  66.608  1.00  0.00    -0.106 A  
HETATM    7  C   UNL     1      -9.485   6.240  66.724  1.00  0.00    -0.167 A  
HETATM    8  C   UNL     1      -9.942   7.511  67.111  1.00  0.00    -0.288 A  
HETATM    9  C   UNL     1      -9.047   8.554  67.404  1.00  0.00    -0.133 A  
HETATM   10  C   UNL     1      -7.689   8.237  67.403  1.00  0.00    -0.102 A  
HETATM   11  F   UNL     1      -5.903   6.802  66.916  1.00  0.00    -0.013 F  
HETATM   12  C   UNL     1      -7.232   6.988  66.979  1.00  0.00    -0.081 A  
BRANCH   9  13
HETATM   13  N   UNL     1      -9.502   9.893  67.626  1.00  0.00    -0.146 N  
HETATM   14  N   UNL     1      -9.115  12.165  67.716  1.00  0.00    -0.181 N  
HETATM   15  S   UNL     1      -8.846  11.025  65.206  1.00  0.00    -0.072 S  
HETATM   16  C   UNL     1      -9.074  11.033  66.874  1.00  0.00    -0.156 C  
HETATM   17  C   UNL     1      -9.985  11.939  68.773  1.00  0.00    -0.092 C  
HETATM   18  C   UNL     1     -11.651   9.860  69.092  1.00  0.00     0.064 C  
HETATM   19  C   UNL     1     -11.143   9.015  70.284  1.00  0.00    -0.263 C  
HETATM   20  O   UNL     1     -10.501  12.775  69.509  1.00  0.00     0.264 OA 
HETATM   21  C   UNL     1     -10.211  10.378  68.866  1.00  0.00    -0.205 C  
HETATM   22  C   UNL     1      -9.837   9.817  70.263  1.00  0.00    -0.296 C  
BRANCH  14  23
HETATM   23  C   UNL     1      -8.317  13.362  67.588  1.00  0.00    -0.179 A  
HETATM   24  C   UNL     1      -8.861  14.603  67.216  1.00  0.00    -0.220 A  
HETATM   25  C   UNL     1      -6.750  15.697  67.527  1.00  0.00    -0.191 A  
HETATM   26  C   UNL     1      -8.688  17.107  66.800  1.00  0.00    -0.244 C  
HETATM   27  F   UNL     1      -8.569  18.030  67.794  1.00  0.00    -0.232 F  
HETATM   28  F   UNL     1     -10.017  17.034  66.526  1.00  0.00    -0.258 F  
HETATM   29  F   UNL     1      -8.108  17.646  65.699  1.00  0.00    -0.157 F  
HETATM   30  C   UNL     1      -5.857  16.826  67.503  1.00  0.00    -0.153 C  
HETATM   31  N   UNL     1      -6.186  14.534  67.924  1.00  0.00    -0.150 NA 
HETATM   32  C   UNL     1      -8.087  15.786  67.182  1.00  0.00    -0.244 A  
HETATM   33  N   UNL     1      -5.163  17.760  67.469  1.00  0.00    -0.129 NA 
HETATM   34  C   UNL     1      -6.972  13.424  67.959  1.00  0.00    -0.127 A  
ENDBRANCH  14  23
ENDBRANCH   9  13
ENDBRANCH   3   6
TORSDOF 3
ENDMDL
MODEL      106
REMARK 921   NORMALIZED FREE ENERGY PREDICTED BY IDOCK:   -3.90 KCAL/MOL
REMARK 922        TOTAL FREE ENERGY PREDICTED BY IDOCK:   -5.70 KCAL/MOL
REMARK 923 INTER-LIGAND FREE ENERGY PREDICTED BY IDOCK:   -4.51 KCAL/MOL
REMARK 924 INTRA-LIGAND FREE ENERGY PREDICTED BY IDOCK:   -1.19 KCAL/MOL
REMARK 927      BINDING AFFINITY PREDICTED BY RF-SCORE:    0.00 PKD
ROOT
HETATM    1  C   UNL     1      -5.126   3.159  63.747  1.00  0.00    -0.008 C  
HETATM    2  N   UNL     1      -5.696   3.533  65.014  1.00  0.00    -0.017 N  
HETATM    3  C   UNL     1      -6.815   4.333  65.090  1.00  0.00    -0.053 C  
HETATM    4  H   UNL     1      -5.263   3.199  65.875  1.00  0.00     0.000 HD 
HETATM    5  O   UNL     1      -7.432   4.725  64.105  1.00  0.00    -0.061 OA 
ENDROOT
BRANCH   3   6
HETATM    6  C   UNL     1      -7.263   4.739  66.446  1.00  0.00    -0.077 A  
HETATM    7  C   UNL     1      -7.872   3.795  67.276  1.00  0.00    -0.079 A  
HETATM    8  C   UNL     1      -8.436   4.184  68.501  1.00  0.00    -0.105 A  
HETATM    9  C   UNL     1      -8.397   5.520  68.936  1.00  0.00    -0.102 A  
HETATM   10  C   UNL     1      -7.674   6.416  68.149  1.00  0.00    -0.104 A  
HETATM   11  F   UNL     1      -6.552   6.994  66.177  1.00  0.00    -0.046 F  
HETATM   12  C   UNL     1      -7.148   6.041  66.912  1.00  0.00    -0.070 A  
BRANCH   9  13
HETATM   13  N   UNL     1      -9.120   5.954  70.092  1.00  0.00    -0.144 N  
HETATM   14  N   UNL     1     -10.370   7.537  71.212  1.00  0.00    -0.193 N  
HETATM   15  S   UNL     1     -11.570   6.471  68.955  1.00  0.00     0.302 S  
HETATM   16  C   UNL     1     -10.324   6.727  70.057  1.00  0.00    -0.199 C  
HETATM   17  C   UNL     1      -9.563   6.997  72.203  1.00  0.00    -0.146 C  
HETATM   18  C   UNL     1      -8.333   4.613  72.177  1.00  0.00    -0.117 C  
HETATM   19  C   UNL     1      -6.808   4.859  72.088  1.00  0.00    -0.057 C  
HETATM   20  O   UNL     1      -9.592   7.239  73.406  1.00  0.00    -0.180 OA 
HETATM   21  C   UNL     1      -8.577   5.981  71.499  1.00  0.00    -0.132 C  
HETATM   22  C   UNL     1      -7.090   6.332  71.769  1.00  0.00    -0.085 C  
BRANCH  14  23
HETATM   23  C   UNL     1     -11.064   8.796  71.353  1.00  0.00    -0.291 A  
HETATM   24  C   UNL     1     -10.901   9.861  70.452  1.00  0.00    -0.380 A  
HETATM   25  C   UNL     1     -12.573  11.159  71.578  1.00  0.00    -0.325 A  
HETATM   26  C   UNL     1     -11.479  12.175  69.567  1.00  0.00    -0.265 C  
HETATM   27  F   UNL     1     -12.636  12.464  68.911  1.00  0.00    -0.036 F  
HETATM   28  F   UNL     1     -10.567  11.904  68.598  1.00  0.00    -0.207 F  
HETATM   29  F   UNL     1     -11.069  13.327  70.155  1.00  0.00    -0.065 F  
HETATM   30  C   UNL     1     -13.375  12.335  71.796  1.00  0.00    -0.254 C  
HETATM   31  N   UNL     1     -12.792  10.151  72.452  1.00  0.00    -0.161 NA 
HETATM   32  C   UNL     1     -11.652  11.055  70.550  1.00  0.00    -0.344 A  
HETATM   33  N   UNL     1     -14.005  13.302  71.944  1.00  0.00    -0.228 NA 
HETATM   34  C   UNL     1     -12.058   9.014  72.310  1.00  0.00    -0.288 A  
ENDBRANCH  14  23
ENDBRANCH   9  13
ENDBRANCH   3   6
TORSDOF 3
ENDMDL
MODEL      107
REMARK 921   NORMALIZED FREE ENERGY PREDICTED BY IDOCK:   -3.85 KCAL/MOL
REMARK 922        TOTAL FREE ENERGY PREDICTED BY IDOCK:   -5.64 KCAL/MOL
REMARK 923 INTER-LIGAND FREE ENERGY PREDICTED BY IDOCK:   -5.06 KCAL/MOL
REMARK 924 INTRA-LIGAND FREE ENERGY PREDICTED BY IDOCK:   -0.58 KCAL/MOL
REMARK 927      BINDING AFFINITY PREDICTED BY RF-SCORE:    0.00 PKD
ROOT
HETATM    1  C   UNL     1      -5.869   4.062  72.846  1.00  0.00    -0.011 C  
HETATM    2  N   UNL     1      -6.282   5.117  71.959  1.00  0.00    -0.032 N  
HETATM    3  C   UNL     1      -5.894   6.422  72.166  1.00  0.00    -0.037 C  
HETATM    4  H   UNL     1      -6.876   4.894  71.160  1.00  0.00     0.000 HD 
HETATM    5  O   UNL     1      -5.132   6.766  73.063  1.00  0.00    -0.035 OA 
ENDROOT
BRANCH   3   6
HETATM    6  C   UNL     1      -6.456   7.446  71.248  1.00  0.00    -0.036 A  
HETATM    7  C   UNL     1      -6.363   8.796  71.592  1.00  0.00    -0.073 A  
HETATM    8  C   UNL     1      -7.012   9.773  70.819  1.00  0.00    -0.055 A  
HETATM    9  C   UNL     1      -7.758   9.431  69.679  1.00  0.00    -0.098 A  
HETATM   10  C   UNL     1      -7.728   8.091  69.287  1.00  0.00    -0.102 A  
HETATM   11  F   UNL     1      -7.224   5.838  69.671  1.00  0.00    -0.061 F  
HETATM   12  C   UNL     1      -7.119   7.114  70.075  1.00  0.00    -0.066 A  
BRANCH   9  13
HETATM   13  N   UNL     1      -8.563  10.393  68.991  1.00  0.00    -0.148 N  
HETATM   14  N   UNL     1      -9.059  12.575  68.430  1.00  0.00    -0.173 N  
HETATM   15  S   UNL     1      -6.629  11.641  67.485  1.00  0.00    -0.106 S  
HETATM   16  C   UNL     1      -8.060  11.580  68.370  1.00  0.00    -0.149 C  
HETATM   17  C   UNL     1     -10.306  11.987  68.589  1.00  0.00    -0.196 C  
HETATM   18  C   UNL     1     -10.897   9.372  68.464  1.00  0.00    -0.149 C  
HETATM   19  C   UNL     1     -11.305   8.903  69.881  1.00  0.00     0.006 C  
HETATM   20  O   UNL     1     -11.404  12.491  68.376  1.00  0.00    -0.247 OA 
HETATM   21  C   UNL     1     -10.063  10.510  69.099  1.00  0.00    -0.224 C  
HETATM   22  C   UNL     1     -10.786  10.232  70.443  1.00  0.00    -0.320 C  
BRANCH  14  23
HETATM   23  C   UNL     1      -8.852  14.004  68.427  1.00  0.00    -0.180 A  
HETATM   24  C   UNL     1      -9.514  14.868  67.538  1.00  0.00    -0.200 A  
HETATM   25  C   UNL     1      -8.546  16.796  68.583  1.00  0.00    -0.263 A  
HETATM   26  C   UNL     1     -10.101  17.181  66.658  1.00  0.00    -0.306 C  
HETATM   27  F   UNL     1     -10.918  18.052  67.312  1.00  0.00    -0.361 F  
HETATM   28  F   UNL     1     -10.900  16.517  65.783  1.00  0.00    -0.319 F  
HETATM   29  F   UNL     1      -9.261  17.932  65.903  1.00  0.00    -0.212 F  
HETATM   30  C   UNL     1      -8.300  18.207  68.730  1.00  0.00    -0.212 C  
HETATM   31  N   UNL     1      -7.911  16.011  69.484  1.00  0.00    -0.143 NA 
HETATM   32  C   UNL     1      -9.372  16.273  67.604  1.00  0.00    -0.218 A  
HETATM   33  N   UNL     1      -8.123  19.354  68.819  1.00  0.00    -0.365 NA 
HETATM   34  C   UNL     1      -8.091  14.665  69.393  1.00  0.00     0.031 A  
ENDBRANCH  14  23
ENDBRANCH   9  13
ENDBRANCH   3   6
TORSDOF 3
ENDMDL
MODEL      108
REMARK 921   NORMALIZED FREE ENERGY PREDICTED BY IDOCK:   -3.78 KCAL/MOL
REMARK 922        TOTAL FREE ENERGY PREDICTED BY IDOCK:   -5.56 KCAL/MOL
REMARK 923 INTER-LIGAND FREE ENERGY PREDICTED BY IDOCK:   -5.52 KCAL/MOL
REMARK 924 INTRA-LIGAND FREE ENERGY PREDICTED BY IDOCK:   -0.04 KCAL/MOL
REMARK 927      BINDING AFFINITY PREDICTED BY RF-SCORE:    0.00 PKD
ROOT
HETATM    1  C   UNL     1     -14.091  14.409  72.308  1.00  0.00    -0.516 C  
HETATM    2  N   UNL     1     -13.131  13.690  71.513  1.00  0.00    -0.354 N  
HETATM    3  C   UNL     1     -12.539  14.263  70.409  1.00  0.00    -0.343 C  
HETATM    4  H   UNL     1     -12.883  12.735  71.773  1.00  0.00     0.000 HD 
HETATM    5  O   UNL     1     -12.733  15.424  70.066  1.00  0.00    -0.290 OA 
ENDROOT
BRANCH   3   6
HETATM    6  C   UNL     1     -11.637  13.401  69.604  1.00  0.00    -0.334 A  
HETATM    7  C   UNL     1     -11.717  12.013  69.738  1.00  0.00    -0.390 A  
HETATM    8  C   UNL     1     -10.781  11.182  69.102  1.00  0.00    -0.262 A  
HETATM    9  C   UNL     1      -9.750  11.711  68.307  1.00  0.00    -0.197 A  
HETATM   10  C   UNL     1      -9.771  13.089  68.087  1.00  0.00    -0.228 A  
HETATM   11  F   UNL     1     -10.558  15.244  68.554  1.00  0.00    -0.221 F  
HETATM   12  C   UNL     1     -10.674  13.921  68.750  1.00  0.00    -0.262 A  
BRANCH   9  13
HETATM   13  N   UNL     1      -8.693  10.889  67.802  1.00  0.00    -0.127 N  
HETATM   14  N   UNL     1      -7.728   8.818  67.480  1.00  0.00    -0.100 N  
HETATM   15  S   UNL     1     -10.136   9.210  66.169  1.00  0.00    -0.091 S  
HETATM   16  C   UNL     1      -8.877   9.595  67.218  1.00  0.00    -0.132 C  
HETATM   17  C   UNL     1      -6.647   9.646  67.747  1.00  0.00    -0.065 C  
HETATM   18  C   UNL     1      -6.540  12.315  67.492  1.00  0.00    -0.141 C  
HETATM   19  C   UNL     1      -6.426  12.929  68.908  1.00  0.00    -0.091 C  
HETATM   20  O   UNL     1      -5.455   9.355  67.712  1.00  0.00    -0.037 OA 
HETATM   21  C   UNL     1      -7.227  11.072  68.105  1.00  0.00    -0.083 C  
HETATM   22  C   UNL     1      -6.760  11.557  69.502  1.00  0.00    -0.106 C  
BRANCH  14  23
HETATM   23  C   UNL     1      -7.663   7.378  67.563  1.00  0.00    -0.111 A  
HETATM   24  C   UNL     1      -8.255   6.533  66.609  1.00  0.00    -0.112 A  
HETATM   25  C   UNL     1      -7.353   4.585  67.678  1.00  0.00    -0.069 A  
HETATM   26  C   UNL     1      -8.731   4.241  65.615  1.00  0.00    -0.120 C  
HETATM   27  F   UNL     1      -7.803   3.499  64.950  1.00  0.00    -0.081 F  
HETATM   28  F   UNL     1      -9.407   4.926  64.657  1.00  0.00    -0.156 F  
HETATM   29  F   UNL     1      -9.621   3.363  66.144  1.00  0.00    -0.175 F  
HETATM   30  C   UNL     1      -7.156   3.168  67.841  1.00  0.00    -0.050 C  
HETATM   31  N   UNL     1      -6.735   5.356  68.601  1.00  0.00    -0.052 NA 
HETATM   32  C   UNL     1      -8.108   5.127  66.652  1.00  0.00    -0.108 A  
HETATM   33  N   UNL     1      -7.020   2.017  67.945  1.00  0.00    -0.042 NA 
HETATM   34  C   UNL     1      -6.890   6.705  68.512  1.00  0.00    -0.070 A  
ENDBRANCH  14  23
ENDBRANCH   9  13
ENDBRANCH   3   6
TORSDOF 3
ENDMDL
MODEL      109
REMARK 921   NORMALIZED FREE ENERGY PREDICTED BY IDOCK:   -3.64 KCAL/MOL
REMARK 922        TOTAL FREE ENERGY PREDICTED BY IDOCK:   -5.39 KCAL/MOL
REMARK 923 INTER-LIGAND FREE ENERGY PREDICTED BY IDOCK:   -4.47 KCAL/MOL
REMARK 924 INTRA-LIGAND FREE ENERGY PREDICTED BY IDOCK:   -0.92 KCAL/MOL
REMARK 927      BINDING AFFINITY PREDICTED BY RF-SCORE:    0.00 PKD
ROOT
HETATM    1  C   UNL     1      -7.723  19.328  68.800  1.00  0.00    -0.362 C  
HETATM    2  N   UNL     1      -8.245  18.045  68.407  1.00  0.00    -0.292 N  
HETATM    3  C   UNL     1      -7.806  16.881  68.996  1.00  0.00    -0.184 C  
HETATM    4  H   UNL     1      -8.955  17.999  67.677  1.00  0.00     0.000 HD 
HETATM    5  O   UNL     1      -7.004  16.854  69.923  1.00  0.00     0.082 OA 
ENDROOT
BRANCH   3   6
HETATM    6  C   UNL     1      -8.338  15.607  68.449  1.00  0.00    -0.162 A  
HETATM    7  C   UNL     1      -9.683  15.287  68.645  1.00  0.00    -0.212 A  
HETATM    8  C   UNL     1     -10.177  14.028  68.269  1.00  0.00    -0.249 A  
HETATM    9  C   UNL     1      -9.347  13.060  67.677  1.00  0.00    -0.202 A  
HETATM   10  C   UNL     1      -8.041  13.451  67.377  1.00  0.00    -0.178 A  
HETATM   11  F   UNL     1      -6.241  14.939  67.542  1.00  0.00    -0.163 F  
HETATM   12  C   UNL     1      -7.537  14.686  67.787  1.00  0.00    -0.160 A  
BRANCH   9  13
HETATM   13  N   UNL     1      -9.796  11.720  67.454  1.00  0.00    -0.178 N  
HETATM   14  N   UNL     1      -9.595   9.445  67.781  1.00  0.00    -0.132 N  
HETATM   15  S   UNL     1     -10.191  10.912  70.053  1.00  0.00     0.652 S  
HETATM   16  C   UNL     1      -9.778  10.681  68.438  1.00  0.00    -0.166 C  
HETATM   17  C   UNL     1      -9.984   9.552  66.453  1.00  0.00    -0.269 C  
HETATM   18  C   UNL     1     -11.229  11.623  65.285  1.00  0.00    -0.263 C  
HETATM   19  C   UNL     1     -10.243  12.277  64.288  1.00  0.00    -0.356 C  
HETATM   20  O   UNL     1     -10.256   8.641  65.677  1.00  0.00     0.339 OA 
HETATM   21  C   UNL     1     -10.027  11.093  66.102  1.00  0.00    -0.229 C  
HETATM   22  C   UNL     1      -9.112  11.442  64.899  1.00  0.00     0.002 C  
BRANCH  14  23
HETATM   23  C   UNL     1      -9.008   8.251  68.340  1.00  0.00    -0.136 A  
HETATM   24  C   UNL     1      -9.702   7.398  69.214  1.00  0.00    -0.165 A  
HETATM   25  C   UNL     1      -7.875   5.846  69.259  1.00  0.00    -0.095 A  
HETATM   26  C   UNL     1      -9.910   5.277  70.602  1.00  0.00    -0.198 C  
HETATM   27  F   UNL     1     -10.089   4.038  70.066  1.00  0.00    -0.284 F  
HETATM   28  F   UNL     1     -11.156   5.731  70.896  1.00  0.00    -0.333 F  
HETATM   29  F   UNL     1      -9.288   5.095  71.794  1.00  0.00    -0.150 F  
HETATM   30  C   UNL     1      -7.196   4.652  69.691  1.00  0.00    -0.051 C  
HETATM   31  N   UNL     1      -7.177   6.615  68.393  1.00  0.00    -0.083 NA 
HETATM   32  C   UNL     1      -9.147   6.185  69.684  1.00  0.00    -0.139 A  
HETATM   33  N   UNL     1      -6.676   3.680  70.063  1.00  0.00    -0.033 NA 
HETATM   34  C   UNL     1      -7.756   7.766  67.953  1.00  0.00    -0.122 A  
ENDBRANCH  14  23
ENDBRANCH   9  13
ENDBRANCH   3   6
TORSDOF 3
ENDMDL
MODEL      110
REMARK 921   NORMALIZED FREE ENERGY PREDICTED BY IDOCK:   -3.63 KCAL/MOL
REMARK 922        TOTAL FREE ENERGY PREDICTED BY IDOCK:   -5.39 KCAL/MOL
REMARK 923 INTER-LIGAND FREE ENERGY PREDICTED BY IDOCK:   -5.05 KCAL/MOL
REMARK 924 INTRA-LIGAND FREE ENERGY PREDICTED BY IDOCK:   -0.33 KCAL/MOL
REMARK 927      BINDING AFFINITY PREDICTED BY RF-SCORE:    0.00 PKD
ROOT
HETATM    1  C   UNL     1     -14.354  15.251  72.193  1.00  0.00    -0.555 C  
HETATM    2  N   UNL     1     -13.462  14.468  71.378  1.00  0.00    -0.364 N  
HETATM    3  C   UNL     1     -12.466  15.058  70.632  1.00  0.00    -0.365 C  
HETATM    4  H   UNL     1     -13.570  13.454  71.353  1.00  0.00     0.000 HD 
HETATM    5  O   UNL     1     -12.228  16.260  70.656  1.00  0.00    -0.123 OA 
ENDROOT
BRANCH   3   6
HETATM    6  C   UNL     1     -11.666  14.169  69.753  1.00  0.00    -0.370 A  
HETATM    7  C   UNL     1     -11.642  12.796  70.007  1.00  0.00    -0.194 A  
HETATM    8  C   UNL     1     -10.781  11.953  69.286  1.00  0.00    -0.095 A  
HETATM    9  C   UNL     1      -9.932  12.455  68.285  1.00  0.00    -0.224 A  
HETATM   10  C   UNL     1     -10.068  13.806  67.964  1.00  0.00    -0.245 A  
HETATM   11  F   UNL     1     -10.887  15.958  68.390  1.00  0.00    -0.261 F  
HETATM   12  C   UNL     1     -10.892  14.652  68.707  1.00  0.00    -0.255 A  
BRANCH   9  13
HETATM   13  N   UNL     1      -8.931  11.637  67.670  1.00  0.00    -0.162 N  
HETATM   14  N   UNL     1      -8.106   9.568  67.071  1.00  0.00    -0.112 N  
HETATM   15  S   UNL     1     -10.476  10.292  65.835  1.00  0.00    -0.025 S  
HETATM   16  C   UNL     1      -9.199  10.448  66.920  1.00  0.00    -0.150 C  
HETATM   17  C   UNL     1      -6.972  10.278  67.441  1.00  0.00    -0.082 C  
HETATM   18  C   UNL     1      -6.685  12.944  67.543  1.00  0.00    -0.156 C  
HETATM   19  C   UNL     1      -6.536  13.356  69.027  1.00  0.00    -0.105 C  
HETATM   20  O   UNL     1      -5.802   9.915  67.362  1.00  0.00    -0.049 OA 
HETATM   21  C   UNL     1      -7.457  11.680  67.988  1.00  0.00    -0.100 C  
HETATM   22  C   UNL     1      -6.964  11.942  69.435  1.00  0.00    -0.001 C  
BRANCH  14  23
HETATM   23  C   UNL     1      -8.138   8.128  66.962  1.00  0.00    -0.108 A  
HETATM   24  C   UNL     1      -7.422   7.283  67.825  1.00  0.00    -0.102 A  
HETATM   25  C   UNL     1      -8.378   5.330  66.813  1.00  0.00    -0.108 A  
HETATM   26  C   UNL     1      -6.775   4.986  68.707  1.00  0.00    -0.050 C  
HETATM   27  F   UNL     1      -7.604   4.202  69.450  1.00  0.00    -0.053 F  
HETATM   28  F   UNL     1      -6.020   5.673  69.603  1.00  0.00    -0.017 F  
HETATM   29  F   UNL     1      -5.923   4.148  68.065  1.00  0.00    -0.023 F  
HETATM   30  C   UNL     1      -8.550   3.911  66.638  1.00  0.00    -0.111 C  
HETATM   31  N   UNL     1      -9.114   6.100  65.980  1.00  0.00    -0.148 NA 
HETATM   32  C   UNL     1      -7.532   5.874  67.764  1.00  0.00    -0.078 A  
HETATM   33  N   UNL     1      -8.664   2.759  66.522  1.00  0.00    -0.115 NA 
HETATM   34  C   UNL     1      -8.989   7.451  66.085  1.00  0.00    -0.149 A  
ENDBRANCH  14  23
ENDBRANCH   9  13
ENDBRANCH   3   6
TORSDOF 3
ENDMDL
MODEL      111
REMARK 921   NORMALIZED FREE ENERGY PREDICTED BY IDOCK:   -3.62 KCAL/MOL
REMARK 922        TOTAL FREE ENERGY PREDICTED BY IDOCK:   -5.38 KCAL/MOL
REMARK 923 INTER-LIGAND FREE ENERGY PREDICTED BY IDOCK:   -4.70 KCAL/MOL
REMARK 924 INTRA-LIGAND FREE ENERGY PREDICTED BY IDOCK:   -0.68 KCAL/MOL
REMARK 927      BINDING AFFINITY PREDICTED BY RF-SCORE:    0.00 PKD
ROOT
HETATM    1  C   UNL     1      -9.584  18.659  66.261  1.00  0.00    -0.283 C  
HETATM    2  N   UNL     1      -9.464  17.326  66.789  1.00  0.00    -0.255 N  
HETATM    3  C   UNL     1      -8.316  16.586  66.615  1.00  0.00    -0.262 C  
HETATM    4  H   UNL     1     -10.246  16.920  67.303  1.00  0.00     0.000 HD 
HETATM    5  O   UNL     1      -7.309  17.021  66.067  1.00  0.00    -0.255 OA 
ENDROOT
BRANCH   3   6
HETATM    6  C   UNL     1      -8.333  15.188  67.115  1.00  0.00    -0.247 A  
HETATM    7  C   UNL     1      -8.813  14.171  66.287  1.00  0.00     0.155 A  
HETATM    8  C   UNL     1      -8.977  12.867  66.782  1.00  0.00    -0.182 A  
HETATM    9  C   UNL     1      -8.656  12.541  68.111  1.00  0.00    -0.189 A  
HETATM   10  C   UNL     1      -8.060  13.544  68.878  1.00  0.00     0.121 A  
HETATM   11  F   UNL     1      -7.439  15.772  69.242  1.00  0.00    -0.164 F  
HETATM   12  C   UNL     1      -7.934  14.849  68.401  1.00  0.00    -0.134 A  
BRANCH   9  13
HETATM   13  N   UNL     1      -8.984  11.266  68.672  1.00  0.00    -0.167 N  
HETATM   14  N   UNL     1      -8.814   8.966  68.686  1.00  0.00    -0.137 N  
HETATM   15  S   UNL     1      -6.459  10.323  69.217  1.00  0.00    -0.054 S  
HETATM   16  C   UNL     1      -8.075  10.165  68.777  1.00  0.00    -0.111 C  
HETATM   17  C   UNL     1     -10.140   9.198  69.022  1.00  0.00    -0.191 C  
HETATM   18  C   UNL     1     -11.189  11.448  70.040  1.00  0.00    -0.160 C  
HETATM   19  C   UNL     1     -12.112  12.076  68.969  1.00  0.00    -0.223 C  
HETATM   20  O   UNL     1     -10.984   8.370  69.351  1.00  0.00    -0.146 OA 
HETATM   21  C   UNL     1     -10.382  10.756  68.916  1.00  0.00    -0.202 C  
HETATM   22  C   UNL     1     -11.535  11.101  67.937  1.00  0.00    -0.359 C  
BRANCH  14  23
HETATM   23  C   UNL     1      -8.325   7.687  68.225  1.00  0.00    -0.125 A  
HETATM   24  C   UNL     1      -8.710   6.469  68.810  1.00  0.00    -0.123 A  
HETATM   25  C   UNL     1      -7.482   5.219  67.174  1.00  0.00    -0.084 A  
HETATM   26  C   UNL     1      -8.732   3.928  68.919  1.00  0.00    -0.094 C  
HETATM   27  F   UNL     1      -9.418   3.141  68.045  1.00  0.00    -0.212 F  
HETATM   28  F   UNL     1      -9.557   4.098  69.985  1.00  0.00    -0.206 F  
HETATM   29  F   UNL     1      -7.689   3.187  69.369  1.00  0.00    -0.047 F  
HETATM   30  C   UNL     1      -6.975   4.011  66.576  1.00  0.00    -0.059 C  
HETATM   31  N   UNL     1      -7.110   6.361  66.554  1.00  0.00    -0.067 NA 
HETATM   32  C   UNL     1      -8.296   5.220  68.293  1.00  0.00    -0.097 A  
HETATM   33  N   UNL     1      -6.581   3.016  66.119  1.00  0.00    -0.035 NA 
HETATM   34  C   UNL     1      -7.545   7.540  67.076  1.00  0.00    -0.103 A  
ENDBRANCH  14  23
ENDBRANCH   9  13
ENDBRANCH   3   6
TORSDOF 3
ENDMDL
MODEL      112
REMARK 921   NORMALIZED FREE ENERGY PREDICTED BY IDOCK:   -3.57 KCAL/MOL
REMARK 922        TOTAL FREE ENERGY PREDICTED BY IDOCK:   -5.32 KCAL/MOL
REMARK 923 INTER-LIGAND FREE ENERGY PREDICTED BY IDOCK:   -4.60 KCAL/MOL
REMARK 924 INTRA-LIGAND FREE ENERGY PREDICTED BY IDOCK:   -0.72 KCAL/MOL
REMARK 927      BINDING AFFINITY PREDICTED BY RF-SCORE:    0.00 PKD
ROOT
HETATM    1  C   UNL     1      -7.549  18.023  68.446  1.00  0.00    -0.284 C  
HETATM    2  N   UNL     1      -7.877  16.656  68.137  1.00  0.00    -0.170 N  
HETATM    3  C   UNL     1      -7.815  15.668  69.095  1.00  0.00    -0.220 C  
HETATM    4  H   UNL     1      -8.163  16.414  67.189  1.00  0.00     0.000 HD 
HETATM    5  O   UNL     1      -7.544  15.885  70.271  1.00  0.00     0.522 OA 
ENDROOT
BRANCH   3   6
HETATM    6  C   UNL     1      -8.080  14.278  68.648  1.00  0.00    -0.140 A  
HETATM    7  C   UNL     1      -9.309  13.970  68.061  1.00  0.00    -0.205 A  
HETATM    8  C   UNL     1      -9.643  12.639  67.764  1.00  0.00    -0.197 A  
HETATM    9  C   UNL     1      -8.756  11.583  68.033  1.00  0.00    -0.151 A  
HETATM   10  C   UNL     1      -7.487  11.930  68.500  1.00  0.00    -0.117 A  
HETATM   11  F   UNL     1      -5.958  13.475  69.370  1.00  0.00    -0.078 F  
HETATM   12  C   UNL     1      -7.169  13.247  68.835  1.00  0.00    -0.054 A  
BRANCH   9  13
HETATM   13  N   UNL     1      -9.154  10.215  67.898  1.00  0.00    -0.131 N  
HETATM   14  N   UNL     1      -9.209   8.044  68.678  1.00  0.00    -0.143 N  
HETATM   15  S   UNL     1     -10.548   9.892  70.246  1.00  0.00    -0.305 S  
HETATM   16  C   UNL     1      -9.564   9.376  68.982  1.00  0.00    -0.164 C  
HETATM   17  C   UNL     1      -9.057   7.896  67.306  1.00  0.00    -0.135 C  
HETATM   18  C   UNL     1      -9.657   9.687  65.400  1.00  0.00    -0.361 C  
HETATM   19  C   UNL     1      -8.334  10.168  64.759  1.00  0.00    -0.167 C  
HETATM   20  O   UNL     1      -9.059   6.851  66.662  1.00  0.00    -0.140 OA 
HETATM   21  C   UNL     1      -8.885   9.344  66.696  1.00  0.00    -0.135 C  
HETATM   22  C   UNL     1      -7.564   9.484  65.894  1.00  0.00    -0.100 C  
BRANCH  14  23
HETATM   23  C   UNL     1      -8.940   6.987  69.624  1.00  0.00    -0.141 A  
HETATM   24  C   UNL     1      -9.819   6.658  70.669  1.00  0.00    -0.198 A  
HETATM   25  C   UNL     1      -8.450   4.804  71.328  1.00  0.00    -0.107 A  
HETATM   26  C   UNL     1     -10.547   5.216  72.633  1.00  0.00    -0.228 C  
HETATM   27  F   UNL     1     -11.044   3.955  72.500  1.00  0.00    -0.128 F  
HETATM   28  F   UNL     1     -11.631   6.033  72.680  1.00  0.00    -0.305 F  
HETATM   29  F   UNL     1      -9.978   5.279  73.863  1.00  0.00    -0.148 F  
HETATM   30  C   UNL     1      -8.094   3.683  72.160  1.00  0.00    -0.072 C  
HETATM   31  N   UNL     1      -7.589   5.057  70.316  1.00  0.00    -0.062 NA 
HETATM   32  C   UNL     1      -9.588   5.564  71.533  1.00  0.00    -0.188 A  
HETATM   33  N   UNL     1      -7.837   2.786  72.854  1.00  0.00    -0.050 NA 
HETATM   34  C   UNL     1      -7.860   6.111  69.498  1.00  0.00    -0.100 A  
ENDBRANCH  14  23
ENDBRANCH   9  13
ENDBRANCH   3   6
TORSDOF 3
ENDMDL
MODEL      113
REMARK 921   NORMALIZED FREE ENERGY PREDICTED BY IDOCK:   -3.50 KCAL/MOL
REMARK 922        TOTAL FREE ENERGY PREDICTED BY IDOCK:   -5.24 KCAL/MOL
REMARK 923 INTER-LIGAND FREE ENERGY PREDICTED BY IDOCK:   -5.41 KCAL/MOL
REMARK 924 INTRA-LIGAND FREE ENERGY PREDICTED BY IDOCK:    0.18 KCAL/MOL
REMARK 927      BINDING AFFINITY PREDICTED BY RF-SCORE:    0.00 PKD
ROOT
HETATM    1  C   UNL     1      -9.715   2.307  70.028  1.00  0.00     0.113 C  
HETATM    2  N   UNL     1      -9.523   3.299  69.002  1.00  0.00    -0.157 N  
HETATM    3  C   UNL     1      -8.274   3.803  68.716  1.00  0.00    -0.073 C  
HETATM    4  H   UNL     1     -10.330   3.635  68.477  1.00  0.00     0.000 HD 
HETATM    5  O   UNL     1      -7.247   3.407  69.255  1.00  0.00    -0.048 OA 
ENDROOT
BRANCH   3   6
HETATM    6  C   UNL     1      -8.202   4.891  67.709  1.00  0.00    -0.101 A  
HETATM    7  C   UNL     1      -6.976   5.187  67.108  1.00  0.00    -0.064 A  
HETATM    8  C   UNL     1      -6.847   6.302  66.265  1.00  0.00    -0.061 A  
HETATM    9  C   UNL     1      -7.938   7.143  65.989  1.00  0.00    -0.112 A  
HETATM   10  C   UNL     1      -9.178   6.753  66.499  1.00  0.00    -0.190 A  
HETATM   11  F   UNL     1     -10.514   5.426  67.889  1.00  0.00    -0.223 F  
HETATM   12  C   UNL     1      -9.299   5.670  67.370  1.00  0.00    -0.113 A  
BRANCH   9  13
HETATM   13  N   UNL     1      -7.776   8.375  65.278  1.00  0.00    -0.093 N  
HETATM   14  N   UNL     1      -8.566  10.437  64.612  1.00  0.00    -0.182 N  
HETATM   15  S   UNL     1      -8.141  10.164  67.335  1.00  0.00    -0.114 S  
HETATM   16  C   UNL     1      -8.245   9.647  65.736  1.00  0.00    -0.120 C  
HETATM   17  C   UNL     1      -7.891   9.969  63.494  1.00  0.00    -0.156 C  
HETATM   18  C   UNL     1      -5.979   8.087  63.419  1.00  0.00    -0.067 C  
HETATM   19  C   UNL     1      -6.552   6.848  62.689  1.00  0.00    -0.047 C  
HETATM   20  O   UNL     1      -7.680  10.565  62.442  1.00  0.00    -0.147 OA 
HETATM   21  C   UNL     1      -7.417   8.496  63.818  1.00  0.00    -0.118 C  
HETATM   22  C   UNL     1      -7.949   7.472  62.781  1.00  0.00    -0.119 C  
BRANCH  14  23
HETATM   23  C   UNL     1      -9.521  11.520  64.565  1.00  0.00    -0.088 A  
HETATM   24  C   UNL     1      -9.885  12.264  65.699  1.00  0.00    -0.247 A  
HETATM   25  C   UNL     1     -11.249  13.731  64.382  1.00  0.00    -0.352 A  
HETATM   26  C   UNL     1     -11.116  14.173  66.843  1.00  0.00    -0.307 C  
HETATM   27  F   UNL     1     -10.752  15.481  66.730  1.00  0.00    -0.291 F  
HETATM   28  F   UNL     1     -10.517  13.724  67.977  1.00  0.00    -0.226 F  
HETATM   29  F   UNL     1     -12.449  14.163  67.095  1.00  0.00    -0.433 F  
HETATM   30  C   UNL     1     -12.161  14.828  64.185  1.00  0.00    -0.295 C  
HETATM   31  N   UNL     1     -10.904  13.069  63.255  1.00  0.00     0.106 NA 
HETATM   32  C   UNL     1     -10.752  13.379  65.624  1.00  0.00    -0.283 A  
HETATM   33  N   UNL     1     -12.899  15.720  64.063  1.00  0.00    -0.400 NA 
HETATM   34  C   UNL     1     -10.054  12.013  63.372  1.00  0.00    -0.408 A  
ENDBRANCH  14  23
ENDBRANCH   9  13
ENDBRANCH   3   6
TORSDOF 3
ENDMDL
MODEL      114
REMARK 921   NORMALIZED FREE ENERGY PREDICTED BY IDOCK:   -3.50 KCAL/MOL
REMARK 922        TOTAL FREE ENERGY PREDICTED BY IDOCK:   -5.23 KCAL/MOL
REMARK 923 INTER-LIGAND FREE ENERGY PREDICTED BY IDOCK:   -5.78 KCAL/MOL
REMARK 924 INTRA-LIGAND FREE ENERGY PREDICTED BY IDOCK:    0.55 KCAL/MOL
REMARK 927      BINDING AFFINITY PREDICTED BY RF-SCORE:    0.00 PKD
ROOT
HETATM    1  C   UNL     1      -5.879  21.023  65.956  1.00  0.00    -0.252 C  
HETATM    2  N   UNL     1      -6.589  19.808  66.256  1.00  0.00    -0.199 N  
HETATM    3  C   UNL     1      -7.561  19.766  67.230  1.00  0.00    -0.255 C  
HETATM    4  H   UNL     1      -6.366  18.959  65.736  1.00  0.00     0.000 HD 
HETATM    5  O   UNL     1      -7.933  20.753  67.855  1.00  0.00    -0.099 OA 
ENDROOT
BRANCH   3   6
HETATM    6  C   UNL     1      -8.162  18.441  67.526  1.00  0.00    -0.255 A  
HETATM    7  C   UNL     1      -7.485  17.555  68.366  1.00  0.00    -0.247 A  
HETATM    8  C   UNL     1      -7.955  16.244  68.546  1.00  0.00    -0.184 A  
HETATM    9  C   UNL     1      -9.119  15.788  67.904  1.00  0.00    -0.186 A  
HETATM   10  C   UNL     1      -9.844  16.730  67.173  1.00  0.00    -0.259 A  
HETATM   11  F   UNL     1     -10.074  18.829  66.162  1.00  0.00    -0.352 F  
HETATM   12  C   UNL     1      -9.357  18.019  66.959  1.00  0.00    -0.265 A  
BRANCH   9  13
HETATM   13  N   UNL     1      -9.506  14.410  67.941  1.00  0.00    -0.209 N  
HETATM   14  N   UNL     1      -9.525  12.296  67.019  1.00  0.00    -0.199 N  
HETATM   15  S   UNL     1      -7.032  13.218  67.795  1.00  0.00    -0.166 S  
HETATM   16  C   UNL     1      -8.686  13.323  67.502  1.00  0.00    -0.202 C  
HETATM   17  C   UNL     1     -10.797  12.430  67.558  1.00  0.00    -0.236 C  
HETATM   18  C   UNL     1     -11.573  14.119  69.493  1.00  0.00    -0.349 C  
HETATM   19  C   UNL     1     -12.523  15.166  68.865  1.00  0.00     0.123 C  
HETATM   20  O   UNL     1     -11.678  11.578  67.616  1.00  0.00    -0.538 OA 
HETATM   21  C   UNL     1     -10.918  13.907  68.108  1.00  0.00    -0.249 C  
HETATM   22  C   UNL     1     -12.112  14.668  67.474  1.00  0.00    -0.212 C  
BRANCH  14  23
HETATM   23  C   UNL     1      -9.182  11.293  66.038  1.00  0.00    -0.208 A  
HETATM   24  C   UNL     1      -7.860  10.881  65.800  1.00  0.00    -0.057 A  
HETATM   25  C   UNL     1      -8.590   9.211  64.242  1.00  0.00    -0.175 A  
HETATM   26  C   UNL     1      -6.130   9.395  64.675  1.00  0.00    -0.077 C  
HETATM   27  F   UNL     1      -5.945   8.082  64.986  1.00  0.00    -0.043 F  
HETATM   28  F   UNL     1      -5.227  10.079  65.424  1.00  0.00    -0.042 F  
HETATM   29  F   UNL     1      -5.736   9.545  63.385  1.00  0.00    -0.082 F  
HETATM   30  C   UNL     1      -8.391   8.155  63.284  1.00  0.00    -0.004 C  
HETATM   31  N   UNL     1      -9.881   9.548  64.459  1.00  0.00     0.211 NA 
HETATM   32  C   UNL     1      -7.546   9.835  64.902  1.00  0.00    -0.128 A  
HETATM   33  N   UNL     1      -8.194   7.305  62.514  1.00  0.00    -0.095 NA 
HETATM   34  C   UNL     1     -10.139  10.548  65.344  1.00  0.00    -0.291 A  
ENDBRANCH  14  23
ENDBRANCH   9  13
ENDBRANCH   3   6
TORSDOF 3
ENDMDL
MODEL      115
REMARK 921   NORMALIZED FREE ENERGY PREDICTED BY IDOCK:   -3.48 KCAL/MOL
REMARK 922        TOTAL FREE ENERGY PREDICTED BY IDOCK:   -5.21 KCAL/MOL
REMARK 923 INTER-LIGAND FREE ENERGY PREDICTED BY IDOCK:   -5.51 KCAL/MOL
REMARK 924 INTRA-LIGAND FREE ENERGY PREDICTED BY IDOCK:    0.30 KCAL/MOL
REMARK 927      BINDING AFFINITY PREDICTED BY RF-SCORE:    0.00 PKD
ROOT
HETATM    1  C   UNL     1     -10.777  18.921  65.487  1.00  0.00    -0.001 C  
HETATM    2  N   UNL     1     -10.425  17.575  65.856  1.00  0.00    -0.324 N  
HETATM    3  C   UNL     1     -10.760  16.502  65.061  1.00  0.00    -0.209 C  
HETATM    4  H   UNL     1      -9.915  17.413  66.725  1.00  0.00     0.000 HD 
HETATM    5  O   UNL     1     -11.314  16.615  63.973  1.00  0.00    -1.120 OA 
ENDROOT
BRANCH   3   6
HETATM    6  C   UNL     1     -10.434  15.150  65.581  1.00  0.00    -0.378 A  
HETATM    7  C   UNL     1     -11.431  14.172  65.616  1.00  0.00    -0.325 A  
HETATM    8  C   UNL     1     -11.193  12.935  66.236  1.00  0.00    -0.337 A  
HETATM    9  C   UNL     1      -9.953  12.636  66.825  1.00  0.00    -0.234 A  
HETATM   10  C   UNL     1      -8.937  13.580  66.665  1.00  0.00    -0.133 A  
HETATM   11  F   UNL     1      -8.171  15.709  66.062  1.00  0.00    -0.258 F  
HETATM   12  C   UNL     1      -9.183  14.825  66.087  1.00  0.00    -0.202 A  
BRANCH   9  13
HETATM   13  N   UNL     1      -9.759  11.454  67.609  1.00  0.00    -0.171 N  
HETATM   14  N   UNL     1      -9.513   9.167  67.782  1.00  0.00    -0.139 N  
HETATM   15  S   UNL     1      -7.478  10.471  66.430  1.00  0.00    -0.138 S  
HETATM   16  C   UNL     1      -8.963  10.334  67.210  1.00  0.00    -0.132 C  
HETATM   17  C   UNL     1     -10.282   9.498  68.889  1.00  0.00    -0.199 C  
HETATM   18  C   UNL     1     -10.485  11.901  70.067  1.00  0.00     1.213 C  
HETATM   19  C   UNL     1     -11.917  12.435  69.826  1.00  0.00    -0.359 C  
HETATM   20  O   UNL     1     -10.648   8.756  69.795  1.00  0.00    -0.220 OA 
HETATM   21  C   UNL     1     -10.607  11.042  68.786  1.00  0.00    -0.202 C  
HETATM   22  C   UNL     1     -12.134  11.317  68.800  1.00  0.00    -0.258 C  
BRANCH  14  23
HETATM   23  C   UNL     1      -9.399   7.822  67.270  1.00  0.00    -0.145 A  
HETATM   24  C   UNL     1      -8.595   7.492  66.166  1.00  0.00    -0.159 A  
HETATM   25  C   UNL     1      -9.075   5.158  66.429  1.00  0.00    -0.131 A  
HETATM   26  C   UNL     1      -7.544   5.822  64.562  1.00  0.00    -0.084 C  
HETATM   27  F   UNL     1      -6.531   4.979  64.906  1.00  0.00    -0.032 F  
HETATM   28  F   UNL     1      -6.944   6.908  64.009  1.00  0.00    -0.048 F  
HETATM   29  F   UNL     1      -8.224   5.218  63.555  1.00  0.00    -0.099 F  
HETATM   30  C   UNL     1      -8.996   3.767  66.063  1.00  0.00    -0.136 C  
HETATM   31  N   UNL     1      -9.833   5.418  67.518  1.00  0.00    -0.140 NA 
HETATM   32  C   UNL     1      -8.421   6.158  65.731  1.00  0.00    -0.147 A  
HETATM   33  N   UNL     1      -8.913   2.653  65.738  1.00  0.00    -0.135 NA 
HETATM   34  C   UNL     1      -9.960   6.714  67.911  1.00  0.00    -0.132 A  
ENDBRANCH  14  23
ENDBRANCH   9  13
ENDBRANCH   3   6
TORSDOF 3
ENDMDL
MODEL      116
REMARK 921   NORMALIZED FREE ENERGY PREDICTED BY IDOCK:   -3.48 KCAL/MOL
REMARK 922        TOTAL FREE ENERGY PREDICTED BY IDOCK:   -5.21 KCAL/MOL
REMARK 923 INTER-LIGAND FREE ENERGY PREDICTED BY IDOCK:   -4.08 KCAL/MOL
REMARK 924 INTRA-LIGAND FREE ENERGY PREDICTED BY IDOCK:   -1.12 KCAL/MOL
REMARK 927      BINDING AFFINITY PREDICTED BY RF-SCORE:    0.00 PKD
ROOT
HETATM    1  C   UNL     1      -5.611   2.233  63.215  1.00  0.00    -0.009 C  
HETATM    2  N   UNL     1      -6.105   2.935  64.370  1.00  0.00    -0.018 N  
HETATM    3  C   UNL     1      -6.817   4.107  64.247  1.00  0.00    -0.045 C  
HETATM    4  H   UNL     1      -5.924   2.556  65.299  1.00  0.00     0.000 HD 
HETATM    5  O   UNL     1      -7.132   4.595  63.167  1.00  0.00    -0.042 OA 
ENDROOT
BRANCH   3   6
HETATM    6  C   UNL     1      -7.196   4.801  65.504  1.00  0.00    -0.071 A  
HETATM    7  C   UNL     1      -7.954   4.121  66.459  1.00  0.00    -0.098 A  
HETATM    8  C   UNL     1      -8.450   4.795  67.587  1.00  0.00    -0.104 A  
HETATM    9  C   UNL     1      -8.191   6.161  67.797  1.00  0.00    -0.117 A  
HETATM   10  C   UNL     1      -7.327   6.783  66.896  1.00  0.00    -0.082 A  
HETATM   11  F   UNL     1      -6.120   6.834  64.890  1.00  0.00    -0.032 F  
HETATM   12  C   UNL     1      -6.868   6.127  65.753  1.00  0.00    -0.056 A  
BRANCH   9  13
HETATM   13  N   UNL     1      -8.835   6.894  68.844  1.00  0.00    -0.130 N  
HETATM   14  N   UNL     1      -9.840   8.812  69.639  1.00  0.00    -0.179 N  
HETATM   15  S   UNL     1     -11.199   7.534  67.592  1.00  0.00     0.552 S  
HETATM   16  C   UNL     1      -9.919   7.808  68.650  1.00  0.00    -0.182 C  
HETATM   17  C   UNL     1      -9.107   8.352  70.724  1.00  0.00    -0.156 C  
HETATM   18  C   UNL     1      -8.225   5.854  71.150  1.00  0.00    -0.123 C  
HETATM   19  C   UNL     1      -6.681   5.864  71.042  1.00  0.00    -0.060 C  
HETATM   20  O   UNL     1      -9.091   8.809  71.863  1.00  0.00    -0.248 OA 
HETATM   21  C   UNL     1      -8.281   7.098  70.232  1.00  0.00    -0.131 C  
HETATM   22  C   UNL     1      -6.757   7.280  70.459  1.00  0.00    -0.048 C  
BRANCH  14  23
HETATM   23  C   UNL     1     -10.348  10.160  69.540  1.00  0.00    -0.240 A  
HETATM   24  C   UNL     1     -11.303  10.682  70.429  1.00  0.00    -0.389 A  
HETATM   25  C   UNL     1     -11.169  12.847  69.408  1.00  0.00    -0.132 A  
HETATM   26  C   UNL     1     -12.733  12.575  71.345  1.00  0.00    -0.243 C  
HETATM   27  F   UNL     1     -12.235  13.612  72.073  1.00  0.00    -0.234 F  
HETATM   28  F   UNL     1     -13.155  11.659  72.256  1.00  0.00    -0.580 F  
HETATM   29  F   UNL     1     -13.852  13.035  70.732  1.00  0.00     0.347 F  
HETATM   30  C   UNL     1     -11.541  14.228  69.240  1.00  0.00    -0.306 C  
HETATM   31  N   UNL     1     -10.222  12.404  68.550  1.00  0.00    -0.225 NA 
HETATM   32  C   UNL     1     -11.726  12.030  70.377  1.00  0.00    -0.175 A  
HETATM   33  N   UNL     1     -11.867  15.340  69.131  1.00  0.00    -0.327 NA 
HETATM   34  C   UNL     1      -9.833  11.103  68.648  1.00  0.00    -0.202 A  
ENDBRANCH  14  23
ENDBRANCH   9  13
ENDBRANCH   3   6
TORSDOF 3
ENDMDL
MODEL      117
REMARK 921   NORMALIZED FREE ENERGY PREDICTED BY IDOCK:   -3.27 KCAL/MOL
REMARK 922        TOTAL FREE ENERGY PREDICTED BY IDOCK:   -4.96 KCAL/MOL
REMARK 923 INTER-LIGAND FREE ENERGY PREDICTED BY IDOCK:   -4.06 KCAL/MOL
REMARK 924 INTRA-LIGAND FREE ENERGY PREDICTED BY IDOCK:   -0.90 KCAL/MOL
REMARK 927      BINDING AFFINITY PREDICTED BY RF-SCORE:    0.00 PKD
ROOT
HETATM    1  C   UNL     1     -10.680  17.654  65.260  1.00  0.00     0.156 C  
HETATM    2  N   UNL     1     -10.254  16.484  65.981  1.00  0.00    -0.342 N  
HETATM    3  C   UNL     1     -10.738  15.233  65.670  1.00  0.00    -0.365 C  
HETATM    4  H   UNL     1      -9.578  16.584  66.738  1.00  0.00     0.000 HD 
HETATM    5  O   UNL     1     -11.503  15.018  64.736  1.00  0.00    -0.400 OA 
ENDROOT
BRANCH   3   6
HETATM    6  C   UNL     1     -10.307  14.108  66.539  1.00  0.00    -0.284 A  
HETATM    7  C   UNL     1      -9.670  13.006  65.964  1.00  0.00    -0.223 A  
HETATM    8  C   UNL     1      -9.385  11.868  66.735  1.00  0.00    -0.204 A  
HETATM    9  C   UNL     1      -9.714  11.804  68.100  1.00  0.00    -0.192 A  
HETATM   10  C   UNL     1     -10.233  12.964  68.676  1.00  0.00    -0.170 A  
HETATM   11  F   UNL     1     -11.142  15.117  68.526  1.00  0.00    -0.237 F  
HETATM   12  C   UNL     1     -10.556  14.081  67.904  1.00  0.00    -0.244 A  
BRANCH   9  13
HETATM   13  N   UNL     1      -9.589  10.590  68.847  1.00  0.00    -0.185 N  
HETATM   14  N   UNL     1      -8.893   8.398  69.030  1.00  0.00    -0.145 N  
HETATM   15  S   UNL     1      -6.860  10.259  68.760  1.00  0.00    -0.060 S  
HETATM   16  C   UNL     1      -8.454   9.719  68.800  1.00  0.00    -0.122 C  
HETATM   17  C   UNL     1     -10.110   8.412  69.696  1.00  0.00    -0.199 C  
HETATM   18  C   UNL     1     -11.364  10.539  70.748  1.00  0.00    -0.295 C  
HETATM   19  C   UNL     1     -12.644  10.801  69.919  1.00  0.00    -0.199 C  
HETATM   20  O   UNL     1     -10.631   7.493  70.322  1.00  0.00    -0.219 OA 
HETATM   21  C   UNL     1     -10.725   9.857  69.515  1.00  0.00    -0.242 C  
HETATM   22  C   UNL     1     -12.133   9.813  68.864  1.00  0.00     1.068 C  
BRANCH  14  23
HETATM   23  C   UNL     1      -8.253   7.186  68.575  1.00  0.00    -0.125 A  
HETATM   24  C   UNL     1      -8.473   6.642  67.299  1.00  0.00    -0.120 A  
HETATM   25  C   UNL     1      -6.844   4.924  67.677  1.00  0.00    -0.060 A  
HETATM   26  C   UNL     1      -8.006   4.948  65.459  1.00  0.00    -0.099 C  
HETATM   27  F   UNL     1      -6.871   4.944  64.707  1.00  0.00    -0.044 F  
HETATM   28  F   UNL     1      -8.919   5.653  64.741  1.00  0.00    -0.122 F  
HETATM   29  F   UNL     1      -8.458   3.669  65.484  1.00  0.00    -0.105 F  
HETATM   30  C   UNL     1      -6.090   3.748  67.324  1.00  0.00    -0.028 C  
HETATM   31  N   UNL     1      -6.570   5.428  68.902  1.00  0.00    -0.049 NA 
HETATM   32  C   UNL     1      -7.772   5.506  66.832  1.00  0.00    -0.100 A  
HETATM   33  N   UNL     1      -5.501   2.797  67.006  1.00  0.00    -0.016 NA 
HETATM   34  C   UNL     1      -7.257   6.532  69.303  1.00  0.00    -0.090 A  
ENDBRANCH  14  23
ENDBRANCH   9  13
ENDBRANCH   3   6
TORSDOF 3
ENDMDL
MODEL      118
REMARK 921   NORMALIZED FREE ENERGY PREDICTED BY IDOCK:   -3.22 KCAL/MOL
REMARK 922        TOTAL FREE ENERGY PREDICTED BY IDOCK:   -4.91 KCAL/MOL
REMARK 923 INTER-LIGAND FREE ENERGY PREDICTED BY IDOCK:   -4.59 KCAL/MOL
REMARK 924 INTRA-LIGAND FREE ENERGY PREDICTED BY IDOCK:   -0.32 KCAL/MOL
REMARK 927      BINDING AFFINITY PREDICTED BY RF-SCORE:    0.00 PKD
ROOT
HETATM    1  C   UNL     1     -10.826  16.648  68.981  1.00  0.00    -0.314 C  
HETATM    2  N   UNL     1     -10.417  15.273  68.869  1.00  0.00    -0.232 N  
HETATM    3  C   UNL     1     -11.300  14.291  68.482  1.00  0.00    -0.282 C  
HETATM    4  H   UNL     1      -9.452  15.021  69.082  1.00  0.00     0.000 HD 
HETATM    5  O   UNL     1     -12.458  14.518  68.147  1.00  0.00    -0.052 OA 
ENDROOT
BRANCH   3   6
HETATM    6  C   UNL     1     -10.801  12.892  68.493  1.00  0.00    -0.283 A  
HETATM    7  C   UNL     1     -11.717  11.839  68.443  1.00  0.00    -0.389 A  
HETATM    8  C   UNL     1     -11.284  10.512  68.600  1.00  0.00    -0.328 A  
HETATM    9  C   UNL     1      -9.928  10.201  68.797  1.00  0.00    -0.179 A  
HETATM   10  C   UNL     1      -9.022  11.259  68.716  1.00  0.00    -0.116 A  
HETATM   11  F   UNL     1      -8.516  13.544  68.630  1.00  0.00    -0.159 F  
HETATM   12  C   UNL     1      -9.453  12.581  68.602  1.00  0.00    -0.003 A  
BRANCH   9  13
HETATM   13  N   UNL     1      -9.503   8.876  69.133  1.00  0.00    -0.156 N  
HETATM   14  N   UNL     1      -9.082   6.685  68.547  1.00  0.00    -0.129 N  
HETATM   15  S   UNL     1      -7.454   8.563  67.325  1.00  0.00    -0.093 S  
HETATM   16  C   UNL     1      -8.736   8.026  68.274  1.00  0.00    -0.130 C  
HETATM   17  C   UNL     1      -9.626   6.585  69.819  1.00  0.00    -0.152 C  
HETATM   18  C   UNL     1      -9.737   8.500  71.696  1.00  0.00    -0.322 C  
HETATM   19  C   UNL     1     -11.218   8.901  71.887  1.00  0.00    -0.447 C  
HETATM   20  O   UNL     1      -9.750   5.573  70.503  1.00  0.00    -0.168 OA 
HETATM   21  C   UNL     1     -10.063   8.040  70.256  1.00  0.00    -0.192 C  
HETATM   22  C   UNL     1     -11.569   8.110  70.622  1.00  0.00    -0.199 C  
BRANCH  14  23
HETATM   23  C   UNL     1      -8.989   5.569  67.635  1.00  0.00    -0.108 A  
HETATM   24  C   UNL     1      -9.916   5.350  66.602  1.00  0.00    -0.220 A  
HETATM   25  C   UNL     1      -8.659   3.482  65.779  1.00  0.00    -0.115 A  
HETATM   26  C   UNL     1     -10.754   4.098  64.553  1.00  0.00    -0.135 C  
HETATM   27  F   UNL     1     -10.175   4.189  63.324  1.00  0.00    -0.170 F  
HETATM   28  F   UNL     1     -11.760   5.011  64.552  1.00  0.00     0.447 F  
HETATM   29  F   UNL     1     -11.353   2.883  64.609  1.00  0.00     0.570 F  
HETATM   30  C   UNL     1      -8.413   2.370  64.897  1.00  0.00    -0.092 C  
HETATM   31  N   UNL     1      -7.720   3.670  66.734  1.00  0.00    -0.080 NA 
HETATM   32  C   UNL     1      -9.764   4.306  65.661  1.00  0.00    -0.207 A  
HETATM   33  N   UNL     1      -8.246   1.479  64.169  1.00  0.00    -0.068 NA 
HETATM   34  C   UNL     1      -7.898   4.697  67.608  1.00  0.00    -0.089 A  
ENDBRANCH  14  23
ENDBRANCH   9  13
ENDBRANCH   3   6
TORSDOF 3
ENDMDL
MODEL      119
REMARK 921   NORMALIZED FREE ENERGY PREDICTED BY IDOCK:   -3.11 KCAL/MOL
REMARK 922        TOTAL FREE ENERGY PREDICTED BY IDOCK:   -4.77 KCAL/MOL
REMARK 923 INTER-LIGAND FREE ENERGY PREDICTED BY IDOCK:   -3.99 KCAL/MOL
REMARK 924 INTRA-LIGAND FREE ENERGY PREDICTED BY IDOCK:   -0.78 KCAL/MOL
REMARK 927      BINDING AFFINITY PREDICTED BY RF-SCORE:    0.00 PKD
ROOT
HETATM    1  C   UNL     1     -10.055   4.133  65.823  1.00  0.00    -0.164 C  
HETATM    2  N   UNL     1      -9.509   5.371  66.313  1.00  0.00    -0.153 N  
HETATM    3  C   UNL     1     -10.180   6.132  67.245  1.00  0.00    -0.191 C  
HETATM    4  H   UNL     1      -8.607   5.691  65.963  1.00  0.00     0.000 HD 
HETATM    5  O   UNL     1     -11.237   5.788  67.762  1.00  0.00    -0.041 OA 
ENDROOT
BRANCH   3   6
HETATM    6  C   UNL     1      -9.575   7.438  67.610  1.00  0.00    -0.164 A  
HETATM    7  C   UNL     1      -9.489   7.800  68.956  1.00  0.00    -0.150 A  
HETATM    8  C   UNL     1      -9.058   9.085  69.322  1.00  0.00    -0.145 A  
HETATM    9  C   UNL     1      -8.690  10.038  68.356  1.00  0.00    -0.117 A  
HETATM   10  C   UNL     1      -8.664   9.609  67.028  1.00  0.00    -0.135 A  
HETATM   11  F   UNL     1      -9.161   8.055  65.349  1.00  0.00    -0.159 F  
HETATM   12  C   UNL     1      -9.131   8.347  66.660  1.00  0.00    -0.164 A  
BRANCH   9  13
HETATM   13  N   UNL     1      -8.421  11.399  68.709  1.00  0.00    -0.129 N  
HETATM   14  N   UNL     1      -8.648  13.662  68.329  1.00  0.00    -0.169 N  
HETATM   15  S   UNL     1     -10.992  12.338  68.977  1.00  0.00    -0.161 S  
HETATM   16  C   UNL     1      -9.360  12.472  68.588  1.00  0.00     0.012 C  
HETATM   17  C   UNL     1      -7.335  13.532  68.757  1.00  0.00    -0.086 C  
HETATM   18  C   UNL     1      -6.281  11.518  70.183  1.00  0.00    -0.132 C  
HETATM   19  C   UNL     1      -5.292  10.751  69.273  1.00  0.00    -0.041 C  
HETATM   20  O   UNL     1      -6.528  14.430  68.978  1.00  0.00    -0.088 OA 
HETATM   21  C   UNL     1      -7.049  11.987  68.924  1.00  0.00    -0.104 C  
HETATM   22  C   UNL     1      -5.843  11.521  68.067  1.00  0.00    -0.043 C  
BRANCH  14  23
HETATM   23  C   UNL     1      -9.145  14.830  67.639  1.00  0.00    -0.185 A  
HETATM   24  C   UNL     1      -9.975  14.751  66.508  1.00  0.00    -0.283 A  
HETATM   25  C   UNL     1     -10.227  17.134  66.443  1.00  0.00    -0.328 A  
HETATM   26  C   UNL     1     -11.426  15.796  64.700  1.00  0.00    -0.282 C  
HETATM   27  F   UNL     1     -12.656  16.331  64.935  1.00  0.00     0.778 F  
HETATM   28  F   UNL     1     -11.654  14.516  64.307  1.00  0.00    -0.371 F  
HETATM   29  F   UNL     1     -10.927  16.437  63.613  1.00  0.00     0.440 F  
HETATM   30  C   UNL     1     -10.707  18.375  65.892  1.00  0.00    -0.178 C  
HETATM   31  N   UNL     1      -9.461  17.263  67.550  1.00  0.00    -0.243 NA 
HETATM   32  C   UNL     1     -10.527  15.900  65.896  1.00  0.00    -0.373 A  
HETATM   33  N   UNL     1     -11.111  19.358  65.418  1.00  0.00    -0.261 NA 
HETATM   34  C   UNL     1      -8.964  16.130  68.116  1.00  0.00    -0.185 A  
ENDBRANCH  14  23
ENDBRANCH   9  13
ENDBRANCH   3   6
TORSDOF 3
ENDMDL
MODEL      120
REMARK 921   NORMALIZED FREE ENERGY PREDICTED BY IDOCK:   -2.85 KCAL/MOL
REMARK 922        TOTAL FREE ENERGY PREDICTED BY IDOCK:   -4.46 KCAL/MOL
REMARK 923 INTER-LIGAND FREE ENERGY PREDICTED BY IDOCK:   -3.95 KCAL/MOL
REMARK 924 INTRA-LIGAND FREE ENERGY PREDICTED BY IDOCK:   -0.51 KCAL/MOL
REMARK 927      BINDING AFFINITY PREDICTED BY RF-SCORE:    0.00 PKD
ROOT
HETATM    1  C   UNL     1      -5.732   5.420  74.257  1.00  0.00    -0.043 C  
HETATM    2  N   UNL     1      -6.127   6.062  73.031  1.00  0.00    -0.052 N  
HETATM    3  C   UNL     1      -5.822   7.381  72.780  1.00  0.00    -0.040 C  
HETATM    4  H   UNL     1      -6.644   5.527  72.332  1.00  0.00     0.000 HD 
HETATM    5  O   UNL     1      -5.151   8.074  73.537  1.00  0.00    -0.041 OA 
ENDROOT
BRANCH   3   6
HETATM    6  C   UNL     1      -6.361   7.972  71.529  1.00  0.00    -0.040 A  
HETATM    7  C   UNL     1      -6.862   9.275  71.548  1.00  0.00     0.054 A  
HETATM    8  C   UNL     1      -7.510   9.805  70.421  1.00  0.00    -0.161 A  
HETATM    9  C   UNL     1      -7.662   9.055  69.242  1.00  0.00    -0.090 A  
HETATM   10  C   UNL     1      -7.041   7.806  69.207  1.00  0.00    -0.076 A  
HETATM   11  F   UNL     1      -5.948   6.013  70.242  1.00  0.00    -0.021 F  
HETATM   12  C   UNL     1      -6.434   7.261  70.339  1.00  0.00    -0.042 A  
BRANCH   9  13
HETATM   13  N   UNL     1      -8.470   9.520  68.156  1.00  0.00    -0.119 N  
HETATM   14  N   UNL     1      -9.450  11.232  66.961  1.00  0.00    -0.170 N  
HETATM   15  S   UNL     1      -6.682  11.204  66.919  1.00  0.00    -0.138 S  
HETATM   16  C   UNL     1      -8.216  10.711  67.404  1.00  0.00    -0.115 C  
HETATM   17  C   UNL     1     -10.410  10.230  66.945  1.00  0.00    -0.239 C  
HETATM   18  C   UNL     1     -10.026   7.603  67.334  1.00  0.00    -0.252 C  
HETATM   19  C   UNL     1     -10.692   7.213  68.675  1.00  0.00    -0.198 C  
HETATM   20  O   UNL     1     -11.480  10.228  66.343  1.00  0.00     0.329 OA 
HETATM   21  C   UNL     1      -9.872   9.053  67.852  1.00  0.00    -0.171 C  
HETATM   22  C   UNL     1     -10.858   8.702  68.997  1.00  0.00    -0.043 C  
BRANCH  14  23
HETATM   23  C   UNL     1      -9.741  12.613  66.651  1.00  0.00    -0.249 A  
HETATM   24  C   UNL     1     -10.688  12.994  65.686  1.00  0.00    -0.293 A  
HETATM   25  C   UNL     1     -10.393  15.313  66.216  1.00  0.00    -0.294 A  
HETATM   26  C   UNL     1     -12.055  14.735  64.435  1.00  0.00    -0.440 C  
HETATM   27  F   UNL     1     -13.095  15.418  64.988  1.00  0.00     0.290 F  
HETATM   28  F   UNL     1     -12.613  13.671  63.801  1.00  0.00    -0.399 F  
HETATM   29  F   UNL     1     -11.548  15.528  63.458  1.00  0.00     0.246 F  
HETATM   30  C   UNL     1     -10.636  16.724  66.053  1.00  0.00    -0.228 C  
HETATM   31  N   UNL     1      -9.499  14.998  67.180  1.00  0.00    -0.210 NA 
HETATM   32  C   UNL     1     -11.028  14.347  65.456  1.00  0.00    -0.330 A  
HETATM   33  N   UNL     1     -10.855  17.855  65.892  1.00  0.00    -0.156 NA 
HETATM   34  C   UNL     1      -9.214  13.682  67.379  1.00  0.00    -0.222 A  
ENDBRANCH  14  23
ENDBRANCH   9  13
ENDBRANCH   3   6
TORSDOF 3
ENDMDL
MODEL      121
REMARK 921   NORMALIZED FREE ENERGY PREDICTED BY IDOCK:   -2.79 KCAL/MOL
REMARK 922        TOTAL FREE ENERGY PREDICTED BY IDOCK:   -4.40 KCAL/MOL
REMARK 923 INTER-LIGAND FREE ENERGY PREDICTED BY IDOCK:   -3.09 KCAL/MOL
REMARK 924 INTRA-LIGAND FREE ENERGY PREDICTED BY IDOCK:   -1.31 KCAL/MOL
REMARK 927      BINDING AFFINITY PREDICTED BY RF-SCORE:    0.00 PKD
ROOT
HETATM    1  C   UNL     1     -14.056   6.057  72.883  1.00  0.00     1.792 C  
HETATM    2  N   UNL     1     -13.106   6.522  71.907  1.00  0.00    -0.368 N  
HETATM    3  C   UNL     1     -12.422   7.705  72.077  1.00  0.00    -0.270 C  
HETATM    4  H   UNL     1     -12.935   5.963  71.072  1.00  0.00     0.000 HD 
HETATM    5  O   UNL     1     -12.522   8.403  73.081  1.00  0.00    -0.095 OA 
ENDROOT
BRANCH   3   6
HETATM    6  C   UNL     1     -11.539   8.139  70.966  1.00  0.00    -0.301 A  
HETATM    7  C   UNL     1     -10.497   7.306  70.555  1.00  0.00    -0.229 A  
HETATM    8  C   UNL     1      -9.559   7.752  69.610  1.00  0.00    -0.163 A  
HETATM    9  C   UNL     1      -9.644   9.035  69.041  1.00  0.00    -0.160 A  
HETATM   10  C   UNL     1     -10.764   9.797  69.374  1.00  0.00    -0.250 A  
HETATM   11  F   UNL     1     -12.669  10.213  70.671  1.00  0.00    -0.351 F  
HETATM   12  C   UNL     1     -11.674   9.372  70.343  1.00  0.00    -0.144 A  
BRANCH   9  13
HETATM   13  N   UNL     1      -8.599   9.560  68.216  1.00  0.00    -0.120 N  
HETATM   14  N   UNL     1      -7.356  11.334  67.423  1.00  0.00    -0.108 N  
HETATM   15  S   UNL     1      -7.066  10.810  70.127  1.00  0.00     0.275 S  
HETATM   16  C   UNL     1      -7.728  10.632  68.589  1.00  0.00    -0.110 C  
HETATM   17  C   UNL     1      -7.513  10.521  66.309  1.00  0.00    -0.133 C  
HETATM   18  C   UNL     1      -8.090   7.900  66.278  1.00  0.00    -0.110 C  
HETATM   19  C   UNL     1      -9.514   7.728  65.698  1.00  0.00     0.294 C  
HETATM   20  O   UNL     1      -7.014  10.669  65.198  1.00  0.00    -0.066 OA 
HETATM   21  C   UNL     1      -8.465   9.332  66.731  1.00  0.00    -0.127 C  
HETATM   22  C   UNL     1      -9.721   9.242  65.825  1.00  0.00    -0.339 C  
BRANCH  14  23
HETATM   23  C   UNL     1      -6.957  12.720  67.342  1.00  0.00    -0.129 A  
HETATM   24  C   UNL     1      -7.879  13.772  67.214  1.00  0.00    -0.115 A  
HETATM   25  C   UNL     1      -6.135  15.409  67.368  1.00  0.00     0.033 A  
HETATM   26  C   UNL     1      -8.482  16.240  67.107  1.00  0.00    -0.187 C  
HETATM   27  F   UNL     1      -8.456  17.071  68.186  1.00  0.00    -0.201 F  
HETATM   28  F   UNL     1      -9.765  15.803  67.013  1.00  0.00    -0.219 F  
HETATM   29  F   UNL     1      -8.272  17.018  66.016  1.00  0.00    -0.311 F  
HETATM   30  C   UNL     1      -5.608  16.750  67.366  1.00  0.00    -0.153 C  
HETATM   31  N   UNL     1      -5.210  14.435  67.527  1.00  0.00    -0.334 NA 
HETATM   32  C   UNL     1      -7.482  15.129  67.226  1.00  0.00    -0.228 A  
HETATM   33  N   UNL     1      -5.218  17.846  67.358  1.00  0.00    -0.133 NA 
HETATM   34  C   UNL     1      -5.639  13.144  67.526  1.00  0.00    -0.031 A  
ENDBRANCH  14  23
ENDBRANCH   9  13
ENDBRANCH   3   6
TORSDOF 3
ENDMDL
MODEL      122
REMARK 921   NORMALIZED FREE ENERGY PREDICTED BY IDOCK:   -2.70 KCAL/MOL
REMARK 922        TOTAL FREE ENERGY PREDICTED BY IDOCK:   -4.30 KCAL/MOL
REMARK 923 INTER-LIGAND FREE ENERGY PREDICTED BY IDOCK:   -4.84 KCAL/MOL
REMARK 924 INTRA-LIGAND FREE ENERGY PREDICTED BY IDOCK:    0.55 KCAL/MOL
REMARK 927      BINDING AFFINITY PREDICTED BY RF-SCORE:    0.00 PKD
ROOT
HETATM    1  C   UNL     1     -12.296  14.805  64.092  1.00  0.00    -0.231 C  
HETATM    2  N   UNL     1     -11.967  13.469  64.512  1.00  0.00    -0.392 N  
HETATM    3  C   UNL     1     -10.872  13.215  65.307  1.00  0.00    -0.297 C  
HETATM    4  H   UNL     1     -12.557  12.693  64.213  1.00  0.00     0.000 HD 
HETATM    5  O   UNL     1     -10.149  14.096  65.761  1.00  0.00    -0.310 OA 
ENDROOT
BRANCH   3   6
HETATM    6  C   UNL     1     -10.567  11.792  65.602  1.00  0.00    -0.314 A  
HETATM    7  C   UNL     1     -11.076  11.210  66.765  1.00  0.00    -0.280 A  
HETATM    8  C   UNL     1     -10.685   9.915  67.143  1.00  0.00    -0.276 A  
HETATM    9  C   UNL     1      -9.788   9.163  66.364  1.00  0.00    -0.280 A  
HETATM   10  C   UNL     1      -9.396   9.718  65.145  1.00  0.00    -0.322 A  
HETATM   11  F   UNL     1      -9.247  11.507  63.642  1.00  0.00    -0.193 F  
HETATM   12  C   UNL     1      -9.750  11.020  64.789  1.00  0.00    -0.262 A  
BRANCH   9  13
HETATM   13  N   UNL     1      -9.251   7.921  66.828  1.00  0.00    -0.156 N  
HETATM   14  N   UNL     1      -8.239   6.647  68.464  1.00  0.00    -0.118 N  
HETATM   15  S   UNL     1     -10.782   7.553  69.083  1.00  0.00    -0.096 S  
HETATM   16  C   UNL     1      -9.376   7.429  68.167  1.00  0.00    -0.135 C  
HETATM   17  C   UNL     1      -7.650   6.200  67.290  1.00  0.00    -0.093 C  
HETATM   18  C   UNL     1      -8.619   6.422  64.798  1.00  0.00     0.128 C  
HETATM   19  C   UNL     1      -7.716   7.406  64.016  1.00  0.00    -0.121 C  
HETATM   20  O   UNL     1      -6.858   5.272  67.157  1.00  0.00    -0.057 OA 
HETATM   21  C   UNL     1      -8.196   7.109  66.118  1.00  0.00    -0.128 C  
HETATM   22  C   UNL     1      -7.050   7.805  65.338  1.00  0.00    -0.059 C  
BRANCH  14  23
HETATM   23  C   UNL     1      -7.681   6.403  69.774  1.00  0.00    -0.109 A  
HETATM   24  C   UNL     1      -8.168   5.405  70.634  1.00  0.00    -0.114 A  
HETATM   25  C   UNL     1      -6.443   5.853  72.238  1.00  0.00    -0.058 A  
HETATM   26  C   UNL     1      -8.078   4.033  72.775  1.00  0.00    -0.091 C  
HETATM   27  F   UNL     1      -7.143   3.073  73.017  1.00  0.00    -0.037 F  
HETATM   28  F   UNL     1      -9.151   3.377  72.261  1.00  0.00    -0.107 F  
HETATM   29  F   UNL     1      -8.472   4.503  73.984  1.00  0.00    -0.100 F  
HETATM   30  C   UNL     1      -5.753   5.668  73.489  1.00  0.00    -0.032 C  
HETATM   31  N   UNL     1      -5.915   6.802  71.432  1.00  0.00    -0.036 NA 
HETATM   32  C   UNL     1      -7.556   5.115  71.876  1.00  0.00    -0.096 A  
HETATM   33  N   UNL     1      -5.222   5.494  74.509  1.00  0.00    -0.026 NA 
HETATM   34  C   UNL     1      -6.526   7.035  70.239  1.00  0.00    -0.043 A  
ENDBRANCH  14  23
ENDBRANCH   9  13
ENDBRANCH   3   6
TORSDOF 3
ENDMDL
MODEL      123
REMARK 921   NORMALIZED FREE ENERGY PREDICTED BY IDOCK:   -2.42 KCAL/MOL
REMARK 922        TOTAL FREE ENERGY PREDICTED BY IDOCK:   -3.96 KCAL/MOL
REMARK 923 INTER-LIGAND FREE ENERGY PREDICTED BY IDOCK:   -3.67 KCAL/MOL
REMARK 924 INTRA-LIGAND FREE ENERGY PREDICTED BY IDOCK:   -0.29 KCAL/MOL
REMARK 927      BINDING AFFINITY PREDICTED BY RF-SCORE:    0.00 PKD
ROOT
HETATM    1  C   UNL     1      -7.723  19.328  68.800  1.00  0.00    -0.362 C  
HETATM    2  N   UNL     1      -8.245  18.045  68.407  1.00  0.00    -0.292 N  
HETATM    3  C   UNL     1      -7.806  16.881  68.996  1.00  0.00    -0.184 C  
HETATM    4  H   UNL     1      -8.955  17.999  67.677  1.00  0.00     0.000 HD 
HETATM    5  O   UNL     1      -7.004  16.854  69.923  1.00  0.00     0.082 OA 
ENDROOT
BRANCH   3   6
HETATM    6  C   UNL     1      -8.338  15.607  68.449  1.00  0.00    -0.162 A  
HETATM    7  C   UNL     1      -9.683  15.287  68.645  1.00  0.00    -0.212 A  
HETATM    8  C   UNL     1     -10.177  14.028  68.269  1.00  0.00    -0.249 A  
HETATM    9  C   UNL     1      -9.347  13.060  67.677  1.00  0.00    -0.202 A  
HETATM   10  C   UNL     1      -8.041  13.451  67.377  1.00  0.00    -0.178 A  
HETATM   11  F   UNL     1      -6.241  14.939  67.542  1.00  0.00    -0.163 F  
HETATM   12  C   UNL     1      -7.537  14.686  67.787  1.00  0.00    -0.160 A  
BRANCH   9  13
HETATM   13  N   UNL     1      -9.796  11.720  67.454  1.00  0.00    -0.178 N  
HETATM   14  N   UNL     1      -9.595   9.445  67.781  1.00  0.00    -0.132 N  
HETATM   15  S   UNL     1     -10.191  10.912  70.053  1.00  0.00     0.652 S  
HETATM   16  C   UNL     1      -9.778  10.681  68.438  1.00  0.00    -0.166 C  
HETATM   17  C   UNL     1      -9.984   9.552  66.453  1.00  0.00    -0.269 C  
HETATM   18  C   UNL     1     -11.229  11.623  65.285  1.00  0.00    -0.263 C  
HETATM   19  C   UNL     1     -10.243  12.277  64.288  1.00  0.00    -0.356 C  
HETATM   20  O   UNL     1     -10.256   8.641  65.677  1.00  0.00     0.339 OA 
HETATM   21  C   UNL     1     -10.027  11.093  66.102  1.00  0.00    -0.229 C  
HETATM   22  C   UNL     1      -9.112  11.442  64.899  1.00  0.00     0.002 C  
BRANCH  14  23
HETATM   23  C   UNL     1      -9.008   8.251  68.340  1.00  0.00    -0.136 A  
HETATM   24  C   UNL     1      -8.250   7.346  67.579  1.00  0.00    -0.113 A  
HETATM   25  C   UNL     1      -7.739   6.036  69.520  1.00  0.00    -0.098 A  
HETATM   26  C   UNL     1      -6.785   5.282  67.331  1.00  0.00    -0.055 C  
HETATM   27  F   UNL     1      -5.493   5.218  67.757  1.00  0.00    -0.009 F  
HETATM   28  F   UNL     1      -6.720   5.628  66.019  1.00  0.00    -0.049 F  
HETATM   29  F   UNL     1      -7.264   4.013  67.359  1.00  0.00    -0.062 F  
HETATM   30  C   UNL     1      -7.152   4.919  70.216  1.00  0.00    -0.049 C  
HETATM   31  N   UNL     1      -8.429   6.895  70.304  1.00  0.00    -0.137 NA 
HETATM   32  C   UNL     1      -7.605   6.228  68.157  1.00  0.00    -0.102 A  
HETATM   33  N   UNL     1      -6.666   4.004  70.745  1.00  0.00    -0.031 NA 
HETATM   34  C   UNL     1      -9.019   7.966  69.708  1.00  0.00    -0.146 A  
ENDBRANCH  14  23
ENDBRANCH   9  13
ENDBRANCH   3   6
TORSDOF 3
ENDMDL
MODEL      124
REMARK 921   NORMALIZED FREE ENERGY PREDICTED BY IDOCK:   -2.32 KCAL/MOL
REMARK 922        TOTAL FREE ENERGY PREDICTED BY IDOCK:   -3.85 KCAL/MOL
REMARK 923 INTER-LIGAND FREE ENERGY PREDICTED BY IDOCK:   -4.27 KCAL/MOL
REMARK 924 INTRA-LIGAND FREE ENERGY PREDICTED BY IDOCK:    0.42 KCAL/MOL
REMARK 927      BINDING AFFINITY PREDICTED BY RF-SCORE:    0.00 PKD
ROOT
HETATM    1  C   UNL     1     -10.219  19.029  69.185  1.00  0.00    -0.050 C  
HETATM    2  N   UNL     1      -9.825  17.682  68.863  1.00  0.00    -0.315 N  
HETATM    3  C   UNL     1     -10.438  16.596  69.446  1.00  0.00    -0.320 C  
HETATM    4  H   UNL     1      -9.075  17.530  68.189  1.00  0.00     0.000 HD 
HETATM    5  O   UNL     1     -11.388  16.690  70.215  1.00  0.00    -0.190 OA 
ENDROOT
BRANCH   3   6
HETATM    6  C   UNL     1      -9.890  15.256  69.117  1.00  0.00    -0.239 A  
HETATM    7  C   UNL     1      -8.547  14.982  69.384  1.00  0.00    -0.121 A  
HETATM    8  C   UNL     1      -7.966  13.779  68.952  1.00  0.00     0.036 A  
HETATM    9  C   UNL     1      -8.712  12.813  68.254  1.00  0.00    -0.168 A  
HETATM   10  C   UNL     1     -10.079  13.056  68.113  1.00  0.00    -0.237 A  
HETATM   11  F   UNL     1     -11.953  14.454  68.242  1.00  0.00    -0.334 F  
HETATM   12  C   UNL     1     -10.649  14.268  68.505  1.00  0.00    -0.257 A  
BRANCH   9  13
HETATM   13  N   UNL     1      -8.090  11.670  67.658  1.00  0.00    -0.133 N  
HETATM   14  N   UNL     1      -7.900   9.386  67.395  1.00  0.00    -0.102 N  
HETATM   15  S   UNL     1     -10.286  10.478  66.510  1.00  0.00    -0.213 S  
HETATM   16  C   UNL     1      -8.781  10.481  67.263  1.00  0.00    -0.126 C  
HETATM   17  C   UNL     1      -6.585   9.830  67.368  1.00  0.00    -0.070 C  
HETATM   18  C   UNL     1      -5.715  12.305  66.806  1.00  0.00     0.232 C  
HETATM   19  C   UNL     1      -5.125  12.913  68.101  1.00  0.00    -0.081 C  
HETATM   20  O   UNL     1      -5.576   9.166  67.148  1.00  0.00    -0.040 OA 
HETATM   21  C   UNL     1      -6.610  11.381  67.667  1.00  0.00    -0.074 C  
HETATM   22  C   UNL     1      -5.736  11.751  68.894  1.00  0.00    -0.050 C  
BRANCH  14  23
HETATM   23  C   UNL     1      -8.267   8.008  67.622  1.00  0.00    -0.124 A  
HETATM   24  C   UNL     1      -8.541   7.494  68.900  1.00  0.00    -0.129 A  
HETATM   25  C   UNL     1      -9.150   5.363  67.985  1.00  0.00    -0.109 A  
HETATM   26  C   UNL     1      -9.292   5.639  70.470  1.00  0.00    -0.161 C  
HETATM   27  F   UNL     1     -10.584   5.222  70.582  1.00  0.00    -0.311 F  
HETATM   28  F   UNL     1      -9.119   6.560  71.453  1.00  0.00    -0.145 F  
HETATM   29  F   UNL     1      -8.514   4.581  70.808  1.00  0.00    -0.084 F  
HETATM   30  C   UNL     1      -9.570   3.988  68.065  1.00  0.00    -0.136 C  
HETATM   31  N   UNL     1      -8.931   5.819  66.731  1.00  0.00    -0.116 NA 
HETATM   32  C   UNL     1      -8.987   6.167  69.100  1.00  0.00    -0.126 A  
HETATM   33  N   UNL     1      -9.910   2.879  68.167  1.00  0.00     0.147 NA 
HETATM   34  C   UNL     1      -8.520   7.108  66.585  1.00  0.00    -0.121 A  
ENDBRANCH  14  23
ENDBRANCH   9  13
ENDBRANCH   3   6
TORSDOF 3
ENDMDL
MODEL      125
REMARK 921   NORMALIZED FREE ENERGY PREDICTED BY IDOCK:   -2.23 KCAL/MOL
REMARK 922        TOTAL FREE ENERGY PREDICTED BY IDOCK:   -3.74 KCAL/MOL
REMARK 923 INTER-LIGAND FREE ENERGY PREDICTED BY IDOCK:   -3.18 KCAL/MOL
REMARK 924 INTRA-LIGAND FREE ENERGY PREDICTED BY IDOCK:   -0.55 KCAL/MOL
REMARK 927      BINDING AFFINITY PREDICTED BY RF-SCORE:    0.00 PKD
ROOT
HETATM    1  C   UNL     1      -9.129   4.956  68.041  1.00  0.00    -0.114 C  
HETATM    2  N   UNL     1      -9.347   6.238  67.424  1.00  0.00    -0.115 N  
HETATM    3  C   UNL     1      -9.952   7.270  68.106  1.00  0.00    -0.159 C  
HETATM    4  H   UNL     1      -9.046   6.385  66.460  1.00  0.00     0.000 HD 
HETATM    5  O   UNL     1     -10.285   7.196  69.284  1.00  0.00    -0.179 OA 
ENDROOT
BRANCH   3   6
HETATM    6  C   UNL     1     -10.216   8.517  67.346  1.00  0.00    -0.329 A  
HETATM    7  C   UNL     1      -9.728   8.641  66.043  1.00  0.00    -0.238 A  
HETATM    8  C   UNL     1      -9.835   9.861  65.356  1.00  0.00    -0.384 A  
HETATM    9  C   UNL     1     -10.442  10.983  65.944  1.00  0.00    -0.240 A  
HETATM   10  C   UNL     1     -11.033  10.796  67.194  1.00  0.00    -0.324 A  
HETATM   11  F   UNL     1     -11.410   9.539  69.133  1.00  0.00    -0.181 F  
HETATM   12  C   UNL     1     -10.892   9.598  67.895  1.00  0.00    -0.215 A  
BRANCH   9  13
HETATM   13  N   UNL     1     -10.398  12.272  65.323  1.00  0.00    -0.275 N  
HETATM   14  N   UNL     1     -10.358  14.575  65.458  1.00  0.00    -0.336 N  
HETATM   15  S   UNL     1      -8.139  13.296  66.511  1.00  0.00     0.882 S  
HETATM   16  C   UNL     1      -9.676  13.397  65.833  1.00  0.00    -0.182 C  
HETATM   17  C   UNL     1     -11.163  14.325  64.356  1.00  0.00    -0.249 C  
HETATM   18  C   UNL     1     -11.237  12.094  62.867  1.00  0.00     0.246 C  
HETATM   19  C   UNL     1     -12.600  11.402  63.104  1.00  0.00     0.384 C  
HETATM   20  O   UNL     1     -11.647  15.146  63.581  1.00  0.00     0.168 OA 
HETATM   21  C   UNL     1     -11.350  12.759  64.259  1.00  0.00    -0.367 C  
HETATM   22  C   UNL     1     -12.846  12.348  64.285  1.00  0.00    -0.356 C  
BRANCH  14  23
HETATM   23  C   UNL     1     -10.325  15.845  66.144  1.00  0.00    -0.328 A  
HETATM   24  C   UNL     1     -10.175  15.954  67.537  1.00  0.00    -0.269 A  
HETATM   25  C   UNL     1     -10.091  18.347  67.407  1.00  0.00    -0.353 A  
HETATM   26  C   UNL     1      -9.876  17.302  69.673  1.00  0.00     0.287 C  
HETATM   27  F   UNL     1      -8.719  17.936  70.009  1.00  0.00     0.941 F  
HETATM   28  F   UNL     1      -9.822  16.093  70.289  1.00  0.00    -0.067 F  
HETATM   29  F   UNL     1     -10.880  17.985  70.276  1.00  0.00     0.416 F  
HETATM   30  C   UNL     1     -10.007  19.675  67.958  1.00  0.00    -0.427 C  
HETATM   31  N   UNL     1     -10.201  18.296  66.060  1.00  0.00    -0.554 NA 
HETATM   32  C   UNL     1     -10.055  17.204  68.187  1.00  0.00    -0.311 A  
HETATM   33  N   UNL     1      -9.938  20.733  68.437  1.00  0.00     0.180 NA 
HETATM   34  C   UNL     1     -10.297  17.071  65.475  1.00  0.00    -0.143 A  
ENDBRANCH  14  23
ENDBRANCH   9  13
ENDBRANCH   3   6
TORSDOF 3
ENDMDL
MODEL      126
REMARK 921   NORMALIZED FREE ENERGY PREDICTED BY IDOCK:   -1.34 KCAL/MOL
REMARK 922        TOTAL FREE ENERGY PREDICTED BY IDOCK:   -2.70 KCAL/MOL
REMARK 923 INTER-LIGAND FREE ENERGY PREDICTED BY IDOCK:   -2.62 KCAL/MOL
REMARK 924 INTRA-LIGAND FREE ENERGY PREDICTED BY IDOCK:   -0.08 KCAL/MOL
REMARK 927      BINDING AFFINITY PREDICTED BY RF-SCORE:    0.00 PKD
ROOT
HETATM    1  C   UNL     1      -5.300   2.821  69.172  1.00  0.00    -0.013 C  
HETATM    2  N   UNL     1      -6.538   3.489  69.478  1.00  0.00    -0.033 N  
HETATM    3  C   UNL     1      -6.916   4.637  68.819  1.00  0.00    -0.052 C  
HETATM    4  H   UNL     1      -7.148   3.103  70.199  1.00  0.00     0.000 HD 
HETATM    5  O   UNL     1      -6.273   5.130  67.898  1.00  0.00    -0.032 OA 
ENDROOT
BRANCH   3   6
HETATM    6  C   UNL     1      -8.163   5.299  69.279  1.00  0.00    -0.092 A  
HETATM    7  C   UNL     1      -9.276   5.323  68.435  1.00  0.00    -0.135 A  
HETATM    8  C   UNL     1     -10.416   6.066  68.782  1.00  0.00    -0.307 A  
HETATM    9  C   UNL     1     -10.481   6.792  69.983  1.00  0.00    -0.210 A  
HETATM   10  C   UNL     1      -9.409   6.648  70.864  1.00  0.00    -0.159 A  
HETATM   11  F   UNL     1      -7.236   5.940  71.375  1.00  0.00    -0.069 F  
HETATM   12  C   UNL     1      -8.258   5.945  70.504  1.00  0.00    -0.119 A  
BRANCH   9  13
HETATM   13  N   UNL     1     -11.562   7.688  70.261  1.00  0.00    -0.134 N  
HETATM   14  N   UNL     1     -12.357   9.798  70.748  1.00  0.00    -0.267 N  
HETATM   15  S   UNL     1     -11.177   9.532  68.257  1.00  0.00     0.267 S  
HETATM   16  C   UNL     1     -11.636   9.041  69.800  1.00  0.00     0.278 C  
HETATM   17  C   UNL     1     -13.156   8.962  71.515  1.00  0.00    -0.329 C  
HETATM   18  C   UNL     1     -13.617   6.347  71.125  1.00  0.00     0.880 C  
HETATM   19  C   UNL     1     -12.952   5.564  72.282  1.00  0.00     1.056 C  
HETATM   20  O   UNL     1     -14.123   9.275  72.202  1.00  0.00    -0.375 OA 
HETATM   21  C   UNL     1     -12.600   7.493  71.338  1.00  0.00    -0.351 C  
HETATM   22  C   UNL     1     -12.222   6.847  72.697  1.00  0.00     0.184 C  
BRANCH  14  23
HETATM   23  C   UNL     1     -12.240  11.218  70.985  1.00  0.00    -0.311 A  
HETATM   24  C   UNL     1     -11.734  12.111  70.026  1.00  0.00    -0.330 A  
HETATM   25  C   UNL     1     -12.200  13.994  71.435  1.00  0.00    -0.264 A  
HETATM   26  C   UNL     1     -11.181  14.450  69.194  1.00  0.00    -0.272 C  
HETATM   27  F   UNL     1     -12.120  15.350  68.794  1.00  0.00    -0.340 F  
HETATM   28  F   UNL     1     -10.770  13.823  68.061  1.00  0.00    -0.234 F  
HETATM   29  F   UNL     1     -10.116  15.170  69.629  1.00  0.00    -0.217 F  
HETATM   30  C   UNL     1     -12.200  15.394  71.774  1.00  0.00    -0.379 C  
HETATM   31  N   UNL     1     -12.728  13.181  72.378  1.00  0.00    -0.027 NA 
HETATM   32  C   UNL     1     -11.708  13.509  70.236  1.00  0.00    -0.244 A  
HETATM   33  N   UNL     1     -12.183  16.532  72.015  1.00  0.00    -0.182 NA 
HETATM   34  C   UNL     1     -12.748  11.843  72.126  1.00  0.00     0.191 A  
ENDBRANCH  14  23
ENDBRANCH   9  13
ENDBRANCH   3   6
TORSDOF 3
ENDMDL
MODEL      127
REMARK 921   NORMALIZED FREE ENERGY PREDICTED BY IDOCK:   -0.94 KCAL/MOL
REMARK 922        TOTAL FREE ENERGY PREDICTED BY IDOCK:   -2.23 KCAL/MOL
REMARK 923 INTER-LIGAND FREE ENERGY PREDICTED BY IDOCK:   -2.83 KCAL/MOL
REMARK 924 INTRA-LIGAND FREE ENERGY PREDICTED BY IDOCK:    0.61 KCAL/MOL
REMARK 927      BINDING AFFINITY PREDICTED BY RF-SCORE:    0.00 PKD
ROOT
HETATM    1  C   UNL     1      -7.709  11.833  62.433  1.00  0.00     1.089 C  
HETATM    2  N   UNL     1      -8.251  10.669  63.083  1.00  0.00    -0.303 N  
HETATM    3  C   UNL     1      -7.563  10.021  64.085  1.00  0.00    -0.140 C  
HETATM    4  H   UNL     1      -9.164  10.317  62.796  1.00  0.00     0.000 HD 
HETATM    5  O   UNL     1      -6.491  10.415  64.532  1.00  0.00    -0.117 OA 
ENDROOT
BRANCH   3   6
HETATM    6  C   UNL     1      -8.167   8.775  64.620  1.00  0.00    -0.166 A  
HETATM    7  C   UNL     1      -8.989   8.843  65.748  1.00  0.00    -0.249 A  
HETATM    8  C   UNL     1      -9.454   7.669  66.362  1.00  0.00    -0.224 A  
HETATM    9  C   UNL     1      -9.122   6.398  65.860  1.00  0.00    -0.051 A  
HETATM   10  C   UNL     1      -8.407   6.362  64.662  1.00  0.00    -0.010 A  
HETATM   11  F   UNL     1      -7.149   7.388  62.976  1.00  0.00    -0.063 F  
HETATM   12  C   UNL     1      -7.910   7.525  64.074  1.00  0.00    -0.127 A  
BRANCH   9  13
HETATM   13  N   UNL     1      -9.443   5.202  66.577  1.00  0.00    -0.139 N  
HETATM   14  N   UNL     1      -9.245   3.851  68.437  1.00  0.00    -0.143 N  
HETATM   15  S   UNL     1     -10.481   6.290  68.880  1.00  0.00    -0.262 S  
HETATM   16  C   UNL     1      -9.645   5.130  67.992  1.00  0.00    -0.136 C  
HETATM   17  C   UNL     1      -9.271   2.952  67.380  1.00  0.00    -0.182 C  
HETATM   18  C   UNL     1     -10.243   3.368  64.914  1.00  0.00     0.078 C  
HETATM   19  C   UNL     1      -9.054   3.375  63.923  1.00  0.00    -0.102 C  
HETATM   20  O   UNL     1      -9.291   1.726  67.441  1.00  0.00    -0.121 OA 
HETATM   21  C   UNL     1      -9.281   3.799  66.046  1.00  0.00    -0.161 C  
HETATM   22  C   UNL     1      -8.093   3.435  65.117  1.00  0.00    -0.093 C  
BRANCH  14  23
HETATM   23  C   UNL     1      -8.781   3.506  69.760  1.00  0.00    -0.076 A  
HETATM   24  C   UNL     1      -9.627   3.475  70.880  1.00  0.00    -0.242 A  
HETATM   25  C   UNL     1      -7.859   2.656  72.277  1.00  0.00    -0.054 A  
HETATM   26  C   UNL     1     -10.102   3.003  73.334  1.00  0.00    -0.118 C  
HETATM   27  F   UNL     1     -10.206   1.750  73.856  1.00  0.00    -0.107 F  
HETATM   28  F   UNL     1     -11.373   3.384  73.040  1.00  0.00    -0.204 F  
HETATM   29  F   UNL     1      -9.695   3.810  74.346  1.00  0.00    -0.120 F  
HETATM   30  C   UNL     1      -7.282   2.230  73.526  1.00  0.00    -0.033 C  
HETATM   31  N   UNL     1      -7.011   2.636  71.223  1.00  0.00    -0.031 NA 
HETATM   32  C   UNL     1      -9.180   3.049  72.152  1.00  0.00    -0.160 A  
HETATM   33  N   UNL     1      -6.849   1.893  74.552  1.00  0.00    -0.021 NA 
HETATM   34  C   UNL     1      -7.489   3.038  70.014  1.00  0.00    -0.044 A  
ENDBRANCH  14  23
ENDBRANCH   9  13
ENDBRANCH   3   6
TORSDOF 3
ENDMDL
MODEL      128
REMARK 921   NORMALIZED FREE ENERGY PREDICTED BY IDOCK:   -0.76 KCAL/MOL
REMARK 922        TOTAL FREE ENERGY PREDICTED BY IDOCK:   -2.02 KCAL/MOL
REMARK 923 INTER-LIGAND FREE ENERGY PREDICTED BY IDOCK:   -2.00 KCAL/MOL
REMARK 924 INTRA-LIGAND FREE ENERGY PREDICTED BY IDOCK:   -0.02 KCAL/MOL
REMARK 927      BINDING AFFINITY PREDICTED BY RF-SCORE:    0.00 PKD
ROOT
HETATM    1  C   UNL     1      -9.742   2.641  62.706  1.00  0.00    -0.092 C  
HETATM    2  N   UNL     1      -9.369   3.753  63.541  1.00  0.00    -0.124 N  
HETATM    3  C   UNL     1      -9.320   3.637  64.912  1.00  0.00    -0.154 C  
HETATM    4  H   UNL     1      -9.137   4.646  63.107  1.00  0.00     0.000 HD 
HETATM    5  O   UNL     1      -9.522   2.584  65.507  1.00  0.00    -0.069 OA 
ENDROOT
BRANCH   3   6
HETATM    6  C   UNL     1      -9.019   4.869  65.683  1.00  0.00    -0.146 A  
HETATM    7  C   UNL     1      -7.710   5.109  66.106  1.00  0.00    -0.091 A  
HETATM    8  C   UNL     1      -7.424   6.187  66.959  1.00  0.00    -0.087 A  
HETATM    9  C   UNL     1      -8.432   7.061  67.401  1.00  0.00    -0.122 A  
HETATM   10  C   UNL     1      -9.706   6.874  66.863  1.00  0.00    -0.222 A  
HETATM   11  F   UNL     1     -11.276   5.625  65.656  1.00  0.00     0.093 F  
HETATM   12  C   UNL     1     -10.001   5.780  66.049  1.00  0.00     0.057 A  
BRANCH   9  13
HETATM   13  N   UNL     1      -8.182   8.050  68.405  1.00  0.00    -0.122 N  
HETATM   14  N   UNL     1      -7.539  10.177  69.022  1.00  0.00    -0.087 N  
HETATM   15  S   UNL     1      -9.878  10.038  67.546  1.00  0.00    -0.183 S  
HETATM   16  C   UNL     1      -8.477   9.443  68.265  1.00  0.00    -0.120 C  
HETATM   17  C   UNL     1      -6.988   9.370  70.007  1.00  0.00    -0.071 C  
HETATM   18  C   UNL     1      -7.754   6.891  70.694  1.00  0.00    -0.096 C  
HETATM   19  C   UNL     1      -6.629   5.910  70.286  1.00  0.00    -0.044 C  
HETATM   20  O   UNL     1      -6.392   9.725  71.020  1.00  0.00    -0.159 OA 
HETATM   21  C   UNL     1      -7.275   7.871  69.597  1.00  0.00    -0.070 C  
HETATM   22  C   UNL     1      -5.971   7.038  69.484  1.00  0.00    -0.026 C  
BRANCH  14  23
HETATM   23  C   UNL     1      -7.115  11.537  68.784  1.00  0.00    -0.108 A  
HETATM   24  C   UNL     1      -7.028  12.498  69.805  1.00  0.00     0.374 A  
HETATM   25  C   UNL     1      -6.113  14.119  68.293  1.00  0.00    -0.118 A  
HETATM   26  C   UNL     1      -6.422  14.808  70.681  1.00  0.00     0.035 C  
HETATM   27  F   UNL     1      -5.142  15.232  70.870  1.00  0.00    -0.117 F  
HETATM   28  F   UNL     1      -6.831  14.330  71.885  1.00  0.00     0.486 F  
HETATM   29  F   UNL     1      -7.166  15.918  70.447  1.00  0.00     0.170 F  
HETATM   30  C   UNL     1      -5.611  15.420  67.932  1.00  0.00    -0.134 C  
HETATM   31  N   UNL     1      -6.145  13.221  67.282  1.00  0.00    -0.300 NA 
HETATM   32  C   UNL     1      -6.526  13.800  69.575  1.00  0.00    -0.105 A  
HETATM   33  N   UNL     1      -5.213  16.482  67.675  1.00  0.00    -0.123 NA 
HETATM   34  C   UNL     1      -6.620  11.975  67.553  1.00  0.00    -0.123 A  
ENDBRANCH  14  23
ENDBRANCH   9  13
ENDBRANCH   3   6
TORSDOF 3
ENDMDL
MODEL      129
REMARK 921   NORMALIZED FREE ENERGY PREDICTED BY IDOCK:   -0.58 KCAL/MOL
REMARK 922        TOTAL FREE ENERGY PREDICTED BY IDOCK:   -1.81 KCAL/MOL
REMARK 923 INTER-LIGAND FREE ENERGY PREDICTED BY IDOCK:   -1.74 KCAL/MOL
REMARK 924 INTRA-LIGAND FREE ENERGY PREDICTED BY IDOCK:   -0.07 KCAL/MOL
REMARK 927      BINDING AFFINITY PREDICTED BY RF-SCORE:    0.00 PKD
ROOT
HETATM    1  C   UNL     1      -6.431  21.317  65.263  1.00  0.00     0.149 C  
HETATM    2  N   UNL     1      -7.058  20.083  65.658  1.00  0.00    -0.310 N  
HETATM    3  C   UNL     1      -8.333  19.762  65.249  1.00  0.00     0.876 C  
HETATM    4  H   UNL     1      -6.546  19.432  66.254  1.00  0.00     0.000 HD 
HETATM    5  O   UNL     1      -8.990  20.457  64.482  1.00  0.00     1.389 OA 
ENDROOT
BRANCH   3   6
HETATM    6  C   UNL     1      -8.921  18.512  65.793  1.00  0.00     0.450 A  
HETATM    7  C   UNL     1      -8.091  17.417  66.042  1.00  0.00    -0.180 A  
HETATM    8  C   UNL     1      -8.638  16.179  66.415  1.00  0.00    -0.365 A  
HETATM    9  C   UNL     1     -10.025  16.005  66.563  1.00  0.00    -0.279 A  
HETATM   10  C   UNL     1     -10.819  17.145  66.433  1.00  0.00     0.058 A  
HETATM   11  F   UNL     1     -11.135  19.384  65.828  1.00  0.00    -0.426 F  
HETATM   12  C   UNL     1     -10.282  18.365  66.021  1.00  0.00    -0.336 A  
BRANCH   9  13
HETATM   13  N   UNL     1     -10.601  14.711  66.770  1.00  0.00    -0.284 N  
HETATM   14  N   UNL     1     -10.395  12.469  67.271  1.00  0.00    -0.219 N  
HETATM   15  S   UNL     1      -9.719  14.200  69.324  1.00  0.00     0.343 S  
HETATM   16  C   UNL     1     -10.162  13.773  67.758  1.00  0.00    -0.241 C  
HETATM   17  C   UNL     1     -11.376  12.496  66.291  1.00  0.00    -0.338 C  
HETATM   18  C   UNL     1     -12.914  14.579  65.587  1.00  0.00     0.016 C  
HETATM   19  C   UNL     1     -12.506  15.019  64.161  1.00  0.00    -0.052 C  
HETATM   20  O   UNL     1     -12.044  11.554  65.874  1.00  0.00    -0.100 OA 
HETATM   21  C   UNL     1     -11.498  13.991  65.794  1.00  0.00    -0.318 C  
HETATM   22  C   UNL     1     -11.270  14.117  64.264  1.00  0.00    -0.194 C  
BRANCH  14  23
HETATM   23  C   UNL     1      -9.677  11.271  67.641  1.00  0.00    -0.171 A  
HETATM   24  C   UNL     1      -8.477  11.297  68.371  1.00  0.00    -0.153 A  
HETATM   25  C   UNL     1      -8.416   8.903  68.485  1.00  0.00    -0.129 A  
HETATM   26  C   UNL     1      -6.560  10.163  69.599  1.00  0.00    -0.069 C  
HETATM   27  F   UNL     1      -6.693   9.561  70.813  1.00  0.00    -0.072 F  
HETATM   28  F   UNL     1      -6.135  11.426  69.861  1.00  0.00    -0.075 F  
HETATM   29  F   UNL     1      -5.529   9.544  68.972  1.00  0.00    -0.036 F  
HETATM   30  C   UNL     1      -7.838   7.635  68.847  1.00  0.00    -0.123 C  
HETATM   31  N   UNL     1      -9.587   8.824  67.813  1.00  0.00    -0.145 NA 
HETATM   32  C   UNL     1      -7.832  10.116  68.804  1.00  0.00    -0.098 A  
HETATM   33  N   UNL     1      -7.341   6.628  69.153  1.00  0.00    -0.091 NA 
HETATM   34  C   UNL     1     -10.182   9.986  67.431  1.00  0.00    -0.219 A  
ENDBRANCH  14  23
ENDBRANCH   9  13
ENDBRANCH   3   6
TORSDOF 3
ENDMDL
MODEL      130
REMARK 921   NORMALIZED FREE ENERGY PREDICTED BY IDOCK:    0.01 KCAL/MOL
REMARK 922        TOTAL FREE ENERGY PREDICTED BY IDOCK:   -1.11 KCAL/MOL
REMARK 923 INTER-LIGAND FREE ENERGY PREDICTED BY IDOCK:   -0.67 KCAL/MOL
REMARK 924 INTRA-LIGAND FREE ENERGY PREDICTED BY IDOCK:   -0.44 KCAL/MOL
REMARK 927      BINDING AFFINITY PREDICTED BY RF-SCORE:    0.00 PKD
ROOT
HETATM    1  C   UNL     1     -13.406   6.235  72.794  1.00  0.00     1.101 C  
HETATM    2  N   UNL     1     -12.756   6.958  71.732  1.00  0.00    -0.439 N  
HETATM    3  C   UNL     1     -12.293   8.241  71.915  1.00  0.00    -0.338 C  
HETATM    4  H   UNL     1     -12.637   6.509  70.824  1.00  0.00     0.000 HD 
HETATM    5  O   UNL     1     -12.339   8.828  72.991  1.00  0.00    -0.161 OA 
ENDROOT
BRANCH   3   6
HETATM    6  C   UNL     1     -11.727   8.930  70.728  1.00  0.00    -0.269 A  
HETATM    7  C   UNL     1     -10.477   8.540  70.241  1.00  0.00    -0.233 A  
HETATM    8  C   UNL     1      -9.854   9.268  69.215  1.00  0.00    -0.172 A  
HETATM    9  C   UNL     1     -10.466  10.394  68.639  1.00  0.00    -0.196 A  
HETATM   10  C   UNL     1     -11.766  10.685  69.054  1.00  0.00    -0.305 A  
HETATM   11  F   UNL     1     -13.584  10.401  70.501  1.00  0.00    -0.337 F  
HETATM   12  C   UNL     1     -12.370   9.989  70.102  1.00  0.00    -0.000 A  
BRANCH   9  13
HETATM   13  N   UNL     1      -9.766  11.241  67.721  1.00  0.00    -0.171 N  
HETATM   14  N   UNL     1      -9.392  13.310  66.771  1.00  0.00    -0.249 N  
HETATM   15  S   UNL     1      -8.788  13.127  69.467  1.00  0.00     1.854 S  
HETATM   16  C   UNL     1      -9.391  12.596  67.989  1.00  0.00    -0.209 C  
HETATM   17  C   UNL     1      -9.257  12.430  65.706  1.00  0.00     0.080 C  
HETATM   18  C   UNL     1      -8.716   9.805  65.824  1.00  0.00    -0.160 C  
HETATM   19  C   UNL     1      -9.972   9.033  65.352  1.00  0.00     0.368 C  
HETATM   20  O   UNL     1      -8.914  12.694  64.557  1.00  0.00     0.985 OA 
HETATM   21  C   UNL     1      -9.620  10.989  66.241  1.00  0.00    -0.201 C  
HETATM   22  C   UNL     1     -10.771  10.339  65.429  1.00  0.00     0.158 C  
BRANCH  14  23
HETATM   23  C   UNL     1      -9.597  14.730  66.605  1.00  0.00    -0.272 A  
HETATM   24  C   UNL     1      -9.957  15.576  67.666  1.00  0.00    -0.233 A  
HETATM   25  C   UNL     1      -9.809  17.513  66.261  1.00  0.00    -0.285 A  
HETATM   26  C   UNL     1     -10.434  17.869  68.659  1.00  0.00    -0.262 C  
HETATM   27  F   UNL     1      -9.469  18.794  68.918  1.00  0.00    -0.347 F  
HETATM   28  F   UNL     1     -10.618  17.196  69.825  1.00  0.00    -0.299 F  
HETATM   29  F   UNL     1     -11.582  18.558  68.440  1.00  0.00     0.628 F  
HETATM   30  C   UNL     1      -9.915  18.920  65.973  1.00  0.00    -0.271 C  
HETATM   31  N   UNL     1      -9.427  16.746  65.214  1.00  0.00     0.069 NA 
HETATM   32  C   UNL     1     -10.066  16.977  67.510  1.00  0.00    -0.294 A  
HETATM   33  N   UNL     1     -10.013  20.062  65.776  1.00  0.00    -0.385 NA 
HETATM   34  C   UNL     1      -9.318  15.404  65.414  1.00  0.00     0.175 A  
ENDBRANCH  14  23
ENDBRANCH   9  13
ENDBRANCH   3   6
TORSDOF 3
ENDMDL
MODEL      131
REMARK 921   NORMALIZED FREE ENERGY PREDICTED BY IDOCK:    0.43 KCAL/MOL
REMARK 922        TOTAL FREE ENERGY PREDICTED BY IDOCK:   -0.62 KCAL/MOL
REMARK 923 INTER-LIGAND FREE ENERGY PREDICTED BY IDOCK:   -0.07 KCAL/MOL
REMARK 924 INTRA-LIGAND FREE ENERGY PREDICTED BY IDOCK:   -0.54 KCAL/MOL
REMARK 927      BINDING AFFINITY PREDICTED BY RF-SCORE:    0.00 PKD
ROOT
HETATM    1  C   UNL     1     -11.705   6.278  68.998  1.00  0.00     0.433 C  
HETATM    2  N   UNL     1     -11.029   7.545  68.909  1.00  0.00    -0.424 N  
HETATM    3  C   UNL     1     -10.678   8.088  67.693  1.00  0.00    -0.132 C  
HETATM    4  H   UNL     1     -10.805   8.052  69.765  1.00  0.00     0.000 HD 
HETATM    5  O   UNL     1     -10.966   7.575  66.617  1.00  0.00    -0.079 OA 
ENDROOT
BRANCH   3   6
HETATM    6  C   UNL     1      -9.899   9.351  67.718  1.00  0.00    -0.207 A  
HETATM    7  C   UNL     1      -9.427   9.840  68.938  1.00  0.00    -0.161 A  
HETATM    8  C   UNL     1      -8.816  11.102  69.011  1.00  0.00    -0.025 A  
HETATM    9  C   UNL     1      -8.649  11.903  67.869  1.00  0.00    -0.162 A  
HETATM   10  C   UNL     1      -9.013  11.338  66.646  1.00  0.00    -0.180 A  
HETATM   11  F   UNL     1     -10.060   9.680  65.366  1.00  0.00    -0.376 F  
HETATM   12  C   UNL     1      -9.657  10.103  66.576  1.00  0.00    -0.187 A  
BRANCH   9  13
HETATM   13  N   UNL     1      -8.190  13.256  67.961  1.00  0.00    -0.150 N  
HETATM   14  N   UNL     1      -8.437  15.504  67.503  1.00  0.00    -0.165 N  
HETATM   15  S   UNL     1     -10.380  14.419  69.152  1.00  0.00    -0.094 S  
HETATM   16  C   UNL     1      -9.042  14.394  68.131  1.00  0.00    -0.194 C  
HETATM   17  C   UNL     1      -7.071  15.292  67.379  1.00  0.00    -0.191 C  
HETATM   18  C   UNL     1      -5.633  13.288  68.437  1.00  0.00    -0.085 C  
HETATM   19  C   UNL     1      -5.139  12.387  67.280  1.00  0.00    -0.053 C  
HETATM   20  O   UNL     1      -6.199  16.131  67.177  1.00  0.00    -0.233 OA 
HETATM   21  C   UNL     1      -6.821  13.741  67.555  1.00  0.00    -0.131 C  
HETATM   22  C   UNL     1      -6.091  13.126  66.332  1.00  0.00     2.895 C  
BRANCH  14  23
HETATM   23  C   UNL     1      -9.110  16.664  66.969  1.00  0.00    -0.216 A  
HETATM   24  C   UNL     1      -8.666  17.976  67.200  1.00  0.00    -0.247 A  
HETATM   25  C   UNL     1     -10.357  18.875  65.758  1.00  0.00    -0.235 A  
HETATM   26  C   UNL     1      -8.781  20.492  66.841  1.00  0.00    -0.183 C  
HETATM   27  F   UNL     1      -8.400  21.108  65.689  1.00  0.00     0.718 F  
HETATM   28  F   UNL     1      -7.697  20.540  67.658  1.00  0.00    -0.328 F  
HETATM   29  F   UNL     1      -9.716  21.290  67.415  1.00  0.00    -0.611 F  
HETATM   30  C   UNL     1     -11.081  19.939  65.112  1.00  0.00     0.608 C  
HETATM   31  N   UNL     1     -10.804  17.630  65.477  1.00  0.00    -0.414 NA 
HETATM   32  C   UNL     1      -9.281  19.098  66.599  1.00  0.00    -0.367 A  
HETATM   33  N   UNL     1     -11.644  20.823  64.607  1.00  0.00     1.457 NA 
HETATM   34  C   UNL     1     -10.171  16.578  66.065  1.00  0.00    -0.356 A  
ENDBRANCH  14  23
ENDBRANCH   9  13
ENDBRANCH   3   6
TORSDOF 3
ENDMDL
MODEL      132
REMARK 921   NORMALIZED FREE ENERGY PREDICTED BY IDOCK:    0.54 KCAL/MOL
REMARK 922        TOTAL FREE ENERGY PREDICTED BY IDOCK:   -0.48 KCAL/MOL
REMARK 923 INTER-LIGAND FREE ENERGY PREDICTED BY IDOCK:   -0.69 KCAL/MOL
REMARK 924 INTRA-LIGAND FREE ENERGY PREDICTED BY IDOCK:    0.20 KCAL/MOL
REMARK 927      BINDING AFFINITY PREDICTED BY RF-SCORE:    0.00 PKD
ROOT
HETATM    1  C   UNL     1     -11.251  14.065  64.754  1.00  0.00    -0.375 C  
HETATM    2  N   UNL     1     -11.034  12.708  65.182  1.00  0.00    -0.284 N  
HETATM    3  C   UNL     1      -9.874  12.034  64.872  1.00  0.00    -0.175 C  
HETATM    4  H   UNL     1     -11.756  12.236  65.726  1.00  0.00     0.000 HD 
HETATM    5  O   UNL     1      -8.933  12.548  64.279  1.00  0.00     0.915 OA 
ENDROOT
BRANCH   3   6
HETATM    6  C   UNL     1      -9.794  10.608  65.278  1.00  0.00    -0.334 A  
HETATM    7  C   UNL     1     -10.955   9.946  65.685  1.00  0.00     0.985 A  
HETATM    8  C   UNL     1     -10.886   8.646  66.212  1.00  0.00     1.042 A  
HETATM    9  C   UNL     1      -9.661   7.969  66.335  1.00  0.00    -0.197 A  
HETATM   10  C   UNL     1      -8.536   8.602  65.805  1.00  0.00    -0.165 A  
HETATM   11  F   UNL     1      -7.445  10.475  64.919  1.00  0.00    -0.147 F  
HETATM   12  C   UNL     1      -8.596   9.909  65.319  1.00  0.00    -0.156 A  
BRANCH   9  13
HETATM   13  N   UNL     1      -9.559   6.722  67.030  1.00  0.00    -0.146 N  
HETATM   14  N   UNL     1      -8.727   5.438  68.756  1.00  0.00    -0.098 N  
HETATM   15  S   UNL     1     -10.409   7.498  69.528  1.00  0.00    -0.218 S  
HETATM   16  C   UNL     1      -9.489   6.586  68.453  1.00  0.00    -0.120 C  
HETATM   17  C   UNL     1      -8.722   4.571  67.672  1.00  0.00    -0.104 C  
HETATM   18  C   UNL     1     -10.178   4.769  65.427  1.00  0.00    -0.104 C  
HETATM   19  C   UNL     1      -9.216   5.075  64.255  1.00  0.00     0.114 C  
HETATM   20  O   UNL     1      -8.440   3.377  67.670  1.00  0.00    -0.091 OA 
HETATM   21  C   UNL     1      -9.164   5.407  66.405  1.00  0.00    -0.147 C  
HETATM   22  C   UNL     1      -8.104   5.352  65.273  1.00  0.00    -0.123 C  
BRANCH  14  23
HETATM   23  C   UNL     1      -7.971   5.200  69.963  1.00  0.00    -0.082 A  
HETATM   24  C   UNL     1      -7.806   6.173  70.963  1.00  0.00    -0.114 A  
HETATM   25  C   UNL     1      -6.639   4.625  72.373  1.00  0.00    -0.042 A  
HETATM   26  C   UNL     1      -6.988   6.946  73.244  1.00  0.00    -0.074 C  
HETATM   27  F   UNL     1      -7.563   6.569  74.419  1.00  0.00    -0.098 F  
HETATM   28  F   UNL     1      -7.565   8.132  72.919  1.00  0.00    -0.126 F  
HETATM   29  F   UNL     1      -5.690   7.226  73.521  1.00  0.00    -0.048 F  
HETATM   30  C   UNL     1      -5.919   4.236  73.558  1.00  0.00    -0.012 C  
HETATM   31  N   UNL     1      -6.800   3.642  71.457  1.00  0.00    -0.030 NA 
HETATM   32  C   UNL     1      -7.140   5.900  72.179  1.00  0.00    -0.087 A  
HETATM   33  N   UNL     1      -5.339   3.958  74.527  1.00  0.00    -0.004 NA 
HETATM   34  C   UNL     1      -7.462   3.946  70.308  1.00  0.00    -0.045 A  
ENDBRANCH  14  23
ENDBRANCH   9  13
ENDBRANCH   3   6
TORSDOF 3
ENDMDL
MODEL      133
REMARK 921   NORMALIZED FREE ENERGY PREDICTED BY IDOCK:    0.73 KCAL/MOL
REMARK 922        TOTAL FREE ENERGY PREDICTED BY IDOCK:   -0.26 KCAL/MOL
REMARK 923 INTER-LIGAND FREE ENERGY PREDICTED BY IDOCK:   -0.89 KCAL/MOL
REMARK 924 INTRA-LIGAND FREE ENERGY PREDICTED BY IDOCK:    0.63 KCAL/MOL
REMARK 927      BINDING AFFINITY PREDICTED BY RF-SCORE:    0.00 PKD
ROOT
HETATM    1  C   UNL     1     -11.730   5.991  69.578  1.00  0.00     0.488 C  
HETATM    2  N   UNL     1     -10.613   6.874  69.368  1.00  0.00    -0.219 N  
HETATM    3  C   UNL     1      -9.954   7.463  70.424  1.00  0.00    -0.188 C  
HETATM    4  H   UNL     1     -10.303   7.067  68.416  1.00  0.00     0.000 HD 
HETATM    5  O   UNL     1     -10.222   7.234  71.598  1.00  0.00    -0.193 OA 
ENDROOT
BRANCH   3   6
HETATM    6  C   UNL     1      -8.879   8.431  70.092  1.00  0.00    -0.141 A  
HETATM    7  C   UNL     1      -8.721   9.573  70.880  1.00  0.00    -0.006 A  
HETATM    8  C   UNL     1      -7.812  10.576  70.505  1.00  0.00     1.073 A  
HETATM    9  C   UNL     1      -7.029  10.459  69.343  1.00  0.00    -0.091 A  
HETATM   10  C   UNL     1      -7.114   9.254  68.646  1.00  0.00    -0.070 A  
HETATM   11  F   UNL     1      -8.126   7.189  68.207  1.00  0.00    -0.116 F  
HETATM   12  C   UNL     1      -8.046   8.275  68.993  1.00  0.00    -0.117 A  
BRANCH   9  13
HETATM   13  N   UNL     1      -6.234  11.548  68.861  1.00  0.00    -0.051 N  
HETATM   14  N   UNL     1      -5.653  13.780  68.873  1.00  0.00    -0.076 N  
HETATM   15  S   UNL     1      -5.134  12.418  71.227  1.00  0.00    -0.112 S  
HETATM   16  C   UNL     1      -5.746  12.621  69.673  1.00  0.00    -0.105 C  
HETATM   17  C   UNL     1      -5.570  13.427  67.533  1.00  0.00     0.031 C  
HETATM   18  C   UNL     1      -5.269  10.961  66.518  1.00  0.00    -0.085 C  
HETATM   19  C   UNL     1      -6.576  10.581  65.783  1.00  0.00    -0.123 C  
HETATM   20  O   UNL     1      -5.176  14.120  66.600  1.00  0.00     1.221 OA 
HETATM   21  C   UNL     1      -6.074  11.934  67.412  1.00  0.00    -0.119 C  
HETATM   22  C   UNL     1      -7.258  11.798  66.419  1.00  0.00     0.211 C  
BRANCH  14  23
HETATM   23  C   UNL     1      -5.726  15.149  69.328  1.00  0.00    -0.096 A  
HETATM   24  C   UNL     1      -6.435  16.145  68.636  1.00  0.00    -0.120 A  
HETATM   25  C   UNL     1      -5.981  17.755  70.354  1.00  0.00     0.070 A  
HETATM   26  C   UNL     1      -7.350  18.506  68.396  1.00  0.00    -0.283 C  
HETATM   27  F   UNL     1      -8.389  18.991  69.130  1.00  0.00    -0.337 F  
HETATM   28  F   UNL     1      -7.900  18.049  67.241  1.00  0.00    -0.204 F  
HETATM   29  F   UNL     1      -6.589  19.574  68.051  1.00  0.00    -0.237 F  
HETATM   30  C   UNL     1      -6.031  19.064  70.952  1.00  0.00     0.097 C  
HETATM   31  N   UNL     1      -5.316  16.824  71.076  1.00  0.00    -0.124 NA 
HETATM   32  C   UNL     1      -6.573  17.459  69.139  1.00  0.00    -0.246 A  
HETATM   33  N   UNL     1      -6.088  20.134  71.405  1.00  0.00    -0.480 NA 
HETATM   34  C   UNL     1      -5.222  15.568  70.562  1.00  0.00    -0.141 A  
ENDBRANCH  14  23
ENDBRANCH   9  13
ENDBRANCH   3   6
TORSDOF 3
ENDMDL
MODEL      134
REMARK 921   NORMALIZED FREE ENERGY PREDICTED BY IDOCK:    0.96 KCAL/MOL
REMARK 922        TOTAL FREE ENERGY PREDICTED BY IDOCK:    0.01 KCAL/MOL
REMARK 923 INTER-LIGAND FREE ENERGY PREDICTED BY IDOCK:   -0.48 KCAL/MOL
REMARK 924 INTRA-LIGAND FREE ENERGY PREDICTED BY IDOCK:    0.49 KCAL/MOL
REMARK 927      BINDING AFFINITY PREDICTED BY RF-SCORE:    0.00 PKD
ROOT
HETATM    1  C   UNL     1      -7.884   7.346  62.860  1.00  0.00    -0.130 C  
HETATM    2  N   UNL     1      -8.386   8.431  63.662  1.00  0.00    -0.352 N  
HETATM    3  C   UNL     1      -9.576   9.055  63.361  1.00  0.00     1.622 C  
HETATM    4  H   UNL     1      -7.848   8.745  64.469  1.00  0.00     0.000 HD 
HETATM    5  O   UNL     1     -10.313   8.699  62.448  1.00  0.00     3.820 OA 
ENDROOT
BRANCH   3   6
HETATM    6  C   UNL     1      -9.952  10.226  64.193  1.00  0.00    -0.246 A  
HETATM    7  C   UNL     1      -9.688  11.513  63.722  1.00  0.00    -0.298 A  
HETATM    8  C   UNL     1      -9.898  12.630  64.547  1.00  0.00    -0.068 A  
HETATM    9  C   UNL     1     -10.388  12.493  65.857  1.00  0.00    -0.263 A  
HETATM   10  C   UNL     1     -10.763  11.210  66.257  1.00  0.00    -0.298 A  
HETATM   11  F   UNL     1     -10.820   8.888  65.960  1.00  0.00     0.085 F  
HETATM   12  C   UNL     1     -10.516  10.095  65.455  1.00  0.00     0.016 A  
BRANCH   9  13
HETATM   13  N   UNL     1     -10.437  13.602  66.760  1.00  0.00    -0.268 N  
HETATM   14  N   UNL     1      -9.586  15.592  67.558  1.00  0.00    -0.223 N  
HETATM   15  S   UNL     1     -10.539  15.678  64.959  1.00  0.00    -0.312 S  
HETATM   16  C   UNL     1     -10.105  14.950  66.413  1.00  0.00    -0.284 C  
HETATM   17  C   UNL     1     -10.012  14.935  68.704  1.00  0.00    -0.224 C  
HETATM   18  C   UNL     1     -11.819  12.958  68.869  1.00  0.00    -0.352 C  
HETATM   19  C   UNL     1     -11.079  11.664  69.283  1.00  0.00    -0.291 C  
HETATM   20  O   UNL     1     -10.024  15.367  69.853  1.00  0.00    -0.277 OA 
HETATM   21  C   UNL     1     -10.501  13.499  68.264  1.00  0.00    -0.253 C  
HETATM   22  C   UNL     1      -9.745  12.371  69.014  1.00  0.00     0.292 C  
BRANCH  14  23
HETATM   23  C   UNL     1      -8.671  16.709  67.578  1.00  0.00    -0.190 A  
HETATM   24  C   UNL     1      -9.037  18.001  67.166  1.00  0.00    -0.256 A  
HETATM   25  C   UNL     1      -6.901  18.883  67.807  1.00  0.00    -0.207 A  
HETATM   26  C   UNL     1      -8.572  20.482  66.847  1.00  0.00    -0.176 C  
HETATM   27  F   UNL     1      -8.514  21.376  67.872  1.00  0.00     0.054 F  
HETATM   28  F   UNL     1      -9.848  20.541  66.382  1.00  0.00    -0.511 F  
HETATM   29  F   UNL     1      -7.791  20.978  65.856  1.00  0.00     0.188 F  
HETATM   30  C   UNL     1      -5.913  19.921  67.942  1.00  0.00    -0.212 C  
HETATM   31  N   UNL     1      -6.511  17.666  68.249  1.00  0.00    -0.184 NA 
HETATM   32  C   UNL     1      -8.159  19.105  67.275  1.00  0.00    -0.286 A  
HETATM   33  N   UNL     1      -5.138  20.784  68.033  1.00  0.00    -0.229 NA 
HETATM   34  C   UNL     1      -7.394  16.636  68.140  1.00  0.00    -0.170 A  
ENDBRANCH  14  23
ENDBRANCH   9  13
ENDBRANCH   3   6
TORSDOF 3
ENDMDL
MODEL      135
REMARK 921   NORMALIZED FREE ENERGY PREDICTED BY IDOCK:    1.24 KCAL/MOL
REMARK 922        TOTAL FREE ENERGY PREDICTED BY IDOCK:    0.34 KCAL/MOL
REMARK 923 INTER-LIGAND FREE ENERGY PREDICTED BY IDOCK:    1.01 KCAL/MOL
REMARK 924 INTRA-LIGAND FREE ENERGY PREDICTED BY IDOCK:   -0.67 KCAL/MOL
REMARK 927      BINDING AFFINITY PREDICTED BY RF-SCORE:    0.00 PKD
ROOT
HETATM    1  C   UNL     1      -7.280  20.630  64.791  1.00  0.00     0.285 C  
HETATM    2  N   UNL     1      -6.917  19.477  65.573  1.00  0.00    -0.291 N  
HETATM    3  C   UNL     1      -7.827  18.481  65.848  1.00  0.00    -0.050 C  
HETATM    4  H   UNL     1      -5.966  19.397  65.931  1.00  0.00     0.000 HD 
HETATM    5  O   UNL     1      -8.970  18.469  65.404  1.00  0.00     0.291 OA 
ENDROOT
BRANCH   3   6
HETATM    6  C   UNL     1      -7.377  17.386  66.744  1.00  0.00    -0.250 A  
HETATM    7  C   UNL     1      -6.020  17.062  66.800  1.00  0.00    -0.227 A  
HETATM    8  C   UNL     1      -5.585  15.939  67.523  1.00  0.00    -0.125 A  
HETATM    9  C   UNL     1      -6.490  15.120  68.219  1.00  0.00    -0.114 A  
HETATM   10  C   UNL     1      -7.821  15.538  68.252  1.00  0.00    -0.127 A  
HETATM   11  F   UNL     1      -9.576  16.900  67.514  1.00  0.00    -0.234 F  
HETATM   12  C   UNL     1      -8.261  16.628  67.500  1.00  0.00    -0.164 A  
BRANCH   9  13
HETATM   13  N   UNL     1      -6.080  13.882  68.809  1.00  0.00    -0.082 N  
HETATM   14  N   UNL     1      -6.182  11.581  68.943  1.00  0.00    -0.051 N  
HETATM   15  S   UNL     1      -5.146  12.577  66.576  1.00  0.00     1.209 S  
HETATM   16  C   UNL     1      -5.882  12.662  68.087  1.00  0.00    -0.075 C  
HETATM   17  C   UNL     1      -6.079  11.982  70.267  1.00  0.00    -0.091 C  
HETATM   18  C   UNL     1      -5.128  14.315  71.191  1.00  0.00    -0.130 C  
HETATM   19  C   UNL     1      -6.307  15.105  71.806  1.00  0.00     1.079 C  
HETATM   20  O   UNL     1      -5.963  11.267  71.258  1.00  0.00    -0.355 OA 
HETATM   21  C   UNL     1      -6.128  13.561  70.282  1.00  0.00    -0.110 C  
HETATM   22  C   UNL     1      -7.277  14.100  71.175  1.00  0.00     2.143 C  
BRANCH  14  23
HETATM   23  C   UNL     1      -6.627  10.266  68.545  1.00  0.00    -0.052 A  
HETATM   24  C   UNL     1      -7.982   9.896  68.516  1.00  0.00    -0.086 A  
HETATM   25  C   UNL     1      -7.446   7.749  67.593  1.00  0.00    -0.104 A  
HETATM   26  C   UNL     1      -9.863   8.264  67.998  1.00  0.00    -0.169 C  
HETATM   27  F   UNL     1     -10.281   7.971  66.737  1.00  0.00    -0.294 F  
HETATM   28  F   UNL     1     -10.684   9.254  68.435  1.00  0.00    -0.240 F  
HETATM   29  F   UNL     1     -10.147   7.180  68.762  1.00  0.00    -0.156 F  
HETATM   30  C   UNL     1      -7.758   6.428  67.112  1.00  0.00    -0.100 C  
HETATM   31  N   UNL     1      -6.132   8.068  67.568  1.00  0.00    -0.049 NA 
HETATM   32  C   UNL     1      -8.410   8.636  68.040  1.00  0.00    -0.123 A  
HETATM   33  N   UNL     1      -8.046   5.367  66.732  1.00  0.00    -0.105 NA 
HETATM   34  C   UNL     1      -5.767   9.298  68.021  1.00  0.00    -0.038 A  
ENDBRANCH  14  23
ENDBRANCH   9  13
ENDBRANCH   3   6
TORSDOF 3
ENDMDL
MODEL      136
REMARK 921   NORMALIZED FREE ENERGY PREDICTED BY IDOCK:    1.26 KCAL/MOL
REMARK 922        TOTAL FREE ENERGY PREDICTED BY IDOCK:    0.36 KCAL/MOL
REMARK 923 INTER-LIGAND FREE ENERGY PREDICTED BY IDOCK:    1.38 KCAL/MOL
REMARK 924 INTRA-LIGAND FREE ENERGY PREDICTED BY IDOCK:   -1.03 KCAL/MOL
REMARK 927      BINDING AFFINITY PREDICTED BY RF-SCORE:    0.00 PKD
ROOT
HETATM    1  C   UNL     1      -7.718   5.501  72.723  1.00  0.00    -0.098 C  
HETATM    2  N   UNL     1      -7.538   6.627  71.844  1.00  0.00    -0.095 N  
HETATM    3  C   UNL     1      -8.361   7.729  71.910  1.00  0.00    -0.113 C  
HETATM    4  H   UNL     1      -6.784   6.607  71.157  1.00  0.00     0.000 HD 
HETATM    5  O   UNL     1      -9.248   7.859  72.747  1.00  0.00    -0.174 OA 
ENDROOT
BRANCH   3   6
HETATM    6  C   UNL     1      -8.150   8.790  70.894  1.00  0.00    -0.174 A  
HETATM    7  C   UNL     1      -6.847   9.154  70.545  1.00  0.00    -0.074 A  
HETATM    8  C   UNL     1      -6.616  10.251  69.700  1.00  0.00    -0.077 A  
HETATM    9  C   UNL     1      -7.678  11.005  69.171  1.00  0.00    -0.102 A  
HETATM   10  C   UNL     1      -8.968  10.544  69.432  1.00  0.00    -0.111 A  
HETATM   11  F   UNL     1     -10.478   9.167  70.575  1.00  0.00    -0.213 F  
HETATM   12  C   UNL     1      -9.200   9.480  70.305  1.00  0.00    -0.258 A  
BRANCH   9  13
HETATM   13  N   UNL     1      -7.449  12.224  68.456  1.00  0.00    -0.111 N  
HETATM   14  N   UNL     1      -7.892  14.458  68.086  1.00  0.00    -0.127 N  
HETATM   15  S   UNL     1      -6.754  13.876  70.543  1.00  0.00     0.552 S  
HETATM   16  C   UNL     1      -7.446  13.527  69.049  1.00  0.00     0.046 C  
HETATM   17  C   UNL     1      -7.710  13.944  66.810  1.00  0.00     0.631 C  
HETATM   18  C   UNL     1      -6.407  11.698  66.131  1.00  0.00     0.370 C  
HETATM   19  C   UNL     1      -7.445  10.681  65.601  1.00  0.00    -0.093 C  
HETATM   20  O   UNL     1      -7.687  14.563  65.750  1.00  0.00     2.576 OA 
HETATM   21  C   UNL     1      -7.522  12.382  66.958  1.00  0.00    -0.034 C  
HETATM   22  C   UNL     1      -8.564  11.588  66.126  1.00  0.00    -0.094 C  
BRANCH  14  23
HETATM   23  C   UNL     1      -8.534  15.725  68.346  1.00  0.00    -0.170 A  
HETATM   24  C   UNL     1      -7.818  16.921  68.517  1.00  0.00    -0.240 A  
HETATM   25  C   UNL     1      -9.845  18.191  68.673  1.00  0.00    -0.377 A  
HETATM   26  C   UNL     1      -7.681  19.439  68.844  1.00  0.00    -0.347 C  
HETATM   27  F   UNL     1      -7.964  20.344  67.867  1.00  0.00    -0.323 F  
HETATM   28  F   UNL     1      -6.336  19.255  68.794  1.00  0.00    -0.239 F  
HETATM   29  F   UNL     1      -7.929  20.057  70.026  1.00  0.00    -0.019 F  
HETATM   30  C   UNL     1     -10.611  19.397  68.859  1.00  0.00     0.298 C  
HETATM   31  N   UNL     1     -10.582  17.074  68.479  1.00  0.00    -0.359 NA 
HETATM   32  C   UNL     1      -8.461  18.169  68.681  1.00  0.00    -0.285 A  
HETATM   33  N   UNL     1     -11.198  20.389  69.014  1.00  0.00     1.437 NA 
HETATM   34  C   UNL     1      -9.920  15.897  68.308  1.00  0.00    -0.222 A  
ENDBRANCH  14  23
ENDBRANCH   9  13
ENDBRANCH   3   6
TORSDOF 3
ENDMDL
MODEL      137
REMARK 921   NORMALIZED FREE ENERGY PREDICTED BY IDOCK:    1.32 KCAL/MOL
REMARK 922        TOTAL FREE ENERGY PREDICTED BY IDOCK:    0.44 KCAL/MOL
REMARK 923 INTER-LIGAND FREE ENERGY PREDICTED BY IDOCK:    0.69 KCAL/MOL
REMARK 924 INTRA-LIGAND FREE ENERGY PREDICTED BY IDOCK:   -0.25 KCAL/MOL
REMARK 927      BINDING AFFINITY PREDICTED BY RF-SCORE:    0.00 PKD
ROOT
HETATM    1  C   UNL     1      -8.515  21.056  64.835  1.00  0.00     2.114 C  
HETATM    2  N   UNL     1      -8.087  19.852  65.498  1.00  0.00    -0.179 N  
HETATM    3  C   UNL     1      -8.994  18.984  66.065  1.00  0.00    -0.037 C  
HETATM    4  H   UNL     1      -7.092  19.638  65.549  1.00  0.00     0.000 HD 
HETATM    5  O   UNL     1     -10.208  19.135  65.992  1.00  0.00    -0.428 OA 
ENDROOT
BRANCH   3   6
HETATM    6  C   UNL     1      -8.442  17.823  66.808  1.00  0.00    -0.269 A  
HETATM    7  C   UNL     1      -7.166  17.351  66.489  1.00  0.00    -0.305 A  
HETATM    8  C   UNL     1      -6.679  16.169  67.071  1.00  0.00    -0.183 A  
HETATM    9  C   UNL     1      -7.445  15.436  67.993  1.00  0.00    -0.129 A  
HETATM   10  C   UNL     1      -8.660  15.997  68.388  1.00  0.00    -0.185 A  
HETATM   11  F   UNL     1     -10.386  17.562  68.155  1.00  0.00    -0.299 F  
HETATM   12  C   UNL     1      -9.164  17.148  67.781  1.00  0.00    -0.241 A  
BRANCH   9  13
HETATM   13  N   UNL     1      -7.032  14.145  68.454  1.00  0.00    -0.089 N  
HETATM   14  N   UNL     1      -7.431  11.896  68.775  1.00  0.00    -0.117 N  
HETATM   15  S   UNL     1      -7.301  12.702  66.128  1.00  0.00     2.324 S  
HETATM   16  C   UNL     1      -7.338  12.911  67.798  1.00  0.00    -0.134 C  
HETATM   17  C   UNL     1      -6.738  12.272  69.917  1.00  0.00     0.205 C  
HETATM   18  C   UNL     1      -5.140  14.406  70.221  1.00  0.00    -0.095 C  
HETATM   19  C   UNL     1      -5.828  15.387  71.200  1.00  0.00     0.268 C  
HETATM   20  O   UNL     1      -6.344  11.547  70.825  1.00  0.00    -0.256 OA 
HETATM   21  C   UNL     1      -6.528  13.836  69.841  1.00  0.00    -0.059 C  
HETATM   22  C   UNL     1      -7.116  14.563  71.079  1.00  0.00     1.192 C  
BRANCH  14  23
HETATM   23  C   UNL     1      -8.200  10.677  68.679  1.00  0.00    -0.135 A  
HETATM   24  C   UNL     1      -8.944  10.160  69.752  1.00  0.00    -0.159 A  
HETATM   25  C   UNL     1      -9.819   8.396  68.384  1.00  0.00    -0.176 A  
HETATM   26  C   UNL     1     -10.566   8.487  70.772  1.00  0.00    -0.206 C  
HETATM   27  F   UNL     1     -11.900   8.468  70.502  1.00  0.00    -0.266 F  
HETATM   28  F   UNL     1     -10.433   9.226  71.905  1.00  0.00    -0.399 F  
HETATM   29  F   UNL     1     -10.222   7.219  71.111  1.00  0.00    -0.191 F  
HETATM   30  C   UNL     1     -10.595   7.209  68.135  1.00  0.00    -0.192 C  
HETATM   31  N   UNL     1      -9.148   8.873  67.310  1.00  0.00    -0.133 NA 
HETATM   32  C   UNL     1      -9.763   9.015  69.620  1.00  0.00    -0.177 A  
HETATM   33  N   UNL     1     -11.231   6.249  67.971  1.00  0.00    -0.261 NA 
HETATM   34  C   UNL     1      -8.385   9.987  67.479  1.00  0.00    -0.118 A  
ENDBRANCH  14  23
ENDBRANCH   9  13
ENDBRANCH   3   6
TORSDOF 3
ENDMDL
MODEL      138
REMARK 921   NORMALIZED FREE ENERGY PREDICTED BY IDOCK:    1.44 KCAL/MOL
REMARK 922        TOTAL FREE ENERGY PREDICTED BY IDOCK:    0.58 KCAL/MOL
REMARK 923 INTER-LIGAND FREE ENERGY PREDICTED BY IDOCK:    1.29 KCAL/MOL
REMARK 924 INTRA-LIGAND FREE ENERGY PREDICTED BY IDOCK:   -0.71 KCAL/MOL
REMARK 927      BINDING AFFINITY PREDICTED BY RF-SCORE:    0.00 PKD
ROOT
HETATM    1  C   UNL     1      -8.515  21.056  64.835  1.00  0.00     2.114 C  
HETATM    2  N   UNL     1      -8.087  19.852  65.498  1.00  0.00    -0.179 N  
HETATM    3  C   UNL     1      -8.994  18.984  66.065  1.00  0.00    -0.037 C  
HETATM    4  H   UNL     1      -7.092  19.638  65.549  1.00  0.00     0.000 HD 
HETATM    5  O   UNL     1     -10.208  19.135  65.992  1.00  0.00    -0.428 OA 
ENDROOT
BRANCH   3   6
HETATM    6  C   UNL     1      -8.442  17.823  66.808  1.00  0.00    -0.269 A  
HETATM    7  C   UNL     1      -7.166  17.351  66.489  1.00  0.00    -0.305 A  
HETATM    8  C   UNL     1      -6.679  16.169  67.071  1.00  0.00    -0.183 A  
HETATM    9  C   UNL     1      -7.445  15.436  67.993  1.00  0.00    -0.129 A  
HETATM   10  C   UNL     1      -8.660  15.997  68.388  1.00  0.00    -0.185 A  
HETATM   11  F   UNL     1     -10.386  17.562  68.155  1.00  0.00    -0.299 F  
HETATM   12  C   UNL     1      -9.164  17.148  67.781  1.00  0.00    -0.241 A  
BRANCH   9  13
HETATM   13  N   UNL     1      -7.032  14.145  68.454  1.00  0.00    -0.089 N  
HETATM   14  N   UNL     1      -7.431  11.896  68.775  1.00  0.00    -0.117 N  
HETATM   15  S   UNL     1      -7.301  12.702  66.128  1.00  0.00     2.324 S  
HETATM   16  C   UNL     1      -7.338  12.911  67.798  1.00  0.00    -0.134 C  
HETATM   17  C   UNL     1      -6.738  12.272  69.917  1.00  0.00     0.205 C  
HETATM   18  C   UNL     1      -5.140  14.406  70.221  1.00  0.00    -0.095 C  
HETATM   19  C   UNL     1      -5.828  15.387  71.200  1.00  0.00     0.268 C  
HETATM   20  O   UNL     1      -6.344  11.547  70.825  1.00  0.00    -0.256 OA 
HETATM   21  C   UNL     1      -6.528  13.836  69.841  1.00  0.00    -0.059 C  
HETATM   22  C   UNL     1      -7.116  14.563  71.079  1.00  0.00     1.192 C  
BRANCH  14  23
HETATM   23  C   UNL     1      -8.200  10.677  68.679  1.00  0.00    -0.135 A  
HETATM   24  C   UNL     1      -7.821   9.600  67.860  1.00  0.00    -0.087 A  
HETATM   25  C   UNL     1      -9.637   8.260  68.668  1.00  0.00    -0.149 A  
HETATM   26  C   UNL     1      -8.104   7.232  66.976  1.00  0.00    -0.117 C  
HETATM   27  F   UNL     1      -7.822   6.117  67.704  1.00  0.00    -0.098 F  
HETATM   28  F   UNL     1      -6.982   7.493  66.256  1.00  0.00    -0.059 F  
HETATM   29  F   UNL     1      -9.052   6.876  66.074  1.00  0.00    -0.165 F  
HETATM   30  C   UNL     1     -10.456   7.076  68.717  1.00  0.00    -0.206 C  
HETATM   31  N   UNL     1     -10.024   9.254  69.500  1.00  0.00    -0.179 NA 
HETATM   32  C   UNL     1      -8.533   8.379  67.844  1.00  0.00    -0.131 A  
HETATM   33  N   UNL     1     -11.097   6.105  68.729  1.00  0.00    -0.358 NA 
HETATM   34  C   UNL     1      -9.301  10.406  69.495  1.00  0.00    -0.127 A  
ENDBRANCH  14  23
ENDBRANCH   9  13
ENDBRANCH   3   6
TORSDOF 3
ENDMDL
MODEL      139
REMARK 921   NORMALIZED FREE ENERGY PREDICTED BY IDOCK:    2.54 KCAL/MOL
REMARK 922        TOTAL FREE ENERGY PREDICTED BY IDOCK:    1.86 KCAL/MOL
REMARK 923 INTER-LIGAND FREE ENERGY PREDICTED BY IDOCK:    2.37 KCAL/MOL
REMARK 924 INTRA-LIGAND FREE ENERGY PREDICTED BY IDOCK:   -0.51 KCAL/MOL
REMARK 927      BINDING AFFINITY PREDICTED BY RF-SCORE:    0.00 PKD
ROOT
HETATM    1  C   UNL     1      -7.002  19.783  65.284  1.00  0.00    -0.210 C  
HETATM    2  N   UNL     1      -6.748  18.573  66.020  1.00  0.00    -0.236 N  
HETATM    3  C   UNL     1      -7.708  17.592  66.143  1.00  0.00    -0.258 C  
HETATM    4  H   UNL     1      -5.838  18.438  66.460  1.00  0.00     0.000 HD 
HETATM    5  O   UNL     1      -8.802  17.647  65.592  1.00  0.00    -0.383 OA 
ENDROOT
BRANCH   3   6
HETATM    6  C   UNL     1      -7.377  16.429  67.004  1.00  0.00    -0.255 A  
HETATM    7  C   UNL     1      -6.042  16.046  67.153  1.00  0.00    -0.044 A  
HETATM    8  C   UNL     1      -5.713  14.866  67.840  1.00  0.00    -0.138 A  
HETATM    9  C   UNL     1      -6.704  14.046  68.406  1.00  0.00    -0.099 A  
HETATM   10  C   UNL     1      -8.016  14.517  68.353  1.00  0.00    -0.141 A  
HETATM   11  F   UNL     1      -9.651  15.992  67.555  1.00  0.00    -0.216 F  
HETATM   12  C   UNL     1      -8.350  15.667  67.635  1.00  0.00    -0.155 A  
BRANCH   9  13
HETATM   13  N   UNL     1      -6.393  12.760  68.951  1.00  0.00    -0.080 N  
HETATM   14  N   UNL     1      -6.767  10.488  69.098  1.00  0.00    -0.062 N  
HETATM   15  S   UNL     1      -5.870  11.375  66.633  1.00  0.00    -0.131 S  
HETATM   16  C   UNL     1      -6.426  11.534  68.213  1.00  0.00    -0.054 C  
HETATM   17  C   UNL     1      -6.475  10.857  70.404  1.00  0.00    -0.035 C  
HETATM   18  C   UNL     1      -5.147  13.043  71.218  1.00  0.00    -0.170 C  
HETATM   19  C   UNL     1      -6.146  13.966  71.953  1.00  0.00     0.429 C  
HETATM   20  O   UNL     1      -6.345  10.122  71.378  1.00  0.00    -0.320 OA 
HETATM   21  C   UNL     1      -6.324  12.430  70.421  1.00  0.00     0.281 C  
HETATM   22  C   UNL     1      -7.296  13.097  71.430  1.00  0.00     5.743 C  
BRANCH  14  23
HETATM   23  C   UNL     1      -7.412   9.243  68.752  1.00  0.00    -0.076 A  
HETATM   24  C   UNL     1      -7.121   8.030  69.396  1.00  0.00    -0.063 A  
HETATM   25  C   UNL     1      -8.826   6.886  68.159  1.00  0.00    -0.125 A  
HETATM   26  C   UNL     1      -7.511   5.553  69.822  1.00  0.00    -0.070 C  
HETATM   27  F   UNL     1      -8.590   5.063  70.492  1.00  0.00    -0.100 F  
HETATM   28  F   UNL     1      -6.529   5.677  70.752  1.00  0.00    -0.030 F  
HETATM   29  F   UNL     1      -7.104   4.573  68.977  1.00  0.00    -0.048 F  
HETATM   30  C   UNL     1      -9.590   5.731  67.764  1.00  0.00    -0.115 C  
HETATM   31  N   UNL     1      -9.168   8.035  67.533  1.00  0.00    -0.136 NA 
HETATM   32  C   UNL     1      -7.823   6.836  69.111  1.00  0.00    -0.111 A  
HETATM   33  N   UNL     1     -10.186   4.776  67.467  1.00  0.00    -0.106 NA 
HETATM   34  C   UNL     1      -8.477   9.163  67.852  1.00  0.00    -0.117 A  
ENDBRANCH  14  23
ENDBRANCH   9  13
ENDBRANCH   3   6
TORSDOF 3
ENDMDL
MODEL      140
REMARK 921   NORMALIZED FREE ENERGY PREDICTED BY IDOCK:    3.22 KCAL/MOL
REMARK 922        TOTAL FREE ENERGY PREDICTED BY IDOCK:    2.67 KCAL/MOL
REMARK 923 INTER-LIGAND FREE ENERGY PREDICTED BY IDOCK:    2.40 KCAL/MOL
REMARK 924 INTRA-LIGAND FREE ENERGY PREDICTED BY IDOCK:    0.26 KCAL/MOL
REMARK 927      BINDING AFFINITY PREDICTED BY RF-SCORE:    0.00 PKD
ROOT
HETATM    1  C   UNL     1     -14.328  15.850  71.426  1.00  0.00     0.631 C  
HETATM    2  N   UNL     1     -13.388  15.027  70.712  1.00  0.00    -0.628 N  
HETATM    3  C   UNL     1     -12.029  15.202  70.852  1.00  0.00    -0.328 C  
HETATM    4  H   UNL     1     -13.736  14.299  70.088  1.00  0.00     0.000 HD 
HETATM    5  O   UNL     1     -11.529  16.009  71.628  1.00  0.00    -0.417 OA 
ENDROOT
BRANCH   3   6
HETATM    6  C   UNL     1     -11.150  14.366  69.996  1.00  0.00    -0.125 A  
HETATM    7  C   UNL     1      -9.833  14.128  70.395  1.00  0.00     2.009 A  
HETATM    8  C   UNL     1      -8.938  13.467  69.538  1.00  0.00     1.363 A  
HETATM    9  C   UNL     1      -9.337  13.015  68.268  1.00  0.00    -0.199 A  
HETATM   10  C   UNL     1     -10.688  13.152  67.948  1.00  0.00    -0.249 A  
HETATM   11  F   UNL     1     -12.828  14.014  68.346  1.00  0.00     0.083 F  
HETATM   12  C   UNL     1     -11.568  13.845  68.779  1.00  0.00    -0.335 A  
BRANCH   9  13
HETATM   13  N   UNL     1      -8.392  12.501  67.323  1.00  0.00    -0.179 N  
HETATM   14  N   UNL     1      -7.260  10.737  66.361  1.00  0.00    -0.133 N  
HETATM   15  S   UNL     1      -9.999  10.735  65.958  1.00  0.00    -0.252 S  
HETATM   16  C   UNL     1      -8.543  11.269  66.611  1.00  0.00    -0.167 C  
HETATM   17  C   UNL     1      -6.308  11.746  66.416  1.00  0.00     0.225 C  
HETATM   18  C   UNL     1      -6.748  14.386  66.609  1.00  0.00     2.147 C  
HETATM   19  C   UNL     1      -6.263  14.854  68.002  1.00  0.00    -0.163 C  
HETATM   20  O   UNL     1      -5.169  11.726  65.960  1.00  0.00    -0.294 OA 
HETATM   21  C   UNL     1      -6.964  12.964  67.180  1.00  0.00     0.060 C  
HETATM   22  C   UNL     1      -6.138  13.385  68.423  1.00  0.00    -0.092 C  
BRANCH  14  23
HETATM   23  C   UNL     1      -6.927   9.345  66.168  1.00  0.00    -0.090 A  
HETATM   24  C   UNL     1      -7.086   8.688  64.936  1.00  0.00    -0.080 A  
HETATM   25  C   UNL     1      -6.098   6.682  65.802  1.00  0.00    -0.034 A  
HETATM   26  C   UNL     1      -6.834   6.670  63.408  1.00  0.00    -0.049 C  
HETATM   27  F   UNL     1      -5.642   6.254  62.899  1.00  0.00    -0.020 F  
HETATM   28  F   UNL     1      -7.380   7.470  62.456  1.00  0.00    -0.076 F  
HETATM   29  F   UNL     1      -7.630   5.573  63.476  1.00  0.00    -0.053 F  
HETATM   30  C   UNL     1      -5.666   5.311  65.726  1.00  0.00    -0.018 C  
HETATM   31  N   UNL     1      -5.892   7.278  66.998  1.00  0.00    -0.025 NA 
HETATM   32  C   UNL     1      -6.674   7.350  64.736  1.00  0.00    -0.047 A  
HETATM   33  N   UNL     1      -5.329   4.201  65.631  1.00  0.00    -0.009 NA 
HETATM   34  C   UNL     1      -6.290   8.572  67.141  1.00  0.00    -0.057 A  
ENDBRANCH  14  23
ENDBRANCH   9  13
ENDBRANCH   3   6
TORSDOF 3
ENDMDL
MODEL      141
REMARK 921   NORMALIZED FREE ENERGY PREDICTED BY IDOCK:    3.31 KCAL/MOL
REMARK 922        TOTAL FREE ENERGY PREDICTED BY IDOCK:    2.77 KCAL/MOL
REMARK 923 INTER-LIGAND FREE ENERGY PREDICTED BY IDOCK:    1.15 KCAL/MOL
REMARK 924 INTRA-LIGAND FREE ENERGY PREDICTED BY IDOCK:    1.62 KCAL/MOL
REMARK 927      BINDING AFFINITY PREDICTED BY RF-SCORE:    0.00 PKD
ROOT
HETATM    1  C   UNL     1      -9.474   4.736  65.228  1.00  0.00    -0.132 C  
HETATM    2  N   UNL     1      -9.112   6.070  65.630  1.00  0.00    -0.336 N  
HETATM    3  C   UNL     1      -7.937   6.324  66.301  1.00  0.00    -0.110 C  
HETATM    4  H   UNL     1      -9.741   6.843  65.414  1.00  0.00     0.000 HD 
HETATM    5  O   UNL     1      -7.098   5.462  66.543  1.00  0.00    -0.066 OA 
ENDROOT
BRANCH   3   6
HETATM    6  C   UNL     1      -7.708   7.719  66.755  1.00  0.00    -0.099 A  
HETATM    7  C   UNL     1      -6.642   7.991  67.615  1.00  0.00    -0.057 A  
HETATM    8  C   UNL     1      -6.489   9.270  68.176  1.00  0.00    -0.058 A  
HETATM    9  C   UNL     1      -7.386  10.311  67.885  1.00  0.00    -0.087 A  
HETATM   10  C   UNL     1      -8.365  10.047  66.926  1.00  0.00    -0.125 A  
HETATM   11  F   UNL     1      -9.573   8.582  65.556  1.00  0.00    -0.219 F  
HETATM   12  C   UNL     1      -8.544   8.767  66.399  1.00  0.00    -0.128 A  
BRANCH   9  13
HETATM   13  N   UNL     1      -7.342  11.559  68.584  1.00  0.00    -0.100 N  
HETATM   14  N   UNL     1      -6.938  13.829  68.633  1.00  0.00    -0.096 N  
HETATM   15  S   UNL     1      -9.045  13.044  67.017  1.00  0.00    -0.228 S  
HETATM   16  C   UNL     1      -7.713  12.821  68.021  1.00  0.00    -0.137 C  
HETATM   17  C   UNL     1      -6.467  13.387  69.861  1.00  0.00     0.003 C  
HETATM   18  C   UNL     1      -7.140  11.127  71.142  1.00  0.00     2.981 C  
HETATM   19  C   UNL     1      -5.905  10.195  71.154  1.00  0.00    -0.025 C  
HETATM   20  O   UNL     1      -6.038  14.068  70.787  1.00  0.00    -0.190 OA 
HETATM   21  C   UNL     1      -6.591  11.811  69.868  1.00  0.00     0.001 C  
HETATM   22  C   UNL     1      -5.227  11.122  70.138  1.00  0.00    -0.062 C  
BRANCH  14  23
HETATM   23  C   UNL     1      -6.584  15.108  68.062  1.00  0.00    -0.145 A  
HETATM   24  C   UNL     1      -7.375  15.759  67.102  1.00  0.00    -0.257 A  
HETATM   25  C   UNL     1      -5.936  17.676  67.118  1.00  0.00    -0.137 A  
HETATM   26  C   UNL     1      -7.931  17.740  65.606  1.00  0.00     0.380 C  
HETATM   27  F   UNL     1      -8.420  18.923  66.070  1.00  0.00    -0.302 F  
HETATM   28  F   UNL     1      -9.019  17.011  65.244  1.00  0.00     0.285 F  
HETATM   29  F   UNL     1      -7.269  18.020  64.455  1.00  0.00     1.414 F  
HETATM   30  C   UNL     1      -5.502  18.978  66.681  1.00  0.00    -0.150 C  
HETATM   31  N   UNL     1      -5.158  17.107  68.067  1.00  0.00    -0.114 NA 
HETATM   32  C   UNL     1      -7.064  17.051  66.618  1.00  0.00    -0.289 A  
HETATM   33  N   UNL     1      -5.180  20.031  66.303  1.00  0.00    -0.164 NA 
HETATM   34  C   UNL     1      -5.505  15.870  68.516  1.00  0.00    -0.101 A  
ENDBRANCH  14  23
ENDBRANCH   9  13
ENDBRANCH   3   6
TORSDOF 3
ENDMDL
MODEL      142
REMARK 921   NORMALIZED FREE ENERGY PREDICTED BY IDOCK:    3.53 KCAL/MOL
REMARK 922        TOTAL FREE ENERGY PREDICTED BY IDOCK:    3.03 KCAL/MOL
REMARK 923 INTER-LIGAND FREE ENERGY PREDICTED BY IDOCK:    3.53 KCAL/MOL
REMARK 924 INTRA-LIGAND FREE ENERGY PREDICTED BY IDOCK:   -0.50 KCAL/MOL
REMARK 927      BINDING AFFINITY PREDICTED BY RF-SCORE:    0.00 PKD
ROOT
HETATM    1  C   UNL     1      -8.971   3.314  73.299  1.00  0.00    -0.086 C  
HETATM    2  N   UNL     1      -9.386   4.519  72.629  1.00  0.00    -0.128 N  
HETATM    3  C   UNL     1      -8.485   5.512  72.315  1.00  0.00    -0.122 C  
HETATM    4  H   UNL     1     -10.368   4.639  72.383  1.00  0.00     0.000 HD 
HETATM    5  O   UNL     1      -7.280   5.419  72.519  1.00  0.00    -0.088 OA 
ENDROOT
BRANCH   3   6
HETATM    6  C   UNL     1      -9.034   6.754  71.714  1.00  0.00    -0.139 A  
HETATM    7  C   UNL     1      -9.987   6.658  70.698  1.00  0.00    -0.201 A  
HETATM    8  C   UNL     1     -10.414   7.807  70.011  1.00  0.00    -0.230 A  
HETATM    9  C   UNL     1      -9.911   9.080  70.329  1.00  0.00    -0.194 A  
HETATM   10  C   UNL     1      -9.058   9.162  71.431  1.00  0.00    -0.179 A  
HETATM   11  F   UNL     1      -7.705   8.185  73.073  1.00  0.00    -0.142 F  
HETATM   12  C   UNL     1      -8.601   8.019  72.086  1.00  0.00    -0.155 A  
BRANCH   9  13
HETATM   13  N   UNL     1     -10.205  10.226  69.524  1.00  0.00    -0.228 N  
HETATM   14  N   UNL     1      -9.684  12.338  68.756  1.00  0.00    -0.049 N  
HETATM   15  S   UNL     1      -7.910  10.346  68.013  1.00  0.00    -0.106 S  
HETATM   16  C   UNL     1      -9.226  11.005  68.829  1.00  0.00    -0.162 C  
HETATM   17  C   UNL     1     -11.063  12.374  68.904  1.00  0.00    -0.258 C  
HETATM   18  C   UNL     1     -12.747  10.286  68.973  1.00  0.00     1.543 C  
HETATM   19  C   UNL     1     -13.328  10.183  70.403  1.00  0.00     0.138 C  
HETATM   20  O   UNL     1     -11.826  13.286  68.595  1.00  0.00    -0.318 OA 
HETATM   21  C   UNL     1     -11.500  10.999  69.548  1.00  0.00    -0.299 C  
HETATM   22  C   UNL     1     -12.280  11.198  70.874  1.00  0.00    -0.468 C  
BRANCH  14  23
HETATM   23  C   UNL     1      -8.868  13.524  68.642  1.00  0.00    -0.003 A  
HETATM   24  C   UNL     1      -9.167  14.722  69.312  1.00  0.00    -0.035 A  
HETATM   25  C   UNL     1      -7.148  15.746  68.522  1.00  0.00    -0.118 A  
HETATM   26  C   UNL     1      -8.638  17.113  69.999  1.00  0.00     1.972 C  
HETATM   27  F   UNL     1      -7.674  17.443  70.903  1.00  0.00     3.176 F  
HETATM   28  F   UNL     1      -9.795  17.041  70.709  1.00  0.00     1.430 F  
HETATM   29  F   UNL     1      -8.774  18.180  69.172  1.00  0.00    -0.207 F  
HETATM   30  C   UNL     1      -6.215  16.834  68.375  1.00  0.00    -0.134 C  
HETATM   31  N   UNL     1      -6.797  14.606  67.886  1.00  0.00    -0.146 NA 
HETATM   32  C   UNL     1      -8.313  15.848  69.263  1.00  0.00    -0.238 A  
HETATM   33  N   UNL     1      -5.485  17.734  68.276  1.00  0.00    -0.152 NA 
HETATM   34  C   UNL     1      -7.642  13.542  67.974  1.00  0.00    -0.143 A  
ENDBRANCH  14  23
ENDBRANCH   9  13
ENDBRANCH   3   6
TORSDOF 3
ENDMDL
MODEL      143
REMARK 921   NORMALIZED FREE ENERGY PREDICTED BY IDOCK:    5.25 KCAL/MOL
REMARK 922        TOTAL FREE ENERGY PREDICTED BY IDOCK:    5.05 KCAL/MOL
REMARK 923 INTER-LIGAND FREE ENERGY PREDICTED BY IDOCK:    6.20 KCAL/MOL
REMARK 924 INTRA-LIGAND FREE ENERGY PREDICTED BY IDOCK:   -1.15 KCAL/MOL
REMARK 927      BINDING AFFINITY PREDICTED BY RF-SCORE:    0.00 PKD
ROOT
HETATM    1  C   UNL     1      -7.380  17.797  71.059  1.00  0.00     4.778 C  
HETATM    2  N   UNL     1      -7.904  16.922  70.043  1.00  0.00     1.220 N  
HETATM    3  C   UNL     1      -8.181  15.599  70.307  1.00  0.00     1.014 C  
HETATM    4  H   UNL     1      -8.075  17.291  69.107  1.00  0.00     0.000 HD 
HETATM    5  O   UNL     1      -8.065  15.095  71.419  1.00  0.00     2.551 OA 
ENDROOT
BRANCH   3   6
HETATM    6  C   UNL     1      -8.625  14.762  69.164  1.00  0.00    -0.089 A  
HETATM    7  C   UNL     1      -9.957  14.348  69.097  1.00  0.00    -0.078 A  
HETATM    8  C   UNL     1     -10.371  13.438  68.111  1.00  0.00    -0.249 A  
HETATM    9  C   UNL     1      -9.471  12.928  67.160  1.00  0.00    -0.229 A  
HETATM   10  C   UNL     1      -8.178  13.455  67.171  1.00  0.00    -0.121 A  
HETATM   11  F   UNL     1      -6.467  14.707  68.163  1.00  0.00    -0.093 F  
HETATM   12  C   UNL     1      -7.755  14.327  68.174  1.00  0.00    -0.141 A  
BRANCH   9  13
HETATM   13  N   UNL     1      -9.840  11.872  66.267  1.00  0.00    -0.219 N  
HETATM   14  N   UNL     1      -9.310   9.994  65.036  1.00  0.00    -0.235 N  
HETATM   15  S   UNL     1      -9.119   9.693  67.783  1.00  0.00    -0.123 S  
HETATM   16  C   UNL     1      -9.342  10.532  66.341  1.00  0.00    -0.168 C  
HETATM   17  C   UNL     1     -10.190  10.686  64.216  1.00  0.00    -0.320 C  
HETATM   18  C   UNL     1     -11.984  12.541  64.953  1.00  0.00    -0.468 C  
HETATM   19  C   UNL     1     -11.527  13.904  64.382  1.00  0.00    -0.376 C  
HETATM   20  O   UNL     1     -10.652  10.321  63.138  1.00  0.00     0.573 OA 
HETATM   21  C   UNL     1     -10.514  12.058  64.930  1.00  0.00    -0.285 C  
HETATM   22  C   UNL     1     -10.173  13.276  64.032  1.00  0.00     0.091 C  
BRANCH  14  23
HETATM   23  C   UNL     1      -8.440   8.946  64.559  1.00  0.00    -0.161 A  
HETATM   24  C   UNL     1      -8.605   7.597  64.915  1.00  0.00     0.091 A  
HETATM   25  C   UNL     1      -6.824   6.924  63.458  1.00  0.00    -0.054 A  
HETATM   26  C   UNL     1      -8.004   5.131  64.748  1.00  0.00    -0.104 C  
HETATM   27  F   UNL     1      -8.299   4.354  63.669  1.00  0.00    -0.087 F  
HETATM   28  F   UNL     1      -9.026   4.943  65.623  1.00  0.00    -0.127 F  
HETATM   29  F   UNL     1      -6.908   4.584  65.331  1.00  0.00    -0.051 F  
HETATM   30  C   UNL     1      -5.928   5.969  62.858  1.00  0.00    -0.025 C  
HETATM   31  N   UNL     1      -6.645   8.202  63.056  1.00  0.00    -0.084 NA 
HETATM   32  C   UNL     1      -7.802   6.569  64.370  1.00  0.00    -0.115 A  
HETATM   33  N   UNL     1      -5.219   5.171  62.395  1.00  0.00    -0.009 NA 
HETATM   34  C   UNL     1      -7.452   9.157  63.594  1.00  0.00    -0.106 A  
ENDBRANCH  14  23
ENDBRANCH   9  13
ENDBRANCH   3   6
TORSDOF 3
ENDMDL
MODEL      144
REMARK 921   NORMALIZED FREE ENERGY PREDICTED BY IDOCK:   11.85 KCAL/MOL
REMARK 922        TOTAL FREE ENERGY PREDICTED BY IDOCK:   12.81 KCAL/MOL
REMARK 923 INTER-LIGAND FREE ENERGY PREDICTED BY IDOCK:   13.58 KCAL/MOL
REMARK 924 INTRA-LIGAND FREE ENERGY PREDICTED BY IDOCK:   -0.77 KCAL/MOL
REMARK 927      BINDING AFFINITY PREDICTED BY RF-SCORE:    0.00 PKD
ROOT
HETATM    1  C   UNL     1     -12.482   7.426  71.775  1.00  0.00    -0.336 C  
HETATM    2  N   UNL     1     -12.642   8.751  71.235  1.00  0.00    -0.426 N  
HETATM    3  C   UNL     1     -11.570   9.605  71.099  1.00  0.00    -0.381 C  
HETATM    4  H   UNL     1     -13.569   9.064  70.948  1.00  0.00     0.000 HD 
HETATM    5  O   UNL     1     -10.415   9.285  71.359  1.00  0.00    -0.319 OA 
ENDROOT
BRANCH   3   6
HETATM    6  C   UNL     1     -11.861  10.981  70.624  1.00  0.00    -0.434 A  
HETATM    7  C   UNL     1     -11.026  11.566  69.669  1.00  0.00    -0.129 A  
HETATM    8  C   UNL     1     -11.188  12.914  69.311  1.00  0.00    -0.251 A  
HETATM    9  C   UNL     1     -12.195  13.709  69.885  1.00  0.00    -0.304 A  
HETATM   10  C   UNL     1     -13.093  13.067  70.738  1.00  0.00     0.082 A  
HETATM   11  F   UNL     1     -13.765  11.232  72.029  1.00  0.00    -0.386 F  
HETATM   12  C   UNL     1     -12.908  11.739  71.127  1.00  0.00    -0.267 A  
BRANCH   9  13
HETATM   13  N   UNL     1     -12.257  15.121  69.659  1.00  0.00    -0.285 N  
HETATM   14  N   UNL     1     -11.548  17.019  68.557  1.00  0.00     0.277 N  
HETATM   15  S   UNL     1     -12.829  15.147  66.969  1.00  0.00     2.459 S  
HETATM   16  C   UNL     1     -12.130  15.746  68.378  1.00  0.00     0.149 C  
HETATM   17  C   UNL     1     -11.744  17.451  69.861  1.00  0.00     2.700 C  
HETATM   18  C   UNL     1     -13.273  16.301  71.743  1.00  0.00     0.751 C  
HETATM   19  C   UNL     1     -12.341  15.740  72.843  1.00  0.00    -0.570 C  
HETATM   20  O   UNL     1     -11.659  18.598  70.290  1.00  0.00     4.489 OA 
HETATM   21  C   UNL     1     -12.116  16.180  70.723  1.00  0.00    -0.115 C  
HETATM   22  C   UNL     1     -11.144  15.981  71.916  1.00  0.00     0.188 C  
BRANCH  14  23
HETATM   23  C   UNL     1     -10.773  17.756  67.586  1.00  0.00    -0.322 A  
HETATM   24  C   UNL     1      -9.374  17.667  67.502  1.00  0.00    -0.248 A  
HETATM   25  C   UNL     1      -9.333  19.075  65.562  1.00  0.00     0.912 A  
HETATM   26  C   UNL     1      -7.143  18.202  66.404  1.00  0.00    -0.239 C  
HETATM   27  F   UNL     1      -6.739  17.671  65.217  1.00  0.00    -0.161 F  
HETATM   28  F   UNL     1      -6.612  17.400  67.363  1.00  0.00    -0.143 F  
HETATM   29  F   UNL     1      -6.514  19.398  66.527  1.00  0.00    -0.184 F  
HETATM   30  C   UNL     1      -8.689  19.811  64.505  1.00  0.00     3.923 C  
HETATM   31  N   UNL     1     -10.683  19.167  65.579  1.00  0.00    -0.470 NA 
HETATM   32  C   UNL     1      -8.636  18.323  66.491  1.00  0.00    -0.283 A  
HETATM   33  N   UNL     1      -8.135  20.394  63.664  1.00  0.00     2.887 NA 
HETATM   34  C   UNL     1     -11.354  18.505  66.561  1.00  0.00     1.017 A  
ENDBRANCH  14  23
ENDBRANCH   9  13
ENDBRANCH   3   6
TORSDOF 3
ENDMDL
MODEL      145
REMARK 921   NORMALIZED FREE ENERGY PREDICTED BY IDOCK:   12.43 KCAL/MOL
REMARK 922        TOTAL FREE ENERGY PREDICTED BY IDOCK:   13.49 KCAL/MOL
REMARK 923 INTER-LIGAND FREE ENERGY PREDICTED BY IDOCK:   14.21 KCAL/MOL
REMARK 924 INTRA-LIGAND FREE ENERGY PREDICTED BY IDOCK:   -0.72 KCAL/MOL
REMARK 927      BINDING AFFINITY PREDICTED BY RF-SCORE:    0.00 PKD
ROOT
HETATM    1  C   UNL     1     -12.498   4.520  69.529  1.00  0.00    14.221 C  
HETATM    2  N   UNL     1     -11.753   5.670  69.089  1.00  0.00     1.251 N  
HETATM    3  C   UNL     1     -10.749   5.559  68.153  1.00  0.00    -0.083 C  
HETATM    4  H   UNL     1     -11.973   6.586  69.479  1.00  0.00     0.000 HD 
HETATM    5  O   UNL     1     -10.465   4.508  67.589  1.00  0.00     0.068 OA 
ENDROOT
BRANCH   3   6
HETATM    6  C   UNL     1      -9.979   6.790  67.842  1.00  0.00    -0.164 A  
HETATM    7  C   UNL     1      -8.609   6.827  68.114  1.00  0.00    -0.120 A  
HETATM    8  C   UNL     1      -7.887   8.022  67.968  1.00  0.00    -0.126 A  
HETATM    9  C   UNL     1      -8.507   9.206  67.534  1.00  0.00    -0.116 A  
HETATM   10  C   UNL     1      -9.845   9.110  67.148  1.00  0.00    -0.253 A  
HETATM   11  F   UNL     1     -11.882   7.962  67.024  1.00  0.00     1.093 F  
HETATM   12  C   UNL     1     -10.574   7.935  67.332  1.00  0.00    -0.272 A  
BRANCH   9  13
HETATM   13  N   UNL     1      -7.822  10.462  67.551  1.00  0.00    -0.105 N  
HETATM   14  N   UNL     1      -7.803  12.753  67.277  1.00  0.00    -0.169 N  
HETATM   15  S   UNL     1      -9.381  11.830  69.358  1.00  0.00     1.041 S  
HETATM   16  C   UNL     1      -8.393  11.695  68.002  1.00  0.00    -0.148 C  
HETATM   17  C   UNL     1      -6.577  12.352  66.765  1.00  0.00     0.355 C  
HETATM   18  C   UNL     1      -5.263  10.072  67.290  1.00  0.00    -0.041 C  
HETATM   19  C   UNL     1      -5.258   9.212  66.003  1.00  0.00    -0.036 C  
HETATM   20  O   UNL     1      -5.665  13.067  66.362  1.00  0.00     1.113 OA 
HETATM   21  C   UNL     1      -6.552  10.772  66.798  1.00  0.00    -0.105 C  
HETATM   22  C   UNL     1      -6.294  10.164  65.394  1.00  0.00    -0.116 C  
BRANCH  14  23
HETATM   23  C   UNL     1      -8.393  14.042  67.004  1.00  0.00    -0.104 A  
HETATM   24  C   UNL     1      -7.754  15.254  67.319  1.00  0.00    -0.243 A  
HETATM   25  C   UNL     1      -9.507  16.523  66.288  1.00  0.00    -0.310 A  
HETATM   26  C   UNL     1      -7.597  17.792  67.293  1.00  0.00    -0.201 C  
HETATM   27  F   UNL     1      -7.311  18.519  66.178  1.00  0.00    -0.239 F  
HETATM   28  F   UNL     1      -6.408  17.608  67.924  1.00  0.00    -0.155 F  
HETATM   29  F   UNL     1      -8.329  18.598  68.102  1.00  0.00    -0.282 F  
HETATM   30  C   UNL     1     -10.175  17.739  65.900  1.00  0.00    -0.225 C  
HETATM   31  N   UNL     1     -10.146  15.386  65.932  1.00  0.00    -0.318 NA 
HETATM   32  C   UNL     1      -8.301  16.509  66.965  1.00  0.00    -0.220 A  
HETATM   33  N   UNL     1     -10.687  18.741  65.605  1.00  0.00    -0.503 NA 
HETATM   34  C   UNL     1      -9.576  14.200  66.278  1.00  0.00    -0.275 A  
ENDBRANCH  14  23
ENDBRANCH   9  13
ENDBRANCH   3   6
TORSDOF 3
ENDMDL
MODEL      146
REMARK 921   NORMALIZED FREE ENERGY PREDICTED BY IDOCK:   13.10 KCAL/MOL
REMARK 922        TOTAL FREE ENERGY PREDICTED BY IDOCK:   14.28 KCAL/MOL
REMARK 923 INTER-LIGAND FREE ENERGY PREDICTED BY IDOCK:   13.67 KCAL/MOL
REMARK 924 INTRA-LIGAND FREE ENERGY PREDICTED BY IDOCK:    0.61 KCAL/MOL
REMARK 927      BINDING AFFINITY PREDICTED BY RF-SCORE:    0.00 PKD
ROOT
HETATM    1  C   UNL     1      -6.443  21.317  65.242  1.00  0.00     0.149 C  
HETATM    2  N   UNL     1      -7.159  20.099  65.517  1.00  0.00    -0.371 N  
HETATM    3  C   UNL     1      -8.425  19.883  65.021  1.00  0.00     1.524 C  
HETATM    4  H   UNL     1      -6.719  19.382  66.093  1.00  0.00     0.000 HD 
HETATM    5  O   UNL     1      -8.998  20.665  64.270  1.00  0.00     1.805 OA 
ENDROOT
BRANCH   3   6
HETATM    6  C   UNL     1      -9.111  18.636  65.445  1.00  0.00     1.442 A  
HETATM    7  C   UNL     1      -8.361  17.474  65.638  1.00  0.00     0.501 A  
HETATM    8  C   UNL     1      -8.999  16.250  65.895  1.00  0.00    -0.222 A  
HETATM    9  C   UNL     1     -10.399  16.155  65.979  1.00  0.00    -0.358 A  
HETATM   10  C   UNL     1     -11.115  17.351  65.910  1.00  0.00     0.419 A  
HETATM   11  F   UNL     1     -11.266  19.646  65.468  1.00  0.00    -0.421 F  
HETATM   12  C   UNL     1     -10.487  18.561  65.613  1.00  0.00    -0.103 A  
BRANCH   9  13
HETATM   13  N   UNL     1     -11.062  14.890  66.065  1.00  0.00    -0.333 N  
HETATM   14  N   UNL     1     -11.885  13.124  67.300  1.00  0.00    -0.371 N  
HETATM   15  S   UNL     1     -13.138  15.554  67.743  1.00  0.00     3.943 S  
HETATM   16  C   UNL     1     -11.976  14.519  67.102  1.00  0.00    -0.345 C  
HETATM   17  C   UNL     1     -11.366  12.517  66.166  1.00  0.00    -0.343 C  
HETATM   18  C   UNL     1     -10.898  13.655  63.781  1.00  0.00     0.387 C  
HETATM   19  C   UNL     1      -9.367  13.705  63.565  1.00  0.00     5.316 C  
HETATM   20  O   UNL     1     -11.431  11.331  65.856  1.00  0.00    -0.127 OA 
HETATM   21  C   UNL     1     -10.665  13.646  65.310  1.00  0.00    -0.336 C  
HETATM   22  C   UNL     1      -9.171  13.327  65.037  1.00  0.00     0.975 C  
BRANCH  14  23
HETATM   23  C   UNL     1     -12.186  12.406  68.516  1.00  0.00     0.128 A  
HETATM   24  C   UNL     1     -12.386  13.048  69.750  1.00  0.00    -0.141 A  
HETATM   25  C   UNL     1     -12.943  10.973  70.815  1.00  0.00    -0.177 A  
HETATM   26  C   UNL     1     -12.995  13.046  72.219  1.00  0.00    -0.224 C  
HETATM   27  F   UNL     1     -14.263  12.867  72.684  1.00  0.00    -0.561 F  
HETATM   28  F   UNL     1     -12.819  14.391  72.144  1.00  0.00    -0.353 F  
HETATM   29  F   UNL     1     -12.161  12.614  73.198  1.00  0.00     1.631 F  
HETATM   30  C   UNL     1     -13.304  10.145  71.937  1.00  0.00    -0.402 C  
HETATM   31  N   UNL     1     -12.796  10.312  69.644  1.00  0.00     0.129 NA 
HETATM   32  C   UNL     1     -12.768  12.342  70.914  1.00  0.00    -0.273 A  
HETATM   33  N   UNL     1     -13.593   9.507  72.865  1.00  0.00    -0.025 NA 
HETATM   34  C   UNL     1     -12.444  11.034  68.545  1.00  0.00     0.805 A  
ENDBRANCH  14  23
ENDBRANCH   9  13
ENDBRANCH   3   6
TORSDOF 3
ENDMDL
MODEL      147
REMARK 921   NORMALIZED FREE ENERGY PREDICTED BY IDOCK:   14.13 KCAL/MOL
REMARK 922        TOTAL FREE ENERGY PREDICTED BY IDOCK:   15.49 KCAL/MOL
REMARK 923 INTER-LIGAND FREE ENERGY PREDICTED BY IDOCK:   15.52 KCAL/MOL
REMARK 924 INTRA-LIGAND FREE ENERGY PREDICTED BY IDOCK:   -0.03 KCAL/MOL
REMARK 927      BINDING AFFINITY PREDICTED BY RF-SCORE:    0.00 PKD
ROOT
HETATM    1  C   UNL     1     -12.101   3.629  68.895  1.00  0.00    16.964 C  
HETATM    2  N   UNL     1     -11.419   4.861  68.598  1.00  0.00     2.770 N  
HETATM    3  C   UNL     1     -10.388   4.910  67.687  1.00  0.00    -0.020 C  
HETATM    4  H   UNL     1     -11.707   5.717  69.073  1.00  0.00     0.000 HD 
HETATM    5  O   UNL     1     -10.024   3.942  67.027  1.00  0.00    -0.144 OA 
ENDROOT
BRANCH   3   6
HETATM    6  C   UNL     1      -9.690   6.210  67.527  1.00  0.00    -0.126 A  
HETATM    7  C   UNL     1      -8.324   6.292  67.806  1.00  0.00    -0.117 A  
HETATM    8  C   UNL     1      -7.671   7.535  67.806  1.00  0.00    -0.115 A  
HETATM    9  C   UNL     1      -8.359   8.725  67.516  1.00  0.00    -0.109 A  
HETATM   10  C   UNL     1      -9.690   8.601  67.117  1.00  0.00    -0.248 A  
HETATM   11  F   UNL     1     -11.659   7.362  66.850  1.00  0.00    -0.015 F  
HETATM   12  C   UNL     1     -10.352   7.373  67.157  1.00  0.00    -0.307 A  
BRANCH   9  13
HETATM   13  N   UNL     1      -7.746  10.007  67.685  1.00  0.00    -0.091 N  
HETATM   14  N   UNL     1      -7.867  12.311  67.724  1.00  0.00    -0.139 N  
HETATM   15  S   UNL     1      -9.316  11.023  69.701  1.00  0.00     0.740 S  
HETATM   16  C   UNL     1      -8.370  11.131  68.314  1.00  0.00    -0.143 C  
HETATM   17  C   UNL     1      -6.638  12.057  67.130  1.00  0.00    -0.143 C  
HETATM   18  C   UNL     1      -5.179   9.812  67.306  1.00  0.00    -0.035 C  
HETATM   19  C   UNL     1      -5.170   9.135  65.915  1.00  0.00    -0.036 C  
HETATM   20  O   UNL     1      -5.782  12.874  66.804  1.00  0.00    -0.093 OA 
HETATM   21  C   UNL     1      -6.522  10.492  66.948  1.00  0.00    -0.080 C  
HETATM   22  C   UNL     1      -6.278  10.095  65.468  1.00  0.00    -0.101 C  
BRANCH  14  23
HETATM   23  C   UNL     1      -8.537  13.587  67.644  1.00  0.00    -0.185 A  
HETATM   24  C   UNL     1      -9.569  13.962  68.521  1.00  0.00    -0.185 A  
HETATM   25  C   UNL     1      -9.685  16.153  67.555  1.00  0.00    -0.233 A  
HETATM   26  C   UNL     1     -11.244  15.638  69.446  1.00  0.00    -0.313 C  
HETATM   27  F   UNL     1     -10.896  16.710  70.210  1.00  0.00    -0.329 F  
HETATM   28  F   UNL     1     -11.567  14.653  70.324  1.00  0.00    -0.277 F  
HETATM   29  F   UNL     1     -12.398  15.970  68.817  1.00  0.00    -0.287 F  
HETATM   30  C   UNL     1     -10.223  17.481  67.410  1.00  0.00    -0.337 C  
HETATM   31  N   UNL     1      -8.672  15.854  66.711  1.00  0.00    -0.242 NA 
HETATM   32  C   UNL     1     -10.156  15.248  68.490  1.00  0.00    -0.222 A  
HETATM   33  N   UNL     1     -10.683  18.546  67.319  1.00  0.00    -0.409 NA 
HETATM   34  C   UNL     1      -8.126  14.610  66.787  1.00  0.00     0.123 A  
ENDBRANCH  14  23
ENDBRANCH   9  13
ENDBRANCH   3   6
TORSDOF 3
ENDMDL
MODEL      148
REMARK 921   NORMALIZED FREE ENERGY PREDICTED BY IDOCK:   15.67 KCAL/MOL
REMARK 922        TOTAL FREE ENERGY PREDICTED BY IDOCK:   17.30 KCAL/MOL
REMARK 923 INTER-LIGAND FREE ENERGY PREDICTED BY IDOCK:   16.05 KCAL/MOL
REMARK 924 INTRA-LIGAND FREE ENERGY PREDICTED BY IDOCK:    1.25 KCAL/MOL
REMARK 927      BINDING AFFINITY PREDICTED BY RF-SCORE:    0.00 PKD
ROOT
HETATM    1  C   UNL     1      -9.215   1.473  72.504  1.00  0.00    -0.073 C  
HETATM    2  N   UNL     1      -9.050   2.839  72.081  1.00  0.00    -0.086 N  
HETATM    3  C   UNL     1     -10.122   3.596  71.664  1.00  0.00    -0.062 C  
HETATM    4  H   UNL     1      -8.119   3.255  72.091  1.00  0.00     0.000 HD 
HETATM    5  O   UNL     1     -11.280   3.193  71.682  1.00  0.00     1.606 OA 
ENDROOT
BRANCH   3   6
HETATM    6  C   UNL     1      -9.828   4.960  71.156  1.00  0.00    -0.261 A  
HETATM    7  C   UNL     1      -9.581   5.990  72.067  1.00  0.00    -0.167 A  
HETATM    8  C   UNL     1      -9.446   7.315  71.623  1.00  0.00    -0.161 A  
HETATM    9  C   UNL     1      -9.540   7.645  70.260  1.00  0.00    -0.172 A  
HETATM   10  C   UNL     1      -9.659   6.583  69.362  1.00  0.00    -0.149 A  
HETATM   11  F   UNL     1     -10.041   4.326  68.872  1.00  0.00    -0.215 F  
HETATM   12  C   UNL     1      -9.835   5.271  69.804  1.00  0.00    -0.211 A  
BRANCH   9  13
HETATM   13  N   UNL     1      -9.579   9.006  69.818  1.00  0.00    -0.169 N  
HETATM   14  N   UNL     1     -10.326  11.177  70.040  1.00  0.00     0.411 N  
HETATM   15  S   UNL     1      -8.711  10.272  72.100  1.00  0.00     7.417 S  
HETATM   16  C   UNL     1      -9.616  10.143  70.686  1.00  0.00     0.561 C  
HETATM   17  C   UNL     1     -10.319  10.972  68.667  1.00  0.00    -0.193 C  
HETATM   18  C   UNL     1      -8.916   9.134  67.305  1.00  0.00    -0.136 C  
HETATM   19  C   UNL     1      -9.912   8.107  66.717  1.00  0.00    -0.349 C  
HETATM   20  O   UNL     1     -10.554  11.794  67.787  1.00  0.00    -0.191 OA 
HETATM   21  C   UNL     1      -9.935   9.459  68.424  1.00  0.00    -0.170 C  
HETATM   22  C   UNL     1     -11.013   8.710  67.597  1.00  0.00     0.086 C  
BRANCH  14  23
HETATM   23  C   UNL     1     -11.049  12.253  70.676  1.00  0.00     1.813 A  
HETATM   24  C   UNL     1     -11.588  13.336  69.962  1.00  0.00    -0.212 A  
HETATM   25  C   UNL     1     -12.599  14.228  71.944  1.00  0.00    -0.315 A  
HETATM   26  C   UNL     1     -12.953  15.476  69.802  1.00  0.00     0.337 C  
HETATM   27  F   UNL     1     -14.311  15.513  69.886  1.00  0.00     1.021 F  
HETATM   28  F   UNL     1     -12.669  15.419  68.475  1.00  0.00     0.138 F  
HETATM   29  F   UNL     1     -12.507  16.684  70.228  1.00  0.00     0.426 F  
HETATM   30  C   UNL     1     -13.355  15.199  72.692  1.00  0.00    -0.464 C  
HETATM   31  N   UNL     1     -12.131  13.189  72.672  1.00  0.00     1.345 NA 
HETATM   32  C   UNL     1     -12.370  14.336  70.584  1.00  0.00    -0.431 A  
HETATM   33  N   UNL     1     -13.969  16.005  73.265  1.00  0.00    -0.353 NA 
HETATM   34  C   UNL     1     -11.397  12.240  72.029  1.00  0.00     5.429 A  
ENDBRANCH  14  23
ENDBRANCH   9  13
ENDBRANCH   3   6
TORSDOF 3
ENDMDL
MODEL      149
REMARK 921   NORMALIZED FREE ENERGY PREDICTED BY IDOCK:   16.87 KCAL/MOL
REMARK 922        TOTAL FREE ENERGY PREDICTED BY IDOCK:   18.71 KCAL/MOL
REMARK 923 INTER-LIGAND FREE ENERGY PREDICTED BY IDOCK:   19.03 KCAL/MOL
REMARK 924 INTRA-LIGAND FREE ENERGY PREDICTED BY IDOCK:   -0.31 KCAL/MOL
REMARK 927      BINDING AFFINITY PREDICTED BY RF-SCORE:    0.00 PKD
ROOT
HETATM    1  C   UNL     1     -13.581  17.814  65.773  1.00  0.00    15.167 C  
HETATM    2  N   UNL     1     -12.947  16.584  66.168  1.00  0.00     4.761 N  
HETATM    3  C   UNL     1     -12.085  15.918  65.325  1.00  0.00     0.852 C  
HETATM    4  H   UNL     1     -13.140  16.198  67.092  1.00  0.00     0.000 HD 
HETATM    5  O   UNL     1     -11.751  16.347  64.226  1.00  0.00    -0.739 OA 
ENDROOT
BRANCH   3   6
HETATM    6  C   UNL     1     -11.562  14.610  65.793  1.00  0.00    -0.328 A  
HETATM    7  C   UNL     1     -10.257  14.531  66.284  1.00  0.00    -0.306 A  
HETATM    8  C   UNL     1      -9.687  13.286  66.594  1.00  0.00    -0.270 A  
HETATM    9  C   UNL     1     -10.408  12.089  66.436  1.00  0.00    -0.216 A  
HETATM   10  C   UNL     1     -11.748  12.207  66.066  1.00  0.00    -0.388 A  
HETATM   11  F   UNL     1     -13.573  13.445  65.278  1.00  0.00    -0.130 F  
HETATM   12  C   UNL     1     -12.303  13.439  65.717  1.00  0.00    -0.460 A  
BRANCH   9  13
HETATM   13  N   UNL     1      -9.781  10.811  66.580  1.00  0.00    -0.185 N  
HETATM   14  N   UNL     1      -8.917   9.126  67.899  1.00  0.00    -0.128 N  
HETATM   15  S   UNL     1     -11.642   9.546  68.162  1.00  0.00     1.315 S  
HETATM   16  C   UNL     1     -10.084   9.869  67.614  1.00  0.00    -0.197 C  
HETATM   17  C   UNL     1      -8.049   9.173  66.817  1.00  0.00    -0.111 C  
HETATM   18  C   UNL     1      -8.541  10.185  64.381  1.00  0.00    -0.199 C  
HETATM   19  C   UNL     1      -7.670  11.451  64.201  1.00  0.00     1.421 C  
HETATM   20  O   UNL     1      -7.110   8.420  66.578  1.00  0.00    -0.070 OA 
HETATM   21  C   UNL     1      -8.495  10.391  65.913  1.00  0.00    -0.156 C  
HETATM   22  C   UNL     1      -7.344  11.408  65.698  1.00  0.00     0.539 C  
BRANCH  14  23
HETATM   23  C   UNL     1      -8.592   8.480  69.148  1.00  0.00    -0.133 A  
HETATM   24  C   UNL     1      -7.998   7.208  69.216  1.00  0.00    -0.119 A  
HETATM   25  C   UNL     1      -7.818   7.345  71.602  1.00  0.00    -0.087 A  
HETATM   26  C   UNL     1      -6.953   5.273  70.493  1.00  0.00    -0.052 C  
HETATM   27  F   UNL     1      -5.713   5.322  71.055  1.00  0.00    -0.013 F  
HETATM   28  F   UNL     1      -6.777   4.713  69.268  1.00  0.00    -0.040 F  
HETATM   29  F   UNL     1      -7.669   4.376  71.215  1.00  0.00    -0.069 F  
HETATM   30  C   UNL     1      -7.483   6.843  72.910  1.00  0.00    -0.082 C  
HETATM   31  N   UNL     1      -8.355   8.586  71.590  1.00  0.00    -0.155 NA 
HETATM   32  C   UNL     1      -7.602   6.624  70.441  1.00  0.00    -0.096 A  
HETATM   33  N   UNL     1      -7.202   6.405  73.951  1.00  0.00    -0.086 NA 
HETATM   34  C   UNL     1      -8.706   9.116  70.386  1.00  0.00    -0.215 A  
ENDBRANCH  14  23
ENDBRANCH   9  13
ENDBRANCH   3   6
TORSDOF 3
ENDMDL
MODEL      150
REMARK 921   NORMALIZED FREE ENERGY PREDICTED BY IDOCK:   17.70 KCAL/MOL
REMARK 922        TOTAL FREE ENERGY PREDICTED BY IDOCK:   19.69 KCAL/MOL
REMARK 923 INTER-LIGAND FREE ENERGY PREDICTED BY IDOCK:   19.26 KCAL/MOL
REMARK 924 INTRA-LIGAND FREE ENERGY PREDICTED BY IDOCK:    0.43 KCAL/MOL
REMARK 927      BINDING AFFINITY PREDICTED BY RF-SCORE:    0.00 PKD
ROOT
HETATM    1  C   UNL     1      -9.708   7.670  64.546  1.00  0.00     3.068 C  
HETATM    2  N   UNL     1      -9.722   9.109  64.519  1.00  0.00    -0.067 N  
HETATM    3  C   UNL     1      -9.642   9.850  65.677  1.00  0.00    -0.256 C  
HETATM    4  H   UNL     1      -9.793   9.591  63.623  1.00  0.00     0.000 HD 
HETATM    5  O   UNL     1      -9.491   9.352  66.787  1.00  0.00    -0.149 OA 
ENDROOT
BRANCH   3   6
HETATM    6  C   UNL     1      -9.763  11.324  65.545  1.00  0.00    -0.268 A  
HETATM    7  C   UNL     1      -8.737  12.042  64.926  1.00  0.00     0.952 A  
HETATM    8  C   UNL     1      -8.756  13.446  64.918  1.00  0.00     3.042 A  
HETATM    9  C   UNL     1      -9.803  14.169  65.514  1.00  0.00    -0.230 A  
HETATM   10  C   UNL     1     -10.876  13.428  66.012  1.00  0.00    -0.281 A  
HETATM   11  F   UNL     1     -11.873  11.406  66.643  1.00  0.00    -0.254 F  
HETATM   12  C   UNL     1     -10.840  12.034  66.058  1.00  0.00    -0.289 A  
BRANCH   9  13
HETATM   13  N   UNL     1      -9.743  15.591  65.665  1.00  0.00    -0.337 N  
HETATM   14  N   UNL     1      -9.198  17.467  66.892  1.00  0.00    -0.257 N  
HETATM   15  S   UNL     1      -7.047  15.908  66.109  1.00  0.00     2.137 S  
HETATM   16  C   UNL     1      -8.673  16.297  66.302  1.00  0.00    -0.335 C  
HETATM   17  C   UNL     1     -10.393  17.813  66.277  1.00  0.00    -0.358 C  
HETATM   18  C   UNL     1     -11.466  16.718  64.075  1.00  0.00     1.256 C  
HETATM   19  C   UNL     1     -12.746  15.956  64.492  1.00  0.00     0.993 C  
HETATM   20  O   UNL     1     -10.961  18.901  66.304  1.00  0.00    -0.194 OA 
HETATM   21  C   UNL     1     -10.910  16.534  65.507  1.00  0.00    -0.188 C  
HETATM   22  C   UNL     1     -12.334  16.117  65.959  1.00  0.00     2.299 C  
BRANCH  14  23
HETATM   23  C   UNL     1      -8.657  18.176  68.028  1.00  0.00    -0.265 A  
HETATM   24  C   UNL     1      -9.466  18.791  68.998  1.00  0.00    -0.260 A  
HETATM   25  C   UNL     1      -7.552  19.389  70.312  1.00  0.00     0.923 A  
HETATM   26  C   UNL     1      -9.806  20.040  71.187  1.00  0.00     2.087 C  
HETATM   27  F   UNL     1      -9.648  19.469  72.414  1.00  0.00     2.142 F  
HETATM   28  F   UNL     1     -11.130  19.938  70.904  1.00  0.00     1.481 F  
HETATM   29  F   UNL     1      -9.557  21.364  71.342  1.00  0.00     1.404 F  
HETATM   30  C   UNL     1      -6.886  20.005  71.430  1.00  0.00     0.537 C  
HETATM   31  N   UNL     1      -6.731  18.782  69.425  1.00  0.00    -0.257 NA 
HETATM   32  C   UNL     1      -8.926  19.404  70.152  1.00  0.00     1.223 A  
HETATM   33  N   UNL     1      -6.381  20.515  72.346  1.00  0.00     0.230 NA 
HETATM   34  C   UNL     1      -7.295  18.190  68.337  1.00  0.00    -0.270 A  
ENDBRANCH  14  23
ENDBRANCH   9  13
ENDBRANCH   3   6
TORSDOF 3
ENDMDL
MODEL      151
REMARK 921   NORMALIZED FREE ENERGY PREDICTED BY IDOCK:   18.39 KCAL/MOL
REMARK 922        TOTAL FREE ENERGY PREDICTED BY IDOCK:   20.49 KCAL/MOL
REMARK 923 INTER-LIGAND FREE ENERGY PREDICTED BY IDOCK:   20.03 KCAL/MOL
REMARK 924 INTRA-LIGAND FREE ENERGY PREDICTED BY IDOCK:    0.46 KCAL/MOL
REMARK 927      BINDING AFFINITY PREDICTED BY RF-SCORE:    0.00 PKD
ROOT
HETATM    1  C   UNL     1     -13.613   5.739  66.490  1.00  0.00    15.863 C  
HETATM    2  N   UNL     1     -12.335   6.388  66.612  1.00  0.00     2.440 N  
HETATM    3  C   UNL     1     -11.904   6.906  67.813  1.00  0.00     1.559 C  
HETATM    4  H   UNL     1     -11.735   6.467  65.790  1.00  0.00     0.000 HD 
HETATM    5  O   UNL     1     -12.534   6.797  68.859  1.00  0.00     1.880 OA 
ENDROOT
BRANCH   3   6
HETATM    6  C   UNL     1     -10.614   7.640  67.806  1.00  0.00    -0.265 A  
HETATM    7  C   UNL     1     -10.394   8.646  68.750  1.00  0.00    -0.228 A  
HETATM    8  C   UNL     1      -9.248   9.454  68.676  1.00  0.00    -0.131 A  
HETATM    9  C   UNL     1      -8.286   9.272  67.668  1.00  0.00    -0.116 A  
HETATM   10  C   UNL     1      -8.466   8.181  66.817  1.00  0.00    -0.123 A  
HETATM   11  F   UNL     1      -9.757   6.435  65.941  1.00  0.00    -0.117 F  
HETATM   12  C   UNL     1      -9.624   7.404  66.862  1.00  0.00    -0.187 A  
BRANCH   9  13
HETATM   13  N   UNL     1      -7.211  10.198  67.480  1.00  0.00    -0.087 N  
HETATM   14  N   UNL     1      -6.259  12.275  67.800  1.00  0.00    -0.087 N  
HETATM   15  S   UNL     1      -6.619  10.778  70.102  1.00  0.00    -0.088 S  
HETATM   16  C   UNL     1      -6.763  11.136  68.464  1.00  0.00    -0.062 C  
HETATM   17  C   UNL     1      -5.899  11.947  66.501  1.00  0.00     0.174 C  
HETATM   18  C   UNL     1      -5.797   9.496  65.412  1.00  0.00    -0.063 C  
HETATM   19  C   UNL     1      -6.918   9.395  64.349  1.00  0.00    -0.101 C  
HETATM   20  O   UNL     1      -5.160  12.574  65.748  1.00  0.00     1.444 OA 
HETATM   21  C   UNL     1      -6.616  10.583  66.148  1.00  0.00    -0.123 C  
HETATM   22  C   UNL     1      -7.509  10.704  64.886  1.00  0.00     0.103 C  
BRANCH  14  23
HETATM   23  C   UNL     1      -6.199  13.619  68.324  1.00  0.00    -0.107 A  
HETATM   24  C   UNL     1      -6.987  14.668  67.822  1.00  0.00    -0.194 A  
HETATM   25  C   UNL     1      -6.169  16.175  69.498  1.00  0.00    -0.181 A  
HETATM   26  C   UNL     1      -7.847  17.062  67.864  1.00  0.00    -0.184 C  
HETATM   27  F   UNL     1      -8.715  17.535  68.800  1.00  0.00    -0.274 F  
HETATM   28  F   UNL     1      -8.616  16.680  66.812  1.00  0.00    -0.196 F  
HETATM   29  F   UNL     1      -7.125  18.126  67.433  1.00  0.00    -0.189 F  
HETATM   30  C   UNL     1      -6.060  17.452  70.154  1.00  0.00    -0.014 C  
HETATM   31  N   UNL     1      -5.415  15.191  70.040  1.00  0.00    -0.113 NA 
HETATM   32  C   UNL     1      -6.984  15.958  68.401  1.00  0.00    -0.116 A  
HETATM   33  N   UNL     1      -5.996  18.499  70.659  1.00  0.00     0.004 NA 
HETATM   34  C   UNL     1      -5.462  13.961  69.460  1.00  0.00    -0.086 A  
ENDBRANCH  14  23
ENDBRANCH   9  13
ENDBRANCH   3   6
TORSDOF 3
ENDMDL
MODEL      152
REMARK 921   NORMALIZED FREE ENERGY PREDICTED BY IDOCK:   19.47 KCAL/MOL
REMARK 922        TOTAL FREE ENERGY PREDICTED BY IDOCK:   21.77 KCAL/MOL
REMARK 923 INTER-LIGAND FREE ENERGY PREDICTED BY IDOCK:   21.33 KCAL/MOL
REMARK 924 INTRA-LIGAND FREE ENERGY PREDICTED BY IDOCK:    0.44 KCAL/MOL
REMARK 927      BINDING AFFINITY PREDICTED BY RF-SCORE:    0.00 PKD
ROOT
HETATM    1  C   UNL     1     -12.672   4.607  70.255  1.00  0.00    12.469 C  
HETATM    2  N   UNL     1     -12.134   5.674  69.453  1.00  0.00     2.518 N  
HETATM    3  C   UNL     1     -10.782   5.776  69.209  1.00  0.00    -0.316 C  
HETATM    4  H   UNL     1     -12.767   6.369  69.058  1.00  0.00     0.000 HD 
HETATM    5  O   UNL     1      -9.962   4.949  69.593  1.00  0.00    -0.200 OA 
ENDROOT
BRANCH   3   6
HETATM    6  C   UNL     1     -10.323   6.968  68.453  1.00  0.00    -0.216 A  
HETATM    7  C   UNL     1      -9.884   6.815  67.135  1.00  0.00    -0.207 A  
HETATM    8  C   UNL     1      -9.308   7.894  66.447  1.00  0.00    -0.247 A  
HETATM    9  C   UNL     1      -9.166   9.157  67.049  1.00  0.00    -0.135 A  
HETATM   10  C   UNL     1      -9.726   9.315  68.317  1.00  0.00    -0.167 A  
HETATM   11  F   UNL     1     -10.689   8.458  70.271  1.00  0.00    -0.216 F  
HETATM   12  C   UNL     1     -10.261   8.234  69.018  1.00  0.00    -0.217 A  
BRANCH   9  13
HETATM   13  N   UNL     1      -8.424  10.208  66.422  1.00  0.00    -0.129 N  
HETATM   14  N   UNL     1      -7.850  12.434  66.232  1.00  0.00     0.523 N  
HETATM   15  S   UNL     1      -7.101  11.225  68.608  1.00  0.00    -0.100 S  
HETATM   16  C   UNL     1      -7.862  11.330  67.110  1.00  0.00    -0.151 C  
HETATM   17  C   UNL     1      -7.897  11.995  64.916  1.00  0.00     2.631 C  
HETATM   18  C   UNL     1      -7.691   9.467  64.038  1.00  0.00    -0.124 C  
HETATM   19  C   UNL     1      -9.063   9.045  63.460  1.00  0.00     0.286 C  
HETATM   20  O   UNL     1      -7.598  12.624  63.906  1.00  0.00     5.481 OA 
HETATM   21  C   UNL     1      -8.407  10.499  64.942  1.00  0.00    -0.135 C  
HETATM   22  C   UNL     1      -9.683  10.304  64.080  1.00  0.00    -0.357 C  
BRANCH  14  23
HETATM   23  C   UNL     1      -7.882  13.830  66.602  1.00  0.00     0.782 A  
HETATM   24  C   UNL     1      -7.153  14.346  67.686  1.00  0.00    -0.202 A  
HETATM   25  C   UNL     1      -7.840  16.584  67.169  1.00  0.00    -0.182 A  
HETATM   26  C   UNL     1      -6.322  16.265  69.134  1.00  0.00    -0.168 C  
HETATM   27  F   UNL     1      -5.381  17.163  68.731  1.00  0.00    -0.132 F  
HETATM   28  F   UNL     1      -5.642  15.304  69.813  1.00  0.00    -0.098 F  
HETATM   29  F   UNL     1      -7.091  16.899  70.054  1.00  0.00     0.023 F  
HETATM   30  C   UNL     1      -7.906  18.006  67.389  1.00  0.00    -0.216 C  
HETATM   31  N   UNL     1      -8.532  16.142  66.094  1.00  0.00    -0.317 NA 
HETATM   32  C   UNL     1      -7.121  15.728  67.984  1.00  0.00    -0.134 A  
HETATM   33  N   UNL     1      -7.940  19.150  67.598  1.00  0.00    -0.257 NA 
HETATM   34  C   UNL     1      -8.521  14.806  65.835  1.00  0.00     1.242 A  
ENDBRANCH  14  23
ENDBRANCH   9  13
ENDBRANCH   3   6
TORSDOF 3
ENDMDL
MODEL      153
REMARK 921   NORMALIZED FREE ENERGY PREDICTED BY IDOCK:   25.61 KCAL/MOL
REMARK 922        TOTAL FREE ENERGY PREDICTED BY IDOCK:   28.98 KCAL/MOL
REMARK 923 INTER-LIGAND FREE ENERGY PREDICTED BY IDOCK:   28.44 KCAL/MOL
REMARK 924 INTRA-LIGAND FREE ENERGY PREDICTED BY IDOCK:    0.54 KCAL/MOL
REMARK 927      BINDING AFFINITY PREDICTED BY RF-SCORE:    0.00 PKD
ROOT
HETATM    1  C   UNL     1      -7.516  19.290  63.023  1.00  0.00     8.130 C  
HETATM    2  N   UNL     1      -7.992  18.072  63.623  1.00  0.00    11.893 N  
HETATM    3  C   UNL     1      -8.688  18.081  64.812  1.00  0.00     4.935 C  
HETATM    4  H   UNL     1      -7.810  17.183  63.158  1.00  0.00     0.000 HD 
HETATM    5  O   UNL     1      -9.003  19.109  65.402  1.00  0.00     0.113 OA 
ENDROOT
BRANCH   3   6
HETATM    6  C   UNL     1      -9.047  16.762  65.392  1.00  0.00     0.912 A  
HETATM    7  C   UNL     1      -8.093  16.054  66.126  1.00  0.00     0.054 A  
HETATM    8  C   UNL     1      -8.356  14.745  66.560  1.00  0.00     0.131 A  
HETATM    9  C   UNL     1      -9.581  14.114  66.286  1.00  0.00    -0.275 A  
HETATM   10  C   UNL     1     -10.562  14.888  65.664  1.00  0.00    -0.358 A  
HETATM   11  F   UNL     1     -11.262  16.808  64.521  1.00  0.00    -0.484 F  
HETATM   12  C   UNL     1     -10.288  16.173  65.195  1.00  0.00    -0.171 A  
BRANCH   9  13
HETATM   13  N   UNL     1      -9.791  12.727  66.569  1.00  0.00    -0.252 N  
HETATM   14  N   UNL     1     -10.451  11.037  67.994  1.00  0.00    -0.181 N  
HETATM   15  S   UNL     1     -12.464  12.772  67.216  1.00  0.00     0.990 S  
HETATM   16  C   UNL     1     -10.883  12.208  67.336  1.00  0.00    -0.245 C  
HETATM   17  C   UNL     1      -9.353  10.501  67.336  1.00  0.00    -0.142 C  
HETATM   18  C   UNL     1      -8.333  11.274  64.978  1.00  0.00     0.361 C  
HETATM   19  C   UNL     1      -6.946  11.909  65.239  1.00  0.00     2.620 C  
HETATM   20  O   UNL     1      -8.912   9.358  67.424  1.00  0.00    -0.124 OA 
HETATM   21  C   UNL     1      -8.754  11.641  66.420  1.00  0.00    -0.170 C  
HETATM   22  C   UNL     1      -7.262  11.921  66.739  1.00  0.00    -0.007 C  
BRANCH  14  23
HETATM   23  C   UNL     1     -10.981  10.494  69.223  1.00  0.00    -0.244 A  
HETATM   24  C   UNL     1     -10.252   9.622  70.048  1.00  0.00    -0.296 A  
HETATM   25  C   UNL     1     -11.997   9.609  71.692  1.00  0.00    -0.394 A  
HETATM   26  C   UNL     1      -9.948   8.252  72.169  1.00  0.00    -0.273 C  
HETATM   27  F   UNL     1      -9.700   8.798  73.391  1.00  0.00    -0.055 F  
HETATM   28  F   UNL     1      -8.729   7.942  71.654  1.00  0.00    -0.115 F  
HETATM   29  F   UNL     1     -10.570   7.068  72.394  1.00  0.00    -0.208 F  
HETATM   30  C   UNL     1     -12.617   9.195  72.923  1.00  0.00     0.346 C  
HETATM   31  N   UNL     1     -12.726  10.475  70.951  1.00  0.00    -0.376 NA 
HETATM   32  C   UNL     1     -10.748   9.169  71.292  1.00  0.00    -0.401 A  
HETATM   33  N   UNL     1     -13.090   8.837  73.925  1.00  0.00     3.039 NA 
HETATM   34  C   UNL     1     -12.202  10.898  69.768  1.00  0.00    -0.311 A  
ENDBRANCH  14  23
ENDBRANCH   9  13
ENDBRANCH   3   6
TORSDOF 3
ENDMDL
MODEL      154
REMARK 921   NORMALIZED FREE ENERGY PREDICTED BY IDOCK:   28.91 KCAL/MOL
REMARK 922        TOTAL FREE ENERGY PREDICTED BY IDOCK:   32.86 KCAL/MOL
REMARK 923 INTER-LIGAND FREE ENERGY PREDICTED BY IDOCK:   32.06 KCAL/MOL
REMARK 924 INTRA-LIGAND FREE ENERGY PREDICTED BY IDOCK:    0.80 KCAL/MOL
REMARK 927      BINDING AFFINITY PREDICTED BY RF-SCORE:    0.00 PKD
ROOT
HETATM    1  C   UNL     1     -12.703   4.603  70.258  1.00  0.00    12.469 C  
HETATM    2  N   UNL     1     -12.487   5.857  69.585  1.00  0.00     2.525 N  
HETATM    3  C   UNL     1     -11.218   6.340  69.356  1.00  0.00    -0.420 C  
HETATM    4  H   UNL     1     -13.292   6.400  69.272  1.00  0.00     0.000 HD 
HETATM    5  O   UNL     1     -10.199   5.721  69.642  1.00  0.00    -0.190 OA 
ENDROOT
BRANCH   3   6
HETATM    6  C   UNL     1     -11.110   7.687  68.742  1.00  0.00     0.202 A  
HETATM    7  C   UNL     1     -10.603   7.811  67.447  1.00  0.00    -0.345 A  
HETATM    8  C   UNL     1     -10.352   9.079  66.898  1.00  0.00    -0.324 A  
HETATM    9  C   UNL     1     -10.613  10.255  67.621  1.00  0.00    -0.263 A  
HETATM   10  C   UNL     1     -11.237  10.107  68.861  1.00  0.00    -0.220 A  
HETATM   11  F   UNL     1     -11.965   8.802  70.664  1.00  0.00    -0.277 F  
HETATM   12  C   UNL     1     -11.448   8.848  69.425  1.00  0.00     0.434 A  
BRANCH   9  13
HETATM   13  N   UNL     1     -10.199  11.539  67.142  1.00  0.00    -0.200 N  
HETATM   14  N   UNL     1     -10.348  13.840  67.155  1.00  0.00    -0.260 N  
HETATM   15  S   UNL     1      -9.434  12.707  69.511  1.00  0.00     1.824 S  
HETATM   16  C   UNL     1     -10.075  12.710  67.955  1.00  0.00    -0.222 C  
HETATM   17  C   UNL     1     -10.154  13.533  65.816  1.00  0.00    -0.287 C  
HETATM   18  C   UNL     1      -9.092  11.287  64.801  1.00  0.00    -0.032 C  
HETATM   19  C   UNL     1     -10.212  10.517  64.062  1.00  0.00    -0.238 C  
HETATM   20  O   UNL     1      -9.996  14.315  64.884  1.00  0.00    -0.317 OA 
HETATM   21  C   UNL     1     -10.164  11.957  65.693  1.00  0.00    -0.245 C  
HETATM   22  C   UNL     1     -11.243  11.458  64.697  1.00  0.00    -0.220 C  
BRANCH  14  23
HETATM   23  C   UNL     1     -10.848  15.117  67.611  1.00  0.00    -0.295 A  
HETATM   24  C   UNL     1     -10.967  15.446  68.971  1.00  0.00    -0.252 A  
HETATM   25  C   UNL     1     -11.659  17.679  68.439  1.00  0.00     1.286 A  
HETATM   26  C   UNL     1     -11.477  17.071  70.861  1.00  0.00     0.996 C  
HETATM   27  F   UNL     1     -10.664  18.108  71.204  1.00  0.00     0.942 F  
HETATM   28  F   UNL     1     -11.126  16.045  71.680  1.00  0.00    -0.345 F  
HETATM   29  F   UNL     1     -12.734  17.427  71.226  1.00  0.00     3.554 F  
HETATM   30  C   UNL     1     -12.108  19.010  68.757  1.00  0.00     5.711 C  
HETATM   31  N   UNL     1     -11.529  17.423  67.117  1.00  0.00     0.654 NA 
HETATM   32  C   UNL     1     -11.373  16.730  69.404  1.00  0.00     0.163 A  
HETATM   33  N   UNL     1     -12.471  20.076  69.050  1.00  0.00     6.228 NA 
HETATM   34  C   UNL     1     -11.120  16.179  66.747  1.00  0.00     0.027 A  
ENDBRANCH  14  23
ENDBRANCH   9  13
ENDBRANCH   3   6
TORSDOF 3
ENDMDL
MODEL      155
REMARK 921   NORMALIZED FREE ENERGY PREDICTED BY IDOCK:   30.64 KCAL/MOL
REMARK 922        TOTAL FREE ENERGY PREDICTED BY IDOCK:   34.90 KCAL/MOL
REMARK 923 INTER-LIGAND FREE ENERGY PREDICTED BY IDOCK:   34.47 KCAL/MOL
REMARK 924 INTRA-LIGAND FREE ENERGY PREDICTED BY IDOCK:    0.43 KCAL/MOL
REMARK 927      BINDING AFFINITY PREDICTED BY RF-SCORE:    0.00 PKD
ROOT
HETATM    1  C   UNL     1      -6.953  12.793  62.599  1.00  0.00     7.448 C  
HETATM    2  N   UNL     1      -7.792  12.036  63.490  1.00  0.00     2.005 N  
HETATM    3  C   UNL     1      -7.262  11.122  64.373  1.00  0.00     1.068 C  
HETATM    4  H   UNL     1      -8.802  12.179  63.467  1.00  0.00     0.000 HD 
HETATM    5  O   UNL     1      -6.057  10.936  64.509  1.00  0.00     0.079 OA 
ENDROOT
BRANCH   3   6
HETATM    6  C   UNL     1      -8.222  10.325  65.177  1.00  0.00    -0.161 A  
HETATM    7  C   UNL     1      -8.022  10.199  66.553  1.00  0.00    -0.118 A  
HETATM    8  C   UNL     1      -8.827   9.334  67.313  1.00  0.00    -0.132 A  
HETATM    9  C   UNL     1      -9.859   8.584  66.723  1.00  0.00    -0.257 A  
HETATM   10  C   UNL     1     -10.118   8.825  65.373  1.00  0.00     0.953 A  
HETATM   11  F   UNL     1      -9.560   9.749  63.295  1.00  0.00    -0.308 F  
HETATM   12  C   UNL     1      -9.294   9.651  64.608  1.00  0.00    -0.207 A  
BRANCH   9  13
HETATM   13  N   UNL     1     -10.565   7.575  67.452  1.00  0.00    -0.290 N  
HETATM   14  N   UNL     1     -10.655   5.983  69.119  1.00  0.00    -0.261 N  
HETATM   15  S   UNL     1     -10.353   8.591  69.998  1.00  0.00    -0.215 S  
HETATM   16  C   UNL     1     -10.445   7.354  68.861  1.00  0.00    -0.203 C  
HETATM   17  C   UNL     1     -11.372   5.409  68.078  1.00  0.00     1.457 C  
HETATM   18  C   UNL     1     -12.536   6.670  66.016  1.00  0.00     8.007 C  
HETATM   19  C   UNL     1     -11.770   6.291  64.726  1.00  0.00     7.790 C  
HETATM   20  O   UNL     1     -11.992   4.349  68.092  1.00  0.00     7.818 OA 
HETATM   21  C   UNL     1     -11.258   6.384  66.840  1.00  0.00    -0.133 C  
HETATM   22  C   UNL     1     -10.667   5.675  65.593  1.00  0.00     0.637 C  
BRANCH  14  23
HETATM   23  C   UNL     1     -10.138   5.228  70.236  1.00  0.00    -0.259 A  
HETATM   24  C   UNL     1     -10.964   4.673  71.228  1.00  0.00     0.523 A  
HETATM   25  C   UNL     1      -9.093   3.617  72.291  1.00  0.00    -0.109 A  
HETATM   26  C   UNL     1     -11.353   3.261  73.307  1.00  0.00    -0.033 C  
HETATM   27  F   UNL     1     -11.288   1.902  73.319  1.00  0.00    -0.240 F  
HETATM   28  F   UNL     1     -12.665   3.563  73.123  1.00  0.00     0.189 F  
HETATM   29  F   UNL     1     -11.048   3.674  74.563  1.00  0.00    -0.167 F  
HETATM   30  C   UNL     1      -8.455   2.830  73.314  1.00  0.00    -0.078 C  
HETATM   31  N   UNL     1      -8.258   4.100  71.342  1.00  0.00    -0.077 NA 
HETATM   32  C   UNL     1     -10.454   3.861  72.267  1.00  0.00    -0.102 A  
HETATM   33  N   UNL     1      -7.973   2.190  74.159  1.00  0.00    -0.052 NA 
HETATM   34  C   UNL     1      -8.795   4.863  70.352  1.00  0.00    -0.104 A  
ENDBRANCH  14  23
ENDBRANCH   9  13
ENDBRANCH   3   6
TORSDOF 3
ENDMDL
MODEL      156
REMARK 921   NORMALIZED FREE ENERGY PREDICTED BY IDOCK:   30.84 KCAL/MOL
REMARK 922        TOTAL FREE ENERGY PREDICTED BY IDOCK:   35.13 KCAL/MOL
REMARK 923 INTER-LIGAND FREE ENERGY PREDICTED BY IDOCK:   34.86 KCAL/MOL
REMARK 924 INTRA-LIGAND FREE ENERGY PREDICTED BY IDOCK:    0.27 KCAL/MOL
REMARK 927      BINDING AFFINITY PREDICTED BY RF-SCORE:    0.00 PKD
ROOT
HETATM    1  C   UNL     1      -8.972   7.819  63.895  1.00  0.00     1.137 C  
HETATM    2  N   UNL     1      -9.495   8.691  64.914  1.00  0.00    -0.139 N  
HETATM    3  C   UNL     1     -10.820   9.065  64.929  1.00  0.00     5.038 C  
HETATM    4  H   UNL     1      -8.869   9.039  65.641  1.00  0.00     0.000 HD 
HETATM    5  O   UNL     1     -11.649   8.642  64.131  1.00  0.00    12.510 OA 
ENDROOT
BRANCH   3   6
HETATM    6  C   UNL     1     -11.232  10.044  65.966  1.00  0.00     1.000 A  
HETATM    7  C   UNL     1     -11.259  11.405  65.650  1.00  0.00    -0.144 A  
HETATM    8  C   UNL     1     -11.501  12.362  66.648  1.00  0.00    -0.429 A  
HETATM    9  C   UNL     1     -11.737  11.988  67.982  1.00  0.00    -0.331 A  
HETATM   10  C   UNL     1     -11.831  10.621  68.245  1.00  0.00     0.007 A  
HETATM   11  F   UNL     1     -11.568   8.377  67.630  1.00  0.00     0.476 F  
HETATM   12  C   UNL     1     -11.549   9.669  67.264  1.00  0.00     1.671 A  
BRANCH   9  13
HETATM   13  N   UNL     1     -11.809  12.958  69.032  1.00  0.00    -0.311 N  
HETATM   14  N   UNL     1     -11.155  14.957  69.979  1.00  0.00    -0.248 N  
HETATM   15  S   UNL     1     -12.515  15.182  67.577  1.00  0.00     1.195 S  
HETATM   16  C   UNL     1     -11.747  14.375  68.837  1.00  0.00    -0.322 C  
HETATM   17  C   UNL     1     -11.286  14.107  71.067  1.00  0.00     0.673 C  
HETATM   18  C   UNL     1     -12.719  11.842  71.199  1.00  0.00    -0.384 C  
HETATM   19  C   UNL     1     -11.733  10.655  71.317  1.00  0.00    -0.139 C  
HETATM   20  O   UNL     1     -11.179  14.392  72.257  1.00  0.00     0.752 OA 
HETATM   21  C   UNL     1     -11.614  12.669  70.500  1.00  0.00     0.344 C  
HETATM   22  C   UNL     1     -10.584  11.608  70.969  1.00  0.00     3.996 C  
BRANCH  14  23
HETATM   23  C   UNL     1     -10.430  16.205  70.031  1.00  0.00    -0.215 A  
HETATM   24  C   UNL     1      -9.051  16.296  69.778  1.00  0.00     0.399 A  
HETATM   25  C   UNL     1      -9.105  18.685  69.971  1.00  0.00     1.555 A  
HETATM   26  C   UNL     1      -6.901  17.615  69.453  1.00  0.00    -0.135 C  
HETATM   27  F   UNL     1      -6.637  18.367  68.350  1.00  0.00    -0.200 F  
HETATM   28  F   UNL     1      -6.333  16.404  69.214  1.00  0.00    -0.141 F  
HETATM   29  F   UNL     1      -6.196  18.164  70.473  1.00  0.00    -0.111 F  
HETATM   30  C   UNL     1      -8.517  20.000  69.989  1.00  0.00     1.120 C  
HETATM   31  N   UNL     1     -10.439  18.656  70.187  1.00  0.00     1.185 NA 
HETATM   32  C   UNL     1      -8.370  17.535  69.743  1.00  0.00     1.302 A  
HETATM   33  N   UNL     1      -8.008  21.046  69.998  1.00  0.00     2.590 NA 
HETATM   34  C   UNL     1     -11.057  17.443  70.194  1.00  0.00     1.159 A  
ENDBRANCH  14  23
ENDBRANCH   9  13
ENDBRANCH   3   6
TORSDOF 3
ENDMDL
MODEL      157
REMARK 921   NORMALIZED FREE ENERGY PREDICTED BY IDOCK:   31.45 KCAL/MOL
REMARK 922        TOTAL FREE ENERGY PREDICTED BY IDOCK:   35.85 KCAL/MOL
REMARK 923 INTER-LIGAND FREE ENERGY PREDICTED BY IDOCK:   37.17 KCAL/MOL
REMARK 924 INTRA-LIGAND FREE ENERGY PREDICTED BY IDOCK:   -1.32 KCAL/MOL
REMARK 927      BINDING AFFINITY PREDICTED BY RF-SCORE:    0.00 PKD
ROOT
HETATM    1  C   UNL     1     -10.037   1.933  69.200  1.00  0.00     0.736 C  
HETATM    2  N   UNL     1     -10.309   3.323  69.460  1.00  0.00     1.265 N  
HETATM    3  C   UNL     1     -10.510   4.219  68.434  1.00  0.00     0.766 C  
HETATM    4  H   UNL     1     -10.353   3.650  70.425  1.00  0.00     0.000 HD 
HETATM    5  O   UNL     1     -10.537   3.896  67.251  1.00  0.00     0.839 OA 
ENDROOT
BRANCH   3   6
HETATM    6  C   UNL     1     -10.686   5.645  68.809  1.00  0.00    -0.267 A  
HETATM    7  C   UNL     1     -11.767   6.012  69.614  1.00  0.00     0.331 A  
HETATM    8  C   UNL     1     -12.041   7.367  69.862  1.00  0.00     0.465 A  
HETATM    9  C   UNL     1     -11.238   8.388  69.326  1.00  0.00     0.296 A  
HETATM   10  C   UNL     1     -10.094   7.990  68.633  1.00  0.00    -0.212 A  
HETATM   11  F   UNL     1      -8.770   6.363  67.594  1.00  0.00    -0.115 F  
HETATM   12  C   UNL     1      -9.843   6.647  68.350  1.00  0.00    -0.138 A  
BRANCH   9  13
HETATM   13  N   UNL     1     -11.609   9.767  69.427  1.00  0.00     0.032 N  
HETATM   14  N   UNL     1     -11.769  11.883  68.524  1.00  0.00    -0.315 N  
HETATM   15  S   UNL     1     -13.323   9.955  67.285  1.00  0.00    16.693 S  
HETATM   16  C   UNL     1     -12.168  10.539  68.360  1.00  0.00     0.878 C  
HETATM   17  C   UNL     1     -11.423  12.117  69.848  1.00  0.00    -0.133 C  
HETATM   18  C   UNL     1     -11.750  10.458  71.931  1.00  0.00     0.658 C  
HETATM   19  C   UNL     1     -10.350  10.004  72.409  1.00  0.00     4.074 C  
HETATM   20  O   UNL     1     -11.331  13.201  70.417  1.00  0.00     0.122 OA 
HETATM   21  C   UNL     1     -11.169  10.709  70.520  1.00  0.00    -0.185 C  
HETATM   22  C   UNL     1      -9.748  10.605  71.133  1.00  0.00     3.466 C  
BRANCH  14  23
HETATM   23  C   UNL     1     -11.635  12.875  67.483  1.00  0.00    -0.356 A  
HETATM   24  C   UNL     1     -10.475  13.006  66.701  1.00  0.00    -0.271 A  
HETATM   25  C   UNL     1     -11.496  14.705  65.352  1.00  0.00    -0.352 A  
HETATM   26  C   UNL     1      -9.150  14.035  64.789  1.00  0.00     2.503 C  
HETATM   27  F   UNL     1      -9.392  13.771  63.476  1.00  0.00     2.221 F  
HETATM   28  F   UNL     1      -8.168  13.172  65.161  1.00  0.00     2.196 F  
HETATM   29  F   UNL     1      -8.598  15.273  64.840  1.00  0.00     1.678 F  
HETATM   30  C   UNL     1     -11.518  15.690  64.302  1.00  0.00    -0.193 C  
HETATM   31  N   UNL     1     -12.648  14.595  66.053  1.00  0.00    -0.084 NA 
HETATM   32  C   UNL     1     -10.390  13.921  65.626  1.00  0.00    -0.337 A  
HETATM   33  N   UNL     1     -11.500  16.479  63.446  1.00  0.00     0.504 NA 
HETATM   34  C   UNL     1     -12.691  13.690  67.068  1.00  0.00     0.404 A  
ENDBRANCH  14  23
ENDBRANCH   9  13
ENDBRANCH   3   6
TORSDOF 3
ENDMDL
MODEL      158
REMARK 921   NORMALIZED FREE ENERGY PREDICTED BY IDOCK:   37.81 KCAL/MOL
REMARK 922        TOTAL FREE ENERGY PREDICTED BY IDOCK:   43.33 KCAL/MOL
REMARK 923 INTER-LIGAND FREE ENERGY PREDICTED BY IDOCK:   42.03 KCAL/MOL
REMARK 924 INTRA-LIGAND FREE ENERGY PREDICTED BY IDOCK:    1.30 KCAL/MOL
REMARK 927      BINDING AFFINITY PREDICTED BY RF-SCORE:    0.00 PKD
ROOT
HETATM    1  C   UNL     1     -13.682   4.954  65.530  1.00  0.00    12.417 C  
HETATM    2  N   UNL     1     -12.418   5.641  65.515  1.00  0.00     2.880 N  
HETATM    3  C   UNL     1     -11.930   6.271  66.639  1.00  0.00     2.457 C  
HETATM    4  H   UNL     1     -11.871   5.662  64.655  1.00  0.00     0.000 HD 
HETATM    5  O   UNL     1     -12.493   6.239  67.728  1.00  0.00     3.683 OA 
ENDROOT
BRANCH   3   6
HETATM    6  C   UNL     1     -10.664   7.032  66.489  1.00  0.00     0.082 A  
HETATM    7  C   UNL     1     -10.375   8.061  67.387  1.00  0.00    -0.354 A  
HETATM    8  C   UNL     1      -9.261   8.891  67.184  1.00  0.00    -0.169 A  
HETATM    9  C   UNL     1      -8.401   8.709  66.087  1.00  0.00    -0.125 A  
HETATM   10  C   UNL     1      -8.640   7.597  65.279  1.00  0.00    -0.044 A  
HETATM   11  F   UNL     1      -9.972   5.807  64.570  1.00  0.00     0.793 F  
HETATM   12  C   UNL     1      -9.769   6.797  65.455  1.00  0.00     1.127 A  
BRANCH   9  13
HETATM   13  N   UNL     1      -7.371   9.653  65.775  1.00  0.00    -0.097 N  
HETATM   14  N   UNL     1      -6.450  11.761  65.945  1.00  0.00     0.745 N  
HETATM   15  S   UNL     1      -6.565  10.334  68.315  1.00  0.00    -0.057 S  
HETATM   16  C   UNL     1      -6.863  10.633  66.686  1.00  0.00    -0.114 C  
HETATM   17  C   UNL     1      -6.198  11.398  64.629  1.00  0.00     1.723 C  
HETATM   18  C   UNL     1      -6.128   8.916  63.612  1.00  0.00    -0.080 C  
HETATM   19  C   UNL     1      -7.335   8.753  62.658  1.00  0.00    -0.097 C  
HETATM   20  O   UNL     1      -5.545  12.017  63.794  1.00  0.00     2.476 OA 
HETATM   21  C   UNL     1      -6.907  10.007  64.385  1.00  0.00    -0.127 C  
HETATM   22  C   UNL     1      -7.911  10.065  63.203  1.00  0.00    -0.148 C  
BRANCH  14  23
HETATM   23  C   UNL     1      -6.379  13.124  66.418  1.00  0.00     2.847 A  
HETATM   24  C   UNL     1      -6.437  13.460  67.781  1.00  0.00    -0.165 A  
HETATM   25  C   UNL     1      -6.057  15.777  67.294  1.00  0.00     0.006 A  
HETATM   26  C   UNL     1      -6.323  15.128  69.698  1.00  0.00    -0.146 C  
HETATM   27  F   UNL     1      -5.168  15.707  70.127  1.00  0.00    -0.109 F  
HETATM   28  F   UNL     1      -6.508  14.045  70.497  1.00  0.00    -0.153 F  
HETATM   29  F   UNL     1      -7.324  15.992  70.002  1.00  0.00    -0.106 F  
HETATM   30  C   UNL     1      -5.906  17.168  67.636  1.00  0.00    -0.128 C  
HETATM   31  N   UNL     1      -5.959  15.502  65.974  1.00  0.00     3.250 NA 
HETATM   32  C   UNL     1      -6.276  14.789  68.237  1.00  0.00    -0.125 A  
HETATM   33  N   UNL     1      -5.791  18.283  67.948  1.00  0.00    -0.163 NA 
HETATM   34  C   UNL     1      -6.104  14.207  65.581  1.00  0.00    10.053 A  
ENDBRANCH  14  23
ENDBRANCH   9  13
ENDBRANCH   3   6
TORSDOF 3
ENDMDL
MODEL      159
REMARK 921   NORMALIZED FREE ENERGY PREDICTED BY IDOCK:   38.11 KCAL/MOL
REMARK 922        TOTAL FREE ENERGY PREDICTED BY IDOCK:   43.67 KCAL/MOL
REMARK 923 INTER-LIGAND FREE ENERGY PREDICTED BY IDOCK:   43.03 KCAL/MOL
REMARK 924 INTRA-LIGAND FREE ENERGY PREDICTED BY IDOCK:    0.64 KCAL/MOL
REMARK 927      BINDING AFFINITY PREDICTED BY RF-SCORE:    0.00 PKD
ROOT
HETATM    1  C   UNL     1     -13.714   4.964  65.537  1.00  0.00    12.417 C  
HETATM    2  N   UNL     1     -12.573   5.829  65.684  1.00  0.00     3.400 N  
HETATM    3  C   UNL     1     -12.268   6.416  66.891  1.00  0.00     3.949 C  
HETATM    4  H   UNL     1     -11.978   6.011  64.875  1.00  0.00     0.000 HD 
HETATM    5  O   UNL     1     -12.892   6.199  67.924  1.00  0.00     6.556 OA 
ENDROOT
BRANCH   3   6
HETATM    6  C   UNL     1     -11.127   7.367  66.910  1.00  0.00     0.151 A  
HETATM    7  C   UNL     1     -11.268   8.591  67.567  1.00  0.00     0.649 A  
HETATM    8  C   UNL     1     -10.263   9.567  67.477  1.00  0.00    -0.283 A  
HETATM    9  C   UNL     1      -9.087   9.343  66.740  1.00  0.00    -0.140 A  
HETATM   10  C   UNL     1      -8.916   8.068  66.200  1.00  0.00    -0.215 A  
HETATM   11  F   UNL     1      -9.718   5.945  65.623  1.00  0.00    -0.083 F  
HETATM   12  C   UNL     1      -9.931   7.111  66.254  1.00  0.00     0.102 A  
BRANCH   9  13
HETATM   13  N   UNL     1      -8.143  10.391  66.497  1.00  0.00    -0.118 N  
HETATM   14  N   UNL     1      -7.594  12.629  66.405  1.00  0.00     0.699 N  
HETATM   15  S   UNL     1      -8.222  11.675  68.928  1.00  0.00     0.102 S  
HETATM   16  C   UNL     1      -8.058  11.602  67.254  1.00  0.00    -0.160 C  
HETATM   17  C   UNL     1      -6.917  12.082  65.324  1.00  0.00     3.154 C  
HETATM   18  C   UNL     1      -6.229   9.513  64.969  1.00  0.00    -0.078 C  
HETATM   19  C   UNL     1      -7.066   8.948  63.797  1.00  0.00    -0.092 C  
HETATM   20  O   UNL     1      -6.132  12.647  64.569  1.00  0.00     7.002 OA 
HETATM   21  C   UNL     1      -7.336  10.560  65.234  1.00  0.00    -0.059 C  
HETATM   22  C   UNL     1      -7.943  10.205  63.851  1.00  0.00    -0.153 C  
BRANCH  14  23
HETATM   23  C   UNL     1      -7.843  14.045  66.550  1.00  0.00     1.084 A  
HETATM   24  C   UNL     1      -6.964  15.026  66.063  1.00  0.00     4.455 A  
HETATM   25  C   UNL     1      -8.465  16.783  66.701  1.00  0.00    -0.256 A  
HETATM   26  C   UNL     1      -6.320  17.441  65.589  1.00  0.00     0.294 C  
HETATM   27  F   UNL     1      -6.895  18.198  64.615  1.00  0.00     0.324 F  
HETATM   28  F   UNL     1      -5.202  16.910  65.028  1.00  0.00     1.041 F  
HETATM   29  F   UNL     1      -5.886  18.303  66.543  1.00  0.00    -0.155 F  
HETATM   30  C   UNL     1      -8.865  18.158  66.851  1.00  0.00    -0.267 C  
HETATM   31  N   UNL     1      -9.361  15.877  67.155  1.00  0.00    -0.209 NA 
HETATM   32  C   UNL     1      -7.262  16.407  66.131  1.00  0.00     0.445 A  
HETATM   33  N   UNL     1      -9.156  19.280  66.958  1.00  0.00    -0.287 NA 
HETATM   34  C   UNL     1      -9.039  14.559  67.054  1.00  0.00    -0.239 A  
ENDBRANCH  14  23
ENDBRANCH   9  13
ENDBRANCH   3   6
TORSDOF 3
ENDMDL
MODEL      160
REMARK 921   NORMALIZED FREE ENERGY PREDICTED BY IDOCK:   39.62 KCAL/MOL
REMARK 922        TOTAL FREE ENERGY PREDICTED BY IDOCK:   45.45 KCAL/MOL
REMARK 923 INTER-LIGAND FREE ENERGY PREDICTED BY IDOCK:   45.38 KCAL/MOL
REMARK 924 INTRA-LIGAND FREE ENERGY PREDICTED BY IDOCK:    0.07 KCAL/MOL
REMARK 927      BINDING AFFINITY PREDICTED BY RF-SCORE:    0.00 PKD
ROOT
HETATM    1  C   UNL     1      -7.632  19.227  62.695  1.00  0.00    10.047 C  
HETATM    2  N   UNL     1      -8.190  18.052  63.311  1.00  0.00    16.770 N  
HETATM    3  C   UNL     1      -8.988  18.138  64.429  1.00  0.00     7.911 C  
HETATM    4  H   UNL     1      -7.989  17.136  62.910  1.00  0.00     0.000 HD 
HETATM    5  O   UNL     1      -9.330  19.202  64.934  1.00  0.00     1.654 OA 
ENDROOT
BRANCH   3   6
HETATM    6  C   UNL     1      -9.432  16.860  65.041  1.00  0.00     1.912 A  
HETATM    7  C   UNL     1      -8.530  16.121  65.810  1.00  0.00     0.376 A  
HETATM    8  C   UNL     1      -8.874  14.842  66.277  1.00  0.00    -0.108 A  
HETATM    9  C   UNL     1     -10.130  14.274  66.002  1.00  0.00    -0.318 A  
HETATM   10  C   UNL     1     -11.055  15.084  65.342  1.00  0.00    -0.377 A  
HETATM   11  F   UNL     1     -11.627  17.006  64.134  1.00  0.00    -0.160 F  
HETATM   12  C   UNL     1     -10.701  16.337  64.841  1.00  0.00    -0.234 A  
BRANCH   9  13
HETATM   13  N   UNL     1     -10.423  12.910  66.321  1.00  0.00    -0.266 N  
HETATM   14  N   UNL     1     -11.103  11.291  67.817  1.00  0.00    -0.249 N  
HETATM   15  S   UNL     1     -13.030  13.167  67.158  1.00  0.00     2.755 S  
HETATM   16  C   UNL     1     -11.491  12.485  67.173  1.00  0.00    -0.351 C  
HETATM   17  C   UNL     1     -10.099  10.665  67.090  1.00  0.00    -0.207 C  
HETATM   18  C   UNL     1      -9.199  11.333  64.652  1.00  0.00    -0.090 C  
HETATM   19  C   UNL     1      -7.753  11.863  64.802  1.00  0.00     2.583 C  
HETATM   20  O   UNL     1      -9.742   9.493  67.164  1.00  0.00    -0.156 OA 
HETATM   21  C   UNL     1      -9.485  11.747  66.115  1.00  0.00    -0.226 C  
HETATM   22  C   UNL     1      -7.956  11.914  66.321  1.00  0.00     0.230 C  
BRANCH  14  23
HETATM   23  C   UNL     1     -11.581  10.803  69.089  1.00  0.00    -0.305 A  
HETATM   24  C   UNL     1     -12.030  11.655  70.111  1.00  0.00    -0.441 A  
HETATM   25  C   UNL     1     -12.669   9.791  71.477  1.00  0.00    -0.406 A  
HETATM   26  C   UNL     1     -13.071  12.087  72.391  1.00  0.00     0.218 C  
HETATM   27  F   UNL     1     -14.391  11.898  72.666  1.00  0.00     0.083 F  
HETATM   28  F   UNL     1     -12.950  13.401  72.068  1.00  0.00    -0.414 F  
HETATM   29  F   UNL     1     -12.406  11.928  73.563  1.00  0.00     4.307 F  
HETATM   30  C   UNL     1     -13.184   9.172  72.671  1.00  0.00    -0.296 C  
HETATM   31  N   UNL     1     -12.282   8.927  70.510  1.00  0.00     0.050 NA 
HETATM   32  C   UNL     1     -12.580  11.162  71.317  1.00  0.00    -0.503 A  
HETATM   33  N   UNL     1     -13.604   8.706  73.651  1.00  0.00     1.105 NA 
HETATM   34  C   UNL     1     -11.774   9.446  69.359  1.00  0.00     0.486 A  
ENDBRANCH  14  23
ENDBRANCH   9  13
ENDBRANCH   3   6
TORSDOF 3
ENDMDL
MODEL      161
REMARK 921   NORMALIZED FREE ENERGY PREDICTED BY IDOCK:   42.41 KCAL/MOL
REMARK 922        TOTAL FREE ENERGY PREDICTED BY IDOCK:   48.72 KCAL/MOL
REMARK 923 INTER-LIGAND FREE ENERGY PREDICTED BY IDOCK:   49.94 KCAL/MOL
REMARK 924 INTRA-LIGAND FREE ENERGY PREDICTED BY IDOCK:   -1.22 KCAL/MOL
REMARK 927      BINDING AFFINITY PREDICTED BY RF-SCORE:    0.00 PKD
ROOT
HETATM    1  C   UNL     1      -5.607   8.004  70.579  1.00  0.00    -0.025 C  
HETATM    2  N   UNL     1      -6.582   9.044  70.384  1.00  0.00    -0.044 N  
HETATM    3  C   UNL     1      -7.622   9.228  71.267  1.00  0.00     0.055 C  
HETATM    4  H   UNL     1      -6.500   9.659  69.574  1.00  0.00     0.000 HD 
HETATM    5  O   UNL     1      -7.757   8.575  72.297  1.00  0.00    -0.211 OA 
ENDROOT
BRANCH   3   6
HETATM    6  C   UNL     1      -8.626  10.266  70.920  1.00  0.00     1.781 A  
HETATM    7  C   UNL     1      -8.192  11.543  70.558  1.00  0.00     4.120 A  
HETATM    8  C   UNL     1      -9.117  12.582  70.369  1.00  0.00     5.802 A  
HETATM    9  C   UNL     1     -10.498  12.372  70.522  1.00  0.00     3.397 A  
HETATM   10  C   UNL     1     -10.912  11.060  70.759  1.00  0.00     0.840 A  
HETATM   11  F   UNL     1     -10.480   8.825  71.305  1.00  0.00    -0.240 F  
HETATM   12  C   UNL     1      -9.993  10.036  70.988  1.00  0.00     0.592 A  
BRANCH   9  13
HETATM   13  N   UNL     1     -11.430  13.458  70.505  1.00  0.00     0.138 N  
HETATM   14  N   UNL     1     -12.184  15.453  69.625  1.00  0.00    -0.316 N  
HETATM   15  S   UNL     1     -12.312  13.286  67.906  1.00  0.00     0.340 S  
HETATM   16  C   UNL     1     -11.905  14.104  69.319  1.00  0.00    -0.338 C  
HETATM   17  C   UNL     1     -12.395  15.596  70.989  1.00  0.00    -0.428 C  
HETATM   18  C   UNL     1     -12.611  13.641  72.815  1.00  0.00     0.089 C  
HETATM   19  C   UNL     1     -11.372  13.707  73.740  1.00  0.00     5.152 C  
HETATM   20  O   UNL     1     -12.950  16.525  71.567  1.00  0.00     0.539 OA 
HETATM   21  C   UNL     1     -11.789  14.316  71.692  1.00  0.00     0.050 C  
HETATM   22  C   UNL     1     -10.722  14.687  72.756  1.00  0.00     2.575 C  
BRANCH  14  23
HETATM   23  C   UNL     1     -12.170  16.565  68.705  1.00  0.00     0.986 A  
HETATM   24  C   UNL     1     -11.020  17.330  68.451  1.00  0.00    -0.171 A  
HETATM   25  C   UNL     1     -12.156  18.607  66.771  1.00  0.00     3.644 A  
HETATM   26  C   UNL     1      -9.752  19.153  67.211  1.00  0.00    -0.319 C  
HETATM   27  F   UNL     1      -9.345  19.042  65.917  1.00  0.00    -0.305 F  
HETATM   28  F   UNL     1      -8.690  18.764  67.963  1.00  0.00    -0.284 F  
HETATM   29  F   UNL     1      -9.915  20.478  67.453  1.00  0.00    -0.543 F  
HETATM   30  C   UNL     1     -12.261  19.646  65.779  1.00  0.00     4.751 C  
HETATM   31  N   UNL     1     -13.281  17.879  66.952  1.00  0.00     8.596 NA 
HETATM   32  C   UNL     1     -10.995  18.359  67.482  1.00  0.00    -0.169 A  
HETATM   33  N   UNL     1     -12.310  20.496  64.986  1.00  0.00     4.114 NA 
HETATM   34  C   UNL     1     -13.254  16.887  67.884  1.00  0.00     5.771 A  
ENDBRANCH  14  23
ENDBRANCH   9  13
ENDBRANCH   3   6
TORSDOF 3
ENDMDL
MODEL      162
REMARK 921   NORMALIZED FREE ENERGY PREDICTED BY IDOCK:   52.62 KCAL/MOL
REMARK 922        TOTAL FREE ENERGY PREDICTED BY IDOCK:   60.73 KCAL/MOL
REMARK 923 INTER-LIGAND FREE ENERGY PREDICTED BY IDOCK:   59.68 KCAL/MOL
REMARK 924 INTRA-LIGAND FREE ENERGY PREDICTED BY IDOCK:    1.05 KCAL/MOL
REMARK 927      BINDING AFFINITY PREDICTED BY RF-SCORE:    0.00 PKD
ROOT
HETATM    1  C   UNL     1      -8.173  18.124  71.537  1.00  0.00     9.716 C  
HETATM    2  N   UNL     1      -7.775  16.794  71.159  1.00  0.00     5.246 N  
HETATM    3  C   UNL     1      -8.268  16.192  70.023  1.00  0.00     0.968 C  
HETATM    4  H   UNL     1      -7.114  16.285  71.747  1.00  0.00     0.000 HD 
HETATM    5  O   UNL     1      -9.015  16.756  69.231  1.00  0.00    -0.165 OA 
ENDROOT
BRANCH   3   6
HETATM    6  C   UNL     1      -7.869  14.783  69.779  1.00  0.00     0.109 A  
HETATM    7  C   UNL     1      -8.135  14.202  68.538  1.00  0.00    -0.143 A  
HETATM    8  C   UNL     1      -7.903  12.833  68.328  1.00  0.00    -0.141 A  
HETATM    9  C   UNL     1      -7.387  12.012  69.345  1.00  0.00     0.222 A  
HETATM   10  C   UNL     1      -7.011  12.643  70.532  1.00  0.00     1.873 A  
HETATM   11  F   UNL     1      -6.972  14.494  71.965  1.00  0.00     0.730 F  
HETATM   12  C   UNL     1      -7.280  13.993  70.757  1.00  0.00     1.533 A  
BRANCH   9  13
HETATM   13  N   UNL     1      -7.314  10.590  69.198  1.00  0.00    -0.097 N  
HETATM   14  N   UNL     1      -8.318   8.547  68.824  1.00  0.00    -0.121 N  
HETATM   15  S   UNL     1      -8.417  10.314  66.694  1.00  0.00    -0.126 S  
HETATM   16  C   UNL     1      -8.093   9.826  68.272  1.00  0.00    -0.104 C  
HETATM   17  C   UNL     1      -7.353   8.268  69.782  1.00  0.00    -0.065 C  
HETATM   18  C   UNL     1      -5.152   9.698  70.339  1.00  0.00    -0.028 C  
HETATM   19  C   UNL     1      -5.324  10.316  71.747  1.00  0.00     0.025 C  
HETATM   20  O   UNL     1      -7.046   7.169  70.236  1.00  0.00    -0.063 OA 
HETATM   21  C   UNL     1      -6.692   9.643  70.193  1.00  0.00    -0.089 C  
HETATM   22  C   UNL     1      -6.802   9.909  71.718  1.00  0.00     0.935 C  
BRANCH  14  23
HETATM   23  C   UNL     1      -9.426   7.667  68.536  1.00  0.00    -0.147 A  
HETATM   24  C   UNL     1      -9.517   6.921  67.349  1.00  0.00    -0.151 A  
HETATM   25  C   UNL     1     -11.517   5.836  68.105  1.00  0.00     1.068 A  
HETATM   26  C   UNL     1     -10.633   5.193  65.852  1.00  0.00    -0.112 C  
HETATM   27  F   UNL     1     -10.600   3.854  66.093  1.00  0.00    -0.020 F  
HETATM   28  F   UNL     1      -9.602   5.437  65.001  1.00  0.00    -0.041 F  
HETATM   29  F   UNL     1     -11.765   5.432  65.146  1.00  0.00     0.631 F  
HETATM   30  C   UNL     1     -12.640   4.945  67.972  1.00  0.00    14.138 C  
HETATM   31  N   UNL     1     -11.457   6.505  69.279  1.00  0.00    -0.312 NA 
HETATM   32  C   UNL     1     -10.561   5.996  67.118  1.00  0.00    -0.374 A  
HETATM   33  N   UNL     1     -13.537   4.218  67.830  1.00  0.00    25.015 NA 
HETATM   34  C   UNL     1     -10.426   7.373  69.466  1.00  0.00    -0.232 A  
ENDBRANCH  14  23
ENDBRANCH   9  13
ENDBRANCH   3   6
TORSDOF 3
ENDMDL
MODEL      163
REMARK 921   NORMALIZED FREE ENERGY PREDICTED BY IDOCK:   64.42 KCAL/MOL
REMARK 922        TOTAL FREE ENERGY PREDICTED BY IDOCK:   74.60 KCAL/MOL
REMARK 923 INTER-LIGAND FREE ENERGY PREDICTED BY IDOCK:   74.13 KCAL/MOL
REMARK 924 INTRA-LIGAND FREE ENERGY PREDICTED BY IDOCK:    0.47 KCAL/MOL
REMARK 927      BINDING AFFINITY PREDICTED BY RF-SCORE:    0.00 PKD
ROOT
HETATM    1  C   UNL     1     -12.509   6.122  67.536  1.00  0.00     6.498 C  
HETATM    2  N   UNL     1     -12.403   7.547  67.709  1.00  0.00     3.684 N  
HETATM    3  C   UNL     1     -12.392   8.402  66.630  1.00  0.00     9.484 C  
HETATM    4  H   UNL     1     -12.336   7.931  68.651  1.00  0.00     0.000 HD 
HETATM    5  O   UNL     1     -12.533   8.028  65.471  1.00  0.00    11.606 OA 
ENDROOT
BRANCH   3   6
HETATM    6  C   UNL     1     -12.181   9.844  66.914  1.00  0.00     5.481 A  
HETATM    7  C   UNL     1     -11.766  10.691  65.885  1.00  0.00     1.651 A  
HETATM    8  C   UNL     1     -11.419  12.025  66.156  1.00  0.00    -0.401 A  
HETATM    9  C   UNL     1     -11.488  12.550  67.457  1.00  0.00    -0.336 A  
HETATM   10  C   UNL     1     -12.026  11.721  68.443  1.00  0.00    -0.250 A  
HETATM   11  F   UNL     1     -12.752   9.634  69.215  1.00  0.00     0.776 F  
HETATM   12  C   UNL     1     -12.332  10.385  68.184  1.00  0.00     2.070 A  
BRANCH   9  13
HETATM   13  N   UNL     1     -10.971  13.848  67.772  1.00  0.00    -0.252 N  
HETATM   14  N   UNL     1      -9.909  15.799  67.151  1.00  0.00    -0.224 N  
HETATM   15  S   UNL     1     -12.371  15.369  65.958  1.00  0.00     1.120 S  
HETATM   16  C   UNL     1     -11.031  14.981  66.899  1.00  0.00    -0.324 C  
HETATM   17  C   UNL     1      -9.413  15.546  68.422  1.00  0.00    -0.196 C  
HETATM   18  C   UNL     1     -10.528  14.022  70.329  1.00  0.00     1.045 C  
HETATM   19  C   UNL     1      -9.637  12.772  70.527  1.00  0.00     5.926 C  
HETATM   20  O   UNL     1      -8.667  16.257  69.090  1.00  0.00    -0.247 OA 
HETATM   21  C   UNL     1      -9.996  14.151  68.882  1.00  0.00    -0.127 C  
HETATM   22  C   UNL     1      -8.875  13.144  69.250  1.00  0.00     0.900 C  
BRANCH  14  23
HETATM   23  C   UNL     1      -9.280  16.708  66.222  1.00  0.00    -0.294 A  
HETATM   24  C   UNL     1      -7.891  16.916  66.182  1.00  0.00    -0.277 A  
HETATM   25  C   UNL     1      -8.094  18.354  64.274  1.00  0.00     7.530 A  
HETATM   26  C   UNL     1      -5.793  17.936  65.169  1.00  0.00     0.130 C  
HETATM   27  F   UNL     1      -5.254  17.534  63.986  1.00  0.00     0.563 F  
HETATM   28  F   UNL     1      -5.132  17.238  66.129  1.00  0.00    -0.192 F  
HETATM   29  F   UNL     1      -5.433  19.233  65.337  1.00  0.00    -0.163 F  
HETATM   30  C   UNL     1      -7.589  19.236  63.253  1.00  0.00     8.081 C  
HETATM   31  N   UNL     1      -9.432  18.160  64.248  1.00  0.00     6.394 NA 
HETATM   32  C   UNL     1      -7.279  17.739  65.209  1.00  0.00     0.979 A  
HETATM   33  N   UNL     1      -7.147  19.945  62.444  1.00  0.00     2.438 NA 
HETATM   34  C   UNL     1      -9.976  17.347  65.193  1.00  0.00     1.053 A  
ENDBRANCH  14  23
ENDBRANCH   9  13
ENDBRANCH   3   6
TORSDOF 3
ENDMDL
MODEL      164
REMARK 921   NORMALIZED FREE ENERGY PREDICTED BY IDOCK:   69.81 KCAL/MOL
REMARK 922        TOTAL FREE ENERGY PREDICTED BY IDOCK:   80.93 KCAL/MOL
REMARK 923 INTER-LIGAND FREE ENERGY PREDICTED BY IDOCK:   81.12 KCAL/MOL
REMARK 924 INTRA-LIGAND FREE ENERGY PREDICTED BY IDOCK:   -0.19 KCAL/MOL
REMARK 927      BINDING AFFINITY PREDICTED BY RF-SCORE:    0.00 PKD
ROOT
HETATM    1  C   UNL     1      -7.081  17.406  65.476  1.00  0.00     0.642 C  
HETATM    2  N   UNL     1      -7.922  16.243  65.361  1.00  0.00     1.659 N  
HETATM    3  C   UNL     1      -8.979  16.033  66.218  1.00  0.00    -0.345 C  
HETATM    4  H   UNL     1      -7.730  15.559  64.629  1.00  0.00     0.000 HD 
HETATM    5  O   UNL     1      -9.316  16.836  67.082  1.00  0.00    -0.223 OA 
ENDROOT
BRANCH   3   6
HETATM    6  C   UNL     1      -9.720  14.755  66.075  1.00  0.00    -0.350 A  
HETATM    7  C   UNL     1      -9.013  13.551  66.066  1.00  0.00     0.363 A  
HETATM    8  C   UNL     1      -9.669  12.342  65.786  1.00  0.00    -0.228 A  
HETATM    9  C   UNL     1     -11.049  12.301  65.520  1.00  0.00    -0.307 A  
HETATM   10  C   UNL     1     -11.752  13.498  65.660  1.00  0.00    -0.363 A  
HETATM   11  F   UNL     1     -11.842  15.823  65.919  1.00  0.00     0.129 F  
HETATM   12  C   UNL     1     -11.096  14.706  65.897  1.00  0.00    -0.338 A  
BRANCH   9  13
HETATM   13  N   UNL     1     -11.689  11.105  65.062  1.00  0.00     0.389 N  
HETATM   14  N   UNL     1     -11.620   8.870  64.499  1.00  0.00    10.899 N  
HETATM   15  S   UNL     1     -11.123   9.427  67.166  1.00  0.00     0.559 S  
HETATM   16  C   UNL     1     -11.399   9.790  65.546  1.00  0.00     2.900 C  
HETATM   17  C   UNL     1     -12.482   9.417  63.559  1.00  0.00    14.643 C  
HETATM   18  C   UNL     1     -13.856  11.714  63.757  1.00  0.00     1.871 C  
HETATM   19  C   UNL     1     -13.273  12.713  62.730  1.00  0.00     1.596 C  
HETATM   20  O   UNL     1     -13.130   8.824  62.702  1.00  0.00    13.744 OA 
HETATM   21  C   UNL     1     -12.494  10.981  63.792  1.00  0.00     1.701 C  
HETATM   22  C   UNL     1     -12.089  11.763  62.516  1.00  0.00     1.409 C  
BRANCH  14  23
HETATM   23  C   UNL     1     -10.991   7.579  64.340  1.00  0.00    12.268 A  
HETATM   24  C   UNL     1     -10.926   6.631  65.375  1.00  0.00     4.065 A  
HETATM   25  C   UNL     1      -9.913   5.016  63.921  1.00  0.00     0.816 A  
HETATM   26  C   UNL     1     -10.343   4.331  66.292  1.00  0.00     0.014 C  
HETATM   27  F   UNL     1     -11.036   3.200  65.986  1.00  0.00     1.678 F  
HETATM   28  F   UNL     1     -10.882   4.787  67.453  1.00  0.00    -0.084 F  
HETATM   29  F   UNL     1      -9.080   3.942  66.593  1.00  0.00    -0.118 F  
HETATM   30  C   UNL     1      -9.318   3.742  63.611  1.00  0.00    -0.130 C  
HETATM   31  N   UNL     1      -9.982   5.880  62.883  1.00  0.00     2.133 NA 
HETATM   32  C   UNL     1     -10.388   5.338  65.180  1.00  0.00     0.582 A  
HETATM   33  N   UNL     1      -8.841   2.702  63.395  1.00  0.00    -0.085 NA 
HETATM   34  C   UNL     1     -10.523   7.107  63.112  1.00  0.00     9.633 A  
ENDBRANCH  14  23
ENDBRANCH   9  13
ENDBRANCH   3   6
TORSDOF 3
ENDMDL
