MODEL        1
REMARK 921   NORMALIZED FREE ENERGY PREDICTED BY IDOCK:   -6.99 KCAL/MOL
REMARK 922        TOTAL FREE ENERGY PREDICTED BY IDOCK:  -10.40 KCAL/MOL
REMARK 923 INTER-LIGAND FREE ENERGY PREDICTED BY IDOCK:   -9.03 KCAL/MOL
REMARK 924 INTRA-LIGAND FREE ENERGY PREDICTED BY IDOCK:   -1.37 KCAL/MOL
REMARK 927      BINDING AFFINITY PREDICTED BY RF-SCORE:    0.00 PKD
ROOT
HETATM    1  C   UNL     1      -7.628   4.849  63.982  1.00  0.00    -0.066 C  
HETATM    2  O   UNL     1      -8.887   4.497  64.547  1.00  0.00    -0.142 OA 
ENDROOT
BRANCH   2   3
HETATM    3  C   UNL     1      -9.267   5.244  65.630  1.00  0.00    -0.136 A  
HETATM    4  C   UNL     1      -8.271   6.031  66.206  1.00  0.00    -0.118 A  
HETATM    5  C   UNL     1      -8.544   6.821  67.331  1.00  0.00    -0.120 A  
HETATM    6  C   UNL     1      -9.829   6.840  67.890  1.00  0.00    -0.129 A  
HETATM    7  C   UNL     1     -10.846   6.109  67.257  1.00  0.00    -0.438 A  
HETATM    8  C   UNL     1     -10.562   5.305  66.142  1.00  0.00    -0.251 A  
BRANCH   6   9
HETATM    9  N   UNL     1     -10.129   7.602  69.062  1.00  0.00    -0.192 NA 
HETATM   10  N   UNL     1      -9.837   7.075  70.307  1.00  0.00    -0.176 NA 
HETATM   11  C   UNL     1     -10.386   7.928  71.193  1.00  0.00    -0.200 A  
HETATM   12  C   UNL     1     -10.953   9.027  70.530  1.00  0.00    -0.295 A  
HETATM   13  C   UNL     1     -11.592  10.243  71.075  1.00  0.00    -0.430 C  
HETATM   14  C   UNL     1     -10.703   8.861  69.184  1.00  0.00    -0.143 A  
HETATM   15  C   UNL     1     -12.332  10.928  69.929  1.00  0.00    -0.285 C  
HETATM   16  O   UNL     1     -10.455   9.836  67.056  1.00  0.00    -0.238 OA 
HETATM   17  N   UNL     1     -11.465  11.111  68.749  1.00  0.00    -0.271 N  
HETATM   18  C   UNL     1     -10.872   9.929  68.206  1.00  0.00    -0.230 C  
BRANCH  11  19
HETATM   19  C   UNL     1     -10.348   7.759  72.658  1.00  0.00    -0.292 C  
HETATM   20  H1  UNL     1     -11.484   7.261  74.264  1.00  0.00     0.000 HD 
HETATM   21  N   UNL     1     -11.511   7.377  73.251  1.00  0.00    -0.569 N  
HETATM   22  H2  UNL     1     -12.363   7.217  72.713  1.00  0.00     0.000 HD 
HETATM   23  O   UNL     1      -9.332   7.931  73.332  1.00  0.00    -0.262 OA 
ENDBRANCH  11  19
BRANCH  17  24
HETATM   24  C   UNL     1     -11.171  12.438  68.259  1.00  0.00    -0.263 A  
HETATM   25  C   UNL     1      -9.966  13.091  68.535  1.00  0.00    -0.174 A  
HETATM   26  C   UNL     1      -9.746  14.433  68.171  1.00  0.00    -0.223 A  
HETATM   27  C   UNL     1     -10.726  15.193  67.525  1.00  0.00    -0.284 A  
HETATM   28  C   UNL     1     -11.902  14.529  67.188  1.00  0.00    -0.412 A  
HETATM   29  C   UNL     1     -12.117  13.187  67.545  1.00  0.00    -0.300 A  
BRANCH  27  30
HETATM   30  N   UNL     1     -10.562  16.604  67.334  1.00  0.00    -0.316 N  
HETATM   31  C   UNL     1     -10.846  17.548  68.412  1.00  0.00    -0.188 C  
HETATM   32  C   UNL     1      -9.690  18.513  68.625  1.00  0.00    -0.398 C  
HETATM   33  C   UNL     1      -9.410  19.249  67.329  1.00  0.00    -0.366 C  
HETATM   34  C   UNL     1      -9.152  18.264  66.203  1.00  0.00    -0.122 C  
HETATM   35  C   UNL     1     -10.162  17.133  66.101  1.00  0.00    -0.334 C  
HETATM   36  O   UNL     1     -10.444  16.660  65.001  1.00  0.00    -0.664 OA 
ENDBRANCH  27  30
ENDBRANCH  17  24
ENDBRANCH   6   9
ENDBRANCH   2   3
TORSDOF 5
ENDMDL
MODEL        2
REMARK 921   NORMALIZED FREE ENERGY PREDICTED BY IDOCK:   -6.76 KCAL/MOL
REMARK 922        TOTAL FREE ENERGY PREDICTED BY IDOCK:  -10.11 KCAL/MOL
REMARK 923 INTER-LIGAND FREE ENERGY PREDICTED BY IDOCK:   -9.08 KCAL/MOL
REMARK 924 INTRA-LIGAND FREE ENERGY PREDICTED BY IDOCK:   -1.03 KCAL/MOL
REMARK 927      BINDING AFFINITY PREDICTED BY RF-SCORE:    0.00 PKD
ROOT
HETATM    1  C   UNL     1      -8.679   4.423  66.769  1.00  0.00    -0.112 C  
HETATM    2  O   UNL     1      -8.023   5.688  66.730  1.00  0.00    -0.101 OA 
ENDROOT
BRANCH   2   3
HETATM    3  C   UNL     1      -8.728   6.724  67.280  1.00  0.00    -0.119 A  
HETATM    4  C   UNL     1      -8.217   7.243  68.469  1.00  0.00    -0.125 A  
HETATM    5  C   UNL     1      -8.868   8.294  69.129  1.00  0.00    -0.143 A  
HETATM    6  C   UNL     1     -10.040   8.848  68.598  1.00  0.00    -0.188 A  
HETATM    7  C   UNL     1     -10.504   8.375  67.362  1.00  0.00    -0.354 A  
HETATM    8  C   UNL     1      -9.859   7.310  66.714  1.00  0.00    -0.281 A  
BRANCH   6   9
HETATM    9  N   UNL     1     -10.752   9.892  69.269  1.00  0.00    -0.216 NA 
HETATM   10  N   UNL     1     -11.472   9.596  70.413  1.00  0.00    -0.265 NA 
HETATM   11  C   UNL     1     -12.158  10.718  70.702  1.00  0.00    -0.370 A  
HETATM   12  C   UNL     1     -11.823  11.743  69.805  1.00  0.00    -0.420 A  
HETATM   13  C   UNL     1     -12.252  13.157  69.770  1.00  0.00    -0.266 C  
HETATM   14  C   UNL     1     -10.859  11.240  68.956  1.00  0.00    -0.222 A  
HETATM   15  C   UNL     1     -11.870  13.722  68.404  1.00  0.00    -0.376 C  
HETATM   16  O   UNL     1      -9.066  11.657  67.491  1.00  0.00    -0.165 OA 
HETATM   17  N   UNL     1     -10.456  13.454  68.078  1.00  0.00    -0.233 N  
HETATM   18  C   UNL     1     -10.051  12.083  68.083  1.00  0.00    -0.200 C  
BRANCH  11  19
HETATM   19  C   UNL     1     -13.089  10.865  71.837  1.00  0.00    -0.432 C  
HETATM   20  H1  UNL     1     -14.246   9.815  73.132  1.00  0.00     0.000 HD 
HETATM   21  N   UNL     1     -13.603   9.713  72.348  1.00  0.00    -0.648 N  
HETATM   22  H2  UNL     1     -13.358   8.799  71.968  1.00  0.00     0.000 HD 
HETATM   23  O   UNL     1     -13.393  11.953  72.326  1.00  0.00    -0.471 OA 
ENDBRANCH  11  19
BRANCH  17  24
HETATM   24  C   UNL     1      -9.536  14.548  67.870  1.00  0.00    -0.217 A  
HETATM   25  C   UNL     1      -8.975  15.269  68.929  1.00  0.00    -0.209 A  
HETATM   26  C   UNL     1      -8.191  16.418  68.715  1.00  0.00    -0.234 A  
HETATM   27  C   UNL     1      -7.941  16.912  67.430  1.00  0.00    -0.170 A  
HETATM   28  C   UNL     1      -8.441  16.161  66.370  1.00  0.00    -0.369 A  
HETATM   29  C   UNL     1      -9.217  15.010  66.586  1.00  0.00    -0.302 A  
BRANCH  27  30
HETATM   30  N   UNL     1      -7.307  18.183  67.237  1.00  0.00    -0.204 N  
HETATM   31  C   UNL     1      -7.912  19.204  66.386  1.00  0.00    -0.294 C  
HETATM   32  C   UNL     1      -7.998  20.544  67.100  1.00  0.00    -0.361 C  
HETATM   33  C   UNL     1      -6.608  20.966  67.536  1.00  0.00    -0.413 C  
HETATM   34  C   UNL     1      -5.968  19.886  68.390  1.00  0.00    -0.276 C  
HETATM   35  C   UNL     1      -6.070  18.480  67.822  1.00  0.00    -0.189 C  
HETATM   36  O   UNL     1      -5.171  17.667  68.031  1.00  0.00    -0.133 OA 
ENDBRANCH  27  30
ENDBRANCH  17  24
ENDBRANCH   6   9
ENDBRANCH   2   3
TORSDOF 5
ENDMDL
MODEL        3
REMARK 921   NORMALIZED FREE ENERGY PREDICTED BY IDOCK:   -6.70 KCAL/MOL
REMARK 922        TOTAL FREE ENERGY PREDICTED BY IDOCK:  -10.03 KCAL/MOL
REMARK 923 INTER-LIGAND FREE ENERGY PREDICTED BY IDOCK:   -8.80 KCAL/MOL
REMARK 924 INTRA-LIGAND FREE ENERGY PREDICTED BY IDOCK:   -1.23 KCAL/MOL
REMARK 927      BINDING AFFINITY PREDICTED BY RF-SCORE:    0.00 PKD
ROOT
HETATM    1  C   UNL     1      -5.945  20.098  69.179  1.00  0.00    -0.312 C  
HETATM    2  O   UNL     1      -5.467  18.872  68.634  1.00  0.00    -0.193 OA 
ENDROOT
BRANCH   2   3
HETATM    3  C   UNL     1      -6.424  18.081  68.057  1.00  0.00    -0.188 A  
HETATM    4  C   UNL     1      -7.742  18.361  68.416  1.00  0.00    -0.314 A  
HETATM    5  C   UNL     1      -8.800  17.600  67.900  1.00  0.00    -0.246 A  
HETATM    6  C   UNL     1      -8.551  16.551  67.005  1.00  0.00    -0.193 A  
HETATM    7  C   UNL     1      -7.231  16.326  66.587  1.00  0.00    -0.160 A  
HETATM    8  C   UNL     1      -6.173  17.079  67.122  1.00  0.00    -0.209 A  
BRANCH   6   9
HETATM    9  N   UNL     1      -9.605  15.730  66.495  1.00  0.00    -0.247 NA 
HETATM   10  N   UNL     1     -10.146  16.014  65.253  1.00  0.00    -0.492 NA 
HETATM   11  C   UNL     1     -11.210  15.197  65.133  1.00  0.00    -0.389 A  
HETATM   12  C   UNL     1     -11.305  14.347  66.244  1.00  0.00    -0.350 A  
HETATM   13  C   UNL     1     -12.247  13.243  66.523  1.00  0.00    -0.389 C  
HETATM   14  C   UNL     1     -10.228  14.626  67.061  1.00  0.00    -0.261 A  
HETATM   15  C   UNL     1     -12.124  12.894  68.004  1.00  0.00    -0.152 C  
HETATM   16  O   UNL     1      -8.746  13.902  68.740  1.00  0.00    -0.115 OA 
HETATM   17  N   UNL     1     -10.719  12.676  68.399  1.00  0.00    -0.235 N  
HETATM   18  C   UNL     1      -9.815  13.757  68.157  1.00  0.00    -0.239 C  
BRANCH  11  19
HETATM   19  C   UNL     1     -12.116  15.164  63.970  1.00  0.00    -0.049 C  
HETATM   20  H1  UNL     1     -12.846  13.949  62.516  1.00  0.00     0.000 HD 
HETATM   21  N   UNL     1     -12.220  13.972  63.321  1.00  0.00    -1.099 N  
HETATM   22  H2  UNL     1     -11.700  13.148  63.622  1.00  0.00     0.000 HD 
HETATM   23  O   UNL     1     -12.767  16.137  63.591  1.00  0.00    -0.294 OA 
ENDBRANCH  11  19
BRANCH  17  24
HETATM   24  C   UNL     1     -10.295  11.392  68.907  1.00  0.00    -0.184 A  
HETATM   25  C   UNL     1      -9.369  10.587  68.235  1.00  0.00    -0.156 A  
HETATM   26  C   UNL     1      -9.068   9.281  68.665  1.00  0.00    -0.132 A  
HETATM   27  C   UNL     1      -9.688   8.709  69.781  1.00  0.00    -0.176 A  
HETATM   28  C   UNL     1     -10.559   9.529  70.493  1.00  0.00    -0.358 A  
HETATM   29  C   UNL     1     -10.853  10.836  70.067  1.00  0.00    -0.218 A  
BRANCH  27  30
HETATM   30  N   UNL     1      -9.517   7.321  70.093  1.00  0.00    -0.165 N  
HETATM   31  C   UNL     1      -8.251   6.817  70.619  1.00  0.00    -0.120 C  
HETATM   32  C   UNL     1      -8.461   5.986  71.874  1.00  0.00    -0.133 C  
HETATM   33  C   UNL     1      -9.404   4.840  71.561  1.00  0.00    -0.197 C  
HETATM   34  C   UNL     1     -10.704   5.365  70.980  1.00  0.00    -0.239 C  
HETATM   35  C   UNL     1     -10.539   6.391  69.870  1.00  0.00    -0.243 C  
HETATM   36  O   UNL     1     -11.364   6.447  68.960  1.00  0.00    -0.355 OA 
ENDBRANCH  27  30
ENDBRANCH  17  24
ENDBRANCH   6   9
ENDBRANCH   2   3
TORSDOF 5
ENDMDL
MODEL        4
REMARK 921   NORMALIZED FREE ENERGY PREDICTED BY IDOCK:   -6.62 KCAL/MOL
REMARK 922        TOTAL FREE ENERGY PREDICTED BY IDOCK:   -9.92 KCAL/MOL
REMARK 923 INTER-LIGAND FREE ENERGY PREDICTED BY IDOCK:   -9.07 KCAL/MOL
REMARK 924 INTRA-LIGAND FREE ENERGY PREDICTED BY IDOCK:   -0.85 KCAL/MOL
REMARK 927      BINDING AFFINITY PREDICTED BY RF-SCORE:    0.00 PKD
ROOT
HETATM    1  C   UNL     1     -12.396  16.661  74.558  1.00  0.00    -0.216 C  
HETATM    2  O   UNL     1     -13.456  16.161  73.748  1.00  0.00    -0.590 OA 
ENDROOT
BRANCH   2   3
HETATM    3  C   UNL     1     -13.088  15.763  72.491  1.00  0.00    -0.474 A  
HETATM    4  C   UNL     1     -11.825  16.173  72.068  1.00  0.00    -0.615 A  
HETATM    5  C   UNL     1     -11.354  15.838  70.792  1.00  0.00    -0.419 A  
HETATM    6  C   UNL     1     -12.143  15.074  69.921  1.00  0.00    -0.334 A  
HETATM    7  C   UNL     1     -13.380  14.598  70.382  1.00  0.00     0.068 A  
HETATM    8  C   UNL     1     -13.854  14.952  71.655  1.00  0.00    -0.549 A  
BRANCH   6   9
HETATM    9  N   UNL     1     -11.709  14.752  68.597  1.00  0.00    -0.323 NA 
HETATM   10  N   UNL     1     -11.409  15.774  67.714  1.00  0.00    -0.290 NA 
HETATM   11  C   UNL     1     -11.209  15.171  66.526  1.00  0.00    -0.283 A  
HETATM   12  C   UNL     1     -11.302  13.778  66.661  1.00  0.00    -0.340 A  
HETATM   13  C   UNL     1     -11.083  12.707  65.666  1.00  0.00    -0.327 C  
HETATM   14  C   UNL     1     -11.525  13.514  67.997  1.00  0.00    -0.307 A  
HETATM   15  C   UNL     1     -11.650  11.414  66.248  1.00  0.00     0.193 C  
HETATM   16  O   UNL     1     -11.383  11.998  69.791  1.00  0.00    -0.225 OA 
HETATM   17  N   UNL     1     -11.145  11.160  67.611  1.00  0.00    -0.267 N  
HETATM   18  C   UNL     1     -11.385  12.184  68.579  1.00  0.00    -0.275 C  
BRANCH  11  19
HETATM   19  C   UNL     1     -10.884  15.874  65.271  1.00  0.00    -0.387 C  
HETATM   20  H1  UNL     1     -11.596  16.300  63.419  1.00  0.00     0.000 HD 
HETATM   21  N   UNL     1     -11.821  15.814  64.287  1.00  0.00    -0.734 N  
HETATM   22  H2  UNL     1     -12.701  15.312  64.409  1.00  0.00     0.000 HD 
HETATM   23  O   UNL     1      -9.839  16.500  65.098  1.00  0.00    -0.411 OA 
ENDBRANCH  11  19
BRANCH  17  24
HETATM   24  C   UNL     1     -10.368   9.976  67.891  1.00  0.00    -0.207 A  
HETATM   25  C   UNL     1     -10.470   8.810  67.125  1.00  0.00    -0.354 A  
HETATM   26  C   UNL     1      -9.814   7.619  67.489  1.00  0.00    -0.214 A  
HETATM   27  C   UNL     1      -9.032   7.531  68.645  1.00  0.00    -0.132 A  
HETATM   28  C   UNL     1      -8.871   8.706  69.376  1.00  0.00    -0.144 A  
HETATM   29  C   UNL     1      -9.522   9.895  69.006  1.00  0.00    -0.185 A  
BRANCH  27  30
HETATM   30  N   UNL     1      -8.530   6.270  69.105  1.00  0.00    -0.120 N  
HETATM   31  C   UNL     1      -7.383   5.636  68.459  1.00  0.00    -0.076 C  
HETATM   32  C   UNL     1      -6.327   5.229  69.475  1.00  0.00    -0.034 C  
HETATM   33  C   UNL     1      -6.951   4.296  70.495  1.00  0.00    -0.034 C  
HETATM   34  C   UNL     1      -8.163   4.944  71.138  1.00  0.00    -0.109 C  
HETATM   35  C   UNL     1      -9.138   5.581  70.161  1.00  0.00    -0.137 C  
HETATM   36  O   UNL     1     -10.342   5.594  70.416  1.00  0.00    -0.221 OA 
ENDBRANCH  27  30
ENDBRANCH  17  24
ENDBRANCH   6   9
ENDBRANCH   2   3
TORSDOF 5
ENDMDL
MODEL        5
REMARK 921   NORMALIZED FREE ENERGY PREDICTED BY IDOCK:   -6.57 KCAL/MOL
REMARK 922        TOTAL FREE ENERGY PREDICTED BY IDOCK:   -9.86 KCAL/MOL
REMARK 923 INTER-LIGAND FREE ENERGY PREDICTED BY IDOCK:   -9.05 KCAL/MOL
REMARK 924 INTRA-LIGAND FREE ENERGY PREDICTED BY IDOCK:   -0.81 KCAL/MOL
REMARK 927      BINDING AFFINITY PREDICTED BY RF-SCORE:    0.00 PKD
ROOT
HETATM    1  C   UNL     1     -12.387  16.279  74.285  1.00  0.00    -0.509 C  
HETATM    2  O   UNL     1     -12.891  15.064  73.737  1.00  0.00    -0.509 OA 
ENDROOT
BRANCH   2   3
HETATM    3  C   UNL     1     -12.583  14.848  72.422  1.00  0.00    -0.343 A  
HETATM    4  C   UNL     1     -11.529  15.604  71.912  1.00  0.00    -0.501 A  
HETATM    5  C   UNL     1     -11.140  15.477  70.571  1.00  0.00    -0.369 A  
HETATM    6  C   UNL     1     -11.799  14.578  69.723  1.00  0.00    -0.315 A  
HETATM    7  C   UNL     1     -12.805  13.762  70.262  1.00  0.00    -0.093 A  
HETATM    8  C   UNL     1     -13.203  13.907  71.601  1.00  0.00    -0.446 A  
BRANCH   6   9
HETATM    9  N   UNL     1     -11.455  14.456  68.340  1.00  0.00    -0.284 NA 
HETATM   10  N   UNL     1     -11.277  15.599  67.581  1.00  0.00    -0.309 NA 
HETATM   11  C   UNL     1     -11.141  15.167  66.313  1.00  0.00    -0.309 A  
HETATM   12  C   UNL     1     -11.151  13.765  66.268  1.00  0.00    -0.302 A  
HETATM   13  C   UNL     1     -10.958  12.847  65.126  1.00  0.00    -0.316 C  
HETATM   14  C   UNL     1     -11.256  13.319  67.569  1.00  0.00    -0.281 A  
HETATM   15  C   UNL     1     -11.411  11.458  65.569  1.00  0.00     0.003 C  
HETATM   16  O   UNL     1     -10.896  11.595  69.130  1.00  0.00    -0.221 OA 
HETATM   17  N   UNL     1     -10.788  11.061  66.847  1.00  0.00    -0.276 N  
HETATM   18  C   UNL     1     -11.003  11.936  67.957  1.00  0.00    -0.224 C  
BRANCH  11  19
HETATM   19  C   UNL     1     -10.951  16.044  65.142  1.00  0.00    -0.348 C  
HETATM   20  H1  UNL     1     -11.539  16.337  63.222  1.00  0.00     0.000 HD 
HETATM   21  N   UNL     1     -11.670  15.730  64.031  1.00  0.00    -0.952 N  
HETATM   22  H2  UNL     1     -12.306  14.932  64.008  1.00  0.00     0.000 HD 
HETATM   23  O   UNL     1     -10.203  17.022  65.144  1.00  0.00    -0.544 OA 
ENDBRANCH  11  19
BRANCH  17  24
HETATM   24  C   UNL     1      -9.932   9.900  66.911  1.00  0.00    -0.212 A  
HETATM   25  C   UNL     1      -8.541   9.985  66.790  1.00  0.00    -0.129 A  
HETATM   26  C   UNL     1      -7.728   8.838  66.715  1.00  0.00    -0.094 A  
HETATM   27  C   UNL     1      -8.268   7.548  66.743  1.00  0.00    -0.124 A  
HETATM   28  C   UNL     1      -9.645   7.456  66.931  1.00  0.00    -0.240 A  
HETATM   29  C   UNL     1     -10.453   8.603  67.014  1.00  0.00    -0.354 A  
BRANCH  27  30
HETATM   30  N   UNL     1      -7.455   6.399  66.474  1.00  0.00    -0.084 N  
HETATM   31  C   UNL     1      -6.602   5.820  67.509  1.00  0.00    -0.056 C  
HETATM   32  C   UNL     1      -6.822   4.321  67.636  1.00  0.00    -0.052 C  
HETATM   33  C   UNL     1      -6.557   3.663  66.295  1.00  0.00    -0.037 C  
HETATM   34  C   UNL     1      -7.418   4.292  65.215  1.00  0.00    -0.073 C  
HETATM   35  C   UNL     1      -7.416   5.812  65.203  1.00  0.00    -0.078 C  
HETATM   36  O   UNL     1      -7.533   6.417  64.138  1.00  0.00    -0.070 OA 
ENDBRANCH  27  30
ENDBRANCH  17  24
ENDBRANCH   6   9
ENDBRANCH   2   3
TORSDOF 5
ENDMDL
MODEL        6
REMARK 921   NORMALIZED FREE ENERGY PREDICTED BY IDOCK:   -6.43 KCAL/MOL
REMARK 922        TOTAL FREE ENERGY PREDICTED BY IDOCK:   -9.68 KCAL/MOL
REMARK 923 INTER-LIGAND FREE ENERGY PREDICTED BY IDOCK:   -8.63 KCAL/MOL
REMARK 924 INTRA-LIGAND FREE ENERGY PREDICTED BY IDOCK:   -1.05 KCAL/MOL
REMARK 927      BINDING AFFINITY PREDICTED BY RF-SCORE:    0.00 PKD
ROOT
HETATM    1  C   UNL     1     -10.521  17.648  65.586  1.00  0.00    -0.144 C  
HETATM    2  O   UNL     1     -10.554  16.333  65.040  1.00  0.00    -0.620 OA 
ENDROOT
BRANCH   2   3
HETATM    3  C   UNL     1     -10.704  15.326  65.955  1.00  0.00    -0.334 A  
HETATM    4  C   UNL     1     -11.774  14.460  65.735  1.00  0.00    -0.362 A  
HETATM    5  C   UNL     1     -12.033  13.405  66.621  1.00  0.00    -0.452 A  
HETATM    6  C   UNL     1     -11.213  13.197  67.738  1.00  0.00    -0.277 A  
HETATM    7  C   UNL     1     -10.092  14.023  67.908  1.00  0.00    -0.237 A  
HETATM    8  C   UNL     1      -9.848  15.090  67.029  1.00  0.00    -0.241 A  
BRANCH   6   9
HETATM    9  N   UNL     1     -11.475  12.156  68.683  1.00  0.00    -0.270 NA 
HETATM   10  N   UNL     1     -12.370  12.385  69.713  1.00  0.00    -0.088 NA 
HETATM   11  C   UNL     1     -12.271  11.308  70.517  1.00  0.00    -0.383 A  
HETATM   12  C   UNL     1     -11.385  10.368  69.970  1.00  0.00    -0.384 A  
HETATM   13  C   UNL     1     -11.018   9.016  70.443  1.00  0.00    -0.283 C  
HETATM   14  C   UNL     1     -10.956  10.871  68.759  1.00  0.00    -0.237 A  
HETATM   15  C   UNL     1      -9.772   8.581  69.676  1.00  0.00    -0.179 C  
HETATM   16  O   UNL     1     -10.074  10.456  66.617  1.00  0.00    -0.208 OA 
HETATM   17  N   UNL     1      -9.941   8.746  68.220  1.00  0.00    -0.169 N  
HETATM   18  C   UNL     1     -10.265  10.061  67.762  1.00  0.00    -0.192 C  
BRANCH  11  19
HETATM   19  C   UNL     1     -13.029  11.121  71.768  1.00  0.00    -0.421 C  
HETATM   20  H1  UNL     1     -13.930  12.124  73.284  1.00  0.00     0.000 HD 
HETATM   21  N   UNL     1     -13.406  12.254  72.419  1.00  0.00    -0.519 N  
HETATM   22  H2  UNL     1     -13.178  13.182  72.063  1.00  0.00     0.000 HD 
HETATM   23  O   UNL     1     -13.331  10.015  72.216  1.00  0.00    -0.429 OA 
ENDBRANCH  11  19
BRANCH  17  24
HETATM   24  C   UNL     1      -9.874   7.600  67.343  1.00  0.00    -0.173 A  
HETATM   25  C   UNL     1     -10.811   6.563  67.391  1.00  0.00    -0.449 A  
HETATM   26  C   UNL     1     -10.661   5.387  66.631  1.00  0.00    -0.359 A  
HETATM   27  C   UNL     1      -9.557   5.184  65.796  1.00  0.00    -0.122 A  
HETATM   28  C   UNL     1      -8.656   6.241  65.693  1.00  0.00    -0.143 A  
HETATM   29  C   UNL     1      -8.812   7.417  66.447  1.00  0.00    -0.176 A  
BRANCH  27  30
HETATM   30  N   UNL     1      -9.318   3.912  65.181  1.00  0.00    -0.148 N  
HETATM   31  C   UNL     1     -10.039   3.512  63.975  1.00  0.00    -0.207 C  
HETATM   32  C   UNL     1      -9.088   3.028  62.893  1.00  0.00    -0.091 C  
HETATM   33  C   UNL     1      -8.265   1.873  63.433  1.00  0.00    -0.072 C  
HETATM   34  C   UNL     1      -7.546   2.282  64.706  1.00  0.00    -0.068 C  
HETATM   35  C   UNL     1      -8.417   2.992  65.729  1.00  0.00    -0.110 C  
HETATM   36  O   UNL     1      -8.192   2.849  66.931  1.00  0.00    -0.082 OA 
ENDBRANCH  27  30
ENDBRANCH  17  24
ENDBRANCH   6   9
ENDBRANCH   2   3
TORSDOF 5
ENDMDL
MODEL        7
REMARK 921   NORMALIZED FREE ENERGY PREDICTED BY IDOCK:   -6.40 KCAL/MOL
REMARK 922        TOTAL FREE ENERGY PREDICTED BY IDOCK:   -9.65 KCAL/MOL
REMARK 923 INTER-LIGAND FREE ENERGY PREDICTED BY IDOCK:   -8.21 KCAL/MOL
REMARK 924 INTRA-LIGAND FREE ENERGY PREDICTED BY IDOCK:   -1.44 KCAL/MOL
REMARK 927      BINDING AFFINITY PREDICTED BY RF-SCORE:    0.00 PKD
ROOT
HETATM    1  C   UNL     1      -6.521   5.280  63.328  1.00  0.00    -0.026 C  
HETATM    2  O   UNL     1      -5.848   6.264  64.108  1.00  0.00    -0.022 OA 
ENDROOT
BRANCH   2   3
HETATM    3  C   UNL     1      -6.614   6.868  65.068  1.00  0.00    -0.043 A  
HETATM    4  C   UNL     1      -7.986   6.895  64.824  1.00  0.00    -0.119 A  
HETATM    5  C   UNL     1      -8.863   7.505  65.732  1.00  0.00    -0.122 A  
HETATM    6  C   UNL     1      -8.373   8.089  66.908  1.00  0.00    -0.116 A  
HETATM    7  C   UNL     1      -7.002   7.988  67.186  1.00  0.00    -0.075 A  
HETATM    8  C   UNL     1      -6.127   7.393  66.264  1.00  0.00    -0.037 A  
BRANCH   6   9
HETATM    9  N   UNL     1      -9.236   8.757  67.833  1.00  0.00    -0.139 NA 
HETATM   10  N   UNL     1      -9.541   8.147  69.037  1.00  0.00    -0.155 NA 
HETATM   11  C   UNL     1     -10.492   8.920  69.597  1.00  0.00    -0.216 A  
HETATM   12  C   UNL     1     -10.736  10.050  68.803  1.00  0.00    -0.250 A  
HETATM   13  C   UNL     1     -11.623  11.208  69.040  1.00  0.00    -0.392 C  
HETATM   14  C   UNL     1      -9.868   9.989  67.733  1.00  0.00    -0.157 A  
HETATM   15  C   UNL     1     -11.768  11.957  67.718  1.00  0.00    -0.292 C  
HETATM   16  O   UNL     1      -8.695  11.123  66.036  1.00  0.00    -0.186 OA 
HETATM   17  N   UNL     1     -10.456  12.246  67.107  1.00  0.00    -0.218 N  
HETATM   18  C   UNL     1      -9.612  11.121  66.850  1.00  0.00    -0.186 C  
BRANCH  11  19
HETATM   19  C   UNL     1     -11.144   8.645  70.891  1.00  0.00    -0.264 C  
HETATM   20  H1  UNL     1     -12.768   7.770  71.736  1.00  0.00     0.000 HD 
HETATM   21  N   UNL     1     -12.318   7.960  70.841  1.00  0.00    -0.503 N  
HETATM   22  H2  UNL     1     -12.725   7.653  69.958  1.00  0.00     0.000 HD 
HETATM   23  O   UNL     1     -10.670   8.991  71.974  1.00  0.00    -0.349 OA 
ENDBRANCH  11  19
BRANCH  17  24
HETATM   24  C   UNL     1     -10.039  13.612  66.887  1.00  0.00    -0.260 A  
HETATM   25  C   UNL     1      -9.474  14.397  67.897  1.00  0.00    -0.214 A  
HETATM   26  C   UNL     1      -9.200  15.765  67.712  1.00  0.00    -0.197 A  
HETATM   27  C   UNL     1      -9.491  16.420  66.510  1.00  0.00    -0.272 A  
HETATM   28  C   UNL     1      -9.991  15.629  65.479  1.00  0.00    -0.364 A  
HETATM   29  C   UNL     1     -10.256  14.262  65.664  1.00  0.00    -0.366 A  
BRANCH  27  30
HETATM   30  N   UNL     1      -9.387  17.845  66.400  1.00  0.00    -0.277 N  
HETATM   31  C   UNL     1     -10.571  18.696  66.484  1.00  0.00    -0.358 C  
HETATM   32  C   UNL     1     -10.379  19.818  67.491  1.00  0.00    -0.578 C  
HETATM   33  C   UNL     1      -9.161  20.634  67.102  1.00  0.00    -0.429 C  
HETATM   34  C   UNL     1      -7.940  19.742  66.980  1.00  0.00    -0.322 C  
HETATM   35  C   UNL     1      -8.156  18.473  66.171  1.00  0.00    -0.176 C  
HETATM   36  O   UNL     1      -7.231  18.001  65.511  1.00  0.00    -0.532 OA 
ENDBRANCH  27  30
ENDBRANCH  17  24
ENDBRANCH   6   9
ENDBRANCH   2   3
TORSDOF 5
ENDMDL
MODEL        8
REMARK 921   NORMALIZED FREE ENERGY PREDICTED BY IDOCK:   -6.40 KCAL/MOL
REMARK 922        TOTAL FREE ENERGY PREDICTED BY IDOCK:   -9.64 KCAL/MOL
REMARK 923 INTER-LIGAND FREE ENERGY PREDICTED BY IDOCK:   -8.38 KCAL/MOL
REMARK 924 INTRA-LIGAND FREE ENERGY PREDICTED BY IDOCK:   -1.26 KCAL/MOL
REMARK 927      BINDING AFFINITY PREDICTED BY RF-SCORE:    0.00 PKD
ROOT
HETATM    1  C   UNL     1     -10.514   4.428  74.544  1.00  0.00    -0.249 C  
HETATM    2  O   UNL     1     -10.895   5.695  74.015  1.00  0.00    -0.217 OA 
ENDROOT
BRANCH   2   3
HETATM    3  C   UNL     1     -10.769   5.820  72.658  1.00  0.00    -0.240 A  
HETATM    4  C   UNL     1      -9.595   5.309  72.107  1.00  0.00    -0.183 A  
HETATM    5  C   UNL     1      -9.353   5.400  70.729  1.00  0.00    -0.200 A  
HETATM    6  C   UNL     1     -10.294   5.998  69.880  1.00  0.00    -0.227 A  
HETATM    7  C   UNL     1     -11.507   6.438  70.430  1.00  0.00    -0.458 A  
HETATM    8  C   UNL     1     -11.736   6.361  71.813  1.00  0.00    -0.376 A  
BRANCH   6   9
HETATM    9  N   UNL     1     -10.058   6.144  68.477  1.00  0.00    -0.150 NA 
HETATM   10  N   UNL     1     -10.311   5.078  67.632  1.00  0.00    -0.114 NA 
HETATM   11  C   UNL     1      -9.833   5.456  66.430  1.00  0.00    -0.176 A  
HETATM   12  C   UNL     1      -9.354   6.773  66.485  1.00  0.00    -0.197 A  
HETATM   13  C   UNL     1      -8.814   7.636  65.413  1.00  0.00     0.036 C  
HETATM   14  C   UNL     1      -9.586   7.237  67.763  1.00  0.00    -0.138 A  
HETATM   15  C   UNL     1      -8.128   8.826  66.079  1.00  0.00    -0.112 C  
HETATM   16  O   UNL     1      -9.905   9.072  69.201  1.00  0.00    -0.168 OA 
HETATM   17  N   UNL     1      -9.004   9.477  67.072  1.00  0.00    -0.133 N  
HETATM   18  C   UNL     1      -9.500   8.647  68.125  1.00  0.00    -0.141 C  
BRANCH  11  19
HETATM   19  C   UNL     1      -9.861   4.621  65.215  1.00  0.00    -0.123 C  
HETATM   20  H1  UNL     1     -11.110   3.670  63.929  1.00  0.00     0.000 HD 
HETATM   21  N   UNL     1     -11.091   4.247  64.769  1.00  0.00    -0.761 N  
HETATM   22  H2  UNL     1     -11.946   4.529  65.248  1.00  0.00     0.000 HD 
HETATM   23  O   UNL     1      -8.848   4.277  64.607  1.00  0.00    -0.129 OA 
ENDBRANCH  11  19
BRANCH  17  24
HETATM   24  C   UNL     1      -9.401  10.855  66.901  1.00  0.00    -0.168 A  
HETATM   25  C   UNL     1      -8.492  11.915  66.986  1.00  0.00    -0.177 A  
HETATM   26  C   UNL     1      -8.910  13.259  66.957  1.00  0.00    -0.216 A  
HETATM   27  C   UNL     1     -10.260  13.610  66.855  1.00  0.00    -0.261 A  
HETATM   28  C   UNL     1     -11.163  12.561  66.703  1.00  0.00    -0.357 A  
HETATM   29  C   UNL     1     -10.743  11.221  66.724  1.00  0.00    -0.323 A  
BRANCH  27  30
HETATM   30  N   UNL     1     -10.685  14.969  67.020  1.00  0.00    -0.298 N  
HETATM   31  C   UNL     1     -11.415  15.390  68.213  1.00  0.00    -0.353 C  
HETATM   32  C   UNL     1     -10.785  16.622  68.843  1.00  0.00    -0.337 C  
HETATM   33  C   UNL     1     -10.743  17.740  67.818  1.00  0.00    -0.332 C  
HETATM   34  C   UNL     1     -10.017  17.286  66.566  1.00  0.00    -0.310 C  
HETATM   35  C   UNL     1     -10.454  15.932  66.031  1.00  0.00    -0.345 C  
HETATM   36  O   UNL     1     -10.431  15.715  64.820  1.00  0.00    -0.446 OA 
ENDBRANCH  27  30
ENDBRANCH  17  24
ENDBRANCH   6   9
ENDBRANCH   2   3
TORSDOF 5
ENDMDL
MODEL        9
REMARK 921   NORMALIZED FREE ENERGY PREDICTED BY IDOCK:   -6.31 KCAL/MOL
REMARK 922        TOTAL FREE ENERGY PREDICTED BY IDOCK:   -9.53 KCAL/MOL
REMARK 923 INTER-LIGAND FREE ENERGY PREDICTED BY IDOCK:   -8.23 KCAL/MOL
REMARK 924 INTRA-LIGAND FREE ENERGY PREDICTED BY IDOCK:   -1.30 KCAL/MOL
REMARK 927      BINDING AFFINITY PREDICTED BY RF-SCORE:    0.00 PKD
ROOT
HETATM    1  C   UNL     1     -10.219  19.781  68.504  1.00  0.00    -0.433 C  
HETATM    2  O   UNL     1      -9.047  19.119  68.040  1.00  0.00    -0.293 OA 
ENDROOT
BRANCH   2   3
HETATM    3  C   UNL     1      -9.251  17.865  67.530  1.00  0.00    -0.249 A  
HETATM    4  C   UNL     1     -10.473  17.272  67.845  1.00  0.00    -0.382 A  
HETATM    5  C   UNL     1     -10.780  15.982  67.391  1.00  0.00    -0.306 A  
HETATM    6  C   UNL     1      -9.866  15.270  66.602  1.00  0.00    -0.250 A  
HETATM    7  C   UNL     1      -8.674  15.904  66.222  1.00  0.00    -0.372 A  
HETATM    8  C   UNL     1      -8.363  17.189  66.695  1.00  0.00    -0.286 A  
BRANCH   6   9
HETATM    9  N   UNL     1     -10.131  13.937  66.159  1.00  0.00    -0.300 NA 
HETATM   10  N   UNL     1     -10.164  13.666  64.802  1.00  0.00    -0.377 NA 
HETATM   11  C   UNL     1     -10.604  12.397  64.703  1.00  0.00    -0.308 A  
HETATM   12  C   UNL     1     -10.774  11.835  65.977  1.00  0.00    -0.324 A  
HETATM   13  C   UNL     1     -11.158  10.464  66.370  1.00  0.00     0.156 C  
HETATM   14  C   UNL     1     -10.382  12.787  66.895  1.00  0.00    -0.238 A  
HETATM   15  C   UNL     1     -11.529  10.494  67.851  1.00  0.00    -0.109 C  
HETATM   16  O   UNL     1      -9.592  13.280  69.057  1.00  0.00     0.118 OA 
HETATM   17  N   UNL     1     -10.482  11.144  68.663  1.00  0.00    -0.189 N  
HETATM   18  C   UNL     1     -10.134  12.482  68.300  1.00  0.00    -0.228 C  
BRANCH  11  19
HETATM   19  C   UNL     1     -10.822  11.680  63.432  1.00  0.00    -0.379 C  
HETATM   20  H1  UNL     1     -12.250  11.155  62.090  1.00  0.00     0.000 HD 
HETATM   21  N   UNL     1     -12.100  11.651  62.968  1.00  0.00    -0.927 N  
HETATM   22  H2  UNL     1     -12.866  12.100  63.471  1.00  0.00     0.000 HD 
HETATM   23  O   UNL     1      -9.916  11.141  62.796  1.00  0.00    -0.258 OA 
ENDBRANCH  11  19
BRANCH  17  24
HETATM   24  C   UNL     1      -9.797  10.403  69.696  1.00  0.00    -0.144 A  
HETATM   25  C   UNL     1      -8.419  10.164  69.662  1.00  0.00    -0.172 A  
HETATM   26  C   UNL     1      -7.785   9.326  70.598  1.00  0.00    -0.170 A  
HETATM   27  C   UNL     1      -8.499   8.673  71.608  1.00  0.00    -0.167 A  
HETATM   28  C   UNL     1      -9.859   8.960  71.689  1.00  0.00    -0.387 A  
HETATM   29  C   UNL     1     -10.490   9.803  70.758  1.00  0.00    -0.339 A  
BRANCH  27  30
HETATM   30  N   UNL     1      -7.877   7.678  72.430  1.00  0.00    -0.097 N  
HETATM   31  C   UNL     1      -7.828   6.279  72.012  1.00  0.00    -0.097 C  
HETATM   32  C   UNL     1      -6.417   5.721  72.104  1.00  0.00    -0.053 C  
HETATM   33  C   UNL     1      -5.912   5.873  73.526  1.00  0.00    -0.060 C  
HETATM   34  C   UNL     1      -5.999   7.322  73.970  1.00  0.00    -0.064 C  
HETATM   35  C   UNL     1      -7.328   7.999  73.677  1.00  0.00    -0.145 C  
HETATM   36  O   UNL     1      -7.755   8.867  74.438  1.00  0.00    -0.403 OA 
ENDBRANCH  27  30
ENDBRANCH  17  24
ENDBRANCH   6   9
ENDBRANCH   2   3
TORSDOF 5
ENDMDL
MODEL       10
REMARK 921   NORMALIZED FREE ENERGY PREDICTED BY IDOCK:   -6.30 KCAL/MOL
REMARK 922        TOTAL FREE ENERGY PREDICTED BY IDOCK:   -9.51 KCAL/MOL
REMARK 923 INTER-LIGAND FREE ENERGY PREDICTED BY IDOCK:   -8.24 KCAL/MOL
REMARK 924 INTRA-LIGAND FREE ENERGY PREDICTED BY IDOCK:   -1.27 KCAL/MOL
REMARK 927      BINDING AFFINITY PREDICTED BY RF-SCORE:    0.00 PKD
ROOT
HETATM    1  C   UNL     1      -7.500  20.444  67.362  1.00  0.00    -0.322 C  
HETATM    2  O   UNL     1      -8.360  19.806  68.302  1.00  0.00    -0.320 OA 
ENDROOT
BRANCH   2   3
HETATM    3  C   UNL     1      -8.910  18.626  67.880  1.00  0.00    -0.288 A  
HETATM    4  C   UNL     1      -8.095  17.827  67.079  1.00  0.00    -0.239 A  
HETATM    5  C   UNL     1      -8.564  16.606  66.575  1.00  0.00    -0.320 A  
HETATM    6  C   UNL     1      -9.858  16.163  66.877  1.00  0.00    -0.241 A  
HETATM    7  C   UNL     1     -10.644  16.933  67.747  1.00  0.00    -0.340 A  
HETATM    8  C   UNL     1     -10.177  18.164  68.234  1.00  0.00    -0.402 A  
BRANCH   6   9
HETATM    9  N   UNL     1     -10.381  14.943  66.343  1.00  0.00    -0.277 NA 
HETATM   10  N   UNL     1     -10.660  14.858  64.991  1.00  0.00    -0.414 NA 
HETATM   11  C   UNL     1     -11.291  13.679  64.830  1.00  0.00    -0.344 A  
HETATM   12  C   UNL     1     -11.344  12.982  66.046  1.00  0.00    -0.343 A  
HETATM   13  C   UNL     1     -11.860  11.630  66.349  1.00  0.00     0.157 C  
HETATM   14  C   UNL     1     -10.681  13.748  66.983  1.00  0.00    -0.283 A  
HETATM   15  C   UNL     1     -11.991  11.514  67.865  1.00  0.00    -0.073 C  
HETATM   16  O   UNL     1      -9.506  13.850  69.019  1.00  0.00    -0.019 OA 
HETATM   17  N   UNL     1     -10.749  11.914  68.553  1.00  0.00    -0.216 N  
HETATM   18  C   UNL     1     -10.268  13.233  68.283  1.00  0.00    -0.250 C  
BRANCH  11  19
HETATM   19  C   UNL     1     -11.803  13.168  63.545  1.00  0.00    -0.476 C  
HETATM   20  H1  UNL     1     -11.504  11.743  62.131  1.00  0.00     0.000 HD 
HETATM   21  N   UNL     1     -11.150  12.096  63.020  1.00  0.00    -0.645 N  
HETATM   22  H2  UNL     1     -10.350  11.669  63.488  1.00  0.00     0.000 HD 
HETATM   23  O   UNL     1     -12.773  13.652  62.963  1.00  0.00    -0.681 OA 
ENDBRANCH  11  19
BRANCH  17  24
HETATM   24  C   UNL     1     -10.029  10.964  69.369  1.00  0.00    -0.057 A  
HETATM   25  C   UNL     1      -8.688  10.638  69.138  1.00  0.00    -0.135 A  
HETATM   26  C   UNL     1      -8.038   9.612  69.849  1.00  0.00    -0.180 A  
HETATM   27  C   UNL     1      -8.700   8.850  70.817  1.00  0.00    -0.206 A  
HETATM   28  C   UNL     1     -10.014   9.214  71.099  1.00  0.00    -0.377 A  
HETATM   29  C   UNL     1     -10.659  10.244  70.394  1.00  0.00    -0.212 A  
BRANCH  27  30
HETATM   30  N   UNL     1      -8.086   7.690  71.392  1.00  0.00    -0.094 N  
HETATM   31  C   UNL     1      -7.050   7.814  72.414  1.00  0.00    -0.080 C  
HETATM   32  C   UNL     1      -7.359   6.951  73.627  1.00  0.00    -0.083 C  
HETATM   33  C   UNL     1      -7.507   5.507  73.187  1.00  0.00    -0.096 C  
HETATM   34  C   UNL     1      -8.559   5.387  72.100  1.00  0.00    -0.126 C  
HETATM   35  C   UNL     1      -8.428   6.399  70.972  1.00  0.00    -0.127 C  
HETATM   36  O   UNL     1      -8.762   6.089  69.829  1.00  0.00    -0.128 OA 
ENDBRANCH  27  30
ENDBRANCH  17  24
ENDBRANCH   6   9
ENDBRANCH   2   3
TORSDOF 5
ENDMDL
MODEL       11
REMARK 921   NORMALIZED FREE ENERGY PREDICTED BY IDOCK:   -6.22 KCAL/MOL
REMARK 922        TOTAL FREE ENERGY PREDICTED BY IDOCK:   -9.41 KCAL/MOL
REMARK 923 INTER-LIGAND FREE ENERGY PREDICTED BY IDOCK:   -8.28 KCAL/MOL
REMARK 924 INTRA-LIGAND FREE ENERGY PREDICTED BY IDOCK:   -1.13 KCAL/MOL
REMARK 927      BINDING AFFINITY PREDICTED BY RF-SCORE:    0.00 PKD
ROOT
HETATM    1  C   UNL     1     -10.322  18.346  66.047  1.00  0.00    -0.375 C  
HETATM    2  O   UNL     1     -10.303  17.045  65.468  1.00  0.00    -0.585 OA 
ENDROOT
BRANCH   2   3
HETATM    3  C   UNL     1     -10.489  16.014  66.350  1.00  0.00    -0.309 A  
HETATM    4  C   UNL     1     -11.387  15.026  65.950  1.00  0.00    -0.273 A  
HETATM    5  C   UNL     1     -11.667  13.934  66.783  1.00  0.00    -0.423 A  
HETATM    6  C   UNL     1     -11.039  13.813  68.030  1.00  0.00    -0.261 A  
HETATM    7  C   UNL     1     -10.077  14.768  68.391  1.00  0.00    -0.225 A  
HETATM    8  C   UNL     1      -9.814  15.869  67.561  1.00  0.00    -0.230 A  
BRANCH   6   9
HETATM    9  N   UNL     1     -11.335  12.734  68.921  1.00  0.00    -0.278 NA 
HETATM   10  N   UNL     1     -12.327  12.893  69.873  1.00  0.00    -0.155 NA 
HETATM   11  C   UNL     1     -12.248  11.798  70.655  1.00  0.00    -0.349 A  
HETATM   12  C   UNL     1     -11.275  10.914  70.165  1.00  0.00    -0.317 A  
HETATM   13  C   UNL     1     -10.889   9.567  70.634  1.00  0.00    -0.371 C  
HETATM   14  C   UNL     1     -10.766  11.471  69.010  1.00  0.00    -0.193 A  
HETATM   15  C   UNL     1      -9.561   9.210  69.970  1.00  0.00    -0.197 C  
HETATM   16  O   UNL     1      -9.680  11.159  66.945  1.00  0.00    -0.187 OA 
HETATM   17  N   UNL     1      -9.609   9.410  68.510  1.00  0.00    -0.145 N  
HETATM   18  C   UNL     1      -9.953  10.722  68.058  1.00  0.00    -0.164 C  
BRANCH  11  19
HETATM   19  C   UNL     1     -13.104  11.541  71.828  1.00  0.00    -0.398 C  
HETATM   20  H1  UNL     1     -14.146  12.458  73.308  1.00  0.00     0.000 HD 
HETATM   21  N   UNL     1     -13.555  12.636  72.497  1.00  0.00    -0.583 N  
HETATM   22  H2  UNL     1     -13.315  13.583  72.203  1.00  0.00     0.000 HD 
HETATM   23  O   UNL     1     -13.421  10.411  72.198  1.00  0.00    -0.396 OA 
ENDBRANCH  11  19
BRANCH  17  24
HETATM   24  C   UNL     1      -9.413   8.294  67.614  1.00  0.00    -0.149 A  
HETATM   25  C   UNL     1     -10.454   7.437  67.242  1.00  0.00    -0.385 A  
HETATM   26  C   UNL     1     -10.226   6.274  66.482  1.00  0.00    -0.163 A  
HETATM   27  C   UNL     1      -8.943   5.903  66.067  1.00  0.00    -0.151 A  
HETATM   28  C   UNL     1      -7.912   6.787  66.376  1.00  0.00    -0.106 A  
HETATM   29  C   UNL     1      -8.143   7.951  67.129  1.00  0.00    -0.117 A  
BRANCH  27  30
HETATM   30  N   UNL     1      -8.700   4.626  65.464  1.00  0.00    -0.126 N  
HETATM   31  C   UNL     1      -8.060   3.548  66.213  1.00  0.00    -0.092 C  
HETATM   32  C   UNL     1      -8.859   2.258  66.122  1.00  0.00    -0.124 C  
HETATM   33  C   UNL     1      -9.021   1.873  64.664  1.00  0.00    -0.118 C  
HETATM   34  C   UNL     1      -9.652   3.009  63.881  1.00  0.00    -0.132 C  
HETATM   35  C   UNL     1      -9.031   4.375  64.127  1.00  0.00    -0.151 C  
HETATM   36  O   UNL     1      -8.997   5.205  63.219  1.00  0.00    -0.050 OA 
ENDBRANCH  27  30
ENDBRANCH  17  24
ENDBRANCH   6   9
ENDBRANCH   2   3
TORSDOF 5
ENDMDL
MODEL       12
REMARK 921   NORMALIZED FREE ENERGY PREDICTED BY IDOCK:   -6.19 KCAL/MOL
REMARK 922        TOTAL FREE ENERGY PREDICTED BY IDOCK:   -9.38 KCAL/MOL
REMARK 923 INTER-LIGAND FREE ENERGY PREDICTED BY IDOCK:   -8.42 KCAL/MOL
REMARK 924 INTRA-LIGAND FREE ENERGY PREDICTED BY IDOCK:   -0.96 KCAL/MOL
REMARK 927      BINDING AFFINITY PREDICTED BY RF-SCORE:    0.00 PKD
ROOT
HETATM    1  C   UNL     1      -6.369  19.899  69.837  1.00  0.00    -0.360 C  
HETATM    2  O   UNL     1      -5.942  19.327  68.604  1.00  0.00    -0.209 OA 
ENDROOT
BRANCH   2   3
HETATM    3  C   UNL     1      -6.815  18.435  68.043  1.00  0.00    -0.217 A  
HETATM    4  C   UNL     1      -8.163  18.641  68.332  1.00  0.00    -0.361 A  
HETATM    5  C   UNL     1      -9.143  17.776  67.825  1.00  0.00    -0.249 A  
HETATM    6  C   UNL     1      -8.784  16.695  67.011  1.00  0.00    -0.200 A  
HETATM    7  C   UNL     1      -7.434  16.540  66.660  1.00  0.00    -0.296 A  
HETATM    8  C   UNL     1      -6.455  17.398  67.185  1.00  0.00    -0.191 A  
BRANCH   6   9
HETATM    9  N   UNL     1      -9.755  15.770  66.514  1.00  0.00    -0.249 NA 
HETATM   10  N   UNL     1     -10.332  15.992  65.276  1.00  0.00    -0.533 NA 
HETATM   11  C   UNL     1     -11.311  15.072  65.170  1.00  0.00    -0.372 A  
HETATM   12  C   UNL     1     -11.310  14.223  66.286  1.00  0.00    -0.347 A  
HETATM   13  C   UNL     1     -12.135  13.032  66.579  1.00  0.00    -0.410 C  
HETATM   14  C   UNL     1     -10.260  14.612  67.091  1.00  0.00    -0.256 A  
HETATM   15  C   UNL     1     -11.965  12.705  68.060  1.00  0.00    -0.245 C  
HETATM   16  O   UNL     1      -8.698  14.049  68.760  1.00  0.00    -0.134 OA 
HETATM   17  N   UNL     1     -10.542  12.631  68.443  1.00  0.00    -0.238 N  
HETATM   18  C   UNL     1      -9.752  13.795  68.187  1.00  0.00    -0.227 C  
BRANCH  11  19
HETATM   19  C   UNL     1     -12.219  14.942  64.015  1.00  0.00    -0.123 C  
HETATM   20  H1  UNL     1     -12.919  13.621  62.642  1.00  0.00     0.000 HD 
HETATM   21  N   UNL     1     -12.291  13.711  63.441  1.00  0.00    -1.042 N  
HETATM   22  H2  UNL     1     -11.747  12.921  63.789  1.00  0.00     0.000 HD 
HETATM   23  O   UNL     1     -12.899  15.872  63.581  1.00  0.00    -0.280 OA 
ENDBRANCH  11  19
BRANCH  17  24
HETATM   24  C   UNL     1      -9.987  11.399  68.953  1.00  0.00    -0.131 A  
HETATM   25  C   UNL     1     -10.631  10.633  69.931  1.00  0.00    -0.203 A  
HETATM   26  C   UNL     1     -10.019   9.510  70.520  1.00  0.00    -0.335 A  
HETATM   27  C   UNL     1      -8.726   9.105  70.171  1.00  0.00    -0.181 A  
HETATM   28  C   UNL     1      -8.107   9.823  69.150  1.00  0.00    -0.107 A  
HETATM   29  C   UNL     1      -8.723  10.939  68.558  1.00  0.00    -0.153 A  
BRANCH  27  30
HETATM   30  N   UNL     1      -8.045   8.084  70.910  1.00  0.00    -0.098 N  
HETATM   31  C   UNL     1      -7.170   8.422  72.030  1.00  0.00    -0.094 C  
HETATM   32  C   UNL     1      -7.515   7.612  73.269  1.00  0.00    -0.125 C  
HETATM   33  C   UNL     1      -7.418   6.134  72.941  1.00  0.00    -0.097 C  
HETATM   34  C   UNL     1      -8.300   5.794  71.754  1.00  0.00    -0.120 C  
HETATM   35  C   UNL     1      -8.160   6.732  70.566  1.00  0.00    -0.116 C  
HETATM   36  O   UNL     1      -8.305   6.301  69.423  1.00  0.00    -0.118 OA 
ENDBRANCH  27  30
ENDBRANCH  17  24
ENDBRANCH   6   9
ENDBRANCH   2   3
TORSDOF 5
ENDMDL
MODEL       13
REMARK 921   NORMALIZED FREE ENERGY PREDICTED BY IDOCK:   -6.18 KCAL/MOL
REMARK 922        TOTAL FREE ENERGY PREDICTED BY IDOCK:   -9.37 KCAL/MOL
REMARK 923 INTER-LIGAND FREE ENERGY PREDICTED BY IDOCK:   -8.09 KCAL/MOL
REMARK 924 INTRA-LIGAND FREE ENERGY PREDICTED BY IDOCK:   -1.28 KCAL/MOL
REMARK 927      BINDING AFFINITY PREDICTED BY RF-SCORE:    0.00 PKD
ROOT
HETATM    1  C   UNL     1      -5.985  19.776  69.362  1.00  0.00    -0.283 C  
HETATM    2  O   UNL     1      -5.576  18.646  68.598  1.00  0.00    -0.189 OA 
ENDROOT
BRANCH   2   3
HETATM    3  C   UNL     1      -6.592  17.837  68.167  1.00  0.00    -0.191 A  
HETATM    4  C   UNL     1      -6.252  16.900  67.192  1.00  0.00    -0.215 A  
HETATM    5  C   UNL     1      -7.219  16.033  66.665  1.00  0.00    -0.025 A  
HETATM    6  C   UNL     1      -8.544  16.086  67.119  1.00  0.00    -0.194 A  
HETATM    7  C   UNL     1      -8.861  16.976  68.156  1.00  0.00    -0.227 A  
HETATM    8  C   UNL     1      -7.893  17.855  68.667  1.00  0.00    -0.294 A  
BRANCH   6   9
HETATM    9  N   UNL     1      -9.563  15.245  66.571  1.00  0.00    -0.253 NA 
HETATM   10  N   UNL     1     -10.202  15.625  65.404  1.00  0.00    -0.373 NA 
HETATM   11  C   UNL     1     -11.206  14.741  65.244  1.00  0.00    -0.366 A  
HETATM   12  C   UNL     1     -11.164  13.763  66.249  1.00  0.00    -0.310 A  
HETATM   13  C   UNL     1     -11.999  12.560  66.443  1.00  0.00    -0.386 C  
HETATM   14  C   UNL     1     -10.061  14.035  67.033  1.00  0.00    -0.255 A  
HETATM   15  C   UNL     1     -11.755  12.052  67.862  1.00  0.00    -0.323 C  
HETATM   16  O   UNL     1      -8.424  13.248  68.529  1.00  0.00    -0.148 OA 
HETATM   17  N   UNL     1     -10.315  11.909  68.151  1.00  0.00    -0.193 N  
HETATM   18  C   UNL     1      -9.514  13.082  67.992  1.00  0.00    -0.217 C  
BRANCH  11  19
HETATM   19  C   UNL     1     -12.179  14.767  64.137  1.00  0.00    -0.295 C  
HETATM   20  H1  UNL     1     -12.838  13.715  62.531  1.00  0.00     0.000 HD 
HETATM   21  N   UNL     1     -12.165  13.697  63.297  1.00  0.00    -1.063 N  
HETATM   22  H2  UNL     1     -11.517  12.919  63.426  1.00  0.00     0.000 HD 
HETATM   23  O   UNL     1     -12.982  15.684  63.963  1.00  0.00    -0.455 OA 
ENDBRANCH  11  19
BRANCH  17  24
HETATM   24  C   UNL     1      -9.762  10.615  68.477  1.00  0.00    -0.174 A  
HETATM   25  C   UNL     1      -9.188   9.779  67.513  1.00  0.00    -0.145 A  
HETATM   26  C   UNL     1      -8.779   8.466  67.814  1.00  0.00    -0.137 A  
HETATM   27  C   UNL     1      -8.937   7.918  69.091  1.00  0.00    -0.145 A  
HETATM   28  C   UNL     1      -9.446   8.767  70.071  1.00  0.00    -0.176 A  
HETATM   29  C   UNL     1      -9.846  10.080  69.770  1.00  0.00    -0.270 A  
BRANCH  27  30
HETATM   30  N   UNL     1      -8.696   6.526  69.335  1.00  0.00    -0.133 N  
HETATM   31  C   UNL     1      -9.753   5.657  69.844  1.00  0.00    -0.168 C  
HETATM   32  C   UNL     1      -9.894   4.400  68.999  1.00  0.00    -0.182 C  
HETATM   33  C   UNL     1      -8.566   3.668  68.971  1.00  0.00    -0.120 C  
HETATM   34  C   UNL     1      -7.463   4.585  68.476  1.00  0.00    -0.064 C  
HETATM   35  C   UNL     1      -7.434   5.957  69.132  1.00  0.00    -0.085 C  
HETATM   36  O   UNL     1      -6.360   6.534  69.298  1.00  0.00    -0.032 OA 
ENDBRANCH  27  30
ENDBRANCH  17  24
ENDBRANCH   6   9
ENDBRANCH   2   3
TORSDOF 5
ENDMDL
MODEL       14
REMARK 921   NORMALIZED FREE ENERGY PREDICTED BY IDOCK:   -6.18 KCAL/MOL
REMARK 922        TOTAL FREE ENERGY PREDICTED BY IDOCK:   -9.36 KCAL/MOL
REMARK 923 INTER-LIGAND FREE ENERGY PREDICTED BY IDOCK:   -8.14 KCAL/MOL
REMARK 924 INTRA-LIGAND FREE ENERGY PREDICTED BY IDOCK:   -1.22 KCAL/MOL
REMARK 927      BINDING AFFINITY PREDICTED BY RF-SCORE:    0.00 PKD
ROOT
HETATM    1  C   UNL     1     -10.387   6.435  74.398  1.00  0.00    -0.246 C  
HETATM    2  O   UNL     1     -10.918   7.550  73.688  1.00  0.00    -0.322 OA 
ENDROOT
BRANCH   2   3
HETATM    3  C   UNL     1     -10.477   7.683  72.400  1.00  0.00    -0.248 A  
HETATM    4  C   UNL     1      -9.140   8.049  72.249  1.00  0.00    -0.237 A  
HETATM    5  C   UNL     1      -8.588   8.231  70.974  1.00  0.00    -0.165 A  
HETATM    6  C   UNL     1      -9.369   8.039  69.827  1.00  0.00    -0.159 A  
HETATM    7  C   UNL     1     -10.690   7.594  69.984  1.00  0.00    -0.245 A  
HETATM    8  C   UNL     1     -11.244   7.431  71.263  1.00  0.00    -0.275 A  
BRANCH   6   9
HETATM    9  N   UNL     1      -8.847   8.259  68.514  1.00  0.00    -0.137 NA 
HETATM   10  N   UNL     1      -8.748   7.194  67.636  1.00  0.00    -0.121 NA 
HETATM   11  C   UNL     1      -8.071   7.670  66.573  1.00  0.00    -0.119 A  
HETATM   12  C   UNL     1      -7.810   9.039  66.731  1.00  0.00    -0.104 A  
HETATM   13  C   UNL     1      -7.172  10.001  65.807  1.00  0.00    -0.117 C  
HETATM   14  C   UNL     1      -8.388   9.427  67.922  1.00  0.00    -0.115 A  
HETATM   15  C   UNL     1      -6.830  11.254  66.609  1.00  0.00    -0.130 C  
HETATM   16  O   UNL     1      -9.281  11.156  69.246  1.00  0.00    -0.021 OA 
HETATM   17  N   UNL     1      -7.991  11.747  67.375  1.00  0.00    -0.146 N  
HETATM   18  C   UNL     1      -8.587  10.824  68.291  1.00  0.00    -0.135 C  
BRANCH  11  19
HETATM   19  C   UNL     1      -7.706   6.876  65.385  1.00  0.00    -0.107 C  
HETATM   20  H1  UNL     1      -8.482   5.760  63.878  1.00  0.00     0.000 HD 
HETATM   21  N   UNL     1      -8.735   6.309  64.699  1.00  0.00    -0.340 N  
HETATM   22  H2  UNL     1      -9.706   6.426  64.990  1.00  0.00     0.000 HD 
HETATM   23  O   UNL     1      -6.546   6.728  65.001  1.00  0.00    -0.041 OA 
ENDBRANCH  11  19
BRANCH  17  24
HETATM   24  C   UNL     1      -8.532  13.060  67.115  1.00  0.00    -0.174 A  
HETATM   25  C   UNL     1      -7.787  14.230  67.300  1.00  0.00    -0.170 A  
HETATM   26  C   UNL     1      -8.364  15.508  67.178  1.00  0.00    -0.243 A  
HETATM   27  C   UNL     1      -9.720  15.680  66.879  1.00  0.00    -0.230 A  
HETATM   28  C   UNL     1     -10.451  14.522  66.628  1.00  0.00    -0.274 A  
HETATM   29  C   UNL     1      -9.871  13.247  66.743  1.00  0.00    -0.264 A  
BRANCH  27  30
HETATM   30  N   UNL     1     -10.334  16.973  66.947  1.00  0.00    -0.312 N  
HETATM   31  C   UNL     1     -10.725  17.555  68.229  1.00  0.00    -0.309 C  
HETATM   32  C   UNL     1     -10.188  18.969  68.384  1.00  0.00    -0.450 C  
HETATM   33  C   UNL     1     -10.690  19.821  67.234  1.00  0.00    -0.532 C  
HETATM   34  C   UNL     1     -10.314  19.195  65.904  1.00  0.00    -0.463 C  
HETATM   35  C   UNL     1     -10.618  17.710  65.791  1.00  0.00    -0.177 C  
HETATM   36  O   UNL     1     -10.931  17.229  64.702  1.00  0.00    -1.013 OA 
ENDBRANCH  27  30
ENDBRANCH  17  24
ENDBRANCH   6   9
ENDBRANCH   2   3
TORSDOF 5
ENDMDL
MODEL       15
REMARK 921   NORMALIZED FREE ENERGY PREDICTED BY IDOCK:   -6.16 KCAL/MOL
REMARK 922        TOTAL FREE ENERGY PREDICTED BY IDOCK:   -9.33 KCAL/MOL
REMARK 923 INTER-LIGAND FREE ENERGY PREDICTED BY IDOCK:   -8.77 KCAL/MOL
REMARK 924 INTRA-LIGAND FREE ENERGY PREDICTED BY IDOCK:   -0.57 KCAL/MOL
REMARK 927      BINDING AFFINITY PREDICTED BY RF-SCORE:    0.00 PKD
ROOT
HETATM    1  C   UNL     1      -8.363   5.253  63.514  1.00  0.00    -0.118 C  
HETATM    2  O   UNL     1      -7.775   4.353  64.448  1.00  0.00    -0.078 OA 
ENDROOT
BRANCH   2   3
HETATM    3  C   UNL     1      -8.190   4.506  65.743  1.00  0.00    -0.110 A  
HETATM    4  C   UNL     1      -7.390   5.317  66.547  1.00  0.00    -0.086 A  
HETATM    5  C   UNL     1      -7.712   5.527  67.895  1.00  0.00    -0.092 A  
HETATM    6  C   UNL     1      -8.851   4.934  68.455  1.00  0.00    -0.103 A  
HETATM    7  C   UNL     1      -9.694   4.185  67.621  1.00  0.00    -0.176 A  
HETATM    8  C   UNL     1      -9.357   3.961  66.276  1.00  0.00    -0.186 A  
BRANCH   6   9
HETATM    9  N   UNL     1      -9.183   5.094  69.837  1.00  0.00    -0.121 NA 
HETATM   10  N   UNL     1      -8.466   4.395  70.792  1.00  0.00    -0.078 NA 
HETATM   11  C   UNL     1      -9.115   4.613  71.953  1.00  0.00    -0.131 A  
HETATM   12  C   UNL     1     -10.183   5.501  71.759  1.00  0.00    -0.256 A  
HETATM   13  C   UNL     1     -11.121   6.091  72.737  1.00  0.00    -0.305 C  
HETATM   14  C   UNL     1     -10.163   5.877  70.432  1.00  0.00    -0.213 A  
HETATM   15  C   UNL     1     -12.282   6.699  71.954  1.00  0.00    -0.335 C  
HETATM   16  O   UNL     1     -10.743   7.458  68.788  1.00  0.00    -0.194 OA 
HETATM   17  N   UNL     1     -11.808   7.589  70.876  1.00  0.00    -0.288 N  
HETATM   18  C   UNL     1     -10.925   7.007  69.914  1.00  0.00    -0.263 C  
BRANCH  11  19
HETATM   19  C   UNL     1      -8.722   4.041  73.254  1.00  0.00    -0.095 C  
HETATM   20  H1  UNL     1      -9.106   2.518  74.540  1.00  0.00     0.000 HD 
HETATM   21  N   UNL     1      -9.378   2.913  73.640  1.00  0.00    -0.084 N  
HETATM   22  H2  UNL     1     -10.101   2.486  73.061  1.00  0.00     0.000 HD 
HETATM   23  O   UNL     1      -7.844   4.525  73.968  1.00  0.00    -0.094 OA 
ENDBRANCH  11  19
BRANCH  17  24
HETATM   24  C   UNL     1     -12.156   8.990  70.881  1.00  0.00    -0.198 A  
HETATM   25  C   UNL     1     -11.476   9.936  70.107  1.00  0.00    -0.309 A  
HETATM   26  C   UNL     1     -11.731  11.316  70.223  1.00  0.00    -0.415 A  
HETATM   27  C   UNL     1     -12.669  11.820  71.131  1.00  0.00    -0.305 A  
HETATM   28  C   UNL     1     -13.396  10.879  71.856  1.00  0.00    -0.429 A  
HETATM   29  C   UNL     1     -13.146   9.502  71.733  1.00  0.00    -0.504 A  
BRANCH  27  30
HETATM   30  N   UNL     1     -12.780  13.227  71.375  1.00  0.00    -0.345 N  
HETATM   31  C   UNL     1     -13.477  13.734  72.554  1.00  0.00    -0.578 C  
HETATM   32  C   UNL     1     -12.627  14.742  73.312  1.00  0.00    -0.554 C  
HETATM   33  C   UNL     1     -12.254  15.879  72.380  1.00  0.00    -0.591 C  
HETATM   34  C   UNL     1     -11.563  15.346  71.140  1.00  0.00    -0.425 C  
HETATM   35  C   UNL     1     -12.260  14.168  70.478  1.00  0.00    -0.361 C  
HETATM   36  O   UNL     1     -12.200  14.027  69.257  1.00  0.00    -0.344 OA 
ENDBRANCH  27  30
ENDBRANCH  17  24
ENDBRANCH   6   9
ENDBRANCH   2   3
TORSDOF 5
ENDMDL
MODEL       16
REMARK 921   NORMALIZED FREE ENERGY PREDICTED BY IDOCK:   -6.10 KCAL/MOL
REMARK 922        TOTAL FREE ENERGY PREDICTED BY IDOCK:   -9.26 KCAL/MOL
REMARK 923 INTER-LIGAND FREE ENERGY PREDICTED BY IDOCK:   -8.20 KCAL/MOL
REMARK 924 INTRA-LIGAND FREE ENERGY PREDICTED BY IDOCK:   -1.06 KCAL/MOL
REMARK 927      BINDING AFFINITY PREDICTED BY RF-SCORE:    0.00 PKD
ROOT
HETATM    1  C   UNL     1      -7.471   5.148  64.010  1.00  0.00    -0.062 C  
HETATM    2  O   UNL     1      -8.332   4.496  64.939  1.00  0.00    -0.113 OA 
ENDROOT
BRANCH   2   3
HETATM    3  C   UNL     1      -8.902   5.315  65.876  1.00  0.00    -0.145 A  
HETATM    4  C   UNL     1      -8.022   6.129  66.588  1.00  0.00    -0.105 A  
HETATM    5  C   UNL     1      -8.495   6.994  67.585  1.00  0.00    -0.123 A  
HETATM    6  C   UNL     1      -9.864   7.062  67.876  1.00  0.00    -0.138 A  
HETATM    7  C   UNL     1     -10.751   6.300  67.101  1.00  0.00    -0.432 A  
HETATM    8  C   UNL     1     -10.271   5.422  66.117  1.00  0.00    -0.181 A  
BRANCH   6   9
HETATM    9  N   UNL     1     -10.373   7.901  68.915  1.00  0.00    -0.213 NA 
HETATM   10  N   UNL     1     -10.525   7.386  70.190  1.00  0.00    -0.215 NA 
HETATM   11  C   UNL     1     -11.176   8.340  70.885  1.00  0.00    -0.265 A  
HETATM   12  C   UNL     1     -11.367   9.480  70.091  1.00  0.00    -0.241 A  
HETATM   13  C   UNL     1     -11.954  10.793  70.433  1.00  0.00    -0.448 C  
HETATM   14  C   UNL     1     -10.771   9.230  68.872  1.00  0.00    -0.156 A  
HETATM   15  C   UNL     1     -12.232  11.530  69.126  1.00  0.00    -0.156 C  
HETATM   16  O   UNL     1      -9.792  10.082  66.909  1.00  0.00    -0.180 OA 
HETATM   17  N   UNL     1     -11.048  11.547  68.245  1.00  0.00    -0.220 N  
HETATM   18  C   UNL     1     -10.501  10.275  67.890  1.00  0.00    -0.212 C  
BRANCH  11  19
HETATM   19  C   UNL     1     -11.580   8.222  72.298  1.00  0.00    -0.383 C  
HETATM   20  H1  UNL     1     -13.174   8.361  73.546  1.00  0.00     0.000 HD 
HETATM   21  N   UNL     1     -12.895   8.443  72.569  1.00  0.00    -0.587 N  
HETATM   22  H2  UNL     1     -13.564   8.677  71.836  1.00  0.00     0.000 HD 
HETATM   23  O   UNL     1     -10.799   7.928  73.202  1.00  0.00    -0.375 OA 
ENDBRANCH  11  19
BRANCH  17  24
HETATM   24  C   UNL     1     -10.440  12.801  67.865  1.00  0.00    -0.220 A  
HETATM   25  C   UNL     1      -9.176  13.192  68.318  1.00  0.00    -0.194 A  
HETATM   26  C   UNL     1      -8.653  14.472  68.055  1.00  0.00    -0.162 A  
HETATM   27  C   UNL     1      -9.375  15.430  67.336  1.00  0.00    -0.201 A  
HETATM   28  C   UNL     1     -10.605  15.025  66.825  1.00  0.00    -0.301 A  
HETATM   29  C   UNL     1     -11.122  13.744  67.082  1.00  0.00    -0.315 A  
BRANCH  27  30
HETATM   30  N   UNL     1      -8.915  16.785  67.241  1.00  0.00    -0.209 N  
HETATM   31  C   UNL     1      -7.523  17.087  66.917  1.00  0.00    -0.212 C  
HETATM   32  C   UNL     1      -7.422  18.087  65.776  1.00  0.00    -0.118 C  
HETATM   33  C   UNL     1      -8.170  19.351  66.154  1.00  0.00    -0.319 C  
HETATM   34  C   UNL     1      -9.606  19.028  66.526  1.00  0.00    -0.386 C  
HETATM   35  C   UNL     1      -9.769  17.865  67.491  1.00  0.00    -0.278 C  
HETATM   36  O   UNL     1     -10.697  17.865  68.299  1.00  0.00    -0.334 OA 
ENDBRANCH  27  30
ENDBRANCH  17  24
ENDBRANCH   6   9
ENDBRANCH   2   3
TORSDOF 5
ENDMDL
MODEL       17
REMARK 921   NORMALIZED FREE ENERGY PREDICTED BY IDOCK:   -5.96 KCAL/MOL
REMARK 922        TOTAL FREE ENERGY PREDICTED BY IDOCK:   -9.08 KCAL/MOL
REMARK 923 INTER-LIGAND FREE ENERGY PREDICTED BY IDOCK:   -7.91 KCAL/MOL
REMARK 924 INTRA-LIGAND FREE ENERGY PREDICTED BY IDOCK:   -1.17 KCAL/MOL
REMARK 927      BINDING AFFINITY PREDICTED BY RF-SCORE:    0.00 PKD
ROOT
HETATM    1  C   UNL     1     -10.442  16.725  65.556  1.00  0.00    -0.237 C  
HETATM    2  O   UNL     1     -10.362  15.397  65.047  1.00  0.00    -0.387 OA 
ENDROOT
BRANCH   2   3
HETATM    3  C   UNL     1     -10.541  14.407  65.976  1.00  0.00    -0.302 A  
HETATM    4  C   UNL     1     -11.673  13.611  65.807  1.00  0.00    -0.369 A  
HETATM    5  C   UNL     1     -11.964  12.580  66.710  1.00  0.00    -0.327 A  
HETATM    6  C   UNL     1     -11.115  12.326  67.795  1.00  0.00    -0.255 A  
HETATM    7  C   UNL     1      -9.937  13.078  67.914  1.00  0.00    -0.230 A  
HETATM    8  C   UNL     1      -9.660  14.121  67.017  1.00  0.00    -0.264 A  
BRANCH   6   9
HETATM    9  N   UNL     1     -11.407  11.310  68.759  1.00  0.00    -0.243 NA 
HETATM   10  N   UNL     1     -12.362  11.550  69.730  1.00  0.00    -0.203 NA 
HETATM   11  C   UNL     1     -12.283  10.502  70.574  1.00  0.00    -0.344 A  
HETATM   12  C   UNL     1     -11.349   9.566  70.107  1.00  0.00    -0.241 A  
HETATM   13  C   UNL     1     -10.980   8.239  70.644  1.00  0.00    -0.257 C  
HETATM   14  C   UNL     1     -10.865  10.040  68.905  1.00  0.00    -0.220 A  
HETATM   15  C   UNL     1      -9.684   7.809  69.961  1.00  0.00    -0.176 C  
HETATM   16  O   UNL     1      -9.857   9.579  66.829  1.00  0.00    -0.187 OA 
HETATM   17  N   UNL     1      -9.776   7.924  68.493  1.00  0.00    -0.157 N  
HETATM   18  C   UNL     1     -10.103   9.215  67.975  1.00  0.00    -0.196 C  
BRANCH  11  19
HETATM   19  C   UNL     1     -13.105  10.337  71.787  1.00  0.00    -0.465 C  
HETATM   20  H1  UNL     1     -14.103  11.367  73.223  1.00  0.00     0.000 HD 
HETATM   21  N   UNL     1     -13.535  11.481  72.384  1.00  0.00    -0.453 N  
HETATM   22  H2  UNL     1     -13.302  12.403  72.014  1.00  0.00     0.000 HD 
HETATM   23  O   UNL     1     -13.414   9.239  72.250  1.00  0.00    -0.430 OA 
ENDBRANCH  11  19
BRANCH  17  24
HETATM   24  C   UNL     1      -9.636   6.752  67.660  1.00  0.00    -0.125 A  
HETATM   25  C   UNL     1      -8.390   6.245  67.279  1.00  0.00    -0.109 A  
HETATM   26  C   UNL     1      -8.265   5.189  66.356  1.00  0.00    -0.108 A  
HETATM   27  C   UNL     1      -9.382   4.597  65.758  1.00  0.00    -0.158 A  
HETATM   28  C   UNL     1     -10.627   5.052  66.183  1.00  0.00    -0.321 A  
HETATM   29  C   UNL     1     -10.749   6.101  67.110  1.00  0.00    -0.422 A  
BRANCH  27  30
HETATM   30  N   UNL     1      -9.236   3.660  64.683  1.00  0.00    -0.135 N  
HETATM   31  C   UNL     1      -9.558   4.034  63.308  1.00  0.00    -0.149 C  
HETATM   32  C   UNL     1      -8.423   3.690  62.358  1.00  0.00    -0.077 C  
HETATM   33  C   UNL     1      -8.125   2.206  62.453  1.00  0.00    -0.063 C  
HETATM   34  C   UNL     1      -7.827   1.814  63.888  1.00  0.00    -0.061 C  
HETATM   35  C   UNL     1      -8.817   2.344  64.912  1.00  0.00    -0.120 C  
HETATM   36  O   UNL     1      -9.067   1.685  65.921  1.00  0.00    -0.117 OA 
ENDBRANCH  27  30
ENDBRANCH  17  24
ENDBRANCH   6   9
ENDBRANCH   2   3
TORSDOF 5
ENDMDL
MODEL       18
REMARK 921   NORMALIZED FREE ENERGY PREDICTED BY IDOCK:   -5.92 KCAL/MOL
REMARK 922        TOTAL FREE ENERGY PREDICTED BY IDOCK:   -9.02 KCAL/MOL
REMARK 923 INTER-LIGAND FREE ENERGY PREDICTED BY IDOCK:   -7.84 KCAL/MOL
REMARK 924 INTRA-LIGAND FREE ENERGY PREDICTED BY IDOCK:   -1.18 KCAL/MOL
REMARK 927      BINDING AFFINITY PREDICTED BY RF-SCORE:    0.00 PKD
ROOT
HETATM    1  C   UNL     1     -10.359   5.793  73.223  1.00  0.00    -0.214 C  
HETATM    2  O   UNL     1     -11.303   5.855  72.157  1.00  0.00    -0.280 OA 
ENDROOT
BRANCH   2   3
HETATM    3  C   UNL     1     -10.828   6.387  70.990  1.00  0.00    -0.262 A  
HETATM    4  C   UNL     1      -9.484   6.757  70.993  1.00  0.00    -0.165 A  
HETATM    5  C   UNL     1      -8.897   7.331  69.856  1.00  0.00    -0.142 A  
HETATM    6  C   UNL     1      -9.651   7.531  68.692  1.00  0.00    -0.151 A  
HETATM    7  C   UNL     1     -10.980   7.083  68.669  1.00  0.00    -0.144 A  
HETATM    8  C   UNL     1     -11.568   6.527  69.817  1.00  0.00    -0.392 A  
BRANCH   6   9
HETATM    9  N   UNL     1      -9.094   8.152  67.530  1.00  0.00    -0.137 NA 
HETATM   10  N   UNL     1      -8.985   7.424  66.358  1.00  0.00    -0.157 NA 
HETATM   11  C   UNL     1      -8.276   8.205  65.520  1.00  0.00    -0.144 A  
HETATM   12  C   UNL     1      -8.003   9.445  66.116  1.00  0.00    -0.110 A  
HETATM   13  C   UNL     1      -7.332  10.640  65.564  1.00  0.00    -0.056 C  
HETATM   14  C   UNL     1      -8.607   9.440  67.356  1.00  0.00    -0.125 A  
HETATM   15  C   UNL     1      -6.996  11.562  66.734  1.00  0.00    -0.108 C  
HETATM   16  O   UNL     1      -9.514  10.667  69.148  1.00  0.00    -0.200 OA 
HETATM   17  N   UNL     1      -8.171  11.804  67.594  1.00  0.00    -0.137 N  
HETATM   18  C   UNL     1      -8.800  10.647  68.151  1.00  0.00    -0.134 C  
BRANCH  11  19
HETATM   19  C   UNL     1      -7.890   7.829  64.147  1.00  0.00    -0.133 C  
HETATM   20  H1  UNL     1      -8.511   7.878  62.215  1.00  0.00     0.000 HD 
HETATM   21  N   UNL     1      -8.779   8.138  63.165  1.00  0.00    -0.382 N  
HETATM   22  H2  UNL     1      -9.663   8.605  63.366  1.00  0.00     0.000 HD 
HETATM   23  O   UNL     1      -6.824   7.278  63.871  1.00  0.00    -0.049 OA 
ENDBRANCH  11  19
BRANCH  17  24
HETATM   24  C   UNL     1      -8.690  13.141  67.760  1.00  0.00    -0.188 A  
HETATM   25  C   UNL     1      -9.998  13.489  67.408  1.00  0.00    -0.234 A  
HETATM   26  C   UNL     1     -10.450  14.821  67.443  1.00  0.00    -0.256 A  
HETATM   27  C   UNL     1      -9.612  15.876  67.820  1.00  0.00    -0.218 A  
HETATM   28  C   UNL     1      -8.329  15.528  68.236  1.00  0.00    -0.147 A  
HETATM   29  C   UNL     1      -7.882  14.197  68.207  1.00  0.00    -0.138 A  
BRANCH  27  30
HETATM   30  N   UNL     1     -10.024  17.240  67.668  1.00  0.00    -0.286 N  
HETATM   31  C   UNL     1     -10.364  18.058  68.829  1.00  0.00    -0.284 C  
HETATM   32  C   UNL     1      -9.624  19.386  68.809  1.00  0.00    -0.495 C  
HETATM   33  C   UNL     1      -9.952  20.120  67.523  1.00  0.00    -0.571 C  
HETATM   34  C   UNL     1      -9.632  19.253  66.319  1.00  0.00    -0.411 C  
HETATM   35  C   UNL     1     -10.154  17.827  66.404  1.00  0.00    -0.357 C  
HETATM   36  O   UNL     1     -10.500  17.239  65.380  1.00  0.00    -0.635 OA 
ENDBRANCH  27  30
ENDBRANCH  17  24
ENDBRANCH   6   9
ENDBRANCH   2   3
TORSDOF 5
ENDMDL
MODEL       19
REMARK 921   NORMALIZED FREE ENERGY PREDICTED BY IDOCK:   -5.74 KCAL/MOL
REMARK 922        TOTAL FREE ENERGY PREDICTED BY IDOCK:   -8.80 KCAL/MOL
REMARK 923 INTER-LIGAND FREE ENERGY PREDICTED BY IDOCK:   -7.75 KCAL/MOL
REMARK 924 INTRA-LIGAND FREE ENERGY PREDICTED BY IDOCK:   -1.05 KCAL/MOL
REMARK 927      BINDING AFFINITY PREDICTED BY RF-SCORE:    0.00 PKD
ROOT
HETATM    1  C   UNL     1     -10.639  17.361  68.115  1.00  0.00    -0.376 C  
HETATM    2  O   UNL     1     -11.359  16.291  68.721  1.00  0.00    -0.350 OA 
ENDROOT
BRANCH   2   3
HETATM    3  C   UNL     1     -11.063  15.045  68.239  1.00  0.00    -0.286 A  
HETATM    4  C   UNL     1      -9.757  14.606  68.448  1.00  0.00    -0.217 A  
HETATM    5  C   UNL     1      -9.339  13.353  67.979  1.00  0.00    -0.217 A  
HETATM    6  C   UNL     1     -10.234  12.514  67.301  1.00  0.00    -0.216 A  
HETATM    7  C   UNL     1     -11.567  12.928  67.165  1.00  0.00    -0.421 A  
HETATM    8  C   UNL     1     -11.975  14.192  67.619  1.00  0.00    -0.405 A  
BRANCH   6   9
HETATM    9  N   UNL     1      -9.828  11.248  66.774  1.00  0.00    -0.196 NA 
HETATM   10  N   UNL     1      -9.043  11.208  65.634  1.00  0.00    -0.208 NA 
HETATM   11  C   UNL     1      -8.979   9.907  65.292  1.00  0.00    -0.191 A  
HETATM   12  C   UNL     1      -9.645   9.116  66.241  1.00  0.00    -0.321 A  
HETATM   13  C   UNL     1      -9.775   7.647  66.335  1.00  0.00    -0.197 C  
HETATM   14  C   UNL     1     -10.100   9.965  67.228  1.00  0.00    -0.211 A  
HETATM   15  C   UNL     1     -10.878   7.345  67.346  1.00  0.00    -0.229 C  
HETATM   16  O   UNL     1     -10.783  10.257  69.462  1.00  0.00    -0.215 OA 
HETATM   17  N   UNL     1     -10.672   8.071  68.614  1.00  0.00    -0.095 N  
HETATM   18  C   UNL     1     -10.577   9.495  68.524  1.00  0.00    -0.212 C  
BRANCH  11  19
HETATM   19  C   UNL     1      -8.262   9.382  64.115  1.00  0.00    -0.158 C  
HETATM   20  H1  UNL     1      -8.510   8.823  62.180  1.00  0.00     0.000 HD 
HETATM   21  N   UNL     1      -9.006   9.186  62.994  1.00  0.00    -0.422 N  
HETATM   22  H2  UNL     1     -10.005   9.391  62.967  1.00  0.00     0.000 HD 
HETATM   23  O   UNL     1      -7.055   9.138  64.112  1.00  0.00    -0.093 OA 
ENDBRANCH  11  19
BRANCH  17  24
HETATM   24  C   UNL     1     -10.479   7.344  69.847  1.00  0.00    -0.231 A  
HETATM   25  C   UNL     1      -9.230   6.855  70.244  1.00  0.00    -0.156 A  
HETATM   26  C   UNL     1      -9.078   6.031  71.375  1.00  0.00    -0.149 A  
HETATM   27  C   UNL     1     -10.170   5.643  72.158  1.00  0.00    -0.202 A  
HETATM   28  C   UNL     1     -11.405   6.181  71.808  1.00  0.00    -0.346 A  
HETATM   29  C   UNL     1     -11.554   7.010  70.683  1.00  0.00    -0.379 A  
BRANCH  27  30
HETATM   30  N   UNL     1     -10.029   4.654  73.186  1.00  0.00    -0.146 N  
HETATM   31  C   UNL     1     -11.184   3.904  73.673  1.00  0.00    -0.203 C  
HETATM   32  C   UNL     1     -10.918   2.407  73.665  1.00  0.00    -0.295 C  
HETATM   33  C   UNL     1      -9.694   2.114  74.511  1.00  0.00    -0.128 C  
HETATM   34  C   UNL     1      -8.506   2.923  74.026  1.00  0.00    -0.073 C  
HETATM   35  C   UNL     1      -8.792   4.397  73.788  1.00  0.00    -0.104 C  
HETATM   36  O   UNL     1      -7.909   5.232  73.980  1.00  0.00    -0.096 OA 
ENDBRANCH  27  30
ENDBRANCH  17  24
ENDBRANCH   6   9
ENDBRANCH   2   3
TORSDOF 5
ENDMDL
MODEL       20
REMARK 921   NORMALIZED FREE ENERGY PREDICTED BY IDOCK:   -5.73 KCAL/MOL
REMARK 922        TOTAL FREE ENERGY PREDICTED BY IDOCK:   -8.78 KCAL/MOL
REMARK 923 INTER-LIGAND FREE ENERGY PREDICTED BY IDOCK:   -7.96 KCAL/MOL
REMARK 924 INTRA-LIGAND FREE ENERGY PREDICTED BY IDOCK:   -0.82 KCAL/MOL
REMARK 927      BINDING AFFINITY PREDICTED BY RF-SCORE:    0.00 PKD
ROOT
HETATM    1  C   UNL     1      -8.157   3.158  64.490  1.00  0.00    -0.082 C  
HETATM    2  O   UNL     1      -9.004   4.300  64.594  1.00  0.00    -0.134 OA 
ENDROOT
BRANCH   2   3
HETATM    3  C   UNL     1      -9.156   4.797  65.860  1.00  0.00    -0.137 A  
HETATM    4  C   UNL     1     -10.469   5.000  66.280  1.00  0.00    -0.352 A  
HETATM    5  C   UNL     1     -10.741   5.525  67.552  1.00  0.00    -0.211 A  
HETATM    6  C   UNL     1      -9.694   5.844  68.427  1.00  0.00    -0.129 A  
HETATM    7  C   UNL     1      -8.378   5.562  68.028  1.00  0.00    -0.099 A  
HETATM    8  C   UNL     1      -8.111   5.055  66.747  1.00  0.00    -0.108 A  
BRANCH   6   9
HETATM    9  N   UNL     1      -9.936   6.419  69.713  1.00  0.00    -0.164 NA 
HETATM   10  N   UNL     1      -9.559   5.725  70.849  1.00  0.00    -0.165 NA 
HETATM   11  C   UNL     1     -10.069   6.426  71.881  1.00  0.00    -0.183 A  
HETATM   12  C   UNL     1     -10.694   7.593  71.419  1.00  0.00    -0.247 A  
HETATM   13  C   UNL     1     -11.321   8.700  72.171  1.00  0.00    -0.434 C  
HETATM   14  C   UNL     1     -10.524   7.631  70.051  1.00  0.00    -0.229 A  
HETATM   15  C   UNL     1     -12.142   9.524  71.183  1.00  0.00    -0.347 C  
HETATM   16  O   UNL     1     -10.424   8.911  68.078  1.00  0.00    -0.220 OA 
HETATM   17  N   UNL     1     -11.352   9.899  69.995  1.00  0.00    -0.254 N  
HETATM   18  C   UNL     1     -10.772   8.825  69.251  1.00  0.00    -0.151 C  
BRANCH  11  19
HETATM   19  C   UNL     1      -9.938   6.047  73.300  1.00  0.00    -0.182 C  
HETATM   20  H1  UNL     1      -8.663   6.084  74.878  1.00  0.00     0.000 HD 
HETATM   21  N   UNL     1      -8.753   6.346  73.897  1.00  0.00    -0.123 N  
HETATM   22  H2  UNL     1      -7.996   6.807  73.391  1.00  0.00     0.000 HD 
HETATM   23  O   UNL     1     -10.838   5.503  73.940  1.00  0.00    -0.268 OA 
ENDBRANCH  11  19
BRANCH  17  24
HETATM   24  C   UNL     1     -11.113  11.290  69.688  1.00  0.00    -0.206 A  
HETATM   25  C   UNL     1     -11.919  12.319  70.186  1.00  0.00    -0.377 A  
HETATM   26  C   UNL     1     -11.763  13.655  69.771  1.00  0.00    -0.364 A  
HETATM   27  C   UNL     1     -10.802  14.027  68.825  1.00  0.00    -0.263 A  
HETATM   28  C   UNL     1      -9.953  13.019  68.375  1.00  0.00    -0.216 A  
HETATM   29  C   UNL     1     -10.105  11.687  68.797  1.00  0.00    -0.169 A  
BRANCH  27  30
HETATM   30  N   UNL     1     -10.781  15.348  68.270  1.00  0.00    -0.252 N  
HETATM   31  C   UNL     1     -10.774  16.527  69.133  1.00  0.00    -0.335 C  
HETATM   32  C   UNL     1      -9.663  17.490  68.749  1.00  0.00    -0.298 C  
HETATM   33  C   UNL     1      -9.831  17.892  67.296  1.00  0.00    -0.309 C  
HETATM   34  C   UNL     1      -9.876  16.663  66.406  1.00  0.00    -0.308 C  
HETATM   35  C   UNL     1     -10.806  15.561  66.887  1.00  0.00    -0.301 C  
HETATM   36  O   UNL     1     -11.383  14.846  66.069  1.00  0.00    -0.342 OA 
ENDBRANCH  27  30
ENDBRANCH  17  24
ENDBRANCH   6   9
ENDBRANCH   2   3
TORSDOF 5
ENDMDL
MODEL       21
REMARK 921   NORMALIZED FREE ENERGY PREDICTED BY IDOCK:   -5.52 KCAL/MOL
REMARK 922        TOTAL FREE ENERGY PREDICTED BY IDOCK:   -8.51 KCAL/MOL
REMARK 923 INTER-LIGAND FREE ENERGY PREDICTED BY IDOCK:   -7.48 KCAL/MOL
REMARK 924 INTRA-LIGAND FREE ENERGY PREDICTED BY IDOCK:   -1.03 KCAL/MOL
REMARK 927      BINDING AFFINITY PREDICTED BY RF-SCORE:    0.00 PKD
ROOT
HETATM    1  C   UNL     1     -10.266  17.217  68.273  1.00  0.00    -0.348 C  
HETATM    2  O   UNL     1     -11.515  16.830  68.838  1.00  0.00    -0.141 OA 
ENDROOT
BRANCH   2   3
HETATM    3  C   UNL     1     -11.647  15.492  69.095  1.00  0.00    -0.362 A  
HETATM    4  C   UNL     1     -11.788  15.142  70.437  1.00  0.00    -0.349 A  
HETATM    5  C   UNL     1     -11.911  13.798  70.817  1.00  0.00    -0.318 A  
HETATM    6  C   UNL     1     -11.905  12.784  69.850  1.00  0.00    -0.301 A  
HETATM    7  C   UNL     1     -11.842  13.148  68.497  1.00  0.00    -0.377 A  
HETATM    8  C   UNL     1     -11.700  14.494  68.124  1.00  0.00    -0.369 A  
BRANCH   6   9
HETATM    9  N   UNL     1     -11.986  11.401  70.208  1.00  0.00    -0.352 NA 
HETATM   10  N   UNL     1     -13.143  10.918  70.792  1.00  0.00    -0.205 NA 
HETATM   11  C   UNL     1     -12.853   9.657  71.167  1.00  0.00    -0.316 A  
HETATM   12  C   UNL     1     -11.557   9.310  70.760  1.00  0.00    -0.345 A  
HETATM   13  C   UNL     1     -10.834   8.026  70.874  1.00  0.00    -0.248 C  
HETATM   14  C   UNL     1     -11.046  10.389  70.068  1.00  0.00    -0.314 A  
HETATM   15  C   UNL     1      -9.359   8.300  70.592  1.00  0.00    -0.156 C  
HETATM   16  O   UNL     1      -9.522  11.207  68.473  1.00  0.00    -0.181 OA 
HETATM   17  N   UNL     1      -9.173   9.051  69.336  1.00  0.00    -0.147 N  
HETATM   18  C   UNL     1      -9.849  10.308  69.240  1.00  0.00    -0.228 C  
BRANCH  11  19
HETATM   19  C   UNL     1     -13.788   8.751  71.860  1.00  0.00    -0.442 C  
HETATM   20  H1  UNL     1     -14.770   8.462  73.613  1.00  0.00     0.000 HD 
HETATM   21  N   UNL     1     -14.123   9.089  73.134  1.00  0.00    -0.766 N  
HETATM   22  H2  UNL     1     -13.749   9.924  73.586  1.00  0.00     0.000 HD 
HETATM   23  O   UNL     1     -14.267   7.745  71.337  1.00  0.00    -0.405 OA 
ENDBRANCH  11  19
BRANCH  17  24
HETATM   24  C   UNL     1      -8.424   8.473  68.244  1.00  0.00    -0.135 A  
HETATM   25  C   UNL     1      -9.043   7.923  67.117  1.00  0.00    -0.158 A  
HETATM   26  C   UNL     1      -8.314   7.239  66.126  1.00  0.00    -0.133 A  
HETATM   27  C   UNL     1      -6.930   7.060  66.219  1.00  0.00    -0.069 A  
HETATM   28  C   UNL     1      -6.300   7.663  67.304  1.00  0.00    -0.054 A  
HETATM   29  C   UNL     1      -7.028   8.352  68.288  1.00  0.00    -0.073 A  
BRANCH  27  30
HETATM   30  N   UNL     1      -6.232   6.202  65.308  1.00  0.00    -0.036 N  
HETATM   31  C   UNL     1      -5.862   4.841  65.689  1.00  0.00    -0.022 C  
HETATM   32  C   UNL     1      -6.306   3.831  64.643  1.00  0.00    -0.027 C  
HETATM   33  C   UNL     1      -5.694   4.198  63.304  1.00  0.00    -0.013 C  
HETATM   34  C   UNL     1      -6.051   5.624  62.930  1.00  0.00    -0.018 C  
HETATM   35  C   UNL     1      -5.846   6.645  64.038  1.00  0.00    -0.031 C  
HETATM   36  O   UNL     1      -5.517   7.797  63.757  1.00  0.00    -0.043 OA 
ENDBRANCH  27  30
ENDBRANCH  17  24
ENDBRANCH   6   9
ENDBRANCH   2   3
TORSDOF 5
ENDMDL
MODEL       22
REMARK 921   NORMALIZED FREE ENERGY PREDICTED BY IDOCK:   -5.47 KCAL/MOL
REMARK 922        TOTAL FREE ENERGY PREDICTED BY IDOCK:   -8.45 KCAL/MOL
REMARK 923 INTER-LIGAND FREE ENERGY PREDICTED BY IDOCK:   -7.33 KCAL/MOL
REMARK 924 INTRA-LIGAND FREE ENERGY PREDICTED BY IDOCK:   -1.12 KCAL/MOL
REMARK 927      BINDING AFFINITY PREDICTED BY RF-SCORE:    0.00 PKD
ROOT
HETATM    1  C   UNL     1     -11.978  15.831  64.418  1.00  0.00    -0.081 C  
HETATM    2  O   UNL     1     -12.641  14.577  64.288  1.00  0.00    -0.681 OA 
ENDROOT
BRANCH   2   3
HETATM    3  C   UNL     1     -11.820  13.482  64.300  1.00  0.00    -0.428 A  
HETATM    4  C   UNL     1     -10.786  13.507  65.234  1.00  0.00    -0.328 A  
HETATM    5  C   UNL     1      -9.874  12.446  65.320  1.00  0.00    -0.180 A  
HETATM    6  C   UNL     1      -9.995  11.335  64.474  1.00  0.00    -0.284 A  
HETATM    7  C   UNL     1     -11.084  11.280  63.592  1.00  0.00    -0.300 A  
HETATM    8  C   UNL     1     -11.983  12.354  63.497  1.00  0.00    -0.627 A  
BRANCH   6   9
HETATM    9  N   UNL     1      -9.056  10.256  64.508  1.00  0.00    -0.212 NA 
HETATM   10  N   UNL     1      -7.898  10.340  63.755  1.00  0.00    -0.145 NA 
HETATM   11  C   UNL     1      -7.321   9.127  63.854  1.00  0.00    -0.097 A  
HETATM   12  C   UNL     1      -8.054   8.304  64.720  1.00  0.00    -0.151 A  
HETATM   13  C   UNL     1      -7.775   6.933  65.197  1.00  0.00    -0.109 C  
HETATM   14  C   UNL     1      -9.102   9.058  65.207  1.00  0.00    -0.167 A  
HETATM   15  C   UNL     1      -9.055   6.394  65.831  1.00  0.00    -0.051 C  
HETATM   16  O   UNL     1     -10.697   9.416  66.900  1.00  0.00    -0.205 OA 
HETATM   17  N   UNL     1      -9.611   7.335  66.822  1.00  0.00    -0.176 N  
HETATM   18  C   UNL     1      -9.910   8.652  66.352  1.00  0.00    -0.270 C  
BRANCH  11  19
HETATM   19  C   UNL     1      -6.063   8.739  63.188  1.00  0.00    -0.086 C  
HETATM   20  H1  UNL     1      -4.454   9.482  62.200  1.00  0.00     0.000 HD 
HETATM   21  N   UNL     1      -5.323   9.751  62.661  1.00  0.00    -0.086 N  
HETATM   22  H2  UNL     1      -5.620  10.724  62.722  1.00  0.00     0.000 HD 
HETATM   23  O   UNL     1      -5.671   7.574  63.110  1.00  0.00    -0.048 OA 
ENDBRANCH  11  19
BRANCH  17  24
HETATM   24  C   UNL     1      -9.740   6.945  68.207  1.00  0.00    -0.132 A  
HETATM   25  C   UNL     1      -8.677   7.027  69.112  1.00  0.00    -0.132 A  
HETATM   26  C   UNL     1      -8.772   6.515  70.420  1.00  0.00    -0.147 A  
HETATM   27  C   UNL     1      -9.931   5.884  70.884  1.00  0.00    -0.187 A  
HETATM   28  C   UNL     1     -11.014   5.859  70.010  1.00  0.00    -0.430 A  
HETATM   29  C   UNL     1     -10.920   6.377  68.707  1.00  0.00    -0.404 A  
BRANCH  27  30
HETATM   30  N   UNL     1      -9.948   5.201  72.144  1.00  0.00    -0.181 N  
HETATM   31  C   UNL     1      -9.834   3.747  72.214  1.00  0.00    -0.163 C  
HETATM   32  C   UNL     1      -8.754   3.320  73.196  1.00  0.00    -0.082 C  
HETATM   33  C   UNL     1      -9.066   3.899  74.562  1.00  0.00    -0.108 C  
HETATM   34  C   UNL     1      -9.221   5.406  74.479  1.00  0.00    -0.124 C  
HETATM   35  C   UNL     1     -10.113   5.894  73.349  1.00  0.00    -0.198 C  
HETATM   36  O   UNL     1     -10.782   6.916  73.494  1.00  0.00    -0.325 OA 
ENDBRANCH  27  30
ENDBRANCH  17  24
ENDBRANCH   6   9
ENDBRANCH   2   3
TORSDOF 5
ENDMDL
MODEL       23
REMARK 921   NORMALIZED FREE ENERGY PREDICTED BY IDOCK:   -5.46 KCAL/MOL
REMARK 922        TOTAL FREE ENERGY PREDICTED BY IDOCK:   -8.43 KCAL/MOL
REMARK 923 INTER-LIGAND FREE ENERGY PREDICTED BY IDOCK:   -7.74 KCAL/MOL
REMARK 924 INTRA-LIGAND FREE ENERGY PREDICTED BY IDOCK:   -0.69 KCAL/MOL
REMARK 927      BINDING AFFINITY PREDICTED BY RF-SCORE:    0.00 PKD
ROOT
HETATM    1  C   UNL     1     -12.510  15.815  74.525  1.00  0.00    -0.595 C  
HETATM    2  O   UNL     1     -13.340  15.894  73.370  1.00  0.00    -0.567 OA 
ENDROOT
BRANCH   2   3
HETATM    3  C   UNL     1     -12.884  15.207  72.279  1.00  0.00    -0.343 A  
HETATM    4  C   UNL     1     -11.758  15.738  71.652  1.00  0.00    -0.542 A  
HETATM    5  C   UNL     1     -11.217  15.125  70.514  1.00  0.00    -0.313 A  
HETATM    6  C   UNL     1     -11.794  13.961  69.991  1.00  0.00    -0.315 A  
HETATM    7  C   UNL     1     -12.879  13.387  70.672  1.00  0.00    -0.157 A  
HETATM    8  C   UNL     1     -13.428  14.015  71.801  1.00  0.00    -0.473 A  
BRANCH   6   9
HETATM    9  N   UNL     1     -11.292  13.336  68.807  1.00  0.00    -0.271 NA 
HETATM   10  N   UNL     1     -10.934  14.122  67.725  1.00  0.00    -0.258 NA 
HETATM   11  C   UNL     1     -10.677  13.255  66.726  1.00  0.00    -0.276 A  
HETATM   12  C   UNL     1     -10.789  11.934  67.181  1.00  0.00    -0.301 A  
HETATM   13  C   UNL     1     -10.527  10.659  66.481  1.00  0.00    -0.285 C  
HETATM   14  C   UNL     1     -11.087  11.992  68.527  1.00  0.00    -0.244 A  
HETATM   15  C   UNL     1     -11.137   9.538  67.319  1.00  0.00     0.182 C  
HETATM   16  O   UNL     1     -11.057  10.943  70.633  1.00  0.00    -0.079 OA 
HETATM   17  N   UNL     1     -10.710   9.615  68.729  1.00  0.00    -0.221 N  
HETATM   18  C   UNL     1     -10.992  10.838  69.413  1.00  0.00    -0.254 C  
BRANCH  11  19
HETATM   19  C   UNL     1     -10.277  13.643  65.360  1.00  0.00    -0.313 C  
HETATM   20  H1  UNL     1      -9.575  15.192  64.253  1.00  0.00     0.000 HD 
HETATM   21  N   UNL     1      -9.851  14.925  65.198  1.00  0.00    -0.417 N  
HETATM   22  H2  UNL     1      -9.810  15.582  65.977  1.00  0.00     0.000 HD 
HETATM   23  O   UNL     1     -10.302  12.869  64.403  1.00  0.00    -0.370 OA 
ENDBRANCH  11  19
BRANCH  17  24
HETATM   24  C   UNL     1      -9.960   8.533  69.324  1.00  0.00    -0.195 A  
HETATM   25  C   UNL     1      -8.563   8.474  69.279  1.00  0.00    -0.129 A  
HETATM   26  C   UNL     1      -7.850   7.350  69.738  1.00  0.00    -0.116 A  
HETATM   27  C   UNL     1      -8.499   6.223  70.252  1.00  0.00    -0.134 A  
HETATM   28  C   UNL     1      -9.885   6.303  70.361  1.00  0.00    -0.207 A  
HETATM   29  C   UNL     1     -10.595   7.429  69.910  1.00  0.00    -0.245 A  
BRANCH  27  30
HETATM   30  N   UNL     1      -7.778   5.017  70.535  1.00  0.00    -0.069 N  
HETATM   31  C   UNL     1      -7.997   3.806  69.748  1.00  0.00    -0.050 C  
HETATM   32  C   UNL     1      -6.685   3.222  69.249  1.00  0.00    -0.037 C  
HETATM   33  C   UNL     1      -5.784   2.935  70.435  1.00  0.00    -0.017 C  
HETATM   34  C   UNL     1      -5.589   4.187  71.270  1.00  0.00    -0.008 C  
HETATM   35  C   UNL     1      -6.867   4.943  71.595  1.00  0.00    -0.048 C  
HETATM   36  O   UNL     1      -6.965   5.551  72.660  1.00  0.00    -0.078 OA 
ENDBRANCH  27  30
ENDBRANCH  17  24
ENDBRANCH   6   9
ENDBRANCH   2   3
TORSDOF 5
ENDMDL
MODEL       24
REMARK 921   NORMALIZED FREE ENERGY PREDICTED BY IDOCK:   -5.40 KCAL/MOL
REMARK 922        TOTAL FREE ENERGY PREDICTED BY IDOCK:   -8.35 KCAL/MOL
REMARK 923 INTER-LIGAND FREE ENERGY PREDICTED BY IDOCK:   -7.04 KCAL/MOL
REMARK 924 INTRA-LIGAND FREE ENERGY PREDICTED BY IDOCK:   -1.31 KCAL/MOL
REMARK 927      BINDING AFFINITY PREDICTED BY RF-SCORE:    0.00 PKD
ROOT
HETATM    1  C   UNL     1     -12.897   6.846  71.589  1.00  0.00    -0.335 C  
HETATM    2  O   UNL     1     -11.696   6.122  71.341  1.00  0.00    -0.284 OA 
ENDROOT
BRANCH   2   3
HETATM    3  C   UNL     1     -10.837   6.708  70.451  1.00  0.00    -0.266 A  
HETATM    4  C   UNL     1     -11.310   6.839  69.146  1.00  0.00    -0.188 A  
HETATM    5  C   UNL     1     -10.507   7.408  68.148  1.00  0.00    -0.241 A  
HETATM    6  C   UNL     1      -9.217   7.864  68.448  1.00  0.00    -0.134 A  
HETATM    7  C   UNL     1      -8.777   7.802  69.779  1.00  0.00    -0.139 A  
HETATM    8  C   UNL     1      -9.579   7.214  70.771  1.00  0.00    -0.168 A  
BRANCH   6   9
HETATM    9  N   UNL     1      -8.357   8.410  67.444  1.00  0.00    -0.123 NA 
HETATM   10  N   UNL     1      -7.939   7.605  66.398  1.00  0.00    -0.104 NA 
HETATM   11  C   UNL     1      -7.021   8.333  65.734  1.00  0.00    -0.067 A  
HETATM   12  C   UNL     1      -6.910   9.614  66.296  1.00  0.00    -0.091 A  
HETATM   13  C   UNL     1      -6.102  10.776  65.868  1.00  0.00    -0.128 C  
HETATM   14  C   UNL     1      -7.829   9.688  67.322  1.00  0.00    -0.095 A  
HETATM   15  C   UNL     1      -6.090  11.778  67.019  1.00  0.00    -0.152 C  
HETATM   16  O   UNL     1      -9.180  11.025  68.709  1.00  0.00    -0.176 OA 
HETATM   17  N   UNL     1      -7.453  12.067  67.507  1.00  0.00    -0.130 N  
HETATM   18  C   UNL     1      -8.221  10.945  67.949  1.00  0.00    -0.114 C  
BRANCH  11  19
HETATM   19  C   UNL     1      -6.278   7.868  64.548  1.00  0.00    -0.052 C  
HETATM   20  H1  UNL     1      -4.749   6.671  63.958  1.00  0.00     0.000 HD 
HETATM   21  N   UNL     1      -5.263   6.992  64.778  1.00  0.00    -0.027 N  
HETATM   22  H2  UNL     1      -5.029   6.673  65.718  1.00  0.00     0.000 HD 
HETATM   23  O   UNL     1      -6.545   8.224  63.400  1.00  0.00    -0.082 OA 
ENDBRANCH  11  19
BRANCH  17  24
HETATM   24  C   UNL     1      -7.985  13.407  67.434  1.00  0.00    -0.163 A  
HETATM   25  C   UNL     1      -9.040  13.751  66.581  1.00  0.00    -0.196 A  
HETATM   26  C   UNL     1      -9.458  15.085  66.415  1.00  0.00    -0.325 A  
HETATM   27  C   UNL     1      -8.834  16.143  67.082  1.00  0.00    -0.198 A  
HETATM   28  C   UNL     1      -7.828  15.801  67.983  1.00  0.00    -0.138 A  
HETATM   29  C   UNL     1      -7.417  14.468  68.153  1.00  0.00    -0.126 A  
BRANCH  27  30
HETATM   30  N   UNL     1      -9.140  17.506  66.760  1.00  0.00    -0.254 N  
HETATM   31  C   UNL     1     -10.484  18.043  66.960  1.00  0.00    -0.351 C  
HETATM   32  C   UNL     1     -10.451  19.344  67.745  1.00  0.00    -0.556 C  
HETATM   33  C   UNL     1      -9.577  20.346  67.014  1.00  0.00    -0.571 C  
HETATM   34  C   UNL     1      -8.193  19.770  66.775  1.00  0.00    -0.344 C  
HETATM   35  C   UNL     1      -8.179  18.360  66.207  1.00  0.00    -0.219 C  
HETATM   36  O   UNL     1      -7.274  18.014  65.448  1.00  0.00    -0.502 OA 
ENDBRANCH  27  30
ENDBRANCH  17  24
ENDBRANCH   6   9
ENDBRANCH   2   3
TORSDOF 5
ENDMDL
MODEL       25
REMARK 921   NORMALIZED FREE ENERGY PREDICTED BY IDOCK:   -5.27 KCAL/MOL
REMARK 922        TOTAL FREE ENERGY PREDICTED BY IDOCK:   -8.19 KCAL/MOL
REMARK 923 INTER-LIGAND FREE ENERGY PREDICTED BY IDOCK:   -6.84 KCAL/MOL
REMARK 924 INTRA-LIGAND FREE ENERGY PREDICTED BY IDOCK:   -1.35 KCAL/MOL
REMARK 927      BINDING AFFINITY PREDICTED BY RF-SCORE:    0.00 PKD
ROOT
HETATM    1  C   UNL     1     -12.865  11.976  63.206  1.00  0.00    -0.190 C  
HETATM    2  O   UNL     1     -13.096  12.761  64.372  1.00  0.00    -0.724 OA 
ENDROOT
BRANCH   2   3
HETATM    3  C   UNL     1     -12.092  12.731  65.301  1.00  0.00    -0.457 A  
HETATM    4  C   UNL     1     -10.930  12.062  64.919  1.00  0.00    -0.356 A  
HETATM    5  C   UNL     1      -9.845  11.954  65.800  1.00  0.00    -0.262 A  
HETATM    6  C   UNL     1      -9.906  12.528  67.077  1.00  0.00    -0.217 A  
HETATM    7  C   UNL     1     -11.046  13.268  67.425  1.00  0.00    -0.300 A  
HETATM    8  C   UNL     1     -12.138  13.356  66.546  1.00  0.00    -0.444 A  
BRANCH   6   9
HETATM    9  N   UNL     1      -8.833  12.399  68.014  1.00  0.00    -0.181 NA 
HETATM   10  N   UNL     1      -8.124  13.525  68.392  1.00  0.00    -0.150 NA 
HETATM   11  C   UNL     1      -7.090  13.066  69.124  1.00  0.00     0.030 A  
HETATM   12  C   UNL     1      -7.180  11.675  69.281  1.00  0.00    -0.020 A  
HETATM   13  C   UNL     1      -6.333  10.746  70.058  1.00  0.00    -0.137 C  
HETATM   14  C   UNL     1      -8.340  11.270  68.653  1.00  0.00    -0.146 A  
HETATM   15  C   UNL     1      -6.663   9.327  69.602  1.00  0.00    -0.047 C  
HETATM   16  O   UNL     1     -10.059   9.674  68.454  1.00  0.00    -0.163 OA 
HETATM   17  N   UNL     1      -8.116   9.070  69.625  1.00  0.00    -0.098 N  
HETATM   18  C   UNL     1      -8.931   9.951  68.848  1.00  0.00    -0.153 C  
BRANCH  11  19
HETATM   19  C   UNL     1      -6.043  13.913  69.725  1.00  0.00    -0.129 C  
HETATM   20  H1  UNL     1      -5.330  14.600  71.496  1.00  0.00     0.000 HD 
HETATM   21  N   UNL     1      -6.054  14.014  71.081  1.00  0.00    -0.404 N  
HETATM   22  H2  UNL     1      -6.747  13.530  71.652  1.00  0.00     0.000 HD 
HETATM   23  O   UNL     1      -5.185  14.498  69.064  1.00  0.00    -0.088 OA 
ENDBRANCH  11  19
BRANCH  17  24
HETATM   24  C   UNL     1      -8.660   8.039  70.478  1.00  0.00    -0.134 A  
HETATM   25  C   UNL     1      -9.199   8.314  71.739  1.00  0.00    -0.261 A  
HETATM   26  C   UNL     1      -9.599   7.290  72.618  1.00  0.00    -0.189 A  
HETATM   27  C   UNL     1      -9.466   5.938  72.285  1.00  0.00    -0.147 A  
HETATM   28  C   UNL     1      -8.994   5.659  71.005  1.00  0.00    -0.151 A  
HETATM   29  C   UNL     1      -8.602   6.683  70.127  1.00  0.00    -0.140 A  
BRANCH  27  30
HETATM   30  N   UNL     1      -9.696   4.910  73.257  1.00  0.00    -0.136 N  
HETATM   31  C   UNL     1     -11.046   4.436  73.548  1.00  0.00    -0.303 C  
HETATM   32  C   UNL     1     -11.130   2.919  73.477  1.00  0.00    -0.316 C  
HETATM   33  C   UNL     1     -10.132   2.319  74.448  1.00  0.00    -0.162 C  
HETATM   34  C   UNL     1      -8.735   2.843  74.167  1.00  0.00    -0.075 C  
HETATM   35  C   UNL     1      -8.643   4.350  73.990  1.00  0.00    -0.101 C  
HETATM   36  O   UNL     1      -7.627   4.947  74.344  1.00  0.00    -0.088 OA 
ENDBRANCH  27  30
ENDBRANCH  17  24
ENDBRANCH   6   9
ENDBRANCH   2   3
TORSDOF 5
ENDMDL
MODEL       26
REMARK 921   NORMALIZED FREE ENERGY PREDICTED BY IDOCK:   -5.22 KCAL/MOL
REMARK 922        TOTAL FREE ENERGY PREDICTED BY IDOCK:   -8.12 KCAL/MOL
REMARK 923 INTER-LIGAND FREE ENERGY PREDICTED BY IDOCK:   -7.10 KCAL/MOL
REMARK 924 INTRA-LIGAND FREE ENERGY PREDICTED BY IDOCK:   -1.02 KCAL/MOL
REMARK 927      BINDING AFFINITY PREDICTED BY RF-SCORE:    0.00 PKD
ROOT
HETATM    1  C   UNL     1     -10.499   4.802  74.439  1.00  0.00    -0.285 C  
HETATM    2  O   UNL     1     -11.569   5.280  73.629  1.00  0.00    -0.008 OA 
ENDROOT
BRANCH   2   3
HETATM    3  C   UNL     1     -11.254   5.485  72.313  1.00  0.00    -0.220 A  
HETATM    4  C   UNL     1     -10.222   4.698  71.804  1.00  0.00    -0.242 A  
HETATM    5  C   UNL     1      -9.805   4.838  70.473  1.00  0.00    -0.301 A  
HETATM    6  C   UNL     1     -10.427   5.766  69.628  1.00  0.00    -0.293 A  
HETATM    7  C   UNL     1     -11.517   6.498  70.123  1.00  0.00    -0.477 A  
HETATM    8  C   UNL     1     -11.918   6.367  71.461  1.00  0.00    -0.331 A  
BRANCH   6   9
HETATM    9  N   UNL     1      -9.996   5.963  68.278  1.00  0.00    -0.137 NA 
HETATM   10  N   UNL     1     -10.258   4.986  67.333  1.00  0.00    -0.172 NA 
HETATM   11  C   UNL     1      -9.589   5.371  66.229  1.00  0.00    -0.160 A  
HETATM   12  C   UNL     1      -8.973   6.614  66.436  1.00  0.00    -0.161 A  
HETATM   13  C   UNL     1      -8.205   7.464  65.504  1.00  0.00    -0.135 C  
HETATM   14  C   UNL     1      -9.314   7.028  67.707  1.00  0.00    -0.125 A  
HETATM   15  C   UNL     1      -7.479   8.520  66.333  1.00  0.00    -0.087 C  
HETATM   16  O   UNL     1      -9.604   8.803  69.225  1.00  0.00    -0.160 OA 
HETATM   17  N   UNL     1      -8.395   9.216  67.256  1.00  0.00    -0.120 N  
HETATM   18  C   UNL     1      -9.115   8.394  68.178  1.00  0.00    -0.138 C  
BRANCH  11  19
HETATM   19  C   UNL     1      -9.555   4.617  64.962  1.00  0.00    -0.102 C  
HETATM   20  H1  UNL     1     -10.707   3.543  63.682  1.00  0.00     0.000 HD 
HETATM   21  N   UNL     1     -10.731   4.064  64.558  1.00  0.00    -0.582 N  
HETATM   22  H2  UNL     1     -11.588   4.165  65.102  1.00  0.00     0.000 HD 
HETATM   23  O   UNL     1      -8.540   4.490  64.278  1.00  0.00    -0.120 OA 
ENDBRANCH  11  19
BRANCH  17  24
HETATM   24  C   UNL     1      -8.606  10.640  67.139  1.00  0.00    -0.127 A  
HETATM   25  C   UNL     1      -7.632  11.577  67.500  1.00  0.00    -0.121 A  
HETATM   26  C   UNL     1      -7.896  12.959  67.513  1.00  0.00    -0.177 A  
HETATM   27  C   UNL     1      -9.153  13.474  67.179  1.00  0.00    -0.232 A  
HETATM   28  C   UNL     1     -10.107  12.552  66.754  1.00  0.00    -0.233 A  
HETATM   29  C   UNL     1      -9.839  11.173  66.734  1.00  0.00    -0.230 A  
BRANCH  27  30
HETATM   30  N   UNL     1      -9.464  14.858  67.381  1.00  0.00    -0.203 N  
HETATM   31  C   UNL     1      -9.122  15.861  66.376  1.00  0.00    -0.320 C  
HETATM   32  C   UNL     1     -10.319  16.733  66.032  1.00  0.00    -0.346 C  
HETATM   33  C   UNL     1     -10.833  17.396  67.296  1.00  0.00    -0.126 C  
HETATM   34  C   UNL     1     -11.152  16.353  68.351  1.00  0.00    -0.351 C  
HETATM   35  C   UNL     1     -10.069  15.307  68.561  1.00  0.00    -0.222 C  
HETATM   36  O   UNL     1      -9.896  14.819  69.678  1.00  0.00    -0.060 OA 
ENDBRANCH  27  30
ENDBRANCH  17  24
ENDBRANCH   6   9
ENDBRANCH   2   3
TORSDOF 5
ENDMDL
MODEL       27
REMARK 921   NORMALIZED FREE ENERGY PREDICTED BY IDOCK:   -5.19 KCAL/MOL
REMARK 922        TOTAL FREE ENERGY PREDICTED BY IDOCK:   -8.08 KCAL/MOL
REMARK 923 INTER-LIGAND FREE ENERGY PREDICTED BY IDOCK:   -7.12 KCAL/MOL
REMARK 924 INTRA-LIGAND FREE ENERGY PREDICTED BY IDOCK:   -0.95 KCAL/MOL
REMARK 927      BINDING AFFINITY PREDICTED BY RF-SCORE:    0.00 PKD
ROOT
HETATM    1  C   UNL     1     -10.585   4.228  74.523  1.00  0.00    -0.184 C  
HETATM    2  O   UNL     1      -9.254   4.261  74.015  1.00  0.00    -0.099 OA 
ENDROOT
BRANCH   2   3
HETATM    3  C   UNL     1      -9.153   4.440  72.663  1.00  0.00    -0.118 A  
HETATM    4  C   UNL     1     -10.314   4.864  72.016  1.00  0.00    -0.263 A  
HETATM    5  C   UNL     1     -10.328   5.061  70.629  1.00  0.00    -0.278 A  
HETATM    6  C   UNL     1      -9.171   4.846  69.868  1.00  0.00    -0.124 A  
HETATM    7  C   UNL     1      -7.987   4.498  70.535  1.00  0.00    -0.057 A  
HETATM    8  C   UNL     1      -7.983   4.283  71.922  1.00  0.00    -0.088 A  
BRANCH   6   9
HETATM    9  N   UNL     1      -9.165   4.998  68.446  1.00  0.00    -0.115 NA 
HETATM   10  N   UNL     1      -9.421   3.899  67.646  1.00  0.00    -0.188 NA 
HETATM   11  C   UNL     1      -9.173   4.310  66.387  1.00  0.00    -0.147 A  
HETATM   12  C   UNL     1      -8.841   5.672  66.372  1.00  0.00    -0.129 A  
HETATM   13  C   UNL     1      -8.568   6.575  65.234  1.00  0.00    -0.036 C  
HETATM   14  C   UNL     1      -8.930   6.126  67.672  1.00  0.00    -0.111 A  
HETATM   15  C   UNL     1      -7.926   7.842  65.793  1.00  0.00    -0.109 C  
HETATM   16  O   UNL     1      -9.233   7.935  69.147  1.00  0.00    -0.145 OA 
HETATM   17  N   UNL     1      -8.711   8.407  66.907  1.00  0.00    -0.127 N  
HETATM   18  C   UNL     1      -8.948   7.542  68.021  1.00  0.00    -0.129 C  
BRANCH  11  19
HETATM   19  C   UNL     1      -9.290   3.460  65.187  1.00  0.00    -0.155 C  
HETATM   20  H1  UNL     1     -10.516   3.002  63.636  1.00  0.00     0.000 HD 
HETATM   21  N   UNL     1     -10.436   3.590  64.466  1.00  0.00    -0.437 N  
HETATM   22  H2  UNL     1     -11.174   4.239  64.739  1.00  0.00     0.000 HD 
HETATM   23  O   UNL     1      -8.411   2.678  64.825  1.00  0.00    -0.087 OA 
ENDBRANCH  11  19
BRANCH  17  24
HETATM   24  C   UNL     1      -9.280   9.730  66.801  1.00  0.00    -0.148 A  
HETATM   25  C   UNL     1     -10.549  10.044  67.298  1.00  0.00    -0.319 A  
HETATM   26  C   UNL     1     -11.150  11.296  67.068  1.00  0.00    -0.356 A  
HETATM   27  C   UNL     1     -10.517  12.292  66.317  1.00  0.00    -0.238 A  
HETATM   28  C   UNL     1      -9.227  12.010  65.877  1.00  0.00    -0.106 A  
HETATM   29  C   UNL     1      -8.625  10.762  66.114  1.00  0.00    -0.171 A  
BRANCH  27  30
HETATM   30  N   UNL     1     -11.215  13.483  65.929  1.00  0.00    -0.299 N  
HETATM   31  C   UNL     1     -10.863  14.781  66.499  1.00  0.00    -0.319 C  
HETATM   32  C   UNL     1     -10.644  15.823  65.414  1.00  0.00    -0.441 C  
HETATM   33  C   UNL     1     -11.898  15.932  64.568  1.00  0.00    -0.084 C  
HETATM   34  C   UNL     1     -12.282  14.575  64.008  1.00  0.00    -0.262 C  
HETATM   35  C   UNL     1     -12.280  13.443  65.022  1.00  0.00    -0.424 C  
HETATM   36  O   UNL     1     -13.079  12.514  64.906  1.00  0.00    -0.833 OA 
ENDBRANCH  27  30
ENDBRANCH  17  24
ENDBRANCH   6   9
ENDBRANCH   2   3
TORSDOF 5
ENDMDL
MODEL       28
REMARK 921   NORMALIZED FREE ENERGY PREDICTED BY IDOCK:   -5.18 KCAL/MOL
REMARK 922        TOTAL FREE ENERGY PREDICTED BY IDOCK:   -8.06 KCAL/MOL
REMARK 923 INTER-LIGAND FREE ENERGY PREDICTED BY IDOCK:   -7.06 KCAL/MOL
REMARK 924 INTRA-LIGAND FREE ENERGY PREDICTED BY IDOCK:   -1.01 KCAL/MOL
REMARK 927      BINDING AFFINITY PREDICTED BY RF-SCORE:    0.00 PKD
ROOT
HETATM    1  C   UNL     1      -6.141  19.265  69.153  1.00  0.00    -0.258 C  
HETATM    2  O   UNL     1      -6.093  17.875  69.463  1.00  0.00    -0.234 OA 
ENDROOT
BRANCH   2   3
HETATM    3  C   UNL     1      -6.911  17.082  68.704  1.00  0.00    -0.202 A  
HETATM    4  C   UNL     1      -7.922  16.415  69.395  1.00  0.00    -0.020 A  
HETATM    5  C   UNL     1      -8.807  15.562  68.721  1.00  0.00    -0.203 A  
HETATM    6  C   UNL     1      -8.695  15.374  67.337  1.00  0.00    -0.179 A  
HETATM    7  C   UNL     1      -7.727  16.109  66.636  1.00  0.00    -0.265 A  
HETATM    8  C   UNL     1      -6.832  16.947  67.319  1.00  0.00    -0.198 A  
BRANCH   6   9
HETATM    9  N   UNL     1      -9.555  14.477  66.627  1.00  0.00    -0.264 NA 
HETATM   10  N   UNL     1     -10.265  14.942  65.534  1.00  0.00    -0.347 NA 
HETATM   11  C   UNL     1     -11.098  13.937  65.198  1.00  0.00    -0.334 A  
HETATM   12  C   UNL     1     -10.870  12.818  66.012  1.00  0.00    -0.301 A  
HETATM   13  C   UNL     1     -11.476  11.470  65.971  1.00  0.00    -0.093 C  
HETATM   14  C   UNL     1      -9.824  13.135  66.854  1.00  0.00    -0.249 A  
HETATM   15  C   UNL     1     -11.128  10.768  67.281  1.00  0.00    -0.270 C  
HETATM   16  O   UNL     1      -8.056  12.394  68.218  1.00  0.00    -0.154 OA 
HETATM   17  N   UNL     1      -9.682  10.832  67.568  1.00  0.00    -0.165 N  
HETATM   18  C   UNL     1      -9.105  12.138  67.638  1.00  0.00    -0.181 C  
BRANCH  11  19
HETATM   19  C   UNL     1     -12.074  13.989  64.093  1.00  0.00    -0.422 C  
HETATM   20  H1  UNL     1     -13.265  15.248  63.039  1.00  0.00     0.000 HD 
HETATM   21  N   UNL     1     -12.591  15.213  63.803  1.00  0.00    -0.899 N  
HETATM   22  H2  UNL     1     -12.319  16.050  64.319  1.00  0.00     0.000 HD 
HETATM   23  O   UNL     1     -12.411  13.000  63.443  1.00  0.00    -0.710 OA 
ENDBRANCH  11  19
BRANCH  17  24
HETATM   24  C   UNL     1      -8.904   9.619  67.668  1.00  0.00    -0.125 A  
HETATM   25  C   UNL     1      -8.036   9.198  66.655  1.00  0.00    -0.111 A  
HETATM   26  C   UNL     1      -7.389   7.948  66.700  1.00  0.00    -0.088 A  
HETATM   27  C   UNL     1      -7.590   7.051  67.754  1.00  0.00    -0.111 A  
HETATM   28  C   UNL     1      -8.400   7.491  68.797  1.00  0.00    -0.129 A  
HETATM   29  C   UNL     1      -9.039   8.742  68.754  1.00  0.00    -0.138 A  
BRANCH  27  30
HETATM   30  N   UNL     1      -7.081   5.712  67.694  1.00  0.00    -0.069 N  
HETATM   31  C   UNL     1      -5.729   5.400  68.149  1.00  0.00    -0.016 C  
HETATM   32  C   UNL     1      -5.726   4.229  69.120  1.00  0.00    -0.017 C  
HETATM   33  C   UNL     1      -6.356   3.024  68.448  1.00  0.00    -0.029 C  
HETATM   34  C   UNL     1      -7.747   3.363  67.944  1.00  0.00    -0.068 C  
HETATM   35  C   UNL     1      -7.842   4.664  67.163  1.00  0.00    -0.094 C  
HETATM   36  O   UNL     1      -8.657   4.772  66.247  1.00  0.00    -0.113 OA 
ENDBRANCH  27  30
ENDBRANCH  17  24
ENDBRANCH   6   9
ENDBRANCH   2   3
TORSDOF 5
ENDMDL
MODEL       29
REMARK 921   NORMALIZED FREE ENERGY PREDICTED BY IDOCK:   -5.14 KCAL/MOL
REMARK 922        TOTAL FREE ENERGY PREDICTED BY IDOCK:   -8.01 KCAL/MOL
REMARK 923 INTER-LIGAND FREE ENERGY PREDICTED BY IDOCK:   -7.07 KCAL/MOL
REMARK 924 INTRA-LIGAND FREE ENERGY PREDICTED BY IDOCK:   -0.94 KCAL/MOL
REMARK 927      BINDING AFFINITY PREDICTED BY RF-SCORE:    0.00 PKD
ROOT
HETATM    1  C   UNL     1     -13.141  15.715  71.566  1.00  0.00    -0.485 C  
HETATM    2  O   UNL     1     -11.866  15.816  70.938  1.00  0.00    -0.347 OA 
ENDROOT
BRANCH   2   3
HETATM    3  C   UNL     1     -11.520  14.750  70.153  1.00  0.00    -0.266 A  
HETATM    4  C   UNL     1     -10.329  14.881  69.439  1.00  0.00    -0.217 A  
HETATM    5  C   UNL     1      -9.888  13.858  68.589  1.00  0.00    -0.175 A  
HETATM    6  C   UNL     1     -10.632  12.679  68.451  1.00  0.00    -0.243 A  
HETATM    7  C   UNL     1     -11.786  12.520  69.232  1.00  0.00    -0.360 A  
HETATM    8  C   UNL     1     -12.234  13.556  70.067  1.00  0.00    -0.381 A  
BRANCH   6   9
HETATM    9  N   UNL     1     -10.231  11.635  67.560  1.00  0.00    -0.193 NA 
HETATM   10  N   UNL     1      -9.746  11.962  66.306  1.00  0.00    -0.223 NA 
HETATM   11  C   UNL     1      -9.626  10.789  65.654  1.00  0.00    -0.216 A  
HETATM   12  C   UNL     1      -9.952   9.720  66.501  1.00  0.00    -0.304 A  
HETATM   13  C   UNL     1      -9.895   8.263  66.263  1.00  0.00    -0.227 C  
HETATM   14  C   UNL     1     -10.243  10.258  67.738  1.00  0.00    -0.187 A  
HETATM   15  C   UNL     1     -10.681   7.581  67.380  1.00  0.00    -0.261 C  
HETATM   16  O   UNL     1     -10.393   9.960  70.068  1.00  0.00    -0.240 OA 
HETATM   17  N   UNL     1     -10.254   8.048  68.713  1.00  0.00    -0.203 N  
HETATM   18  C   UNL     1     -10.339   9.455  68.952  1.00  0.00    -0.213 C  
BRANCH  11  19
HETATM   19  C   UNL     1      -9.162  10.646  64.261  1.00  0.00    -0.233 C  
HETATM   20  H1  UNL     1      -7.494  10.529  63.110  1.00  0.00     0.000 HD 
HETATM   21  N   UNL     1      -7.815  10.628  64.073  1.00  0.00    -0.356 N  
HETATM   22  H2  UNL     1      -7.161  10.709  64.852  1.00  0.00     0.000 HD 
HETATM   23  O   UNL     1      -9.926  10.532  63.302  1.00  0.00    -0.302 OA 
ENDBRANCH  11  19
BRANCH  17  24
HETATM   24  C   UNL     1      -9.691   7.119  69.665  1.00  0.00    -0.158 A  
HETATM   25  C   UNL     1      -8.355   7.182  70.077  1.00  0.00    -0.138 A  
HETATM   26  C   UNL     1      -7.780   6.192  70.896  1.00  0.00    -0.098 A  
HETATM   27  C   UNL     1      -8.509   5.081  71.333  1.00  0.00    -0.119 A  
HETATM   28  C   UNL     1      -9.856   5.047  70.982  1.00  0.00    -0.266 A  
HETATM   29  C   UNL     1     -10.430   6.041  70.171  1.00  0.00    -0.309 A  
BRANCH  27  30
HETATM   30  N   UNL     1      -7.864   3.990  72.001  1.00  0.00    -0.077 N  
HETATM   31  C   UNL     1      -7.417   2.812  71.262  1.00  0.00    -0.036 C  
HETATM   32  C   UNL     1      -5.967   2.477  71.574  1.00  0.00    -0.014 C  
HETATM   33  C   UNL     1      -5.817   2.260  73.068  1.00  0.00    -0.008 C  
HETATM   34  C   UNL     1      -6.317   3.471  73.834  1.00  0.00    -0.028 C  
HETATM   35  C   UNL     1      -7.673   3.992  73.388  1.00  0.00    -0.084 C  
HETATM   36  O   UNL     1      -8.432   4.508  74.208  1.00  0.00    -0.103 OA 
ENDBRANCH  27  30
ENDBRANCH  17  24
ENDBRANCH   6   9
ENDBRANCH   2   3
TORSDOF 5
ENDMDL
MODEL       30
REMARK 921   NORMALIZED FREE ENERGY PREDICTED BY IDOCK:   -5.12 KCAL/MOL
REMARK 922        TOTAL FREE ENERGY PREDICTED BY IDOCK:   -7.99 KCAL/MOL
REMARK 923 INTER-LIGAND FREE ENERGY PREDICTED BY IDOCK:   -6.67 KCAL/MOL
REMARK 924 INTRA-LIGAND FREE ENERGY PREDICTED BY IDOCK:   -1.31 KCAL/MOL
REMARK 927      BINDING AFFINITY PREDICTED BY RF-SCORE:    0.00 PKD
ROOT
HETATM    1  C   UNL     1     -12.766  11.989  63.207  1.00  0.00    -0.303 C  
HETATM    2  O   UNL     1     -13.095  12.428  64.522  1.00  0.00    -0.823 OA 
ENDROOT
BRANCH   2   3
HETATM    3  C   UNL     1     -12.034  12.542  65.379  1.00  0.00    -0.437 A  
HETATM    4  C   UNL     1     -10.847  11.941  64.962  1.00  0.00    -0.351 A  
HETATM    5  C   UNL     1      -9.703  11.980  65.770  1.00  0.00    -0.254 A  
HETATM    6  C   UNL     1      -9.730  12.634  67.009  1.00  0.00    -0.225 A  
HETATM    7  C   UNL     1     -10.903  13.305  67.386  1.00  0.00    -0.279 A  
HETATM    8  C   UNL     1     -12.052  13.247  66.582  1.00  0.00    -0.421 A  
BRANCH   6   9
HETATM    9  N   UNL     1      -8.592  12.655  67.875  1.00  0.00    -0.170 NA 
HETATM   10  N   UNL     1      -8.014  13.867  68.207  1.00  0.00    -0.139 NA 
HETATM   11  C   UNL     1      -6.885  13.553  68.872  1.00  0.00    -0.111 A  
HETATM   12  C   UNL     1      -6.781  12.164  69.034  1.00  0.00    -0.103 A  
HETATM   13  C   UNL     1      -5.772  11.361  69.755  1.00  0.00    -0.088 C  
HETATM   14  C   UNL     1      -7.915  11.605  68.481  1.00  0.00    -0.144 A  
HETATM   15  C   UNL     1      -5.941   9.907  69.321  1.00  0.00    -0.037 C  
HETATM   16  O   UNL     1      -9.419   9.796  68.392  1.00  0.00    -0.139 OA 
HETATM   17  N   UNL     1      -7.343   9.462  69.437  1.00  0.00    -0.074 N  
HETATM   18  C   UNL     1      -8.314  10.222  68.713  1.00  0.00    -0.125 C  
BRANCH  11  19
HETATM   19  C   UNL     1      -5.923  14.536  69.405  1.00  0.00    -0.101 C  
HETATM   20  H1  UNL     1      -4.465  15.838  68.860  1.00  0.00     0.000 HD 
HETATM   21  N   UNL     1      -5.130  15.159  68.491  1.00  0.00    -0.095 N  
HETATM   22  H2  UNL     1      -5.197  14.958  67.493  1.00  0.00     0.000 HD 
HETATM   23  O   UNL     1      -5.828  14.809  70.601  1.00  0.00    -0.151 OA 
ENDBRANCH  11  19
BRANCH  17  24
HETATM   24  C   UNL     1      -7.692   8.376  70.323  1.00  0.00    -0.080 A  
HETATM   25  C   UNL     1      -7.901   7.071  69.865  1.00  0.00    -0.114 A  
HETATM   26  C   UNL     1      -8.376   6.051  70.712  1.00  0.00    -0.126 A  
HETATM   27  C   UNL     1      -8.678   6.290  72.057  1.00  0.00    -0.134 A  
HETATM   28  C   UNL     1      -8.409   7.570  72.535  1.00  0.00    -0.138 A  
HETATM   29  C   UNL     1      -7.928   8.584  71.689  1.00  0.00    -0.183 A  
BRANCH  27  30
HETATM   30  N   UNL     1      -9.338   5.299  72.854  1.00  0.00    -0.137 N  
HETATM   31  C   UNL     1     -10.600   5.593  73.529  1.00  0.00    -0.269 C  
HETATM   32  C   UNL     1     -11.648   4.531  73.235  1.00  0.00    -0.254 C  
HETATM   33  C   UNL     1     -11.117   3.176  73.660  1.00  0.00    -0.321 C  
HETATM   34  C   UNL     1      -9.788   2.890  72.985  1.00  0.00    -0.178 C  
HETATM   35  C   UNL     1      -8.783   4.028  73.048  1.00  0.00    -0.099 C  
HETATM   36  O   UNL     1      -7.579   3.781  73.106  1.00  0.00    -0.069 OA 
ENDBRANCH  27  30
ENDBRANCH  17  24
ENDBRANCH   6   9
ENDBRANCH   2   3
TORSDOF 5
ENDMDL
MODEL       31
REMARK 921   NORMALIZED FREE ENERGY PREDICTED BY IDOCK:   -5.05 KCAL/MOL
REMARK 922        TOTAL FREE ENERGY PREDICTED BY IDOCK:   -7.90 KCAL/MOL
REMARK 923 INTER-LIGAND FREE ENERGY PREDICTED BY IDOCK:   -6.74 KCAL/MOL
REMARK 924 INTRA-LIGAND FREE ENERGY PREDICTED BY IDOCK:   -1.17 KCAL/MOL
REMARK 927      BINDING AFFINITY PREDICTED BY RF-SCORE:    0.00 PKD
ROOT
HETATM    1  C   UNL     1      -9.627  17.928  66.469  1.00  0.00    -0.313 C  
HETATM    2  O   UNL     1      -9.197  16.686  65.918  1.00  0.00    -0.471 OA 
ENDROOT
BRANCH   2   3
HETATM    3  C   UNL     1      -9.528  15.580  66.652  1.00  0.00    -0.259 A  
HETATM    4  C   UNL     1     -10.655  14.879  66.222  1.00  0.00    -0.309 A  
HETATM    5  C   UNL     1     -11.095  13.741  66.911  1.00  0.00    -0.311 A  
HETATM    6  C   UNL     1     -10.403  13.282  68.039  1.00  0.00    -0.241 A  
HETATM    7  C   UNL     1      -9.226  13.944  68.419  1.00  0.00    -0.194 A  
HETATM    8  C   UNL     1      -8.800  15.094  67.736  1.00  0.00    -0.171 A  
BRANCH   6   9
HETATM    9  N   UNL     1     -10.851  12.149  68.789  1.00  0.00    -0.227 NA 
HETATM   10  N   UNL     1     -12.012  12.246  69.536  1.00  0.00    -0.295 NA 
HETATM   11  C   UNL     1     -12.071  11.106  70.251  1.00  0.00    -0.377 A  
HETATM   12  C   UNL     1     -11.009  10.257  69.910  1.00  0.00    -0.358 A  
HETATM   13  C   UNL     1     -10.701   8.884  70.365  1.00  0.00    -0.261 C  
HETATM   14  C   UNL     1     -10.291  10.885  68.913  1.00  0.00    -0.204 A  
HETATM   15  C   UNL     1      -9.264   8.573  69.954  1.00  0.00    -0.154 C  
HETATM   16  O   UNL     1      -8.818  10.704  67.086  1.00  0.00    -0.136 OA 
HETATM   17  N   UNL     1      -9.028   8.862  68.527  1.00  0.00    -0.134 N  
HETATM   18  C   UNL     1      -9.297  10.199  68.096  1.00  0.00    -0.135 C  
BRANCH  11  19
HETATM   19  C   UNL     1     -13.136  10.774  71.216  1.00  0.00    -0.330 C  
HETATM   20  H1  UNL     1     -14.028  11.403  72.927  1.00  0.00     0.000 HD 
HETATM   21  N   UNL     1     -13.292  11.633  72.260  1.00  0.00    -0.546 N  
HETATM   22  H2  UNL     1     -12.706  12.461  72.369  1.00  0.00     0.000 HD 
HETATM   23  O   UNL     1     -13.868   9.791  71.104  1.00  0.00    -0.231 OA 
ENDBRANCH  11  19
BRANCH  17  24
HETATM   24  C   UNL     1      -8.644   7.804  67.622  1.00  0.00    -0.123 A  
HETATM   25  C   UNL     1      -7.316   7.589  67.238  1.00  0.00    -0.098 A  
HETATM   26  C   UNL     1      -6.969   6.647  66.251  1.00  0.00    -0.062 A  
HETATM   27  C   UNL     1      -7.935   5.883  65.588  1.00  0.00    -0.118 A  
HETATM   28  C   UNL     1      -9.251   6.044  66.013  1.00  0.00    -0.129 A  
HETATM   29  C   UNL     1      -9.594   6.980  67.004  1.00  0.00    -0.199 A  
BRANCH  27  30
HETATM   30  N   UNL     1      -7.590   5.072  64.458  1.00  0.00    -0.075 N  
HETATM   31  C   UNL     1      -7.147   5.677  63.205  1.00  0.00    -0.042 C  
HETATM   32  C   UNL     1      -5.851   5.053  62.713  1.00  0.00    -0.014 C  
HETATM   33  C   UNL     1      -6.050   3.558  62.546  1.00  0.00    -0.014 C  
HETATM   34  C   UNL     1      -6.545   2.939  63.839  1.00  0.00    -0.031 C  
HETATM   35  C   UNL     1      -7.699   3.677  64.498  1.00  0.00    -0.081 C  
HETATM   36  O   UNL     1      -8.544   3.050  65.136  1.00  0.00    -0.096 OA 
ENDBRANCH  27  30
ENDBRANCH  17  24
ENDBRANCH   6   9
ENDBRANCH   2   3
TORSDOF 5
ENDMDL
MODEL       32
REMARK 921   NORMALIZED FREE ENERGY PREDICTED BY IDOCK:   -5.05 KCAL/MOL
REMARK 922        TOTAL FREE ENERGY PREDICTED BY IDOCK:   -7.90 KCAL/MOL
REMARK 923 INTER-LIGAND FREE ENERGY PREDICTED BY IDOCK:   -6.58 KCAL/MOL
REMARK 924 INTRA-LIGAND FREE ENERGY PREDICTED BY IDOCK:   -1.32 KCAL/MOL
REMARK 927      BINDING AFFINITY PREDICTED BY RF-SCORE:    0.00 PKD
ROOT
HETATM    1  C   UNL     1      -7.908   3.280  63.361  1.00  0.00    -0.069 C  
HETATM    2  O   UNL     1      -7.569   2.722  64.627  1.00  0.00    -0.073 OA 
ENDROOT
BRANCH   2   3
HETATM    3  C   UNL     1      -7.944   3.469  65.711  1.00  0.00    -0.093 A  
HETATM    4  C   UNL     1      -6.973   4.329  66.222  1.00  0.00    -0.066 A  
HETATM    5  C   UNL     1      -7.243   5.127  67.342  1.00  0.00    -0.074 A  
HETATM    6  C   UNL     1      -8.499   5.081  67.961  1.00  0.00    -0.103 A  
HETATM    7  C   UNL     1      -9.496   4.274  67.394  1.00  0.00    -0.213 A  
HETATM    8  C   UNL     1      -9.215   3.462  66.284  1.00  0.00    -0.168 A  
BRANCH   6   9
HETATM    9  N   UNL     1      -8.791   5.851  69.131  1.00  0.00    -0.117 NA 
HETATM   10  N   UNL     1      -8.314   5.428  70.358  1.00  0.00    -0.111 NA 
HETATM   11  C   UNL     1      -8.891   6.241  71.264  1.00  0.00    -0.139 A  
HETATM   12  C   UNL     1      -9.664   7.220  70.623  1.00  0.00    -0.175 A  
HETATM   13  C   UNL     1     -10.412   8.364  71.185  1.00  0.00    -0.263 C  
HETATM   14  C   UNL     1      -9.520   7.025  69.265  1.00  0.00    -0.147 A  
HETATM   15  C   UNL     1     -11.344   8.888  70.096  1.00  0.00    -0.106 C  
HETATM   16  O   UNL     1      -9.610   7.922  67.091  1.00  0.00    -0.150 OA 
HETATM   17  N   UNL     1     -10.624   9.130  68.830  1.00  0.00    -0.215 N  
HETATM   18  C   UNL     1      -9.926   8.013  68.272  1.00  0.00    -0.185 C  
BRANCH  11  19
HETATM   19  C   UNL     1      -8.693   6.149  72.723  1.00  0.00    -0.123 C  
HETATM   20  H1  UNL     1      -7.813   7.071  74.302  1.00  0.00     0.000 HD 
HETATM   21  N   UNL     1      -7.950   7.135  73.294  1.00  0.00    -0.095 N  
HETATM   22  H2  UNL     1      -7.552   7.897  72.744  1.00  0.00     0.000 HD 
HETATM   23  O   UNL     1      -9.172   5.250  73.415  1.00  0.00    -0.131 OA 
ENDBRANCH  11  19
BRANCH  17  24
HETATM   24  C   UNL     1     -10.564  10.458  68.268  1.00  0.00    -0.212 A  
HETATM   25  C   UNL     1      -9.594  11.392  68.646  1.00  0.00    -0.179 A  
HETATM   26  C   UNL     1      -9.627  12.725  68.197  1.00  0.00    -0.223 A  
HETATM   27  C   UNL     1     -10.642  13.196  67.357  1.00  0.00    -0.242 A  
HETATM   28  C   UNL     1     -11.573  12.256  66.923  1.00  0.00    -0.427 A  
HETATM   29  C   UNL     1     -11.533  10.923  67.367  1.00  0.00    -0.175 A  
BRANCH  27  30
HETATM   30  N   UNL     1     -10.772  14.593  67.065  1.00  0.00    -0.285 N  
HETATM   31  C   UNL     1     -11.464  15.494  67.983  1.00  0.00    -0.308 C  
HETATM   32  C   UNL     1     -10.622  16.719  68.300  1.00  0.00    -0.352 C  
HETATM   33  C   UNL     1     -10.276  17.434  67.008  1.00  0.00    -0.323 C  
HETATM   34  C   UNL     1      -9.590  16.485  66.042  1.00  0.00    -0.323 C  
HETATM   35  C   UNL     1     -10.277  15.139  65.875  1.00  0.00    -0.324 C  
HETATM   36  O   UNL     1     -10.228  14.557  64.792  1.00  0.00    -0.390 OA 
ENDBRANCH  27  30
ENDBRANCH  17  24
ENDBRANCH   6   9
ENDBRANCH   2   3
TORSDOF 5
ENDMDL
MODEL       33
REMARK 921   NORMALIZED FREE ENERGY PREDICTED BY IDOCK:   -4.99 KCAL/MOL
REMARK 922        TOTAL FREE ENERGY PREDICTED BY IDOCK:   -7.82 KCAL/MOL
REMARK 923 INTER-LIGAND FREE ENERGY PREDICTED BY IDOCK:   -6.47 KCAL/MOL
REMARK 924 INTRA-LIGAND FREE ENERGY PREDICTED BY IDOCK:   -1.35 KCAL/MOL
REMARK 927      BINDING AFFINITY PREDICTED BY RF-SCORE:    0.00 PKD
ROOT
HETATM    1  C   UNL     1     -11.399   4.306  73.349  1.00  0.00    -0.230 C  
HETATM    2  O   UNL     1     -11.663   5.587  72.784  1.00  0.00    -0.297 OA 
ENDROOT
BRANCH   2   3
HETATM    3  C   UNL     1     -10.927   5.895  71.672  1.00  0.00    -0.268 A  
HETATM    4  C   UNL     1     -11.599   6.600  70.674  1.00  0.00    -0.439 A  
HETATM    5  C   UNL     1     -10.947   6.951  69.483  1.00  0.00    -0.289 A  
HETATM    6  C   UNL     1      -9.604   6.608  69.281  1.00  0.00    -0.143 A  
HETATM    7  C   UNL     1      -8.912   5.970  70.321  1.00  0.00    -0.152 A  
HETATM    8  C   UNL     1      -9.575   5.604  71.504  1.00  0.00    -0.184 A  
BRANCH   6   9
HETATM    9  N   UNL     1      -8.923   6.914  68.061  1.00  0.00    -0.123 NA 
HETATM   10  N   UNL     1      -8.915   5.983  67.037  1.00  0.00    -0.112 NA 
HETATM   11  C   UNL     1      -8.065   6.476  66.115  1.00  0.00    -0.118 A  
HETATM   12  C   UNL     1      -7.598   7.740  66.505  1.00  0.00    -0.096 A  
HETATM   13  C   UNL     1      -6.721   8.693  65.793  1.00  0.00    -0.064 C  
HETATM   14  C   UNL     1      -8.220   8.053  67.695  1.00  0.00    -0.124 A  
HETATM   15  C   UNL     1      -6.258   9.739  66.804  1.00  0.00    -0.064 C  
HETATM   16  O   UNL     1      -8.943   9.709  69.203  1.00  0.00    -0.138 OA 
HETATM   17  N   UNL     1      -7.393  10.318  67.549  1.00  0.00    -0.088 N  
HETATM   18  C   UNL     1      -8.222   9.397  68.262  1.00  0.00    -0.118 C  
BRANCH  11  19
HETATM   19  C   UNL     1      -7.718   5.805  64.848  1.00  0.00    -0.095 C  
HETATM   20  H1  UNL     1      -8.179   5.731  62.873  1.00  0.00     0.000 HD 
HETATM   21  N   UNL     1      -8.419   6.195  63.749  1.00  0.00    -0.332 N  
HETATM   22  H2  UNL     1      -9.143   6.912  63.798  1.00  0.00     0.000 HD 
HETATM   23  O   UNL     1      -6.840   4.948  64.755  1.00  0.00    -0.047 OA 
ENDBRANCH  11  19
BRANCH  17  24
HETATM   24  C   UNL     1      -7.680  11.730  67.458  1.00  0.00    -0.143 A  
HETATM   25  C   UNL     1      -6.924  12.696  68.132  1.00  0.00    -0.096 A  
HETATM   26  C   UNL     1      -7.295  14.054  68.149  1.00  0.00    -0.128 A  
HETATM   27  C   UNL     1      -8.449  14.512  67.504  1.00  0.00    -0.190 A  
HETATM   28  C   UNL     1      -9.168  13.568  66.776  1.00  0.00    -0.248 A  
HETATM   29  C   UNL     1      -8.792  12.214  66.754  1.00  0.00    -0.198 A  
BRANCH  27  30
HETATM   30  N   UNL     1      -8.917  15.854  67.689  1.00  0.00    -0.189 N  
HETATM   31  C   UNL     1      -8.458  16.937  66.824  1.00  0.00    -0.234 C  
HETATM   32  C   UNL     1      -9.626  17.733  66.262  1.00  0.00    -0.256 C  
HETATM   33  C   UNL     1     -10.455  18.278  67.409  1.00  0.00    -0.430 C  
HETATM   34  C   UNL     1     -10.899  17.154  68.326  1.00  0.00    -0.314 C  
HETATM   35  C   UNL     1      -9.798  16.185  68.726  1.00  0.00    -0.230 C  
HETATM   36  O   UNL     1      -9.826  15.647  69.832  1.00  0.00    -0.290 OA 
ENDBRANCH  27  30
ENDBRANCH  17  24
ENDBRANCH   6   9
ENDBRANCH   2   3
TORSDOF 5
ENDMDL
MODEL       34
REMARK 921   NORMALIZED FREE ENERGY PREDICTED BY IDOCK:   -4.98 KCAL/MOL
REMARK 922        TOTAL FREE ENERGY PREDICTED BY IDOCK:   -7.82 KCAL/MOL
REMARK 923 INTER-LIGAND FREE ENERGY PREDICTED BY IDOCK:   -6.96 KCAL/MOL
REMARK 924 INTRA-LIGAND FREE ENERGY PREDICTED BY IDOCK:   -0.85 KCAL/MOL
REMARK 927      BINDING AFFINITY PREDICTED BY RF-SCORE:    0.00 PKD
ROOT
HETATM    1  C   UNL     1      -7.170   5.149  65.231  1.00  0.00    -0.067 C  
HETATM    2  O   UNL     1      -6.609   6.436  65.472  1.00  0.00    -0.041 OA 
ENDROOT
BRANCH   2   3
HETATM    3  C   UNL     1      -7.386   7.279  66.219  1.00  0.00    -0.079 A  
HETATM    4  C   UNL     1      -8.646   7.568  65.696  1.00  0.00    -0.131 A  
HETATM    5  C   UNL     1      -9.518   8.434  66.369  1.00  0.00    -0.293 A  
HETATM    6  C   UNL     1      -9.141   9.017  67.586  1.00  0.00    -0.133 A  
HETATM    7  C   UNL     1      -7.905   8.660  68.146  1.00  0.00    -0.103 A  
HETATM    8  C   UNL     1      -7.028   7.806  67.458  1.00  0.00    -0.078 A  
BRANCH   6   9
HETATM    9  N   UNL     1      -9.990   9.939  68.276  1.00  0.00    -0.147 NA 
HETATM   10  N   UNL     1     -10.708   9.506  69.377  1.00  0.00    -0.226 NA 
HETATM   11  C   UNL     1     -11.529  10.527  69.690  1.00  0.00    -0.282 A  
HETATM   12  C   UNL     1     -11.286  11.626  68.854  1.00  0.00    -0.328 A  
HETATM   13  C   UNL     1     -11.875  12.982  68.865  1.00  0.00    -0.358 C  
HETATM   14  C   UNL     1     -10.243  11.279  68.020  1.00  0.00    -0.183 A  
HETATM   15  C   UNL     1     -11.516  13.653  67.542  1.00  0.00    -0.329 C  
HETATM   16  O   UNL     1      -8.462  11.970  66.645  1.00  0.00    -0.180 OA 
HETATM   17  N   UNL     1     -10.071  13.565  67.259  1.00  0.00    -0.233 N  
HETATM   18  C   UNL     1      -9.509  12.251  67.217  1.00  0.00    -0.186 C  
BRANCH  11  19
HETATM   19  C   UNL     1     -12.507  10.510  70.793  1.00  0.00    -0.378 C  
HETATM   20  H1  UNL     1     -13.360  11.671  72.223  1.00  0.00     0.000 HD 
HETATM   21  N   UNL     1     -12.684  11.683  71.460  1.00  0.00    -0.354 N  
HETATM   22  H2  UNL     1     -12.168  12.527  71.211  1.00  0.00     0.000 HD 
HETATM   23  O   UNL     1     -13.154   9.512  71.109  1.00  0.00    -0.326 OA 
ENDBRANCH  11  19
BRANCH  17  24
HETATM   24  C   UNL     1      -9.278  14.766  67.136  1.00  0.00    -0.222 A  
HETATM   25  C   UNL     1      -8.104  14.970  67.869  1.00  0.00    -0.142 A  
HETATM   26  C   UNL     1      -7.415  16.197  67.846  1.00  0.00    -0.140 A  
HETATM   27  C   UNL     1      -7.873  17.287  67.100  1.00  0.00    -0.198 A  
HETATM   28  C   UNL     1      -9.003  17.070  66.316  1.00  0.00    -0.282 A  
HETATM   29  C   UNL     1      -9.686  15.842  66.334  1.00  0.00    -0.305 A  
BRANCH  27  30
HETATM   30  N   UNL     1      -7.274  18.582  67.236  1.00  0.00    -0.208 N  
HETATM   31  C   UNL     1      -8.052  19.727  67.702  1.00  0.00    -0.296 C  
HETATM   32  C   UNL     1      -7.351  20.448  68.842  1.00  0.00     0.129 C  
HETATM   33  C   UNL     1      -5.974  20.888  68.382  1.00  0.00    -0.386 C  
HETATM   34  C   UNL     1      -5.182  19.702  67.864  1.00  0.00    -0.176 C  
HETATM   35  C   UNL     1      -5.935  18.807  66.893  1.00  0.00    -0.158 C  
HETATM   36  O   UNL     1      -5.327  18.231  65.992  1.00  0.00    -0.144 OA 
ENDBRANCH  27  30
ENDBRANCH  17  24
ENDBRANCH   6   9
ENDBRANCH   2   3
TORSDOF 5
ENDMDL
MODEL       35
REMARK 921   NORMALIZED FREE ENERGY PREDICTED BY IDOCK:   -4.80 KCAL/MOL
REMARK 922        TOTAL FREE ENERGY PREDICTED BY IDOCK:   -7.58 KCAL/MOL
REMARK 923 INTER-LIGAND FREE ENERGY PREDICTED BY IDOCK:   -6.19 KCAL/MOL
REMARK 924 INTRA-LIGAND FREE ENERGY PREDICTED BY IDOCK:   -1.39 KCAL/MOL
REMARK 927      BINDING AFFINITY PREDICTED BY RF-SCORE:    0.00 PKD
ROOT
HETATM    1  C   UNL     1      -7.239   3.133  73.855  1.00  0.00    -0.047 C  
HETATM    2  O   UNL     1      -8.503   2.952  73.222  1.00  0.00    -0.074 OA 
ENDROOT
BRANCH   2   3
HETATM    3  C   UNL     1      -8.579   3.412  71.935  1.00  0.00    -0.081 A  
HETATM    4  C   UNL     1      -7.393   3.907  71.395  1.00  0.00    -0.040 A  
HETATM    5  C   UNL     1      -7.361   4.420  70.091  1.00  0.00    -0.046 A  
HETATM    6  C   UNL     1      -8.520   4.434  69.304  1.00  0.00    -0.077 A  
HETATM    7  C   UNL     1      -9.690   3.862  69.825  1.00  0.00    -0.227 A  
HETATM    8  C   UNL     1      -9.722   3.366  71.138  1.00  0.00    -0.222 A  
BRANCH   6   9
HETATM    9  N   UNL     1      -8.529   4.990  67.986  1.00  0.00    -0.103 NA 
HETATM   10  N   UNL     1      -8.600   4.143  66.894  1.00  0.00    -0.107 NA 
HETATM   11  C   UNL     1      -8.414   4.934  65.819  1.00  0.00    -0.121 A  
HETATM   12  C   UNL     1      -8.305   6.276  66.210  1.00  0.00    -0.122 A  
HETATM   13  C   UNL     1      -8.173   7.500  65.391  1.00  0.00    -0.136 C  
HETATM   14  C   UNL     1      -8.474   6.315  67.578  1.00  0.00    -0.108 A  
HETATM   15  C   UNL     1      -7.747   8.634  66.321  1.00  0.00    -0.098 C  
HETATM   16  O   UNL     1      -9.073   7.552  69.489  1.00  0.00    -0.143 OA 
HETATM   17  N   UNL     1      -8.619   8.726  67.507  1.00  0.00    -0.126 N  
HETATM   18  C   UNL     1      -8.722   7.550  68.314  1.00  0.00    -0.123 C  
BRANCH  11  19
HETATM   19  C   UNL     1      -8.385   4.460  64.422  1.00  0.00    -0.109 C  
HETATM   20  H1  UNL     1      -7.201   3.567  63.036  1.00  0.00     0.000 HD 
HETATM   21  N   UNL     1      -7.221   3.895  64.002  1.00  0.00    -0.050 N  
HETATM   22  H2  UNL     1      -6.413   3.803  64.618  1.00  0.00     0.000 HD 
HETATM   23  O   UNL     1      -9.347   4.544  63.660  1.00  0.00    -0.132 OA 
ENDBRANCH  11  19
BRANCH  17  24
HETATM   24  C   UNL     1      -9.393   9.920  67.752  1.00  0.00    -0.140 A  
HETATM   25  C   UNL     1      -8.801  11.146  68.075  1.00  0.00    -0.142 A  
HETATM   26  C   UNL     1      -9.565  12.267  68.447  1.00  0.00    -0.183 A  
HETATM   27  C   UNL     1     -10.961  12.215  68.530  1.00  0.00    -0.238 A  
HETATM   28  C   UNL     1     -11.560  11.018  68.146  1.00  0.00    -0.345 A  
HETATM   29  C   UNL     1     -10.795   9.902  67.766  1.00  0.00    -0.321 A  
BRANCH  27  30
HETATM   30  N   UNL     1     -11.710  13.300  69.093  1.00  0.00    -0.310 N  
HETATM   31  C   UNL     1     -12.391  13.158  70.377  1.00  0.00    -0.279 C  
HETATM   32  C   UNL     1     -12.044  14.300  71.319  1.00  0.00    -0.391 C  
HETATM   33  C   UNL     1     -12.411  15.617  70.662  1.00  0.00    -0.457 C  
HETATM   34  C   UNL     1     -11.731  15.744  69.311  1.00  0.00    -0.384 C  
HETATM   35  C   UNL     1     -11.849  14.519  68.419  1.00  0.00    -0.316 C  
HETATM   36  O   UNL     1     -11.902  14.653  67.197  1.00  0.00    -0.391 OA 
ENDBRANCH  27  30
ENDBRANCH  17  24
ENDBRANCH   6   9
ENDBRANCH   2   3
TORSDOF 5
ENDMDL
MODEL       36
REMARK 921   NORMALIZED FREE ENERGY PREDICTED BY IDOCK:   -4.78 KCAL/MOL
REMARK 922        TOTAL FREE ENERGY PREDICTED BY IDOCK:   -7.55 KCAL/MOL
REMARK 923 INTER-LIGAND FREE ENERGY PREDICTED BY IDOCK:   -6.22 KCAL/MOL
REMARK 924 INTRA-LIGAND FREE ENERGY PREDICTED BY IDOCK:   -1.34 KCAL/MOL
REMARK 927      BINDING AFFINITY PREDICTED BY RF-SCORE:    0.00 PKD
ROOT
HETATM    1  C   UNL     1      -9.164   4.688  74.423  1.00  0.00    -0.113 C  
HETATM    2  O   UNL     1      -8.932   3.631  73.496  1.00  0.00    -0.094 OA 
ENDROOT
BRANCH   2   3
HETATM    3  C   UNL     1      -9.003   3.988  72.177  1.00  0.00    -0.114 A  
HETATM    4  C   UNL     1      -7.830   3.832  71.440  1.00  0.00    -0.060 A  
HETATM    5  C   UNL     1      -7.784   4.185  70.085  1.00  0.00    -0.049 A  
HETATM    6  C   UNL     1      -8.923   4.691  69.443  1.00  0.00    -0.096 A  
HETATM    7  C   UNL     1     -10.120   4.770  70.169  1.00  0.00    -0.310 A  
HETATM    8  C   UNL     1     -10.156   4.433  71.532  1.00  0.00    -0.221 A  
BRANCH   6   9
HETATM    9  N   UNL     1      -8.897   5.100  68.073  1.00  0.00    -0.102 NA 
HETATM   10  N   UNL     1      -9.142   4.166  67.082  1.00  0.00    -0.132 NA 
HETATM   11  C   UNL     1      -8.876   4.800  65.923  1.00  0.00    -0.127 A  
HETATM   12  C   UNL     1      -8.544   6.141  66.162  1.00  0.00    -0.141 A  
HETATM   13  C   UNL     1      -8.254   7.235  65.211  1.00  0.00    -0.126 C  
HETATM   14  C   UNL     1      -8.651   6.350  67.521  1.00  0.00    -0.115 A  
HETATM   15  C   UNL     1      -7.620   8.377  66.001  1.00  0.00    -0.085 C  
HETATM   16  O   UNL     1      -8.974   7.860  69.297  1.00  0.00    -0.144 OA 
HETATM   17  N   UNL     1      -8.421   8.731  67.189  1.00  0.00    -0.110 N  
HETATM   18  C   UNL     1      -8.673   7.678  68.122  1.00  0.00    -0.122 C  
BRANCH  11  19
HETATM   19  C   UNL     1      -8.977   4.183  64.587  1.00  0.00    -0.141 C  
HETATM   20  H1  UNL     1     -10.232   3.910  63.016  1.00  0.00     0.000 HD 
HETATM   21  N   UNL     1     -10.163   4.337  63.940  1.00  0.00    -0.400 N  
HETATM   22  H2  UNL     1     -10.941   4.850  64.355  1.00  0.00     0.000 HD 
HETATM   23  O   UNL     1      -8.052   3.571  64.053  1.00  0.00    -0.087 OA 
ENDBRANCH  11  19
BRANCH  17  24
HETATM   24  C   UNL     1      -8.987  10.053  67.319  1.00  0.00    -0.135 A  
HETATM   25  C   UNL     1     -10.358  10.300  67.184  1.00  0.00    -0.292 A  
HETATM   26  C   UNL     1     -10.882  11.606  67.174  1.00  0.00    -0.306 A  
HETATM   27  C   UNL     1     -10.060  12.733  67.284  1.00  0.00    -0.226 A  
HETATM   28  C   UNL     1      -8.704  12.492  67.486  1.00  0.00    -0.182 A  
HETATM   29  C   UNL     1      -8.183  11.187  67.503  1.00  0.00    -0.119 A  
BRANCH  27  30
HETATM   30  N   UNL     1     -10.581  14.052  67.081  1.00  0.00    -0.273 N  
HETATM   31  C   UNL     1     -11.103  14.836  68.197  1.00  0.00    -0.278 C  
HETATM   32  C   UNL     1     -10.491  16.227  68.233  1.00  0.00    -0.284 C  
HETATM   33  C   UNL     1     -10.763  16.926  66.915  1.00  0.00    -0.130 C  
HETATM   34  C   UNL     1     -10.252  16.091  65.755  1.00  0.00    -0.401 C  
HETATM   35  C   UNL     1     -10.645  14.624  65.804  1.00  0.00    -0.320 C  
HETATM   36  O   UNL     1     -10.837  14.005  64.758  1.00  0.00    -0.382 OA 
ENDBRANCH  27  30
ENDBRANCH  17  24
ENDBRANCH   6   9
ENDBRANCH   2   3
TORSDOF 5
ENDMDL
MODEL       37
REMARK 921   NORMALIZED FREE ENERGY PREDICTED BY IDOCK:   -4.75 KCAL/MOL
REMARK 922        TOTAL FREE ENERGY PREDICTED BY IDOCK:   -7.51 KCAL/MOL
REMARK 923 INTER-LIGAND FREE ENERGY PREDICTED BY IDOCK:   -6.70 KCAL/MOL
REMARK 924 INTRA-LIGAND FREE ENERGY PREDICTED BY IDOCK:   -0.81 KCAL/MOL
REMARK 927      BINDING AFFINITY PREDICTED BY RF-SCORE:    0.00 PKD
ROOT
HETATM    1  C   UNL     1      -7.635   3.378  64.479  1.00  0.00    -0.076 C  
HETATM    2  O   UNL     1      -7.468   2.951  65.828  1.00  0.00    -0.070 OA 
ENDROOT
BRANCH   2   3
HETATM    3  C   UNL     1      -7.942   3.818  66.775  1.00  0.00    -0.095 A  
HETATM    4  C   UNL     1      -6.993   4.646  67.372  1.00  0.00    -0.061 A  
HETATM    5  C   UNL     1      -7.365   5.559  68.368  1.00  0.00    -0.076 A  
HETATM    6  C   UNL     1      -8.702   5.663  68.773  1.00  0.00    -0.106 A  
HETATM    7  C   UNL     1      -9.664   4.884  68.112  1.00  0.00    -0.202 A  
HETATM    8  C   UNL     1      -9.283   3.958  67.129  1.00  0.00    -0.197 A  
BRANCH   6   9
HETATM    9  N   UNL     1      -9.107   6.554  69.816  1.00  0.00    -0.142 NA 
HETATM   10  N   UNL     1      -8.903   6.191  71.135  1.00  0.00    -0.139 NA 
HETATM   11  C   UNL     1      -9.536   7.131  71.865  1.00  0.00    -0.146 A  
HETATM   12  C   UNL     1     -10.069   8.124  71.030  1.00  0.00    -0.221 A  
HETATM   13  C   UNL     1     -10.771   9.379  71.369  1.00  0.00    -0.407 C  
HETATM   14  C   UNL     1      -9.712   7.801  69.737  1.00  0.00    -0.176 A  
HETATM   15  C   UNL     1     -11.432   9.898  70.095  1.00  0.00    -0.248 C  
HETATM   16  O   UNL     1      -9.317   8.516  67.529  1.00  0.00    -0.141 OA 
HETATM   17  N   UNL     1     -10.479   9.960  68.970  1.00  0.00    -0.200 N  
HETATM   18  C   UNL     1      -9.824   8.737  68.624  1.00  0.00    -0.168 C  
BRANCH  11  19
HETATM   19  C   UNL     1      -9.609   7.143  73.338  1.00  0.00    -0.208 C  
HETATM   20  H1  UNL     1      -8.846   8.037  74.992  1.00  0.00     0.000 HD 
HETATM   21  N   UNL     1      -8.796   8.029  73.974  1.00  0.00    -0.364 N  
HETATM   22  H2  UNL     1      -8.170   8.651  73.461  1.00  0.00     0.000 HD 
HETATM   23  O   UNL     1     -10.363   6.415  73.983  1.00  0.00    -0.293 OA 
ENDBRANCH  11  19
BRANCH  17  24
HETATM   24  C   UNL     1     -10.172  11.224  68.343  1.00  0.00    -0.195 A  
HETATM   25  C   UNL     1      -8.872  11.735  68.277  1.00  0.00    -0.172 A  
HETATM   26  C   UNL     1      -8.603  13.027  67.789  1.00  0.00    -0.189 A  
HETATM   27  C   UNL     1      -9.623  13.879  67.354  1.00  0.00    -0.235 A  
HETATM   28  C   UNL     1     -10.912  13.352  67.354  1.00  0.00    -0.287 A  
HETATM   29  C   UNL     1     -11.178  12.059  67.835  1.00  0.00    -0.323 A  
BRANCH  27  30
HETATM   30  N   UNL     1      -9.358  15.253  67.042  1.00  0.00    -0.215 N  
HETATM   31  C   UNL     1     -10.021  15.912  65.920  1.00  0.00    -0.349 C  
HETATM   32  C   UNL     1     -10.652  17.229  66.344  1.00  0.00    -0.179 C  
HETATM   33  C   UNL     1      -9.583  18.126  66.936  1.00  0.00    -0.299 C  
HETATM   34  C   UNL     1      -8.871  17.424  68.077  1.00  0.00    -0.252 C  
HETATM   35  C   UNL     1      -8.429  16.002  67.774  1.00  0.00    -0.161 C  
HETATM   36  O   UNL     1      -7.405  15.555  68.290  1.00  0.00    -0.110 OA 
ENDBRANCH  27  30
ENDBRANCH  17  24
ENDBRANCH   6   9
ENDBRANCH   2   3
TORSDOF 5
ENDMDL
MODEL       38
REMARK 921   NORMALIZED FREE ENERGY PREDICTED BY IDOCK:   -4.68 KCAL/MOL
REMARK 922        TOTAL FREE ENERGY PREDICTED BY IDOCK:   -7.42 KCAL/MOL
REMARK 923 INTER-LIGAND FREE ENERGY PREDICTED BY IDOCK:   -6.54 KCAL/MOL
REMARK 924 INTRA-LIGAND FREE ENERGY PREDICTED BY IDOCK:   -0.88 KCAL/MOL
REMARK 927      BINDING AFFINITY PREDICTED BY RF-SCORE:    0.00 PKD
ROOT
HETATM    1  C   UNL     1     -11.013   3.455  73.541  1.00  0.00    -0.233 C  
HETATM    2  O   UNL     1     -11.003   4.851  73.255  1.00  0.00    -0.264 OA 
ENDROOT
BRANCH   2   3
HETATM    3  C   UNL     1     -10.511   5.189  72.024  1.00  0.00    -0.215 A  
HETATM    4  C   UNL     1     -11.386   5.882  71.188  1.00  0.00    -0.230 A  
HETATM    5  C   UNL     1     -10.992   6.261  69.898  1.00  0.00    -0.435 A  
HETATM    6  C   UNL     1      -9.707   5.958  69.429  1.00  0.00    -0.152 A  
HETATM    7  C   UNL     1      -8.806   5.332  70.303  1.00  0.00    -0.145 A  
HETATM    8  C   UNL     1      -9.211   4.938  71.588  1.00  0.00    -0.179 A  
BRANCH   6   9
HETATM    9  N   UNL     1      -9.290   6.294  68.103  1.00  0.00    -0.116 NA 
HETATM   10  N   UNL     1      -9.428   5.359  67.092  1.00  0.00    -0.119 NA 
HETATM   11  C   UNL     1      -8.798   5.892  66.026  1.00  0.00    -0.149 A  
HETATM   12  C   UNL     1      -8.333   7.181  66.325  1.00  0.00    -0.129 A  
HETATM   13  C   UNL     1      -7.660   8.175  65.463  1.00  0.00    -0.087 C  
HETATM   14  C   UNL     1      -8.732   7.467  67.615  1.00  0.00    -0.122 A  
HETATM   15  C   UNL     1      -7.070   9.250  66.372  1.00  0.00    -0.088 C  
HETATM   16  O   UNL     1      -9.240   9.090  69.241  1.00  0.00    -0.142 OA 
HETATM   17  N   UNL     1      -8.069   9.772  67.324  1.00  0.00    -0.116 N  
HETATM   18  C   UNL     1      -8.697   8.812  68.178  1.00  0.00    -0.134 C  
BRANCH  11  19
HETATM   19  C   UNL     1      -8.665   5.234  64.713  1.00  0.00    -0.109 C  
HETATM   20  H1  UNL     1      -8.557   5.598  62.720  1.00  0.00     0.000 HD 
HETATM   21  N   UNL     1      -8.649   6.053  63.628  1.00  0.00    -0.330 N  
HETATM   22  H2  UNL     1      -8.724   7.067  63.716  1.00  0.00     0.000 HD 
HETATM   23  O   UNL     1      -8.559   4.015  64.575  1.00  0.00    -0.105 OA 
ENDBRANCH  11  19
BRANCH  17  24
HETATM   24  C   UNL     1      -8.444  11.166  67.297  1.00  0.00    -0.137 A  
HETATM   25  C   UNL     1      -7.698  12.157  67.944  1.00  0.00    -0.134 A  
HETATM   26  C   UNL     1      -8.144  13.490  68.028  1.00  0.00    -0.156 A  
HETATM   27  C   UNL     1      -9.367  13.895  67.482  1.00  0.00    -0.217 A  
HETATM   28  C   UNL     1     -10.081  12.929  66.779  1.00  0.00    -0.238 A  
HETATM   29  C   UNL     1      -9.630  11.601  66.689  1.00  0.00    -0.220 A  
BRANCH  27  30
HETATM   30  N   UNL     1      -9.896  15.201  67.741  1.00  0.00    -0.222 N  
HETATM   31  C   UNL     1     -11.160  15.374  68.452  1.00  0.00    -0.301 C  
HETATM   32  C   UNL     1     -11.021  16.359  69.602  1.00  0.00    -0.329 C  
HETATM   33  C   UNL     1     -10.523  17.686  69.064  1.00  0.00    -0.200 C  
HETATM   34  C   UNL     1      -9.229  17.497  68.295  1.00  0.00    -0.277 C  
HETATM   35  C   UNL     1      -9.245  16.356  67.291  1.00  0.00    -0.215 C  
HETATM   36  O   UNL     1      -8.588  16.442  66.254  1.00  0.00    -0.296 OA 
ENDBRANCH  27  30
ENDBRANCH  17  24
ENDBRANCH   6   9
ENDBRANCH   2   3
TORSDOF 5
ENDMDL
MODEL       39
REMARK 921   NORMALIZED FREE ENERGY PREDICTED BY IDOCK:   -4.63 KCAL/MOL
REMARK 922        TOTAL FREE ENERGY PREDICTED BY IDOCK:   -7.35 KCAL/MOL
REMARK 923 INTER-LIGAND FREE ENERGY PREDICTED BY IDOCK:   -6.75 KCAL/MOL
REMARK 924 INTRA-LIGAND FREE ENERGY PREDICTED BY IDOCK:   -0.60 KCAL/MOL
REMARK 927      BINDING AFFINITY PREDICTED BY RF-SCORE:    0.00 PKD
ROOT
HETATM    1  C   UNL     1      -5.350  16.270  71.470  1.00  0.00     0.193 C  
HETATM    2  O   UNL     1      -5.155  16.517  70.081  1.00  0.00    -0.149 OA 
ENDROOT
BRANCH   2   3
HETATM    3  C   UNL     1      -6.102  15.974  69.255  1.00  0.00    -0.138 A  
HETATM    4  C   UNL     1      -7.371  16.547  69.326  1.00  0.00    -0.201 A  
HETATM    5  C   UNL     1      -8.422  16.058  68.539  1.00  0.00    -0.189 A  
HETATM    6  C   UNL     1      -8.211  14.989  67.657  1.00  0.00    -0.168 A  
HETATM    7  C   UNL     1      -6.914  14.470  67.532  1.00  0.00    -0.188 A  
HETATM    8  C   UNL     1      -5.869  14.952  68.337  1.00  0.00    -0.106 A  
BRANCH   6   9
HETATM    9  N   UNL     1      -9.272  14.440  66.872  1.00  0.00    -0.243 NA 
HETATM   10  N   UNL     1      -9.858  15.214  65.886  1.00  0.00    -0.318 NA 
HETATM   11  C   UNL     1     -10.917  14.501  65.455  1.00  0.00    -0.342 A  
HETATM   12  C   UNL     1     -10.964  13.255  66.098  1.00  0.00    -0.292 A  
HETATM   13  C   UNL     1     -11.883  12.115  65.902  1.00  0.00    -0.342 C  
HETATM   14  C   UNL     1      -9.863  13.185  66.927  1.00  0.00    -0.249 A  
HETATM   15  C   UNL     1     -11.706  11.169  67.086  1.00  0.00     0.233 C  
HETATM   16  O   UNL     1      -8.317  11.849  68.096  1.00  0.00    -0.146 OA 
HETATM   17  N   UNL     1     -10.286  10.838  67.314  1.00  0.00    -0.208 N  
HETATM   18  C   UNL     1      -9.403  11.941  67.534  1.00  0.00    -0.177 C  
BRANCH  11  19
HETATM   19  C   UNL     1     -11.861  14.945  64.413  1.00  0.00    -0.360 C  
HETATM   20  H1  UNL     1     -12.332  16.511  63.211  1.00  0.00     0.000 HD 
HETATM   21  N   UNL     1     -11.679  16.204  63.931  1.00  0.00    -0.767 N  
HETATM   22  H2  UNL     1     -10.930  16.808  64.272  1.00  0.00     0.000 HD 
HETATM   23  O   UNL     1     -12.765  14.235  63.973  1.00  0.00    -0.697 OA 
ENDBRANCH  11  19
BRANCH  17  24
HETATM   24  C   UNL     1      -9.831   9.471  67.212  1.00  0.00    -0.177 A  
HETATM   25  C   UNL     1      -8.905   9.058  66.249  1.00  0.00    -0.180 A  
HETATM   26  C   UNL     1      -8.573   7.702  66.068  1.00  0.00    -0.165 A  
HETATM   27  C   UNL     1      -9.162   6.689  66.833  1.00  0.00    -0.142 A  
HETATM   28  C   UNL     1     -10.033   7.100  67.839  1.00  0.00    -0.186 A  
HETATM   29  C   UNL     1     -10.357   8.455  68.022  1.00  0.00    -0.270 A  
BRANCH  27  30
HETATM   30  N   UNL     1      -8.961   5.307  66.512  1.00  0.00    -0.118 N  
HETATM   31  C   UNL     1     -10.094   4.421  66.260  1.00  0.00    -0.225 C  
HETATM   32  C   UNL     1      -9.922   3.657  64.957  1.00  0.00    -0.110 C  
HETATM   33  C   UNL     1      -8.627   2.869  65.008  1.00  0.00    -0.102 C  
HETATM   34  C   UNL     1      -7.457   3.788  65.307  1.00  0.00    -0.077 C  
HETATM   35  C   UNL     1      -7.679   4.746  66.465  1.00  0.00    -0.091 C  
HETATM   36  O   UNL     1      -6.730   5.084  67.172  1.00  0.00    -0.052 OA 
ENDBRANCH  27  30
ENDBRANCH  17  24
ENDBRANCH   6   9
ENDBRANCH   2   3
TORSDOF 5
ENDMDL
MODEL       40
REMARK 921   NORMALIZED FREE ENERGY PREDICTED BY IDOCK:   -4.39 KCAL/MOL
REMARK 922        TOTAL FREE ENERGY PREDICTED BY IDOCK:   -7.05 KCAL/MOL
REMARK 923 INTER-LIGAND FREE ENERGY PREDICTED BY IDOCK:   -6.04 KCAL/MOL
REMARK 924 INTRA-LIGAND FREE ENERGY PREDICTED BY IDOCK:   -1.01 KCAL/MOL
REMARK 927      BINDING AFFINITY PREDICTED BY RF-SCORE:    0.00 PKD
ROOT
HETATM    1  C   UNL     1     -10.169   6.576  70.570  1.00  0.00    -0.190 C  
HETATM    2  O   UNL     1     -10.864   7.745  70.994  1.00  0.00    -0.233 OA 
ENDROOT
BRANCH   2   3
HETATM    3  C   UNL     1     -11.023   8.707  70.034  1.00  0.00    -0.203 A  
HETATM    4  C   UNL     1     -10.352   8.484  68.833  1.00  0.00    -0.226 A  
HETATM    5  C   UNL     1     -10.429   9.414  67.787  1.00  0.00    -0.310 A  
HETATM    6  C   UNL     1     -11.193  10.580  67.929  1.00  0.00    -0.289 A  
HETATM    7  C   UNL     1     -11.930  10.759  69.109  1.00  0.00    -0.302 A  
HETATM    8  C   UNL     1     -11.834   9.834  70.160  1.00  0.00    -0.141 A  
BRANCH   6   9
HETATM    9  N   UNL     1     -11.258  11.569  66.897  1.00  0.00    -0.332 NA 
HETATM   10  N   UNL     1     -12.252  11.484  65.937  1.00  0.00     0.383 NA 
HETATM   11  C   UNL     1     -11.948  12.428  65.025  1.00  0.00    -0.402 A  
HETATM   12  C   UNL     1     -10.823  13.159  65.433  1.00  0.00    -0.299 A  
HETATM   13  C   UNL     1     -10.170  14.330  64.810  1.00  0.00    -0.284 C  
HETATM   14  C   UNL     1     -10.447  12.671  66.667  1.00  0.00    -0.245 A  
HETATM   15  C   UNL     1      -8.804  14.502  65.470  1.00  0.00     1.424 C  
HETATM   16  O   UNL     1      -9.341  13.033  68.713  1.00  0.00    -0.038 OA 
HETATM   17  N   UNL     1      -8.905  14.511  66.942  1.00  0.00    -0.238 N  
HETATM   18  C   UNL     1      -9.510  13.364  67.545  1.00  0.00    -0.219 C  
BRANCH  11  19
HETATM   19  C   UNL     1     -12.723  12.691  63.799  1.00  0.00    -0.241 C  
HETATM   20  H1  UNL     1     -13.798  11.788  62.333  1.00  0.00     0.000 HD 
HETATM   21  N   UNL     1     -13.262  11.605  63.182  1.00  0.00    -0.621 N  
HETATM   22  H2  UNL     1     -13.138  10.661  63.547  1.00  0.00     0.000 HD 
HETATM   23  O   UNL     1     -12.901  13.820  63.341  1.00  0.00    -0.581 OA 
ENDBRANCH  11  19
BRANCH  17  24
HETATM   24  C   UNL     1      -8.499  15.675  67.694  1.00  0.00    -0.157 A  
HETATM   25  C   UNL     1      -9.273  16.838  67.756  1.00  0.00    -0.222 A  
HETATM   26  C   UNL     1      -8.805  18.012  68.375  1.00  0.00    -0.300 A  
HETATM   27  C   UNL     1      -7.533  18.087  68.951  1.00  0.00    -0.227 A  
HETATM   28  C   UNL     1      -6.784  16.913  68.952  1.00  0.00    -0.199 A  
HETATM   29  C   UNL     1      -7.256  15.739  68.340  1.00  0.00    -0.119 A  
BRANCH  27  30
HETATM   30  N   UNL     1      -6.997  19.336  69.404  1.00  0.00    -0.301 N  
HETATM   31  C   UNL     1      -6.868  19.628  70.830  1.00  0.00     0.462 C  
HETATM   32  C   UNL     1      -5.468  20.111  71.174  1.00  0.00    -0.341 C  
HETATM   33  C   UNL     1      -5.147  21.340  70.345  1.00  0.00    -0.102 C  
HETATM   34  C   UNL     1      -5.318  21.043  68.866  1.00  0.00    -0.374 C  
HETATM   35  C   UNL     1      -6.614  20.337  68.503  1.00  0.00    -0.288 C  
HETATM   36  O   UNL     1      -7.148  20.557  67.417  1.00  0.00    -0.281 OA 
ENDBRANCH  27  30
ENDBRANCH  17  24
ENDBRANCH   6   9
ENDBRANCH   2   3
TORSDOF 5
ENDMDL
MODEL       41
REMARK 921   NORMALIZED FREE ENERGY PREDICTED BY IDOCK:   -4.22 KCAL/MOL
REMARK 922        TOTAL FREE ENERGY PREDICTED BY IDOCK:   -6.82 KCAL/MOL
REMARK 923 INTER-LIGAND FREE ENERGY PREDICTED BY IDOCK:   -6.47 KCAL/MOL
REMARK 924 INTRA-LIGAND FREE ENERGY PREDICTED BY IDOCK:   -0.35 KCAL/MOL
REMARK 927      BINDING AFFINITY PREDICTED BY RF-SCORE:    0.00 PKD
ROOT
HETATM    1  C   UNL     1      -7.658   3.455  67.102  1.00  0.00    -0.078 C  
HETATM    2  O   UNL     1      -7.981   4.698  66.485  1.00  0.00    -0.101 OA 
ENDROOT
BRANCH   2   3
HETATM    3  C   UNL     1      -8.612   5.602  67.296  1.00  0.00    -0.109 A  
HETATM    4  C   UNL     1      -9.942   5.876  66.981  1.00  0.00    -0.195 A  
HETATM    5  C   UNL     1     -10.679   6.801  67.733  1.00  0.00    -0.334 A  
HETATM    6  C   UNL     1     -10.093   7.459  68.823  1.00  0.00    -0.179 A  
HETATM    7  C   UNL     1      -8.780   7.119  69.183  1.00  0.00    -0.133 A  
HETATM    8  C   UNL     1      -8.041   6.206  68.414  1.00  0.00    -0.108 A  
BRANCH   6   9
HETATM    9  N   UNL     1     -10.805   8.439  69.583  1.00  0.00    -0.195 NA 
HETATM   10  N   UNL     1     -11.438   8.060  70.754  1.00  0.00    -0.278 NA 
HETATM   11  C   UNL     1     -12.152   9.137  71.136  1.00  0.00    -0.299 A  
HETATM   12  C   UNL     1     -11.919  10.214  70.269  1.00  0.00    -0.315 A  
HETATM   13  C   UNL     1     -12.410  11.607  70.325  1.00  0.00    -0.339 C  
HETATM   14  C   UNL     1     -10.989   9.793  69.340  1.00  0.00    -0.212 A  
HETATM   15  C   UNL     1     -12.139  12.247  68.966  1.00  0.00    -0.145 C  
HETATM   16  O   UNL     1      -9.311  10.354  67.788  1.00  0.00    -0.144 OA 
HETATM   17  N   UNL     1     -10.738  12.059  68.542  1.00  0.00    -0.226 N  
HETATM   18  C   UNL     1     -10.275  10.709  68.459  1.00  0.00    -0.175 C  
BRANCH  11  19
HETATM   19  C   UNL     1     -13.015   9.191  72.331  1.00  0.00    -0.398 C  
HETATM   20  H1  UNL     1     -14.363  10.353  73.307  1.00  0.00     0.000 HD 
HETATM   21  N   UNL     1     -13.766  10.315  72.481  1.00  0.00    -0.465 N  
HETATM   22  H2  UNL     1     -13.736  11.078  71.804  1.00  0.00     0.000 HD 
HETATM   23  O   UNL     1     -13.084   8.282  73.158  1.00  0.00     0.107 OA 
ENDBRANCH  11  19
BRANCH  17  24
HETATM   24  C   UNL     1      -9.881  13.201  68.329  1.00  0.00    -0.227 A  
HETATM   25  C   UNL     1      -8.876  13.216  67.356  1.00  0.00    -0.204 A  
HETATM   26  C   UNL     1      -7.958  14.278  67.250  1.00  0.00    -0.191 A  
HETATM   27  C   UNL     1      -7.990  15.372  68.121  1.00  0.00    -0.131 A  
HETATM   28  C   UNL     1      -9.029  15.395  69.048  1.00  0.00    -0.230 A  
HETATM   29  C   UNL     1      -9.949  14.338  69.147  1.00  0.00    -0.033 A  
BRANCH  27  30
HETATM   30  N   UNL     1      -6.938  16.345  68.125  1.00  0.00    -0.129 N  
HETATM   31  C   UNL     1      -6.982  17.505  67.239  1.00  0.00    -0.166 C  
HETATM   32  C   UNL     1      -6.747  18.798  68.003  1.00  0.00    -0.237 C  
HETATM   33  C   UNL     1      -5.411  18.720  68.716  1.00  0.00    -0.193 C  
HETATM   34  C   UNL     1      -5.355  17.493  69.608  1.00  0.00    -0.197 C  
HETATM   35  C   UNL     1      -5.814  16.203  68.947  1.00  0.00    -0.118 C  
HETATM   36  O   UNL     1      -5.303  15.132  69.272  1.00  0.00    -0.095 OA 
ENDBRANCH  27  30
ENDBRANCH  17  24
ENDBRANCH   6   9
ENDBRANCH   2   3
TORSDOF 5
ENDMDL
MODEL       42
REMARK 921   NORMALIZED FREE ENERGY PREDICTED BY IDOCK:   -4.20 KCAL/MOL
REMARK 922        TOTAL FREE ENERGY PREDICTED BY IDOCK:   -6.80 KCAL/MOL
REMARK 923 INTER-LIGAND FREE ENERGY PREDICTED BY IDOCK:   -5.73 KCAL/MOL
REMARK 924 INTRA-LIGAND FREE ENERGY PREDICTED BY IDOCK:   -1.07 KCAL/MOL
REMARK 927      BINDING AFFINITY PREDICTED BY RF-SCORE:    0.00 PKD
ROOT
HETATM    1  C   UNL     1     -10.758  19.342  65.834  1.00  0.00    -0.407 C  
HETATM    2  O   UNL     1     -10.660  17.988  65.401  1.00  0.00    -0.648 OA 
ENDROOT
BRANCH   2   3
HETATM    3  C   UNL     1      -9.975  17.157  66.245  1.00  0.00    -0.304 A  
HETATM    4  C   UNL     1      -8.592  17.120  66.074  1.00  0.00    -0.140 A  
HETATM    5  C   UNL     1      -7.794  16.289  66.871  1.00  0.00    -0.278 A  
HETATM    6  C   UNL     1      -8.374  15.486  67.863  1.00  0.00    -0.143 A  
HETATM    7  C   UNL     1      -9.755  15.587  68.083  1.00  0.00    -0.208 A  
HETATM    8  C   UNL     1     -10.552  16.408  67.269  1.00  0.00    -0.293 A  
BRANCH   6   9
HETATM    9  N   UNL     1      -7.592  14.596  68.664  1.00  0.00    -0.122 NA 
HETATM   10  N   UNL     1      -7.154  15.011  69.909  1.00  0.00    -0.170 NA 
HETATM   11  C   UNL     1      -6.315  14.045  70.331  1.00  0.00    -0.073 A  
HETATM   12  C   UNL     1      -6.277  12.990  69.408  1.00  0.00    -0.113 A  
HETATM   13  C   UNL     1      -5.571  11.693  69.471  1.00  0.00    -0.065 C  
HETATM   14  C   UNL     1      -7.162  13.303  68.398  1.00  0.00    -0.110 A  
HETATM   15  C   UNL     1      -5.591  11.087  68.070  1.00  0.00    -0.042 C  
HETATM   16  O   UNL     1      -8.556  12.560  66.653  1.00  0.00    -0.160 OA 
HETATM   17  N   UNL     1      -6.953  11.069  67.502  1.00  0.00    -0.082 N  
HETATM   18  C   UNL     1      -7.622  12.330  67.413  1.00  0.00    -0.159 C  
BRANCH  11  19
HETATM   19  C   UNL     1      -5.582  14.069  71.611  1.00  0.00    -0.233 C  
HETATM   20  H1  UNL     1      -4.739  15.313  72.975  1.00  0.00     0.000 HD 
HETATM   21  N   UNL     1      -5.245  15.297  72.090  1.00  0.00    -0.027 N  
HETATM   22  H2  UNL     1      -5.486  16.154  71.592  1.00  0.00     0.000 HD 
HETATM   23  O   UNL     1      -5.290  13.053  72.242  1.00  0.00    -0.387 OA 
ENDBRANCH  11  19
BRANCH  17  24
HETATM   24  C   UNL     1      -7.583   9.817  67.158  1.00  0.00    -0.092 A  
HETATM   25  C   UNL     1      -8.122   8.957  68.121  1.00  0.00    -0.106 A  
HETATM   26  C   UNL     1      -8.609   7.678  67.790  1.00  0.00    -0.121 A  
HETATM   27  C   UNL     1      -8.567   7.189  66.481  1.00  0.00    -0.129 A  
HETATM   28  C   UNL     1      -8.094   8.065  65.507  1.00  0.00    -0.128 A  
HETATM   29  C   UNL     1      -7.616   9.344  65.838  1.00  0.00    -0.099 A  
BRANCH  27  30
HETATM   30  N   UNL     1      -8.885   5.822  66.191  1.00  0.00    -0.141 N  
HETATM   31  C   UNL     1     -10.178   5.254  66.564  1.00  0.00    -0.253 C  
HETATM   32  C   UNL     1     -10.838   4.553  65.387  1.00  0.00    -0.096 C  
HETATM   33  C   UNL     1      -9.909   3.473  64.866  1.00  0.00    -0.134 C  
HETATM   34  C   UNL     1      -8.555   4.060  64.514  1.00  0.00    -0.110 C  
HETATM   35  C   UNL     1      -7.959   4.971  65.576  1.00  0.00    -0.104 C  
HETATM   36  O   UNL     1      -6.739   5.024  65.724  1.00  0.00    -0.050 OA 
ENDBRANCH  27  30
ENDBRANCH  17  24
ENDBRANCH   6   9
ENDBRANCH   2   3
TORSDOF 5
ENDMDL
MODEL       43
REMARK 921   NORMALIZED FREE ENERGY PREDICTED BY IDOCK:   -4.18 KCAL/MOL
REMARK 922        TOTAL FREE ENERGY PREDICTED BY IDOCK:   -6.77 KCAL/MOL
REMARK 923 INTER-LIGAND FREE ENERGY PREDICTED BY IDOCK:   -6.30 KCAL/MOL
REMARK 924 INTRA-LIGAND FREE ENERGY PREDICTED BY IDOCK:   -0.47 KCAL/MOL
REMARK 927      BINDING AFFINITY PREDICTED BY RF-SCORE:    0.00 PKD
ROOT
HETATM    1  C   UNL     1      -7.144   3.609  64.239  1.00  0.00    -0.054 C  
HETATM    2  O   UNL     1      -7.367   2.747  65.351  1.00  0.00    -0.068 OA 
ENDROOT
BRANCH   2   3
HETATM    3  C   UNL     1      -7.946   3.340  66.440  1.00  0.00    -0.081 A  
HETATM    4  C   UNL     1      -7.071   3.965  67.328  1.00  0.00    -0.063 A  
HETATM    5  C   UNL     1      -7.554   4.589  68.487  1.00  0.00    -0.064 A  
HETATM    6  C   UNL     1      -8.927   4.604  68.766  1.00  0.00    -0.108 A  
HETATM    7  C   UNL     1      -9.807   4.044  67.829  1.00  0.00    -0.088 A  
HETATM    8  C   UNL     1      -9.317   3.404  66.679  1.00  0.00    -0.179 A  
BRANCH   6   9
HETATM    9  N   UNL     1      -9.447   5.194  69.961  1.00  0.00    -0.149 NA 
HETATM   10  N   UNL     1      -9.292   4.534  71.167  1.00  0.00    -0.139 NA 
HETATM   11  C   UNL     1     -10.025   5.236  72.054  1.00  0.00    -0.187 A  
HETATM   12  C   UNL     1     -10.575   6.373  71.444  1.00  0.00    -0.274 A  
HETATM   13  C   UNL     1     -11.375   7.472  72.024  1.00  0.00    -0.314 C  
HETATM   14  C   UNL     1     -10.126   6.391  70.140  1.00  0.00    -0.173 A  
HETATM   15  C   UNL     1     -11.998   8.250  70.867  1.00  0.00    -0.180 C  
HETATM   16  O   UNL     1      -9.658   7.638  68.199  1.00  0.00    -0.146 OA 
HETATM   17  N   UNL     1     -10.990   8.630  69.859  1.00  0.00    -0.210 N  
HETATM   18  C   UNL     1     -10.238   7.562  69.277  1.00  0.00    -0.201 C  
BRANCH  11  19
HETATM   19  C   UNL     1     -10.180   4.887  73.478  1.00  0.00    -0.184 C  
HETATM   20  H1  UNL     1     -10.302   3.319  74.761  1.00  0.00     0.000 HD 
HETATM   21  N   UNL     1     -10.195   3.560  73.776  1.00  0.00    -0.130 N  
HETATM   22  H2  UNL     1     -10.104   2.845  73.054  1.00  0.00     0.000 HD 
HETATM   23  O   UNL     1     -10.278   5.727  74.373  1.00  0.00    -0.255 OA 
ENDBRANCH  11  19
BRANCH  17  24
HETATM   24  C   UNL     1     -10.733  10.022  69.573  1.00  0.00    -0.244 A  
HETATM   25  C   UNL     1     -11.726  11.003  69.661  1.00  0.00    -0.401 A  
HETATM   26  C   UNL     1     -11.501  12.330  69.248  1.00  0.00    -0.352 A  
HETATM   27  C   UNL     1     -10.275  12.739  68.713  1.00  0.00    -0.079 A  
HETATM   28  C   UNL     1      -9.262  11.784  68.685  1.00  0.00    -0.088 A  
HETATM   29  C   UNL     1      -9.486  10.462  69.105  1.00  0.00    -0.220 A  
BRANCH  27  30
HETATM   30  N   UNL     1     -10.121  14.035  68.121  1.00  0.00    -0.238 N  
HETATM   31  C   UNL     1      -9.053  14.304  67.163  1.00  0.00    -0.228 C  
HETATM   32  C   UNL     1      -9.590  14.955  65.899  1.00  0.00    -0.343 C  
HETATM   33  C   UNL     1     -10.313  16.236  66.267  1.00  0.00    -0.335 C  
HETATM   34  C   UNL     1     -11.398  15.960  67.291  1.00  0.00    -0.003 C  
HETATM   35  C   UNL     1     -10.962  15.100  68.466  1.00  0.00    -0.262 C  
HETATM   36  O   UNL     1     -11.464  15.278  69.576  1.00  0.00    -0.264 OA 
ENDBRANCH  27  30
ENDBRANCH  17  24
ENDBRANCH   6   9
ENDBRANCH   2   3
TORSDOF 5
ENDMDL
MODEL       44
REMARK 921   NORMALIZED FREE ENERGY PREDICTED BY IDOCK:   -4.15 KCAL/MOL
REMARK 922        TOTAL FREE ENERGY PREDICTED BY IDOCK:   -6.74 KCAL/MOL
REMARK 923 INTER-LIGAND FREE ENERGY PREDICTED BY IDOCK:   -6.26 KCAL/MOL
REMARK 924 INTRA-LIGAND FREE ENERGY PREDICTED BY IDOCK:   -0.48 KCAL/MOL
REMARK 927      BINDING AFFINITY PREDICTED BY RF-SCORE:    0.00 PKD
ROOT
HETATM    1  C   UNL     1     -10.328  19.218  66.518  1.00  0.00    -0.450 C  
HETATM    2  O   UNL     1      -9.343  18.672  67.391  1.00  0.00    -0.279 OA 
ENDROOT
BRANCH   2   3
HETATM    3  C   UNL     1      -9.574  17.385  67.795  1.00  0.00    -0.264 A  
HETATM    4  C   UNL     1     -10.742  16.796  67.312  1.00  0.00    -0.213 A  
HETATM    5  C   UNL     1     -11.087  15.487  67.677  1.00  0.00    -0.311 A  
HETATM    6  C   UNL     1     -10.256  14.744  68.526  1.00  0.00    -0.232 A  
HETATM    7  C   UNL     1      -9.044  15.314  68.943  1.00  0.00    -0.209 A  
HETATM    8  C   UNL     1      -8.712  16.631  68.590  1.00  0.00    -0.250 A  
BRANCH   6   9
HETATM    9  N   UNL     1     -10.601  13.423  68.950  1.00  0.00    -0.201 NA 
HETATM   10  N   UNL     1     -11.768  13.224  69.667  1.00  0.00    -0.306 NA 
HETATM   11  C   UNL     1     -11.725  11.938  70.067  1.00  0.00    -0.286 A  
HETATM   12  C   UNL     1     -10.588  11.300  69.548  1.00  0.00    -0.083 A  
HETATM   13  C   UNL     1     -10.158   9.890  69.645  1.00  0.00    -0.254 C  
HETATM   14  C   UNL     1      -9.929  12.223  68.762  1.00  0.00    -0.034 A  
HETATM   15  C   UNL     1      -8.698   9.820  69.206  1.00  0.00    -0.164 C  
HETATM   16  O   UNL     1      -8.441  12.646  66.988  1.00  0.00    -0.182 OA 
HETATM   17  N   UNL     1      -8.486  10.485  67.906  1.00  0.00    -0.118 N  
HETATM   18  C   UNL     1      -8.874  11.859  67.823  1.00  0.00    -0.166 C  
BRANCH  11  19
HETATM   19  C   UNL     1     -12.757  11.278  70.888  1.00  0.00    -0.318 C  
HETATM   20  H1  UNL     1     -13.945   9.636  70.989  1.00  0.00     0.000 HD 
HETATM   21  N   UNL     1     -13.231  10.091  70.421  1.00  0.00    -0.577 N  
HETATM   22  H2  UNL     1     -12.891   9.680  69.551  1.00  0.00     0.000 HD 
HETATM   23  O   UNL     1     -13.176  11.742  71.948  1.00  0.00    -0.482 OA 
ENDBRANCH  11  19
BRANCH  17  24
HETATM   24  C   UNL     1      -8.004   9.732  66.771  1.00  0.00    -0.105 A  
HETATM   25  C   UNL     1      -8.832   9.372  65.703  1.00  0.00    -0.208 A  
HETATM   26  C   UNL     1      -8.390   8.521  64.672  1.00  0.00    -0.156 A  
HETATM   27  C   UNL     1      -7.101   7.978  64.665  1.00  0.00    -0.076 A  
HETATM   28  C   UNL     1      -6.251   8.386  65.690  1.00  0.00    -0.048 A  
HETATM   29  C   UNL     1      -6.692   9.241  66.714  1.00  0.00    -0.076 A  
BRANCH  27  30
HETATM   30  N   UNL     1      -6.729   6.967  63.719  1.00  0.00    -0.043 N  
HETATM   31  C   UNL     1      -5.343   6.524  63.597  1.00  0.00    -0.026 C  
HETATM   32  C   UNL     1      -5.236   5.008  63.662  1.00  0.00    -0.009 C  
HETATM   33  C   UNL     1      -6.091   4.402  62.566  1.00  0.00    -0.017 C  
HETATM   34  C   UNL     1      -7.522   4.893  62.673  1.00  0.00    -0.044 C  
HETATM   35  C   UNL     1      -7.668   6.396  62.853  1.00  0.00    -0.090 C  
HETATM   36  O   UNL     1      -8.644   6.978  62.380  1.00  0.00     0.013 OA 
ENDBRANCH  27  30
ENDBRANCH  17  24
ENDBRANCH   6   9
ENDBRANCH   2   3
TORSDOF 5
ENDMDL
MODEL       45
REMARK 921   NORMALIZED FREE ENERGY PREDICTED BY IDOCK:   -4.13 KCAL/MOL
REMARK 922        TOTAL FREE ENERGY PREDICTED BY IDOCK:   -6.71 KCAL/MOL
REMARK 923 INTER-LIGAND FREE ENERGY PREDICTED BY IDOCK:   -6.16 KCAL/MOL
REMARK 924 INTRA-LIGAND FREE ENERGY PREDICTED BY IDOCK:   -0.56 KCAL/MOL
REMARK 927      BINDING AFFINITY PREDICTED BY RF-SCORE:    0.00 PKD
ROOT
HETATM    1  C   UNL     1     -10.298   4.959  74.486  1.00  0.00    -0.285 C  
HETATM    2  O   UNL     1      -9.252   4.077  74.090  1.00  0.00    -0.099 OA 
ENDROOT
BRANCH   2   3
HETATM    3  C   UNL     1      -9.015   4.024  72.743  1.00  0.00    -0.105 A  
HETATM    4  C   UNL     1      -7.678   4.105  72.357  1.00  0.00    -0.081 A  
HETATM    5  C   UNL     1      -7.322   4.079  71.001  1.00  0.00    -0.040 A  
HETATM    6  C   UNL     1      -8.306   3.961  70.011  1.00  0.00    -0.056 A  
HETATM    7  C   UNL     1      -9.642   3.799  70.409  1.00  0.00    -0.262 A  
HETATM    8  C   UNL     1      -9.994   3.844  71.767  1.00  0.00    -0.234 A  
BRANCH   6   9
HETATM    9  N   UNL     1      -7.980   3.974  68.618  1.00  0.00    -0.071 NA 
HETATM   10  N   UNL     1      -7.797   2.775  67.952  1.00  0.00    -0.059 NA 
HETATM   11  C   UNL     1      -7.335   3.112  66.732  1.00  0.00    -0.074 A  
HETATM   12  C   UNL     1      -7.298   4.507  66.590  1.00  0.00    -0.081 A  
HETATM   13  C   UNL     1      -6.943   5.337  65.420  1.00  0.00    -0.065 C  
HETATM   14  C   UNL     1      -7.798   5.048  67.757  1.00  0.00    -0.091 A  
HETATM   15  C   UNL     1      -6.735   6.766  65.913  1.00  0.00    -0.052 C  
HETATM   16  O   UNL     1      -8.822   6.866  68.845  1.00  0.00    -0.130 OA 
HETATM   17  N   UNL     1      -7.870   7.233  66.731  1.00  0.00    -0.111 N  
HETATM   18  C   UNL     1      -8.193   6.446  67.880  1.00  0.00    -0.115 C  
BRANCH  11  19
HETATM   19  C   UNL     1      -6.974   2.149  65.675  1.00  0.00    -0.047 C  
HETATM   20  H1  UNL     1      -7.745   1.027  64.170  1.00  0.00     0.000 HD 
HETATM   21  N   UNL     1      -7.995   1.693  64.901  1.00  0.00    -0.068 N  
HETATM   22  H2  UNL     1      -8.958   1.999  65.043  1.00  0.00     0.000 HD 
HETATM   23  O   UNL     1      -5.820   1.772  65.471  1.00  0.00    -0.016 OA 
ENDBRANCH  11  19
BRANCH  17  24
HETATM   24  C   UNL     1      -8.655   8.370  66.308  1.00  0.00    -0.135 A  
HETATM   25  C   UNL     1      -8.720   8.784  64.974  1.00  0.00    -0.183 A  
HETATM   26  C   UNL     1      -9.374   9.971  64.593  1.00  0.00    -0.338 A  
HETATM   27  C   UNL     1      -9.982  10.812  65.531  1.00  0.00    -0.263 A  
HETATM   28  C   UNL     1      -9.979  10.372  66.852  1.00  0.00    -0.254 A  
HETATM   29  C   UNL     1      -9.333   9.182  67.229  1.00  0.00    -0.166 A  
BRANCH  27  30
HETATM   30  N   UNL     1     -10.473  12.105  65.156  1.00  0.00    -0.272 N  
HETATM   31  C   UNL     1     -10.828  12.404  63.772  1.00  0.00    -0.454 C  
HETATM   32  C   UNL     1     -12.217  13.016  63.674  1.00  0.00    -0.568 C  
HETATM   33  C   UNL     1     -12.268  14.272  64.523  1.00  0.00    -0.476 C  
HETATM   34  C   UNL     1     -11.863  13.965  65.953  1.00  0.00    -0.399 C  
HETATM   35  C   UNL     1     -10.594  13.140  66.092  1.00  0.00    -0.279 C  
HETATM   36  O   UNL     1      -9.854  13.311  67.060  1.00  0.00    -0.231 OA 
ENDBRANCH  27  30
ENDBRANCH  17  24
ENDBRANCH   6   9
ENDBRANCH   2   3
TORSDOF 5
ENDMDL
MODEL       46
REMARK 921   NORMALIZED FREE ENERGY PREDICTED BY IDOCK:   -3.98 KCAL/MOL
REMARK 922        TOTAL FREE ENERGY PREDICTED BY IDOCK:   -6.52 KCAL/MOL
REMARK 923 INTER-LIGAND FREE ENERGY PREDICTED BY IDOCK:   -5.10 KCAL/MOL
REMARK 924 INTRA-LIGAND FREE ENERGY PREDICTED BY IDOCK:   -1.42 KCAL/MOL
REMARK 927      BINDING AFFINITY PREDICTED BY RF-SCORE:    0.00 PKD
ROOT
HETATM    1  C   UNL     1      -5.731   4.419  73.960  1.00  0.00    -0.012 C  
HETATM    2  O   UNL     1      -6.732   3.493  73.548  1.00  0.00    -0.032 OA 
ENDROOT
BRANCH   2   3
HETATM    3  C   UNL     1      -7.150   3.628  72.251  1.00  0.00    -0.046 A  
HETATM    4  C   UNL     1      -6.144   3.640  71.286  1.00  0.00    -0.014 A  
HETATM    5  C   UNL     1      -6.457   3.792  69.928  1.00  0.00    -0.033 A  
HETATM    6  C   UNL     1      -7.790   3.925  69.517  1.00  0.00    -0.052 A  
HETATM    7  C   UNL     1      -8.802   3.832  70.485  1.00  0.00    -0.140 A  
HETATM    8  C   UNL     1      -8.482   3.698  71.845  1.00  0.00    -0.097 A  
BRANCH   6   9
HETATM    9  N   UNL     1      -8.140   4.124  68.145  1.00  0.00    -0.085 NA 
HETATM   10  N   UNL     1      -8.537   3.041  67.381  1.00  0.00    -0.097 NA 
HETATM   11  C   UNL     1      -8.623   3.506  66.120  1.00  0.00    -0.117 A  
HETATM   12  C   UNL     1      -8.362   4.884  66.087  1.00  0.00    -0.112 A  
HETATM   13  C   UNL     1      -8.414   5.837  64.959  1.00  0.00    -0.124 C  
HETATM   14  C   UNL     1      -8.149   5.288  67.389  1.00  0.00    -0.100 A  
HETATM   15  C   UNL     1      -7.709   7.117  65.402  1.00  0.00    -0.111 C  
HETATM   16  O   UNL     1      -8.158   7.028  68.974  1.00  0.00    -0.118 OA 
HETATM   17  N   UNL     1      -8.221   7.602  66.698  1.00  0.00    -0.121 N  
HETATM   18  C   UNL     1      -8.141   6.689  67.795  1.00  0.00    -0.116 C  
BRANCH  11  19
HETATM   19  C   UNL     1      -8.994   2.693  64.948  1.00  0.00    -0.126 C  
HETATM   20  H1  UNL     1     -10.577   2.064  63.844  1.00  0.00     0.000 HD 
HETATM   21  N   UNL     1     -10.321   2.627  64.655  1.00  0.00    -0.308 N  
HETATM   22  H2  UNL     1     -11.021   3.113  65.216  1.00  0.00     0.000 HD 
HETATM   23  O   UNL     1      -8.171   2.106  64.244  1.00  0.00    -0.080 OA 
ENDBRANCH  11  19
BRANCH  17  24
HETATM   24  C   UNL     1      -8.853   8.897  66.794  1.00  0.00    -0.124 A  
HETATM   25  C   UNL     1      -8.173  10.034  67.241  1.00  0.00    -0.117 A  
HETATM   26  C   UNL     1      -8.833  11.258  67.463  1.00  0.00    -0.140 A  
HETATM   27  C   UNL     1     -10.210  11.401  67.262  1.00  0.00    -0.199 A  
HETATM   28  C   UNL     1     -10.880  10.292  66.753  1.00  0.00    -0.157 A  
HETATM   29  C   UNL     1     -10.218   9.073  66.525  1.00  0.00    -0.318 A  
BRANCH  27  30
HETATM   30  N   UNL     1     -10.899  12.589  67.672  1.00  0.00    -0.219 N  
HETATM   31  C   UNL     1     -11.911  12.547  68.724  1.00  0.00    -0.303 C  
HETATM   32  C   UNL     1     -11.650  13.601  69.789  1.00  0.00    -0.322 C  
HETATM   33  C   UNL     1     -11.612  14.970  69.137  1.00  0.00    -0.333 C  
HETATM   34  C   UNL     1     -10.585  14.998  68.020  1.00  0.00    -0.250 C  
HETATM   35  C   UNL     1     -10.656  13.823  67.058  1.00  0.00    -0.278 C  
HETATM   36  O   UNL     1     -10.359  13.981  65.874  1.00  0.00    -0.298 OA 
ENDBRANCH  27  30
ENDBRANCH  17  24
ENDBRANCH   6   9
ENDBRANCH   2   3
TORSDOF 5
ENDMDL
MODEL       47
REMARK 921   NORMALIZED FREE ENERGY PREDICTED BY IDOCK:   -3.76 KCAL/MOL
REMARK 922        TOTAL FREE ENERGY PREDICTED BY IDOCK:   -6.24 KCAL/MOL
REMARK 923 INTER-LIGAND FREE ENERGY PREDICTED BY IDOCK:   -5.20 KCAL/MOL
REMARK 924 INTRA-LIGAND FREE ENERGY PREDICTED BY IDOCK:   -1.04 KCAL/MOL
REMARK 927      BINDING AFFINITY PREDICTED BY RF-SCORE:    0.00 PKD
ROOT
HETATM    1  C   UNL     1     -12.070   8.088  72.459  1.00  0.00    -0.284 C  
HETATM    2  O   UNL     1     -12.328   9.486  72.560  1.00  0.00    -0.162 OA 
ENDROOT
BRANCH   2   3
HETATM    3  C   UNL     1     -12.210  10.185  71.390  1.00  0.00    -0.397 A  
HETATM    4  C   UNL     1     -11.571   9.519  70.345  1.00  0.00    -0.268 A  
HETATM    5  C   UNL     1     -11.378  10.148  69.108  1.00  0.00    -0.198 A  
HETATM    6  C   UNL     1     -11.836  11.456  68.896  1.00  0.00    -0.347 A  
HETATM    7  C   UNL     1     -12.548  12.090  69.925  1.00  0.00     0.127 A  
HETATM    8  C   UNL     1     -12.721  11.463  71.169  1.00  0.00    -0.479 A  
BRANCH   6   9
HETATM    9  N   UNL     1     -11.617  12.140  67.660  1.00  0.00    -0.383 NA 
HETATM   10  N   UNL     1     -12.593  12.099  66.680  1.00  0.00     0.552 NA 
HETATM   11  C   UNL     1     -12.034  12.670  65.595  1.00  0.00    -0.452 A  
HETATM   12  C   UNL     1     -10.748  13.141  65.898  1.00  0.00    -0.287 A  
HETATM   13  C   UNL     1      -9.789  13.898  65.065  1.00  0.00    -0.081 C  
HETATM   14  C   UNL     1     -10.526  12.886  67.235  1.00  0.00    -0.234 A  
HETATM   15  C   UNL     1      -8.431  13.845  65.760  1.00  0.00     1.870 C  
HETATM   16  O   UNL     1      -9.365  13.420  69.212  1.00  0.00     0.437 OA 
HETATM   17  N   UNL     1      -8.527  14.241  67.178  1.00  0.00    -0.210 N  
HETATM   18  C   UNL     1      -9.432  13.488  67.989  1.00  0.00    -0.220 C  
BRANCH  11  19
HETATM   19  C   UNL     1     -12.701  12.827  64.290  1.00  0.00    -0.253 C  
HETATM   20  H1  UNL     1     -13.066  14.161  62.805  1.00  0.00     0.000 HD 
HETATM   21  N   UNL     1     -12.605  14.053  63.708  1.00  0.00    -0.880 N  
HETATM   22  H2  UNL     1     -12.099  14.821  64.149  1.00  0.00     0.000 HD 
HETATM   23  O   UNL     1     -13.307  11.916  63.726  1.00  0.00    -0.614 OA 
ENDBRANCH  11  19
BRANCH  17  24
HETATM   24  C   UNL     1      -7.808  15.396  67.663  1.00  0.00    -0.157 A  
HETATM   25  C   UNL     1      -6.411  15.444  67.716  1.00  0.00    -0.183 A  
HETATM   26  C   UNL     1      -5.724  16.515  68.317  1.00  0.00    -0.118 A  
HETATM   27  C   UNL     1      -6.402  17.587  68.909  1.00  0.00    -0.211 A  
HETATM   28  C   UNL     1      -7.790  17.578  68.801  1.00  0.00    -0.242 A  
HETATM   29  C   UNL     1      -8.473  16.511  68.193  1.00  0.00    -0.191 A  
BRANCH  27  30
HETATM   30  N   UNL     1      -5.701  18.569  69.683  1.00  0.00    -0.231 N  
HETATM   31  C   UNL     1      -5.145  19.765  69.056  1.00  0.00    -0.177 C  
HETATM   32  C   UNL     1      -5.569  21.026  69.791  1.00  0.00    -0.178 C  
HETATM   33  C   UNL     1      -5.133  20.929  71.240  1.00  0.00    -0.136 C  
HETATM   34  C   UNL     1      -5.682  19.667  71.878  1.00  0.00    -0.250 C  
HETATM   35  C   UNL     1      -5.489  18.402  71.057  1.00  0.00    -0.157 C  
HETATM   36  O   UNL     1      -5.321  17.323  71.623  1.00  0.00    -0.204 OA 
ENDBRANCH  27  30
ENDBRANCH  17  24
ENDBRANCH   6   9
ENDBRANCH   2   3
TORSDOF 5
ENDMDL
MODEL       48
REMARK 921   NORMALIZED FREE ENERGY PREDICTED BY IDOCK:   -3.70 KCAL/MOL
REMARK 922        TOTAL FREE ENERGY PREDICTED BY IDOCK:   -6.15 KCAL/MOL
REMARK 923 INTER-LIGAND FREE ENERGY PREDICTED BY IDOCK:   -4.86 KCAL/MOL
REMARK 924 INTRA-LIGAND FREE ENERGY PREDICTED BY IDOCK:   -1.29 KCAL/MOL
REMARK 927      BINDING AFFINITY PREDICTED BY RF-SCORE:    0.00 PKD
ROOT
HETATM    1  C   UNL     1     -11.455  15.942  66.476  1.00  0.00     0.347 C  
HETATM    2  O   UNL     1     -10.785  15.743  67.718  1.00  0.00    -0.291 OA 
ENDROOT
BRANCH   2   3
HETATM    3  C   UNL     1     -10.941  14.499  68.269  1.00  0.00    -0.247 A  
HETATM    4  C   UNL     1     -11.719  13.603  67.537  1.00  0.00    -0.406 A  
HETATM    5  C   UNL     1     -11.959  12.308  68.017  1.00  0.00    -0.251 A  
HETATM    6  C   UNL     1     -11.411  11.889  69.237  1.00  0.00    -0.306 A  
HETATM    7  C   UNL     1     -10.565  12.769  69.928  1.00  0.00     1.032 A  
HETATM    8  C   UNL     1     -10.343  14.071  69.452  1.00  0.00     0.113 A  
BRANCH   6   9
HETATM    9  N   UNL     1     -11.673  10.590  69.773  1.00  0.00    -0.278 NA 
HETATM   10  N   UNL     1     -12.777  10.401  70.586  1.00  0.00    -0.345 NA 
HETATM   11  C   UNL     1     -12.655   9.148  71.067  1.00  0.00    -0.155 A  
HETATM   12  C   UNL     1     -11.534   8.516  70.510  1.00  0.00    -0.198 A  
HETATM   13  C   UNL     1     -11.042   7.131  70.670  1.00  0.00    -0.294 C  
HETATM   14  C   UNL     1     -10.969   9.403  69.618  1.00  0.00    -0.197 A  
HETATM   15  C   UNL     1      -9.615   7.082  70.131  1.00  0.00    -0.164 C  
HETATM   16  O   UNL     1      -9.628   9.752  67.715  1.00  0.00    -0.134 OA 
HETATM   17  N   UNL     1      -9.522   7.661  68.777  1.00  0.00    -0.151 N  
HETATM   18  C   UNL     1      -9.969   9.011  68.631  1.00  0.00    -0.172 C  
BRANCH  11  19
HETATM   19  C   UNL     1     -13.600   8.512  72.004  1.00  0.00    -0.392 C  
HETATM   20  H1  UNL     1     -14.532   8.765  73.788  1.00  0.00     0.000 HD 
HETATM   21  N   UNL     1     -13.879   9.205  73.141  1.00  0.00    -0.781 N  
HETATM   22  H2  UNL     1     -13.459  10.114  73.334  1.00  0.00     0.000 HD 
HETATM   23  O   UNL     1     -14.133   7.423  71.792  1.00  0.00    -0.395 OA 
ENDBRANCH  11  19
BRANCH  17  24
HETATM   24  C   UNL     1      -9.093   6.847  67.664  1.00  0.00    -0.118 A  
HETATM   25  C   UNL     1      -9.920   5.887  67.072  1.00  0.00    -0.195 A  
HETATM   26  C   UNL     1      -9.447   5.006  66.081  1.00  0.00    -0.166 A  
HETATM   27  C   UNL     1      -8.119   5.031  65.643  1.00  0.00    -0.113 A  
HETATM   28  C   UNL     1      -7.309   6.028  66.180  1.00  0.00    -0.081 A  
HETATM   29  C   UNL     1      -7.785   6.912  67.163  1.00  0.00    -0.108 A  
BRANCH  27  30
HETATM   30  N   UNL     1      -7.605   4.008  64.781  1.00  0.00    -0.076 N  
HETATM   31  C   UNL     1      -6.987   2.803  65.326  1.00  0.00    -0.052 C  
HETATM   32  C   UNL     1      -7.582   1.546  64.711  1.00  0.00    -0.059 C  
HETATM   33  C   UNL     1      -7.412   1.600  63.205  1.00  0.00    -0.049 C  
HETATM   34  C   UNL     1      -8.023   2.871  62.646  1.00  0.00    -0.068 C  
HETATM   35  C   UNL     1      -7.640   4.142  63.387  1.00  0.00    -0.062 C  
HETATM   36  O   UNL     1      -7.539   5.204  62.773  1.00  0.00    -0.053 OA 
ENDBRANCH  27  30
ENDBRANCH  17  24
ENDBRANCH   6   9
ENDBRANCH   2   3
TORSDOF 5
ENDMDL
MODEL       49
REMARK 921   NORMALIZED FREE ENERGY PREDICTED BY IDOCK:   -3.47 KCAL/MOL
REMARK 922        TOTAL FREE ENERGY PREDICTED BY IDOCK:   -5.86 KCAL/MOL
REMARK 923 INTER-LIGAND FREE ENERGY PREDICTED BY IDOCK:   -5.05 KCAL/MOL
REMARK 924 INTRA-LIGAND FREE ENERGY PREDICTED BY IDOCK:   -0.81 KCAL/MOL
REMARK 927      BINDING AFFINITY PREDICTED BY RF-SCORE:    0.00 PKD
ROOT
HETATM    1  C   UNL     1     -13.160  12.099  63.719  1.00  0.00    -0.069 C  
HETATM    2  O   UNL     1     -13.278  12.901  64.891  1.00  0.00    -0.782 OA 
ENDROOT
BRANCH   2   3
HETATM    3  C   UNL     1     -12.109  13.114  65.570  1.00  0.00    -0.442 A  
HETATM    4  C   UNL     1     -12.240  13.625  66.861  1.00  0.00    -0.398 A  
HETATM    5  C   UNL     1     -11.108  13.899  67.640  1.00  0.00    -0.295 A  
HETATM    6  C   UNL     1      -9.823  13.654  67.136  1.00  0.00    -0.242 A  
HETATM    7  C   UNL     1      -9.701  13.066  65.868  1.00  0.00    -0.187 A  
HETATM    8  C   UNL     1     -10.838  12.811  65.085  1.00  0.00    -0.318 A  
BRANCH   6   9
HETATM    9  N   UNL     1      -8.647  13.963  67.889  1.00  0.00    -0.168 NA 
HETATM   10  N   UNL     1      -8.380  15.280  68.221  1.00  0.00    -0.144 NA 
HETATM   11  C   UNL     1      -7.145  15.268  68.759  1.00  0.00    -0.117 A  
HETATM   12  C   UNL     1      -6.660  13.955  68.845  1.00  0.00    -0.103 A  
HETATM   13  C   UNL     1      -5.403  13.439  69.427  1.00  0.00    -0.076 C  
HETATM   14  C   UNL     1      -7.656  13.123  68.378  1.00  0.00    -0.133 A  
HETATM   15  C   UNL     1      -5.225  12.002  68.943  1.00  0.00    -0.050 C  
HETATM   16  O   UNL     1      -8.625  10.978  68.348  1.00  0.00    -0.135 OA 
HETATM   17  N   UNL     1      -6.438  11.194  69.172  1.00  0.00    -0.065 N  
HETATM   18  C   UNL     1      -7.646  11.679  68.582  1.00  0.00    -0.133 C  
BRANCH  11  19
HETATM   19  C   UNL     1      -6.428  16.463  69.243  1.00  0.00    -0.197 C  
HETATM   20  H1  UNL     1      -6.186  18.451  68.919  1.00  0.00     0.000 HD 
HETATM   21  N   UNL     1      -6.682  17.625  68.584  1.00  0.00    -0.208 N  
HETATM   22  H2  UNL     1      -7.333  17.669  67.800  1.00  0.00     0.000 HD 
HETATM   23  O   UNL     1      -5.648  16.444  70.195  1.00  0.00    -0.176 OA 
ENDBRANCH  11  19
BRANCH  17  24
HETATM   24  C   UNL     1      -6.391  10.037  70.035  1.00  0.00    -0.079 A  
HETATM   25  C   UNL     1      -5.346   9.108  69.990  1.00  0.00    -0.028 A  
HETATM   26  C   UNL     1      -5.378   7.913  70.735  1.00  0.00    -0.026 A  
HETATM   27  C   UNL     1      -6.464   7.582  71.552  1.00  0.00    -0.039 A  
HETATM   28  C   UNL     1      -7.476   8.533  71.653  1.00  0.00    -0.128 A  
HETATM   29  C   UNL     1      -7.438   9.728  70.914  1.00  0.00     0.159 A  
BRANCH  27  30
HETATM   30  N   UNL     1      -6.571   6.284  72.150  1.00  0.00    -0.058 N  
HETATM   31  C   UNL     1      -6.147   6.053  73.528  1.00  0.00    -0.062 C  
HETATM   32  C   UNL     1      -7.229   5.350  74.333  1.00  0.00    -0.082 C  
HETATM   33  C   UNL     1      -7.583   4.041  73.655  1.00  0.00    -0.076 C  
HETATM   34  C   UNL     1      -7.988   4.281  72.212  1.00  0.00    -0.091 C  
HETATM   35  C   UNL     1      -7.049   5.184  71.428  1.00  0.00    -0.061 C  
HETATM   36  O   UNL     1      -6.889   5.002  70.222  1.00  0.00    -0.041 OA 
ENDBRANCH  27  30
ENDBRANCH  17  24
ENDBRANCH   6   9
ENDBRANCH   2   3
TORSDOF 5
ENDMDL
MODEL       50
REMARK 921   NORMALIZED FREE ENERGY PREDICTED BY IDOCK:   -3.44 KCAL/MOL
REMARK 922        TOTAL FREE ENERGY PREDICTED BY IDOCK:   -5.82 KCAL/MOL
REMARK 923 INTER-LIGAND FREE ENERGY PREDICTED BY IDOCK:   -5.64 KCAL/MOL
REMARK 924 INTRA-LIGAND FREE ENERGY PREDICTED BY IDOCK:   -0.18 KCAL/MOL
REMARK 927      BINDING AFFINITY PREDICTED BY RF-SCORE:    0.00 PKD
ROOT
HETATM    1  C   UNL     1     -14.093   8.340  71.918  1.00  0.00    -0.424 C  
HETATM    2  O   UNL     1     -13.253   7.192  71.839  1.00  0.00    -0.309 OA 
ENDROOT
BRANCH   2   3
HETATM    3  C   UNL     1     -12.161   7.325  71.024  1.00  0.00    -0.313 A  
HETATM    4  C   UNL     1     -11.210   8.260  71.430  1.00  0.00    -0.304 A  
HETATM    5  C   UNL     1     -10.061   8.492  70.660  1.00  0.00    -0.225 A  
HETATM    6  C   UNL     1      -9.845   7.778  69.474  1.00  0.00    -0.179 A  
HETATM    7  C   UNL     1     -10.766   6.783  69.114  1.00  0.00    -0.287 A  
HETATM    8  C   UNL     1     -11.924   6.568  69.878  1.00  0.00    -0.046 A  
BRANCH   6   9
HETATM    9  N   UNL     1      -8.705   8.022  68.645  1.00  0.00    -0.131 NA 
HETATM   10  N   UNL     1      -8.337   7.077  67.703  1.00  0.00    -0.116 NA 
HETATM   11  C   UNL     1      -7.154   7.501  67.218  1.00  0.00    -0.085 A  
HETATM   12  C   UNL     1      -6.807   8.737  67.782  1.00  0.00    -0.070 A  
HETATM   13  C   UNL     1      -5.655   9.621  67.506  1.00  0.00    -0.036 C  
HETATM   14  C   UNL     1      -7.841   9.108  68.616  1.00  0.00    -0.097 A  
HETATM   15  C   UNL     1      -5.581  10.650  68.632  1.00  0.00    -0.040 C  
HETATM   16  O   UNL     1      -9.010  10.829  69.716  1.00  0.00     0.134 OA 
HETATM   17  N   UNL     1      -6.881  11.312  68.853  1.00  0.00    -0.078 N  
HETATM   18  C   UNL     1      -7.988  10.457  69.150  1.00  0.00    -0.141 C  
BRANCH  11  19
HETATM   19  C   UNL     1      -6.362   6.791  66.197  1.00  0.00    -0.049 C  
HETATM   20  H1  UNL     1      -6.513   5.749  64.461  1.00  0.00     0.000 HD 
HETATM   21  N   UNL     1      -7.061   6.240  65.168  1.00  0.00    -0.059 N  
HETATM   22  H2  UNL     1      -8.077   6.314  65.106  1.00  0.00     0.000 HD 
HETATM   23  O   UNL     1      -5.135   6.697  66.237  1.00  0.00    -0.015 OA 
ENDBRANCH  11  19
BRANCH  17  24
HETATM   24  C   UNL     1      -7.013  12.739  68.671  1.00  0.00    -0.101 A  
HETATM   25  C   UNL     1      -6.474  13.664  69.570  1.00  0.00    -0.099 A  
HETATM   26  C   UNL     1      -6.726  15.045  69.460  1.00  0.00    -0.167 A  
HETATM   27  C   UNL     1      -7.542  15.567  68.451  1.00  0.00    -0.116 A  
HETATM   28  C   UNL     1      -8.027  14.659  67.514  1.00  0.00    -0.208 A  
HETATM   29  C   UNL     1      -7.768  13.282  67.622  1.00  0.00    -0.171 A  
BRANCH  27  30
HETATM   30  N   UNL     1      -7.945  16.943  68.464  1.00  0.00    -0.232 N  
HETATM   31  C   UNL     1      -6.965  18.013  68.628  1.00  0.00    -0.260 C  
HETATM   32  C   UNL     1      -7.116  19.076  67.551  1.00  0.00    -0.226 C  
HETATM   33  C   UNL     1      -8.527  19.631  67.594  1.00  0.00    -0.358 C  
HETATM   34  C   UNL     1      -9.543  18.512  67.460  1.00  0.00    -0.303 C  
HETATM   35  C   UNL     1      -9.291  17.311  68.358  1.00  0.00    -0.275 C  
HETATM   36  O   UNL     1     -10.241  16.663  68.796  1.00  0.00    -0.252 OA 
ENDBRANCH  27  30
ENDBRANCH  17  24
ENDBRANCH   6   9
ENDBRANCH   2   3
TORSDOF 5
ENDMDL
MODEL       51
REMARK 921   NORMALIZED FREE ENERGY PREDICTED BY IDOCK:   -3.39 KCAL/MOL
REMARK 922        TOTAL FREE ENERGY PREDICTED BY IDOCK:   -5.76 KCAL/MOL
REMARK 923 INTER-LIGAND FREE ENERGY PREDICTED BY IDOCK:   -5.56 KCAL/MOL
REMARK 924 INTRA-LIGAND FREE ENERGY PREDICTED BY IDOCK:   -0.20 KCAL/MOL
REMARK 927      BINDING AFFINITY PREDICTED BY RF-SCORE:    0.00 PKD
ROOT
HETATM    1  C   UNL     1      -5.965  21.033  68.166  1.00  0.00    -0.346 C  
HETATM    2  O   UNL     1      -5.574  19.804  68.772  1.00  0.00    -0.203 OA 
ENDROOT
BRANCH   2   3
HETATM    3  C   UNL     1      -6.566  18.868  68.879  1.00  0.00    -0.276 A  
HETATM    4  C   UNL     1      -6.187  17.639  69.419  1.00  0.00    -0.249 A  
HETATM    5  C   UNL     1      -7.118  16.601  69.557  1.00  0.00    -0.063 A  
HETATM    6  C   UNL     1      -8.451  16.785  69.164  1.00  0.00    -0.084 A  
HETATM    7  C   UNL     1      -8.843  18.048  68.697  1.00  0.00    -0.272 A  
HETATM    8  C   UNL     1      -7.902  19.078  68.543  1.00  0.00    -0.375 A  
BRANCH   6   9
HETATM    9  N   UNL     1      -9.415  15.732  69.253  1.00  0.00    -0.255 NA 
HETATM   10  N   UNL     1     -10.683  16.012  69.730  1.00  0.00    -0.305 NA 
HETATM   11  C   UNL     1     -11.287  14.814  69.860  1.00  0.00    -0.271 A  
HETATM   12  C   UNL     1     -10.448  13.789  69.399  1.00  0.00     0.140 A  
HETATM   13  C   UNL     1     -10.697  12.338  69.269  1.00  0.00    -0.011 C  
HETATM   14  C   UNL     1      -9.298  14.388  68.927  1.00  0.00    -0.096 A  
HETATM   15  C   UNL     1      -9.350  11.655  69.050  1.00  0.00     0.159 C  
HETATM   16  O   UNL     1      -7.413  14.278  67.521  1.00  0.00    -0.167 OA 
HETATM   17  N   UNL     1      -8.585  12.291  67.961  1.00  0.00    -0.168 N  
HETATM   18  C   UNL     1      -8.318  13.689  68.103  1.00  0.00    -0.166 C  
BRANCH  11  19
HETATM   19  C   UNL     1     -12.658  14.615  70.364  1.00  0.00    -0.343 C  
HETATM   20  H1  UNL     1     -14.452  15.536  70.594  1.00  0.00     0.000 HD 
HETATM   21  N   UNL     1     -13.503  15.674  70.245  1.00  0.00    -0.608 N  
HETATM   22  H2  UNL     1     -13.206  16.557  69.831  1.00  0.00     0.000 HD 
HETATM   23  O   UNL     1     -13.051  13.557  70.856  1.00  0.00    -0.200 OA 
ENDBRANCH  11  19
BRANCH  17  24
HETATM   24  C   UNL     1      -8.229  11.536  66.782  1.00  0.00    -0.164 A  
HETATM   25  C   UNL     1      -9.156  11.223  65.783  1.00  0.00    -0.216 A  
HETATM   26  C   UNL     1      -8.834  10.371  64.709  1.00  0.00    -0.211 A  
HETATM   27  C   UNL     1      -7.573   9.778  64.589  1.00  0.00    -0.134 A  
HETATM   28  C   UNL     1      -6.626  10.140  65.544  1.00  0.00    -0.118 A  
HETATM   29  C   UNL     1      -6.947  10.997  66.610  1.00  0.00    -0.140 A  
BRANCH  27  30
HETATM   30  N   UNL     1      -7.320   8.768  63.604  1.00  0.00    -0.100 N  
HETATM   31  C   UNL     1      -5.982   8.213  63.422  1.00  0.00    -0.071 C  
HETATM   32  C   UNL     1      -6.003   6.693  63.443  1.00  0.00    -0.034 C  
HETATM   33  C   UNL     1      -6.943   6.192  62.362  1.00  0.00    -0.041 C  
HETATM   34  C   UNL     1      -8.322   6.800  62.534  1.00  0.00     0.044 C  
HETATM   35  C   UNL     1      -8.333   8.304  62.757  1.00  0.00    -0.111 C  
HETATM   36  O   UNL     1      -9.271   8.980  62.335  1.00  0.00    -0.100 OA 
ENDBRANCH  27  30
ENDBRANCH  17  24
ENDBRANCH   6   9
ENDBRANCH   2   3
TORSDOF 5
ENDMDL
MODEL       52
REMARK 921   NORMALIZED FREE ENERGY PREDICTED BY IDOCK:   -3.32 KCAL/MOL
REMARK 922        TOTAL FREE ENERGY PREDICTED BY IDOCK:   -5.67 KCAL/MOL
REMARK 923 INTER-LIGAND FREE ENERGY PREDICTED BY IDOCK:   -4.91 KCAL/MOL
REMARK 924 INTRA-LIGAND FREE ENERGY PREDICTED BY IDOCK:   -0.76 KCAL/MOL
REMARK 927      BINDING AFFINITY PREDICTED BY RF-SCORE:    0.00 PKD
ROOT
HETATM    1  C   UNL     1     -12.727  15.353  64.072  1.00  0.00     0.640 C  
HETATM    2  O   UNL     1     -12.880  14.255  64.967  1.00  0.00    -0.674 OA 
ENDROOT
BRANCH   2   3
HETATM    3  C   UNL     1     -11.855  14.084  65.858  1.00  0.00    -0.383 A  
HETATM    4  C   UNL     1     -10.568  14.193  65.332  1.00  0.00    -0.358 A  
HETATM    5  C   UNL     1      -9.444  14.018  66.151  1.00  0.00    -0.210 A  
HETATM    6  C   UNL     1      -9.596  13.739  67.516  1.00  0.00    -0.219 A  
HETATM    7  C   UNL     1     -10.891  13.709  68.053  1.00  0.00    -0.261 A  
HETATM    8  C   UNL     1     -12.014  13.867  67.225  1.00  0.00    -0.446 A  
BRANCH   6   9
HETATM    9  N   UNL     1      -8.470  13.512  68.368  1.00  0.00    -0.163 NA 
HETATM   10  N   UNL     1      -7.836  14.593  68.956  1.00  0.00    -0.144 NA 
HETATM   11  C   UNL     1      -6.733  14.083  69.540  1.00  0.00    -0.091 A  
HETATM   12  C   UNL     1      -6.703  12.688  69.398  1.00  0.00    -0.022 A  
HETATM   13  C   UNL     1      -5.745  11.697  69.931  1.00  0.00    -0.115 C  
HETATM   14  C   UNL     1      -7.856  12.323  68.735  1.00  0.00     0.006 A  
HETATM   15  C   UNL     1      -5.983  10.382  69.192  1.00  0.00    -0.037 C  
HETATM   16  O   UNL     1      -9.448  10.657  68.254  1.00  0.00    -0.149 OA 
HETATM   17  N   UNL     1      -7.407   9.996  69.206  1.00  0.00    -0.081 N  
HETATM   18  C   UNL     1      -8.328  10.944  68.662  1.00  0.00    -0.148 C  
BRANCH  11  19
HETATM   19  C   UNL     1      -5.729  14.876  70.274  1.00  0.00    -0.138 C  
HETATM   20  H1  UNL     1      -4.517  16.496  70.125  1.00  0.00     0.000 HD 
HETATM   21  N   UNL     1      -5.211  15.949  69.617  1.00  0.00    -0.109 N  
HETATM   22  H2  UNL     1      -5.501  16.192  68.670  1.00  0.00     0.000 HD 
HETATM   23  O   UNL     1      -5.370  14.615  71.422  1.00  0.00    -0.137 OA 
ENDBRANCH  11  19
BRANCH  17  24
HETATM   24  C   UNL     1      -7.823   8.765  69.836  1.00  0.00    -0.093 A  
HETATM   25  C   UNL     1      -6.913   7.778  70.230  1.00  0.00    -0.050 A  
HETATM   26  C   UNL     1      -7.336   6.526  70.714  1.00  0.00    -0.076 A  
HETATM   27  C   UNL     1      -8.691   6.192  70.815  1.00  0.00    -0.136 A  
HETATM   28  C   UNL     1      -9.601   7.194  70.487  1.00  0.00    -0.169 A  
HETATM   29  C   UNL     1      -9.177   8.446  70.011  1.00  0.00    -0.158 A  
BRANCH  27  30
HETATM   30  N   UNL     1      -9.103   4.855  71.124  1.00  0.00    -0.137 N  
HETATM   31  C   UNL     1      -9.724   4.005  70.112  1.00  0.00    -0.195 C  
HETATM   32  C   UNL     1      -9.043   2.648  70.031  1.00  0.00    -0.187 C  
HETATM   33  C   UNL     1      -9.095   1.983  71.394  1.00  0.00    -0.156 C  
HETATM   34  C   UNL     1      -8.482   2.884  72.449  1.00  0.00    -0.078 C  
HETATM   35  C   UNL     1      -8.962   4.326  72.413  1.00  0.00    -0.111 C  
HETATM   36  O   UNL     1      -9.047   4.971  73.457  1.00  0.00    -0.123 OA 
ENDBRANCH  27  30
ENDBRANCH  17  24
ENDBRANCH   6   9
ENDBRANCH   2   3
TORSDOF 5
ENDMDL
MODEL       53
REMARK 921   NORMALIZED FREE ENERGY PREDICTED BY IDOCK:   -3.12 KCAL/MOL
REMARK 922        TOTAL FREE ENERGY PREDICTED BY IDOCK:   -5.40 KCAL/MOL
REMARK 923 INTER-LIGAND FREE ENERGY PREDICTED BY IDOCK:   -4.27 KCAL/MOL
REMARK 924 INTRA-LIGAND FREE ENERGY PREDICTED BY IDOCK:   -1.13 KCAL/MOL
REMARK 927      BINDING AFFINITY PREDICTED BY RF-SCORE:    0.00 PKD
ROOT
HETATM    1  C   UNL     1     -10.350   4.018  74.565  1.00  0.00    -0.224 C  
HETATM    2  O   UNL     1     -10.797   5.155  73.831  1.00  0.00    -0.289 OA 
ENDROOT
BRANCH   2   3
HETATM    3  C   UNL     1     -10.160   5.364  72.638  1.00  0.00    -0.176 A  
HETATM    4  C   UNL     1     -10.948   5.879  71.610  1.00  0.00    -0.327 A  
HETATM    5  C   UNL     1     -10.403   6.114  70.340  1.00  0.00    -0.269 A  
HETATM    6  C   UNL     1      -9.052   5.845  70.086  1.00  0.00    -0.145 A  
HETATM    7  C   UNL     1      -8.246   5.402  71.146  1.00  0.00    -0.119 A  
HETATM    8  C   UNL     1      -8.802   5.150  72.411  1.00  0.00    -0.131 A  
BRANCH   6   9
HETATM    9  N   UNL     1      -8.476   6.034  68.790  1.00  0.00    -0.112 NA 
HETATM   10  N   UNL     1      -8.796   5.154  67.771  1.00  0.00    -0.106 NA 
HETATM   11  C   UNL     1      -7.979   5.480  66.751  1.00  0.00    -0.101 A  
HETATM   12  C   UNL     1      -7.204   6.601  67.081  1.00  0.00    -0.081 A  
HETATM   13  C   UNL     1      -6.235   7.364  66.267  1.00  0.00    -0.041 C  
HETATM   14  C   UNL     1      -7.592   7.005  68.342  1.00  0.00    -0.111 A  
HETATM   15  C   UNL     1      -5.435   8.255  67.214  1.00  0.00    -0.038 C  
HETATM   16  O   UNL     1      -7.747   8.732  69.933  1.00  0.00    -0.075 OA 
HETATM   17  N   UNL     1      -6.316   9.042  68.098  1.00  0.00    -0.055 N  
HETATM   18  C   UNL     1      -7.232   8.300  68.908  1.00  0.00    -0.078 C  
BRANCH  11  19
HETATM   19  C   UNL     1      -7.945   4.789  65.448  1.00  0.00    -0.099 C  
HETATM   20  H1  UNL     1      -8.814   4.740  63.615  1.00  0.00     0.000 HD 
HETATM   21  N   UNL     1      -8.837   5.218  64.515  1.00  0.00    -0.319 N  
HETATM   22  H2  UNL     1      -9.493   5.976  64.705  1.00  0.00     0.000 HD 
HETATM   23  O   UNL     1      -7.156   3.882  65.184  1.00  0.00    -0.063 OA 
ENDBRANCH  11  19
BRANCH  17  24
HETATM   24  C   UNL     1      -6.298  10.485  68.048  1.00  0.00    -0.058 A  
HETATM   25  C   UNL     1      -6.291  11.277  69.201  1.00  0.00    -0.064 A  
HETATM   26  C   UNL     1      -6.413  12.678  69.144  1.00  0.00    -0.106 A  
HETATM   27  C   UNL     1      -6.564  13.357  67.930  1.00  0.00    -0.149 A  
HETATM   28  C   UNL     1      -6.505  12.581  66.775  1.00  0.00     0.502 A  
HETATM   29  C   UNL     1      -6.375  11.183  66.835  1.00  0.00    -0.114 A  
BRANCH  27  30
HETATM   30  N   UNL     1      -6.880  14.755  67.898  1.00  0.00    -0.144 N  
HETATM   31  C   UNL     1      -5.850  15.765  68.126  1.00  0.00    -0.126 C  
HETATM   32  C   UNL     1      -5.852  16.819  67.030  1.00  0.00    -0.206 C  
HETATM   33  C   UNL     1      -7.225  17.460  66.959  1.00  0.00    -0.214 C  
HETATM   34  C   UNL     1      -8.296  16.404  66.759  1.00  0.00    -0.285 C  
HETATM   35  C   UNL     1      -8.189  15.204  67.685  1.00  0.00    -0.164 C  
HETATM   36  O   UNL     1      -9.208  14.622  68.056  1.00  0.00    -0.187 OA 
ENDBRANCH  27  30
ENDBRANCH  17  24
ENDBRANCH   6   9
ENDBRANCH   2   3
TORSDOF 5
ENDMDL
MODEL       54
REMARK 921   NORMALIZED FREE ENERGY PREDICTED BY IDOCK:   -3.10 KCAL/MOL
REMARK 922        TOTAL FREE ENERGY PREDICTED BY IDOCK:   -5.39 KCAL/MOL
REMARK 923 INTER-LIGAND FREE ENERGY PREDICTED BY IDOCK:   -4.23 KCAL/MOL
REMARK 924 INTRA-LIGAND FREE ENERGY PREDICTED BY IDOCK:   -1.16 KCAL/MOL
REMARK 927      BINDING AFFINITY PREDICTED BY RF-SCORE:    0.00 PKD
ROOT
HETATM    1  C   UNL     1     -12.812  15.373  64.034  1.00  0.00     0.902 C  
HETATM    2  O   UNL     1     -12.824  14.186  64.820  1.00  0.00    -0.677 OA 
ENDROOT
BRANCH   2   3
HETATM    3  C   UNL     1     -11.774  14.053  65.688  1.00  0.00    -0.354 A  
HETATM    4  C   UNL     1     -10.527  14.438  65.197  1.00  0.00    -0.437 A  
HETATM    5  C   UNL     1      -9.379  14.326  65.993  1.00  0.00    -0.143 A  
HETATM    6  C   UNL     1      -9.468  13.834  67.302  1.00  0.00    -0.236 A  
HETATM    7  C   UNL     1     -10.735  13.524  67.817  1.00  0.00    -0.262 A  
HETATM    8  C   UNL     1     -11.879  13.620  67.009  1.00  0.00    -0.448 A  
BRANCH   6   9
HETATM    9  N   UNL     1      -8.309  13.668  68.125  1.00  0.00    -0.158 NA 
HETATM   10  N   UNL     1      -7.891  14.716  68.926  1.00  0.00    -0.145 NA 
HETATM   11  C   UNL     1      -6.704  14.326  69.430  1.00  0.00    -0.130 A  
HETATM   12  C   UNL     1      -6.404  13.018  69.023  1.00  0.00    -0.099 A  
HETATM   13  C   UNL     1      -5.266  12.145  69.381  1.00  0.00    -0.065 C  
HETATM   14  C   UNL     1      -7.472  12.572  68.272  1.00  0.00    -0.122 A  
HETATM   15  C   UNL     1      -5.251  10.978  68.397  1.00  0.00    -0.039 C  
HETATM   16  O   UNL     1      -8.715  10.756  67.438  1.00  0.00    -0.126 OA 
HETATM   17  N   UNL     1      -6.573  10.329  68.299  1.00  0.00    -0.057 N  
HETATM   18  C   UNL     1      -7.667  11.169  67.923  1.00  0.00    -0.105 C  
BRANCH  11  19
HETATM   19  C   UNL     1      -5.865  15.140  70.330  1.00  0.00    -0.147 C  
HETATM   20  H1  UNL     1      -4.592  16.720  70.373  1.00  0.00     0.000 HD 
HETATM   21  N   UNL     1      -5.172  16.157  69.751  1.00  0.00    -0.122 N  
HETATM   22  H2  UNL     1      -5.229  16.348  68.750  1.00  0.00     0.000 HD 
HETATM   23  O   UNL     1      -5.785  14.944  71.542  1.00  0.00    -0.017 OA 
ENDBRANCH  11  19
BRANCH  17  24
HETATM   24  C   UNL     1      -6.734   8.943  68.668  1.00  0.00    -0.059 A  
HETATM   25  C   UNL     1      -7.325   8.002  67.818  1.00  0.00    -0.093 A  
HETATM   26  C   UNL     1      -7.603   6.688  68.240  1.00  0.00    -0.104 A  
HETATM   27  C   UNL     1      -7.316   6.253  69.537  1.00  0.00    -0.084 A  
HETATM   28  C   UNL     1      -6.667   7.163  70.367  1.00  0.00    -0.052 A  
HETATM   29  C   UNL     1      -6.383   8.472  69.942  1.00  0.00    -0.034 A  
BRANCH  27  30
HETATM   30  N   UNL     1      -7.777   4.980  70.010  1.00  0.00    -0.062 N  
HETATM   31  C   UNL     1      -8.702   4.885  71.137  1.00  0.00    -0.126 C  
HETATM   32  C   UNL     1      -9.897   4.007  70.802  1.00  0.00    -0.233 C  
HETATM   33  C   UNL     1      -9.406   2.631  70.395  1.00  0.00    -0.212 C  
HETATM   34  C   UNL     1      -8.418   2.737  69.248  1.00  0.00    -0.099 C  
HETATM   35  C   UNL     1      -7.331   3.783  69.438  1.00  0.00    -0.052 C  
HETATM   36  O   UNL     1      -6.211   3.597  68.963  1.00  0.00    -0.027 OA 
ENDBRANCH  27  30
ENDBRANCH  17  24
ENDBRANCH   6   9
ENDBRANCH   2   3
TORSDOF 5
ENDMDL
MODEL       55
REMARK 921   NORMALIZED FREE ENERGY PREDICTED BY IDOCK:   -3.10 KCAL/MOL
REMARK 922        TOTAL FREE ENERGY PREDICTED BY IDOCK:   -5.38 KCAL/MOL
REMARK 923 INTER-LIGAND FREE ENERGY PREDICTED BY IDOCK:   -4.88 KCAL/MOL
REMARK 924 INTRA-LIGAND FREE ENERGY PREDICTED BY IDOCK:   -0.50 KCAL/MOL
REMARK 927      BINDING AFFINITY PREDICTED BY RF-SCORE:    0.00 PKD
ROOT
HETATM    1  C   UNL     1      -5.528  14.598  72.731  1.00  0.00     0.022 C  
HETATM    2  O   UNL     1      -5.133  15.037  71.435  1.00  0.00    -0.143 OA 
ENDROOT
BRANCH   2   3
HETATM    3  C   UNL     1      -5.959  14.650  70.414  1.00  0.00    -0.165 A  
HETATM    4  C   UNL     1      -7.235  15.211  70.418  1.00  0.00     0.398 A  
HETATM    5  C   UNL     1      -8.169  14.871  69.429  1.00  0.00    -0.084 A  
HETATM    6  C   UNL     1      -7.831  13.967  68.414  1.00  0.00    -0.138 A  
HETATM    7  C   UNL     1      -6.520  13.468  68.370  1.00  0.00    -0.094 A  
HETATM    8  C   UNL     1      -5.595  13.797  69.373  1.00  0.00    -0.087 A  
BRANCH   6   9
HETATM    9  N   UNL     1      -8.774  13.566  67.416  1.00  0.00    -0.209 NA 
HETATM   10  N   UNL     1      -9.452  14.534  66.696  1.00  0.00    -0.270 NA 
HETATM   11  C   UNL     1     -10.376  13.864  65.980  1.00  0.00    -0.305 A  
HETATM   12  C   UNL     1     -10.240  12.482  66.176  1.00  0.00    -0.269 A  
HETATM   13  C   UNL     1     -10.964  11.355  65.551  1.00  0.00    -0.248 C  
HETATM   14  C   UNL     1      -9.161  12.295  67.015  1.00  0.00    -0.201 A  
HETATM   15  C   UNL     1     -10.666  10.103  66.372  1.00  0.00    -0.007 C  
HETATM   16  O   UNL     1      -7.450  10.879  67.794  1.00  0.00    -0.091 OA 
HETATM   17  N   UNL     1      -9.217   9.919  66.583  1.00  0.00    -0.150 N  
HETATM   18  C   UNL     1      -8.524  10.998  67.215  1.00  0.00    -0.130 C  
BRANCH  11  19
HETATM   19  C   UNL     1     -11.355  14.492  65.074  1.00  0.00    -0.377 C  
HETATM   20  H1  UNL     1     -11.599  16.012  63.751  1.00  0.00     0.000 HD 
HETATM   21  N   UNL     1     -10.922  15.578  64.378  1.00  0.00    -0.679 N  
HETATM   22  H2  UNL     1      -9.972  15.938  64.477  1.00  0.00     0.000 HD 
HETATM   23  O   UNL     1     -12.502  14.073  64.923  1.00  0.00    -0.510 OA 
ENDBRANCH  11  19
BRANCH  17  24
HETATM   24  C   UNL     1      -8.549   8.744  66.075  1.00  0.00    -0.148 A  
HETATM   25  C   UNL     1      -8.184   8.609  64.731  1.00  0.00    -0.161 A  
HETATM   26  C   UNL     1      -7.660   7.407  64.218  1.00  0.00    -0.112 A  
HETATM   27  C   UNL     1      -7.490   6.274  65.021  1.00  0.00    -0.083 A  
HETATM   28  C   UNL     1      -7.789   6.422  66.373  1.00  0.00    -0.104 A  
HETATM   29  C   UNL     1      -8.304   7.625  66.884  1.00  0.00    -0.124 A  
BRANCH  27  30
HETATM   30  N   UNL     1      -7.140   5.008  64.449  1.00  0.00    -0.049 N  
HETATM   31  C   UNL     1      -5.747   4.659  64.185  1.00  0.00    -0.017 C  
HETATM   32  C   UNL     1      -5.393   3.301  64.770  1.00  0.00    -0.009 C  
HETATM   33  C   UNL     1      -6.325   2.252  64.194  1.00  0.00    -0.018 C  
HETATM   34  C   UNL     1      -7.773   2.636  64.437  1.00  0.00    -0.076 C  
HETATM   35  C   UNL     1      -8.119   4.074  64.086  1.00  0.00    -0.090 C  
HETATM   36  O   UNL     1      -9.243   4.350  63.669  1.00  0.00    -0.145 OA 
ENDBRANCH  27  30
ENDBRANCH  17  24
ENDBRANCH   6   9
ENDBRANCH   2   3
TORSDOF 5
ENDMDL
MODEL       56
REMARK 921   NORMALIZED FREE ENERGY PREDICTED BY IDOCK:   -2.64 KCAL/MOL
REMARK 922        TOTAL FREE ENERGY PREDICTED BY IDOCK:   -4.79 KCAL/MOL
REMARK 923 INTER-LIGAND FREE ENERGY PREDICTED BY IDOCK:   -3.88 KCAL/MOL
REMARK 924 INTRA-LIGAND FREE ENERGY PREDICTED BY IDOCK:   -0.91 KCAL/MOL
REMARK 927      BINDING AFFINITY PREDICTED BY RF-SCORE:    0.00 PKD
ROOT
HETATM    1  C   UNL     1      -9.857  18.534  69.932  1.00  0.00     0.861 C  
HETATM    2  O   UNL     1     -10.455  17.366  70.487  1.00  0.00     0.660 OA 
ENDROOT
BRANCH   2   3
HETATM    3  C   UNL     1     -10.439  16.264  69.676  1.00  0.00    -0.294 A  
HETATM    4  C   UNL     1      -9.244  16.023  69.000  1.00  0.00    -0.244 A  
HETATM    5  C   UNL     1      -9.123  14.932  68.128  1.00  0.00    -0.177 A  
HETATM    6  C   UNL     1     -10.200  14.058  67.930  1.00  0.00    -0.240 A  
HETATM    7  C   UNL     1     -11.372  14.260  68.673  1.00  0.00    -0.302 A  
HETATM    8  C   UNL     1     -11.495  15.365  69.530  1.00  0.00    -0.330 A  
BRANCH   6   9
HETATM    9  N   UNL     1     -10.122  12.961  67.015  1.00  0.00    -0.242 NA 
HETATM   10  N   UNL     1      -9.955  13.215  65.665  1.00  0.00    -0.260 NA 
HETATM   11  C   UNL     1     -10.095  12.020  65.058  1.00  0.00    -0.264 A  
HETATM   12  C   UNL     1     -10.270  11.004  66.010  1.00  0.00    -0.305 A  
HETATM   13  C   UNL     1     -10.386   9.541  65.833  1.00  0.00    -0.051 C  
HETATM   14  C   UNL     1     -10.191  11.596  67.254  1.00  0.00    -0.201 A  
HETATM   15  C   UNL     1     -10.905   8.957  67.144  1.00  0.00     0.001 C  
HETATM   16  O   UNL     1      -9.755  11.371  69.556  1.00  0.00     0.223 OA 
HETATM   17  N   UNL     1     -10.114   9.420  68.300  1.00  0.00    -0.175 N  
HETATM   18  C   UNL     1     -10.029  10.835  68.488  1.00  0.00    -0.178 C  
BRANCH  11  19
HETATM   19  C   UNL     1     -10.019  11.803  63.602  1.00  0.00    -0.381 C  
HETATM   20  H1  UNL     1      -8.771  11.221  62.111  1.00  0.00     0.000 HD 
HETATM   21  N   UNL     1      -8.824  11.371  63.118  1.00  0.00    -0.496 N  
HETATM   22  H2  UNL     1      -8.023  11.206  63.729  1.00  0.00     0.000 HD 
HETATM   23  O   UNL     1     -10.971  11.979  62.841  1.00  0.00    -0.118 OA 
ENDBRANCH  11  19
BRANCH  17  24
HETATM   24  C   UNL     1      -9.395   8.472  69.119  1.00  0.00    -0.153 A  
HETATM   25  C   UNL     1      -8.528   7.517  68.577  1.00  0.00    -0.129 A  
HETATM   26  C   UNL     1      -7.940   6.511  69.366  1.00  0.00    -0.114 A  
HETATM   27  C   UNL     1      -8.202   6.400  70.736  1.00  0.00    -0.125 A  
HETATM   28  C   UNL     1      -9.011   7.387  71.294  1.00  0.00    -0.140 A  
HETATM   29  C   UNL     1      -9.590   8.395  70.505  1.00  0.00    -0.188 A  
BRANCH  27  30
HETATM   30  N   UNL     1      -7.754   5.264  71.486  1.00  0.00    -0.101 N  
HETATM   31  C   UNL     1      -6.759   5.405  72.545  1.00  0.00    -0.074 C  
HETATM   32  C   UNL     1      -7.221   4.745  73.834  1.00  0.00    -0.078 C  
HETATM   33  C   UNL     1      -7.514   3.281  73.567  1.00  0.00    -0.056 C  
HETATM   34  C   UNL     1      -8.520   3.137  72.441  1.00  0.00    -0.083 C  
HETATM   35  C   UNL     1      -8.222   3.974  71.207  1.00  0.00    -0.072 C  
HETATM   36  O   UNL     1      -8.536   3.558  70.093  1.00  0.00    -0.058 OA 
ENDBRANCH  27  30
ENDBRANCH  17  24
ENDBRANCH   6   9
ENDBRANCH   2   3
TORSDOF 5
ENDMDL
MODEL       57
REMARK 921   NORMALIZED FREE ENERGY PREDICTED BY IDOCK:   -2.49 KCAL/MOL
REMARK 922        TOTAL FREE ENERGY PREDICTED BY IDOCK:   -4.60 KCAL/MOL
REMARK 923 INTER-LIGAND FREE ENERGY PREDICTED BY IDOCK:   -4.53 KCAL/MOL
REMARK 924 INTRA-LIGAND FREE ENERGY PREDICTED BY IDOCK:   -0.06 KCAL/MOL
REMARK 927      BINDING AFFINITY PREDICTED BY RF-SCORE:    0.00 PKD
ROOT
HETATM    1  C   UNL     1      -9.793   5.401  74.565  1.00  0.00    -0.218 C  
HETATM    2  O   UNL     1      -9.644   4.197  73.818  1.00  0.00    -0.105 OA 
ENDROOT
BRANCH   2   3
HETATM    3  C   UNL     1      -9.499   4.365  72.468  1.00  0.00    -0.137 A  
HETATM    4  C   UNL     1      -8.896   3.310  71.785  1.00  0.00    -0.129 A  
HETATM    5  C   UNL     1      -8.680   3.384  70.402  1.00  0.00    -0.129 A  
HETATM    6  C   UNL     1      -9.077   4.517  69.680  1.00  0.00    -0.109 A  
HETATM    7  C   UNL     1      -9.755   5.540  70.359  1.00  0.00    -0.242 A  
HETATM    8  C   UNL     1      -9.952   5.469  71.748  1.00  0.00    -0.228 A  
BRANCH   6   9
HETATM    9  N   UNL     1      -8.833   4.640  68.276  1.00  0.00    -0.103 NA 
HETATM   10  N   UNL     1      -9.292   3.657  67.418  1.00  0.00    -0.191 NA 
HETATM   11  C   UNL     1      -8.764   3.958  66.216  1.00  0.00    -0.115 A  
HETATM   12  C   UNL     1      -8.043   5.159  66.284  1.00  0.00    -0.108 A  
HETATM   13  C   UNL     1      -7.361   5.923  65.218  1.00  0.00    -0.076 C  
HETATM   14  C   UNL     1      -8.170   5.636  67.572  1.00  0.00    -0.101 A  
HETATM   15  C   UNL     1      -6.455   6.949  65.893  1.00  0.00    -0.051 C  
HETATM   16  O   UNL     1      -8.119   7.473  69.042  1.00  0.00    -0.122 OA 
HETATM   17  N   UNL     1      -7.181   7.737  66.907  1.00  0.00    -0.087 N  
HETATM   18  C   UNL     1      -7.814   6.998  67.954  1.00  0.00    -0.114 C  
BRANCH  11  19
HETATM   19  C   UNL     1      -8.963   3.165  64.988  1.00  0.00    -0.139 C  
HETATM   20  H1  UNL     1     -10.389   2.442  63.737  1.00  0.00     0.000 HD 
HETATM   21  N   UNL     1     -10.251   2.991  64.586  1.00  0.00    -0.383 N  
HETATM   22  H2  UNL     1     -11.036   3.386  65.104  1.00  0.00     0.000 HD 
HETATM   23  O   UNL     1      -8.037   2.687  64.334  1.00  0.00    -0.081 OA 
ENDBRANCH  11  19
BRANCH  17  24
HETATM   24  C   UNL     1      -7.310   9.168  66.762  1.00  0.00    -0.086 A  
HETATM   25  C   UNL     1      -6.204  10.023  66.721  1.00  0.00    -0.068 A  
HETATM   26  C   UNL     1      -6.344  11.424  66.720  1.00  0.00    -0.142 A  
HETATM   27  C   UNL     1      -7.598  12.040  66.775  1.00  0.00     0.009 A  
HETATM   28  C   UNL     1      -8.705  11.196  66.749  1.00  0.00    -0.157 A  
HETATM   29  C   UNL     1      -8.563   9.798  66.742  1.00  0.00    -0.133 A  
BRANCH  27  30
HETATM   30  N   UNL     1      -7.720  13.455  66.967  1.00  0.00     0.037 N  
HETATM   31  C   UNL     1      -8.921  14.172  66.547  1.00  0.00    -0.112 C  
HETATM   32  C   UNL     1      -9.471  15.039  67.668  1.00  0.00    -0.195 C  
HETATM   33  C   UNL     1      -8.398  16.011  68.119  1.00  0.00    -0.160 C  
HETATM   34  C   UNL     1      -7.139  15.265  68.520  1.00  0.00    -0.110 C  
HETATM   35  C   UNL     1      -6.681  14.208  67.528  1.00  0.00    -0.105 C  
HETATM   36  O   UNL     1      -5.481  13.974  67.392  1.00  0.00    -0.342 OA 
ENDBRANCH  27  30
ENDBRANCH  17  24
ENDBRANCH   6   9
ENDBRANCH   2   3
TORSDOF 5
ENDMDL
MODEL       58
REMARK 921   NORMALIZED FREE ENERGY PREDICTED BY IDOCK:   -2.37 KCAL/MOL
REMARK 922        TOTAL FREE ENERGY PREDICTED BY IDOCK:   -4.43 KCAL/MOL
REMARK 923 INTER-LIGAND FREE ENERGY PREDICTED BY IDOCK:   -3.23 KCAL/MOL
REMARK 924 INTRA-LIGAND FREE ENERGY PREDICTED BY IDOCK:   -1.21 KCAL/MOL
REMARK 927      BINDING AFFINITY PREDICTED BY RF-SCORE:    0.00 PKD
ROOT
HETATM    1  C   UNL     1     -13.150  15.359  65.320  1.00  0.00     1.341 C  
HETATM    2  O   UNL     1     -13.141  13.934  65.320  1.00  0.00    -0.777 OA 
ENDROOT
BRANCH   2   3
HETATM    3  C   UNL     1     -12.033  13.360  65.881  1.00  0.00    -0.409 A  
HETATM    4  C   UNL     1     -10.944  14.208  66.082  1.00  0.00    -0.309 A  
HETATM    5  C   UNL     1      -9.751  13.721  66.633  1.00  0.00    -0.293 A  
HETATM    6  C   UNL     1      -9.636  12.374  67.001  1.00  0.00    -0.211 A  
HETATM    7  C   UNL     1     -10.760  11.546  66.871  1.00  0.00    -0.304 A  
HETATM    8  C   UNL     1     -11.947  12.034  66.301  1.00  0.00    -0.098 A  
BRANCH   6   9
HETATM    9  N   UNL     1      -8.418  11.838  67.526  1.00  0.00    -0.147 NA 
HETATM   10  N   UNL     1      -8.029  12.171  68.812  1.00  0.00    -0.054 NA 
HETATM   11  C   UNL     1      -6.786  11.669  68.948  1.00  0.00    -0.088 A  
HETATM   12  C   UNL     1      -6.415  10.957  67.798  1.00  0.00    -0.063 A  
HETATM   13  C   UNL     1      -5.194  10.174  67.513  1.00  0.00    -0.037 C  
HETATM   14  C   UNL     1      -7.492  10.988  66.937  1.00  0.00    -0.133 A  
HETATM   15  C   UNL     1      -5.155   9.909  66.010  1.00  0.00    -0.035 C  
HETATM   16  O   UNL     1      -8.646  10.008  65.135  1.00  0.00    -0.141 OA 
HETATM   17  N   UNL     1      -6.428   9.345  65.521  1.00  0.00    -0.068 N  
HETATM   18  C   UNL     1      -7.604  10.119  65.771  1.00  0.00    -0.134 C  
BRANCH  11  19
HETATM   19  C   UNL     1      -5.954  11.801  70.159  1.00  0.00    -0.162 C  
HETATM   20  H1  UNL     1      -4.813  13.111  71.207  1.00  0.00     0.000 HD 
HETATM   21  N   UNL     1      -5.388  13.020  70.370  1.00  0.00    -0.114 N  
HETATM   22  H2  UNL     1      -5.529  13.799  69.727  1.00  0.00     0.000 HD 
HETATM   23  O   UNL     1      -5.776  10.884  70.960  1.00  0.00    -0.267 OA 
ENDBRANCH  11  19
BRANCH  17  24
HETATM   24  C   UNL     1      -6.460   8.033  64.918  1.00  0.00    -0.048 A  
HETATM   25  C   UNL     1      -6.169   7.820  63.567  1.00  0.00    -0.062 A  
HETATM   26  C   UNL     1      -6.338   6.563  62.957  1.00  0.00    -0.038 A  
HETATM   27  C   UNL     1      -6.820   5.457  63.667  1.00  0.00    -0.042 A  
HETATM   28  C   UNL     1      -7.047   5.646  65.028  1.00  0.00    -0.064 A  
HETATM   29  C   UNL     1      -6.871   6.901  65.635  1.00  0.00    -0.052 A  
BRANCH  27  30
HETATM   30  N   UNL     1      -7.168   4.241  62.994  1.00  0.00    -0.044 N  
HETATM   31  C   UNL     1      -6.139   3.301  62.558  1.00  0.00    -0.013 C  
HETATM   32  C   UNL     1      -6.442   1.887  63.028  1.00  0.00    -0.014 C  
HETATM   33  C   UNL     1      -7.804   1.470  62.507  1.00  0.00    -0.050 C  
HETATM   34  C   UNL     1      -8.865   2.468  62.932  1.00  0.00    -0.085 C  
HETATM   35  C   UNL     1      -8.499   3.925  62.697  1.00  0.00    -0.083 C  
HETATM   36  O   UNL     1      -9.378   4.742  62.423  1.00  0.00    -0.128 OA 
ENDBRANCH  27  30
ENDBRANCH  17  24
ENDBRANCH   6   9
ENDBRANCH   2   3
TORSDOF 5
ENDMDL
MODEL       59
REMARK 921   NORMALIZED FREE ENERGY PREDICTED BY IDOCK:   -1.94 KCAL/MOL
REMARK 922        TOTAL FREE ENERGY PREDICTED BY IDOCK:   -3.88 KCAL/MOL
REMARK 923 INTER-LIGAND FREE ENERGY PREDICTED BY IDOCK:   -3.60 KCAL/MOL
REMARK 924 INTRA-LIGAND FREE ENERGY PREDICTED BY IDOCK:   -0.27 KCAL/MOL
REMARK 927      BINDING AFFINITY PREDICTED BY RF-SCORE:    0.00 PKD
ROOT
HETATM    1  C   UNL     1     -10.794  12.235  63.268  1.00  0.00    -0.303 C  
HETATM    2  O   UNL     1     -10.063  11.021  63.414  1.00  0.00    -0.327 OA 
ENDROOT
BRANCH   2   3
HETATM    3  C   UNL     1      -9.317  10.926  64.557  1.00  0.00    -0.223 A  
HETATM    4  C   UNL     1     -10.019  10.598  65.716  1.00  0.00    -0.315 A  
HETATM    5  C   UNL     1      -9.357  10.493  66.948  1.00  0.00    -0.181 A  
HETATM    6  C   UNL     1      -7.975  10.706  67.032  1.00  0.00    -0.121 A  
HETATM    7  C   UNL     1      -7.263  10.956  65.850  1.00  0.00    -0.037 A  
HETATM    8  C   UNL     1      -7.933  11.079  64.622  1.00  0.00     0.425 A  
BRANCH   6   9
HETATM    9  N   UNL     1      -7.278  10.648  68.280  1.00  0.00    -0.081 NA 
HETATM   10  N   UNL     1      -6.996  11.822  68.954  1.00  0.00    -0.103 NA 
HETATM   11  C   UNL     1      -6.197  11.462  69.977  1.00  0.00    -0.148 A  
HETATM   12  C   UNL     1      -6.033  10.069  70.005  1.00  0.00    -0.053 A  
HETATM   13  C   UNL     1      -5.319   9.212  70.975  1.00  0.00    -0.033 C  
HETATM   14  C   UNL     1      -6.799   9.550  68.982  1.00  0.00    -0.054 A  
HETATM   15  C   UNL     1      -5.165   7.831  70.344  1.00  0.00    -0.023 C  
HETATM   16  O   UNL     1      -7.966   7.714  68.086  1.00  0.00    -0.119 OA 
HETATM   17  N   UNL     1      -6.449   7.316  69.833  1.00  0.00    -0.035 N  
HETATM   18  C   UNL     1      -7.124   8.133  68.872  1.00  0.00    -0.066 C  
BRANCH  11  19
HETATM   19  C   UNL     1      -5.620  12.396  70.962  1.00  0.00    -0.061 C  
HETATM   20  H1  UNL     1      -5.132  14.343  71.259  1.00  0.00     0.000 HD 
HETATM   21  N   UNL     1      -5.531  13.698  70.578  1.00  0.00    -0.126 N  
HETATM   22  H2  UNL     1      -5.845  14.011  69.659  1.00  0.00     0.000 HD 
HETATM   23  O   UNL     1      -5.245  12.050  72.083  1.00  0.00    -0.358 OA 
ENDBRANCH  11  19
BRANCH  17  24
HETATM   24  C   UNL     1      -7.015   6.101  70.370  1.00  0.00    -0.059 A  
HETATM   25  C   UNL     1      -8.234   5.578  69.926  1.00  0.00    -0.105 A  
HETATM   26  C   UNL     1      -8.842   4.473  70.550  1.00  0.00    -0.140 A  
HETATM   27  C   UNL     1      -8.269   3.844  71.660  1.00  0.00    -0.078 A  
HETATM   28  C   UNL     1      -7.023   4.317  72.065  1.00  0.00    -0.046 A  
HETATM   29  C   UNL     1      -6.414   5.416  71.436  1.00  0.00    -0.036 A  
BRANCH  27  30
HETATM   30  N   UNL     1      -8.988   2.850  72.401  1.00  0.00    -0.081 N  
HETATM   31  C   UNL     1      -8.820   2.719  73.846  1.00  0.00    -0.075 C  
HETATM   32  C   UNL     1     -10.161   2.704  74.562  1.00  0.00    -0.190 C  
HETATM   33  C   UNL     1     -11.005   1.568  74.016  1.00  0.00    -0.210 C  
HETATM   34  C   UNL     1     -11.146   1.686  72.510  1.00  0.00     0.012 C  
HETATM   35  C   UNL     1      -9.846   1.944  71.766  1.00  0.00    -0.146 C  
HETATM   36  O   UNL     1      -9.688   1.492  70.632  1.00  0.00    -0.108 OA 
ENDBRANCH  27  30
ENDBRANCH  17  24
ENDBRANCH   6   9
ENDBRANCH   2   3
TORSDOF 5
ENDMDL
MODEL       60
REMARK 921   NORMALIZED FREE ENERGY PREDICTED BY IDOCK:   -1.66 KCAL/MOL
REMARK 922        TOTAL FREE ENERGY PREDICTED BY IDOCK:   -3.52 KCAL/MOL
REMARK 923 INTER-LIGAND FREE ENERGY PREDICTED BY IDOCK:   -3.91 KCAL/MOL
REMARK 924 INTRA-LIGAND FREE ENERGY PREDICTED BY IDOCK:    0.39 KCAL/MOL
REMARK 927      BINDING AFFINITY PREDICTED BY RF-SCORE:    0.00 PKD
ROOT
HETATM    1  C   UNL     1      -5.415  18.355  65.822  1.00  0.00    -0.179 C  
HETATM    2  O   UNL     1      -5.292  17.792  67.125  1.00  0.00    -0.124 OA 
ENDROOT
BRANCH   2   3
HETATM    3  C   UNL     1      -6.220  16.836  67.436  1.00  0.00    -0.166 A  
HETATM    4  C   UNL     1      -5.724  15.547  67.630  1.00  0.00    -0.116 A  
HETATM    5  C   UNL     1      -6.589  14.486  67.933  1.00  0.00    -0.178 A  
HETATM    6  C   UNL     1      -7.967  14.706  68.057  1.00  0.00    -0.136 A  
HETATM    7  C   UNL     1      -8.449  16.018  67.939  1.00  0.00    -0.165 A  
HETATM    8  C   UNL     1      -7.581  17.074  67.617  1.00  0.00    -0.180 A  
BRANCH   6   9
HETATM    9  N   UNL     1      -8.880  13.638  68.323  1.00  0.00    -0.180 NA 
HETATM   10  N   UNL     1     -10.147  13.930  68.795  1.00  0.00    -0.198 NA 
HETATM   11  C   UNL     1     -10.693  12.739  69.112  1.00  0.00    -0.016 A  
HETATM   12  C   UNL     1      -9.819  11.695  68.775  1.00  0.00    -0.129 A  
HETATM   13  C   UNL     1     -10.006  10.231  68.860  1.00  0.00    -0.209 C  
HETATM   14  C   UNL     1      -8.710  12.267  68.188  1.00  0.00    -0.186 A  
HETATM   15  C   UNL     1      -8.635   9.580  68.699  1.00  0.00    -0.119 C  
HETATM   16  O   UNL     1      -6.857  12.035  66.755  1.00  0.00    -0.083 OA 
HETATM   17  N   UNL     1      -7.927  10.085  67.507  1.00  0.00    -0.106 N  
HETATM   18  C   UNL     1      -7.720  11.498  67.442  1.00  0.00    -0.143 C  
BRANCH  11  19
HETATM   19  C   UNL     1     -12.041  12.558  69.681  1.00  0.00    -0.207 C  
HETATM   20  H1  UNL     1     -13.436  13.440  70.862  1.00  0.00     0.000 HD 
HETATM   21  N   UNL     1     -12.504  13.566  70.468  1.00  0.00    -0.325 N  
HETATM   22  H2  UNL     1     -11.949  14.401  70.655  1.00  0.00     0.000 HD 
HETATM   23  O   UNL     1     -12.739  11.568  69.462  1.00  0.00     0.003 OA 
ENDBRANCH  11  19
BRANCH  17  24
HETATM   24  C   UNL     1      -7.566   9.185  66.437  1.00  0.00    -0.093 A  
HETATM   25  C   UNL     1      -8.512   8.643  65.560  1.00  0.00    -0.181 A  
HETATM   26  C   UNL     1      -8.171   7.661  64.611  1.00  0.00    -0.067 A  
HETATM   27  C   UNL     1      -6.869   7.162  64.500  1.00  0.00    -0.050 A  
HETATM   28  C   UNL     1      -5.910   7.745  65.324  1.00  0.00    -0.038 A  
HETATM   29  C   UNL     1      -6.251   8.731  66.266  1.00  0.00    -0.060 A  
BRANCH  27  30
HETATM   30  N   UNL     1      -6.577   6.032  63.667  1.00  0.00    -0.032 N  
HETATM   31  C   UNL     1      -5.221   5.499  63.569  1.00  0.00    -0.013 C  
HETATM   32  C   UNL     1      -5.196   3.997  63.802  1.00  0.00    -0.008 C  
HETATM   33  C   UNL     1      -6.111   3.322  62.799  1.00  0.00    -0.014 C  
HETATM   34  C   UNL     1      -7.510   3.904  62.879  1.00  0.00    -0.050 C  
HETATM   35  C   UNL     1      -7.569   5.423  62.890  1.00  0.00    -0.067 C  
HETATM   36  O   UNL     1      -8.523   6.003  62.374  1.00  0.00    -0.099 OA 
ENDBRANCH  27  30
ENDBRANCH  17  24
ENDBRANCH   6   9
ENDBRANCH   2   3
TORSDOF 5
ENDMDL
MODEL       61
REMARK 921   NORMALIZED FREE ENERGY PREDICTED BY IDOCK:   -1.46 KCAL/MOL
REMARK 922        TOTAL FREE ENERGY PREDICTED BY IDOCK:   -3.27 KCAL/MOL
REMARK 923 INTER-LIGAND FREE ENERGY PREDICTED BY IDOCK:   -2.60 KCAL/MOL
REMARK 924 INTRA-LIGAND FREE ENERGY PREDICTED BY IDOCK:   -0.67 KCAL/MOL
REMARK 927      BINDING AFFINITY PREDICTED BY RF-SCORE:    0.00 PKD
ROOT
HETATM    1  C   UNL     1     -11.214  20.629  65.126  1.00  0.00     1.372 C  
HETATM    2  O   UNL     1     -11.265  19.207  65.064  1.00  0.00    -0.223 OA 
ENDROOT
BRANCH   2   3
HETATM    3  C   UNL     1     -10.464  18.557  65.964  1.00  0.00    -0.400 A  
HETATM    4  C   UNL     1      -9.156  19.030  66.066  1.00  0.00    -0.062 A  
HETATM    5  C   UNL     1      -8.244  18.426  66.942  1.00  0.00    -0.258 A  
HETATM    6  C   UNL     1      -8.635  17.343  67.740  1.00  0.00    -0.227 A  
HETATM    7  C   UNL     1      -9.973  16.925  67.691  1.00  0.00    -0.271 A  
HETATM    8  C   UNL     1     -10.878  17.520  66.798  1.00  0.00     0.009 A  
BRANCH   6   9
HETATM    9  N   UNL     1      -7.717  16.679  68.613  1.00  0.00    -0.212 NA 
HETATM   10  N   UNL     1      -7.251  17.338  69.736  1.00  0.00     0.319 NA 
HETATM   11  C   UNL     1      -6.291  16.541  70.244  1.00  0.00     0.249 A  
HETATM   12  C   UNL     1      -6.197  15.353  69.504  1.00  0.00    -0.141 A  
HETATM   13  C   UNL     1      -5.356  14.157  69.723  1.00  0.00    -0.093 C  
HETATM   14  C   UNL     1      -7.170  15.405  68.528  1.00  0.00    -0.114 A  
HETATM   15  C   UNL     1      -5.397  13.324  68.445  1.00  0.00    -0.083 C  
HETATM   16  O   UNL     1      -8.581  14.249  67.040  1.00  0.00    -0.214 OA 
HETATM   17  N   UNL     1      -6.781  13.082  67.993  1.00  0.00    -0.098 N  
HETATM   18  C   UNL     1      -7.583  14.241  67.753  1.00  0.00    -0.165 C  
BRANCH  11  19
HETATM   19  C   UNL     1      -5.489  16.850  71.442  1.00  0.00     0.312 C  
HETATM   20  H1  UNL     1      -4.572  16.005  73.043  1.00  0.00     0.000 HD 
HETATM   21  N   UNL     1      -5.126  15.791  72.214  1.00  0.00    -0.092 N  
HETATM   22  H2  UNL     1      -5.393  14.835  71.978  1.00  0.00     0.000 HD 
HETATM   23  O   UNL     1      -5.140  17.991  71.747  1.00  0.00    -0.557 OA 
ENDBRANCH  11  19
BRANCH  17  24
HETATM   24  C   UNL     1      -7.295  11.735  67.907  1.00  0.00    -0.098 A  
HETATM   25  C   UNL     1      -8.066  11.159  68.922  1.00  0.00    -0.115 A  
HETATM   26  C   UNL     1      -8.445   9.804  68.892  1.00  0.00    -0.129 A  
HETATM   27  C   UNL     1      -8.058   8.952  67.852  1.00  0.00    -0.106 A  
HETATM   28  C   UNL     1      -7.348   9.536  66.806  1.00  0.00    -0.090 A  
HETATM   29  C   UNL     1      -6.978  10.891  66.834  1.00  0.00    -0.119 A  
BRANCH  27  30
HETATM   30  N   UNL     1      -8.285   7.539  67.929  1.00  0.00    -0.122 N  
HETATM   31  C   UNL     1      -7.209   6.623  68.298  1.00  0.00    -0.085 C  
HETATM   32  C   UNL     1      -7.637   5.684  69.414  1.00  0.00    -0.083 C  
HETATM   33  C   UNL     1      -8.868   4.915  68.975  1.00  0.00    -0.117 C  
HETATM   34  C   UNL     1      -9.971   5.870  68.557  1.00  0.00    -0.185 C  
HETATM   35  C   UNL     1      -9.531   6.981  67.618  1.00  0.00    -0.121 C  
HETATM   36  O   UNL     1     -10.313   7.417  66.774  1.00  0.00    -0.279 OA 
ENDBRANCH  27  30
ENDBRANCH  17  24
ENDBRANCH   6   9
ENDBRANCH   2   3
TORSDOF 5
ENDMDL
MODEL       62
REMARK 921   NORMALIZED FREE ENERGY PREDICTED BY IDOCK:   -1.28 KCAL/MOL
REMARK 922        TOTAL FREE ENERGY PREDICTED BY IDOCK:   -3.03 KCAL/MOL
REMARK 923 INTER-LIGAND FREE ENERGY PREDICTED BY IDOCK:   -2.95 KCAL/MOL
REMARK 924 INTRA-LIGAND FREE ENERGY PREDICTED BY IDOCK:   -0.07 KCAL/MOL
REMARK 927      BINDING AFFINITY PREDICTED BY RF-SCORE:    0.00 PKD
ROOT
HETATM    1  C   UNL     1      -6.441  20.823  64.521  1.00  0.00    -0.267 C  
HETATM    2  O   UNL     1      -5.978  20.348  65.782  1.00  0.00    -0.184 OA 
ENDROOT
BRANCH   2   3
HETATM    3  C   UNL     1      -6.682  19.295  66.300  1.00  0.00    -0.207 A  
HETATM    4  C   UNL     1      -8.059  19.481  66.415  1.00  0.00    -0.331 A  
HETATM    5  C   UNL     1      -8.874  18.475  66.951  1.00  0.00    -0.283 A  
HETATM    6  C   UNL     1      -8.319  17.258  67.370  1.00  0.00    -0.199 A  
HETATM    7  C   UNL     1      -6.946  17.048  67.178  1.00  0.00    -0.213 A  
HETATM    8  C   UNL     1      -6.131  18.066  66.658  1.00  0.00    -0.201 A  
BRANCH   6   9
HETATM    9  N   UNL     1      -9.118  16.229  67.960  1.00  0.00    -0.187 NA 
HETATM   10  N   UNL     1     -10.360  16.548  68.480  1.00  0.00    -0.271 NA 
HETATM   11  C   UNL     1     -10.779  15.432  69.108  1.00  0.00    -0.246 A  
HETATM   12  C   UNL     1      -9.858  14.390  68.926  1.00  0.00    -0.164 A  
HETATM   13  C   UNL     1      -9.920  12.977  69.355  1.00  0.00     0.755 C  
HETATM   14  C   UNL     1      -8.852  14.875  68.117  1.00  0.00    -0.174 A  
HETATM   15  C   UNL     1      -8.520  12.387  69.204  1.00  0.00     0.616 C  
HETATM   16  O   UNL     1      -7.116  14.428  66.591  1.00  0.00     0.541 OA 
HETATM   17  N   UNL     1      -7.959  12.645  67.864  1.00  0.00    -0.142 N  
HETATM   18  C   UNL     1      -7.872  14.015  67.464  1.00  0.00    -0.184 C  
BRANCH  11  19
HETATM   19  C   UNL     1     -12.055  15.308  69.838  1.00  0.00    -0.343 C  
HETATM   20  H1  UNL     1     -13.890  14.444  69.762  1.00  0.00     0.000 HD 
HETATM   21  N   UNL     1     -13.008  14.530  69.257  1.00  0.00     0.003 N  
HETATM   22  H2  UNL     1     -12.849  14.057  68.367  1.00  0.00     0.000 HD 
HETATM   23  O   UNL     1     -12.272  15.855  70.919  1.00  0.00    -0.405 OA 
ENDBRANCH  11  19
BRANCH  17  24
HETATM   24  C   UNL     1      -7.622  11.545  66.991  1.00  0.00    -0.154 A  
HETATM   25  C   UNL     1      -8.303  11.299  65.795  1.00  0.00     0.023 A  
HETATM   26  C   UNL     1      -8.060  10.148  65.022  1.00  0.00    -0.149 A  
HETATM   27  C   UNL     1      -7.132   9.178  65.415  1.00  0.00    -0.081 A  
HETATM   28  C   UNL     1      -6.402   9.450  66.569  1.00  0.00    -0.066 A  
HETATM   29  C   UNL     1      -6.641  10.604  67.335  1.00  0.00    -0.071 A  
BRANCH  27  30
HETATM   30  N   UNL     1      -7.032   7.926  64.724  1.00  0.00    -0.061 N  
HETATM   31  C   UNL     1      -7.070   7.865  63.265  1.00  0.00    -0.087 C  
HETATM   32  C   UNL     1      -5.907   7.057  62.713  1.00  0.00    -0.041 C  
HETATM   33  C   UNL     1      -5.943   5.662  63.307  1.00  0.00    -0.018 C  
HETATM   34  C   UNL     1      -5.941   5.730  64.823  1.00  0.00    -0.025 C  
HETATM   35  C   UNL     1      -6.935   6.714  65.419  1.00  0.00    -0.056 C  
HETATM   36  O   UNL     1      -7.458   6.475  66.506  1.00  0.00    -0.082 OA 
ENDBRANCH  27  30
ENDBRANCH  17  24
ENDBRANCH   6   9
ENDBRANCH   2   3
TORSDOF 5
ENDMDL
MODEL       63
REMARK 921   NORMALIZED FREE ENERGY PREDICTED BY IDOCK:   -1.07 KCAL/MOL
REMARK 922        TOTAL FREE ENERGY PREDICTED BY IDOCK:   -2.75 KCAL/MOL
REMARK 923 INTER-LIGAND FREE ENERGY PREDICTED BY IDOCK:   -2.86 KCAL/MOL
REMARK 924 INTRA-LIGAND FREE ENERGY PREDICTED BY IDOCK:    0.10 KCAL/MOL
REMARK 927      BINDING AFFINITY PREDICTED BY RF-SCORE:    0.00 PKD
ROOT
HETATM    1  C   UNL     1      -5.384  17.145  70.931  1.00  0.00    -0.138 C  
HETATM    2  O   UNL     1      -5.178  15.744  70.780  1.00  0.00    -0.160 OA 
ENDROOT
BRANCH   2   3
HETATM    3  C   UNL     1      -6.034  15.121  69.912  1.00  0.00    -0.136 A  
HETATM    4  C   UNL     1      -7.130  14.483  70.490  1.00  0.00     0.489 A  
HETATM    5  C   UNL     1      -8.060  13.798  69.697  1.00  0.00     0.948 A  
HETATM    6  C   UNL     1      -7.908  13.751  68.304  1.00  0.00    -0.144 A  
HETATM    7  C   UNL     1      -6.848  14.462  67.722  1.00  0.00    -0.194 A  
HETATM    8  C   UNL     1      -5.909  15.131  68.523  1.00  0.00    -0.095 A  
BRANCH   6   9
HETATM    9  N   UNL     1      -8.816  13.025  67.471  1.00  0.00    -0.184 NA 
HETATM   10  N   UNL     1      -9.207  13.568  66.260  1.00  0.00    -0.123 NA 
HETATM   11  C   UNL     1     -10.177  12.753  65.802  1.00  0.00    -0.289 A  
HETATM   12  C   UNL     1     -10.350  11.662  66.666  1.00  0.00    -0.257 A  
HETATM   13  C   UNL     1     -11.230  10.480  66.545  1.00  0.00     0.203 C  
HETATM   14  C   UNL     1      -9.418  11.791  67.674  1.00  0.00    -0.180 A  
HETATM   15  C   UNL     1     -11.278   9.798  67.910  1.00  0.00     0.034 C  
HETATM   16  O   UNL     1      -8.120  10.763  69.347  1.00  0.00    -0.131 OA 
HETATM   17  N   UNL     1      -9.925   9.560  68.450  1.00  0.00    -0.159 N  
HETATM   18  C   UNL     1      -9.086  10.709  68.594  1.00  0.00    -0.170 C  
BRANCH  11  19
HETATM   19  C   UNL     1     -10.915  12.951  64.540  1.00  0.00    -0.351 C  
HETATM   20  H1  UNL     1     -11.794  11.961  63.002  1.00  0.00     0.000 HD 
HETATM   21  N   UNL     1     -11.284  11.824  63.875  1.00  0.00    -0.392 N  
HETATM   22  H2  UNL     1     -11.064  10.893  64.228  1.00  0.00     0.000 HD 
HETATM   23  O   UNL     1     -11.207  14.061  64.095  1.00  0.00    -0.276 OA 
ENDBRANCH  11  19
BRANCH  17  24
HETATM   24  C   UNL     1      -9.471   8.214  68.711  1.00  0.00    -0.148 A  
HETATM   25  C   UNL     1      -8.534   7.917  69.706  1.00  0.00    -0.132 A  
HETATM   26  C   UNL     1      -7.995   6.626  69.860  1.00  0.00    -0.117 A  
HETATM   27  C   UNL     1      -8.356   5.570  69.017  1.00  0.00    -0.102 A  
HETATM   28  C   UNL     1      -9.338   5.842  68.069  1.00  0.00    -0.111 A  
HETATM   29  C   UNL     1      -9.881   7.130  67.921  1.00  0.00    -0.170 A  
BRANCH  27  30
HETATM   30  N   UNL     1      -7.662   4.317  69.062  1.00  0.00    -0.055 N  
HETATM   31  C   UNL     1      -6.245   4.228  68.719  1.00  0.00    -0.032 C  
HETATM   32  C   UNL     1      -5.457   3.499  69.795  1.00  0.00    -0.016 C  
HETATM   33  C   UNL     1      -6.047   2.115  69.993  1.00  0.00    -0.024 C  
HETATM   34  C   UNL     1      -7.527   2.209  70.312  1.00  0.00    -0.039 C  
HETATM   35  C   UNL     1      -8.320   3.128  69.397  1.00  0.00    -0.059 C  
HETATM   36  O   UNL     1      -9.495   2.869  69.137  1.00  0.00    -0.153 OA 
ENDBRANCH  27  30
ENDBRANCH  17  24
ENDBRANCH   6   9
ENDBRANCH   2   3
TORSDOF 5
ENDMDL
MODEL       64
REMARK 921   NORMALIZED FREE ENERGY PREDICTED BY IDOCK:   -0.45 KCAL/MOL
REMARK 922        TOTAL FREE ENERGY PREDICTED BY IDOCK:   -1.96 KCAL/MOL
REMARK 923 INTER-LIGAND FREE ENERGY PREDICTED BY IDOCK:   -2.85 KCAL/MOL
REMARK 924 INTRA-LIGAND FREE ENERGY PREDICTED BY IDOCK:    0.89 KCAL/MOL
REMARK 927      BINDING AFFINITY PREDICTED BY RF-SCORE:    0.00 PKD
ROOT
HETATM    1  C   UNL     1     -11.545  14.263  62.725  1.00  0.00     3.181 C  
HETATM    2  O   UNL     1     -10.416  14.208  63.592  1.00  0.00     0.957 OA 
ENDROOT
BRANCH   2   3
HETATM    3  C   UNL     1     -10.654  13.656  64.822  1.00  0.00    -0.422 A  
HETATM    4  C   UNL     1     -10.259  12.329  64.980  1.00  0.00    -0.312 A  
HETATM    5  C   UNL     1     -10.472  11.658  66.192  1.00  0.00    -0.289 A  
HETATM    6  C   UNL     1     -11.077  12.317  67.271  1.00  0.00    -0.275 A  
HETATM    7  C   UNL     1     -11.399  13.675  67.131  1.00  0.00    -0.340 A  
HETATM    8  C   UNL     1     -11.201  14.336  65.909  1.00  0.00    -0.319 A  
BRANCH   6   9
HETATM    9  N   UNL     1     -11.347  11.648  68.506  1.00  0.00    -0.248 NA 
HETATM   10  N   UNL     1     -12.368  12.110  69.318  1.00  0.00    -0.015 NA 
HETATM   11  C   UNL     1     -12.260  11.404  70.461  1.00  0.00    -0.386 A  
HETATM   12  C   UNL     1     -11.237  10.451  70.354  1.00  0.00    -0.399 A  
HETATM   13  C   UNL     1     -10.803   9.407  71.307  1.00  0.00    -0.431 C  
HETATM   14  C   UNL     1     -10.725  10.547  69.077  1.00  0.00    -0.225 A  
HETATM   15  C   UNL     1      -9.445   8.891  70.840  1.00  0.00    -0.236 C  
HETATM   16  O   UNL     1      -9.575   9.523  67.297  1.00  0.00    -0.142 OA 
HETATM   17  N   UNL     1      -9.465   8.513  69.414  1.00  0.00    -0.161 N  
HETATM   18  C   UNL     1      -9.856   9.533  68.491  1.00  0.00    -0.158 C  
BRANCH  11  19
HETATM   19  C   UNL     1     -13.133  11.573  71.638  1.00  0.00    -0.373 C  
HETATM   20  H1  UNL     1     -14.128  10.549  73.080  1.00  0.00     0.000 HD 
HETATM   21  N   UNL     1     -13.525  10.432  72.266  1.00  0.00    -0.568 N  
HETATM   22  H2  UNL     1     -13.232   9.510  71.942  1.00  0.00     0.000 HD 
HETATM   23  O   UNL     1     -13.491  12.672  72.062  1.00  0.00    -0.498 OA 
ENDBRANCH  11  19
BRANCH  17  24
HETATM   24  C   UNL     1      -9.197   7.151  69.016  1.00  0.00    -0.135 A  
HETATM   25  C   UNL     1      -8.048   6.462  69.420  1.00  0.00    -0.118 A  
HETATM   26  C   UNL     1      -7.728   5.187  68.917  1.00  0.00    -0.081 A  
HETATM   27  C   UNL     1      -8.535   4.543  67.973  1.00  0.00    -0.098 A  
HETATM   28  C   UNL     1      -9.713   5.193  67.618  1.00  0.00    -0.178 A  
HETATM   29  C   UNL     1     -10.035   6.463  68.127  1.00  0.00    -0.143 A  
BRANCH  27  30
HETATM   30  N   UNL     1      -8.101   3.338  67.328  1.00  0.00    -0.082 N  
HETATM   31  C   UNL     1      -8.862   2.759  66.224  1.00  0.00    -0.144 C  
HETATM   32  C   UNL     1      -7.970   2.467  65.028  1.00  0.00    -0.082 C  
HETATM   33  C   UNL     1      -6.853   1.535  65.455  1.00  0.00    -0.031 C  
HETATM   34  C   UNL     1      -6.088   2.123  66.626  1.00  0.00    -0.023 C  
HETATM   35  C   UNL     1      -6.958   2.652  67.755  1.00  0.00    -0.048 C  
HETATM   36  O   UNL     1      -6.559   2.592  68.917  1.00  0.00    -0.029 OA 
ENDBRANCH  27  30
ENDBRANCH  17  24
ENDBRANCH   6   9
ENDBRANCH   2   3
TORSDOF 5
ENDMDL
MODEL       65
REMARK 921   NORMALIZED FREE ENERGY PREDICTED BY IDOCK:   -0.38 KCAL/MOL
REMARK 922        TOTAL FREE ENERGY PREDICTED BY IDOCK:   -1.87 KCAL/MOL
REMARK 923 INTER-LIGAND FREE ENERGY PREDICTED BY IDOCK:   -2.50 KCAL/MOL
REMARK 924 INTRA-LIGAND FREE ENERGY PREDICTED BY IDOCK:    0.63 KCAL/MOL
REMARK 927      BINDING AFFINITY PREDICTED BY RF-SCORE:    0.00 PKD
ROOT
HETATM    1  C   UNL     1     -13.777   7.184  72.667  1.00  0.00     0.832 C  
HETATM    2  O   UNL     1     -13.895   7.587  71.305  1.00  0.00    -0.347 OA 
ENDROOT
BRANCH   2   3
HETATM    3  C   UNL     1     -12.711   7.859  70.675  1.00  0.00     0.339 A  
HETATM    4  C   UNL     1     -11.906   6.756  70.391  1.00  0.00    -0.395 A  
HETATM    5  C   UNL     1     -10.664   6.920  69.765  1.00  0.00    -0.276 A  
HETATM    6  C   UNL     1     -10.214   8.196  69.402  1.00  0.00    -0.211 A  
HETATM    7  C   UNL     1     -11.063   9.292  69.617  1.00  0.00    -0.134 A  
HETATM    8  C   UNL     1     -12.298   9.124  70.263  1.00  0.00     0.394 A  
BRANCH   6   9
HETATM    9  N   UNL     1      -8.932   8.401  68.800  1.00  0.00    -0.140 NA 
HETATM   10  N   UNL     1      -8.387   7.404  68.010  1.00  0.00    -0.123 NA 
HETATM   11  C   UNL     1      -7.131   7.810  67.742  1.00  0.00    -0.082 A  
HETATM   12  C   UNL     1      -6.900   9.083  68.284  1.00  0.00    -0.065 A  
HETATM   13  C   UNL     1      -5.715   9.961  68.185  1.00  0.00    -0.039 C  
HETATM   14  C   UNL     1      -8.078   9.493  68.873  1.00  0.00    -0.096 A  
HETATM   15  C   UNL     1      -5.864  11.059  69.236  1.00  0.00    -0.043 C  
HETATM   16  O   UNL     1      -9.440  11.266  69.610  1.00  0.00     0.376 OA 
HETATM   17  N   UNL     1      -7.182  11.718  69.155  1.00  0.00    -0.082 N  
HETATM   18  C   UNL     1      -8.326  10.871  69.281  1.00  0.00    -0.012 C  
BRANCH  11  19
HETATM   19  C   UNL     1      -6.154   7.048  66.942  1.00  0.00    -0.037 C  
HETATM   20  H1  UNL     1      -5.324   6.909  65.096  1.00  0.00     0.000 HD 
HETATM   21  N   UNL     1      -5.999   7.437  65.648  1.00  0.00    -0.037 N  
HETATM   22  H2  UNL     1      -6.529   8.214  65.252  1.00  0.00     0.000 HD 
HETATM   23  O   UNL     1      -5.490   6.116  67.396  1.00  0.00    -0.005 OA 
ENDBRANCH  11  19
BRANCH  17  24
HETATM   24  C   UNL     1      -7.274  13.129  68.861  1.00  0.00    -0.048 A  
HETATM   25  C   UNL     1      -8.240  13.656  67.997  1.00  0.00    -0.162 A  
HETATM   26  C   UNL     1      -8.235  15.009  67.610  1.00  0.00    -0.181 A  
HETATM   27  C   UNL     1      -7.254  15.901  68.056  1.00  0.00    -0.132 A  
HETATM   28  C   UNL     1      -6.329  15.399  68.968  1.00  0.00    -0.110 A  
HETATM   29  C   UNL     1      -6.341  14.050  69.360  1.00  0.00    -0.115 A  
BRANCH  27  30
HETATM   30  N   UNL     1      -7.148  17.220  67.506  1.00  0.00    -0.158 N  
HETATM   31  C   UNL     1      -7.558  17.498  66.132  1.00  0.00    -0.285 C  
HETATM   32  C   UNL     1      -8.500  18.690  66.063  1.00  0.00    -0.047 C  
HETATM   33  C   UNL     1      -7.818  19.899  66.674  1.00  0.00    -0.334 C  
HETATM   34  C   UNL     1      -7.361  19.595  68.088  1.00  0.00    -0.337 C  
HETATM   35  C   UNL     1      -6.614  18.280  68.247  1.00  0.00    -0.210 C  
HETATM   36  O   UNL     1      -5.724  18.179  69.092  1.00  0.00    -0.197 OA 
ENDBRANCH  27  30
ENDBRANCH  17  24
ENDBRANCH   6   9
ENDBRANCH   2   3
TORSDOF 5
ENDMDL
MODEL       66
REMARK 921   NORMALIZED FREE ENERGY PREDICTED BY IDOCK:    0.12 KCAL/MOL
REMARK 922        TOTAL FREE ENERGY PREDICTED BY IDOCK:   -1.21 KCAL/MOL
REMARK 923 INTER-LIGAND FREE ENERGY PREDICTED BY IDOCK:   -1.28 KCAL/MOL
REMARK 924 INTRA-LIGAND FREE ENERGY PREDICTED BY IDOCK:    0.07 KCAL/MOL
REMARK 927      BINDING AFFINITY PREDICTED BY RF-SCORE:    0.00 PKD
ROOT
HETATM    1  C   UNL     1      -5.463  17.138  71.085  1.00  0.00     0.121 C  
HETATM    2  O   UNL     1      -5.220  15.738  71.190  1.00  0.00    -0.156 OA 
ENDROOT
BRANCH   2   3
HETATM    3  C   UNL     1      -5.915  14.959  70.306  1.00  0.00    -0.157 A  
HETATM    4  C   UNL     1      -7.082  14.375  70.797  1.00  0.00     0.887 A  
HETATM    5  C   UNL     1      -7.862  13.542  69.984  1.00  0.00     1.749 A  
HETATM    6  C   UNL     1      -7.487  13.291  68.657  1.00  0.00    -0.099 A  
HETATM    7  C   UNL     1      -6.357  13.946  68.145  1.00  0.00    -0.127 A  
HETATM    8  C   UNL     1      -5.569  14.764  68.970  1.00  0.00    -0.092 A  
BRANCH   6   9
HETATM    9  N   UNL     1      -8.239  12.413  67.815  1.00  0.00    -0.151 NA 
HETATM   10  N   UNL     1      -8.337  12.689  66.463  1.00  0.00     0.090 NA 
HETATM   11  C   UNL     1      -9.233  11.804  65.983  1.00  0.00    -0.194 A  
HETATM   12  C   UNL     1      -9.643  10.924  66.995  1.00  0.00    -0.197 A  
HETATM   13  C   UNL     1     -10.542   9.752  66.932  1.00  0.00    -0.243 C  
HETATM   14  C   UNL     1      -8.937  11.256  68.132  1.00  0.00    -0.166 A  
HETATM   15  C   UNL     1     -10.911   9.376  68.365  1.00  0.00    -0.030 C  
HETATM   16  O   UNL     1      -8.076  10.595  70.221  1.00  0.00     0.230 OA 
HETATM   17  N   UNL     1      -9.717   9.245  69.221  1.00  0.00    -0.165 N  
HETATM   18  C   UNL     1      -8.865  10.391  69.305  1.00  0.00    -0.154 C  
BRANCH  11  19
HETATM   19  C   UNL     1      -9.678  11.737  64.578  1.00  0.00    -0.142 C  
HETATM   20  H1  UNL     1     -10.068  12.874  62.944  1.00  0.00     0.000 HD 
HETATM   21  N   UNL     1      -9.760  12.921  63.915  1.00  0.00    -0.344 N  
HETATM   22  H2  UNL     1      -9.528  13.808  64.363  1.00  0.00     0.000 HD 
HETATM   23  O   UNL     1      -9.952  10.682  64.006  1.00  0.00    -0.310 OA 
ENDBRANCH  11  19
BRANCH  17  24
HETATM   24  C   UNL     1      -9.402   7.982  69.846  1.00  0.00    -0.156 A  
HETATM   25  C   UNL     1      -9.903   6.764  69.373  1.00  0.00    -0.162 A  
HETATM   26  C   UNL     1      -9.704   5.557  70.068  1.00  0.00    -0.238 A  
HETATM   27  C   UNL     1      -9.007   5.508  71.279  1.00  0.00    -0.142 A  
HETATM   28  C   UNL     1      -8.449   6.705  71.721  1.00  0.00    -0.119 A  
HETATM   29  C   UNL     1      -8.642   7.909  71.021  1.00  0.00    -0.135 A  
BRANCH  27  30
HETATM   30  N   UNL     1      -8.977   4.313  72.069  1.00  0.00    -0.114 N  
HETATM   31  C   UNL     1     -10.205   3.744  72.620  1.00  0.00    -0.167 C  
HETATM   32  C   UNL     1     -10.326   2.263  72.295  1.00  0.00    -0.166 C  
HETATM   33  C   UNL     1      -9.109   1.534  72.833  1.00  0.00    -0.074 C  
HETATM   34  C   UNL     1      -7.835   2.151  72.287  1.00  0.00    -0.052 C  
HETATM   35  C   UNL     1      -7.773   3.668  72.375  1.00  0.00    -0.067 C  
HETATM   36  O   UNL     1      -6.691   4.229  72.545  1.00  0.00    -0.041 OA 
ENDBRANCH  27  30
ENDBRANCH  17  24
ENDBRANCH   6   9
ENDBRANCH   2   3
TORSDOF 5
ENDMDL
MODEL       67
REMARK 921   NORMALIZED FREE ENERGY PREDICTED BY IDOCK:    1.05 KCAL/MOL
REMARK 922        TOTAL FREE ENERGY PREDICTED BY IDOCK:   -0.01 KCAL/MOL
REMARK 923 INTER-LIGAND FREE ENERGY PREDICTED BY IDOCK:   -0.29 KCAL/MOL
REMARK 924 INTRA-LIGAND FREE ENERGY PREDICTED BY IDOCK:    0.27 KCAL/MOL
REMARK 927      BINDING AFFINITY PREDICTED BY RF-SCORE:    0.00 PKD
ROOT
HETATM    1  C   UNL     1      -5.971  20.819  62.331  1.00  0.00    -0.220 C  
HETATM    2  O   UNL     1      -5.135  20.097  63.230  1.00  0.00    -0.170 OA 
ENDROOT
BRANCH   2   3
HETATM    3  C   UNL     1      -5.793  19.435  64.231  1.00  0.00    -0.281 A  
HETATM    4  C   UNL     1      -6.881  20.103  64.790  1.00  0.00    -0.132 A  
HETATM    5  C   UNL     1      -7.615  19.526  65.835  1.00  0.00    -0.306 A  
HETATM    6  C   UNL     1      -7.273  18.260  66.328  1.00  0.00    -0.262 A  
HETATM    7  C   UNL     1      -6.228  17.559  65.708  1.00  0.00    -0.028 A  
HETATM    8  C   UNL     1      -5.484  18.150  64.675  1.00  0.00     0.087 A  
BRANCH   6   9
HETATM    9  N   UNL     1      -7.976  17.662  67.421  1.00  0.00    -0.204 NA 
HETATM   10  N   UNL     1      -9.008  18.357  68.026  1.00  0.00    -0.284 NA 
HETATM   11  C   UNL     1      -9.343  17.627  69.108  1.00  0.00     0.035 A  
HETATM   12  C   UNL     1      -8.593  16.443  69.153  1.00  0.00    -0.182 A  
HETATM   13  C   UNL     1      -8.661  15.306  70.094  1.00  0.00     0.567 C  
HETATM   14  C   UNL     1      -7.794  16.426  68.028  1.00  0.00    -0.155 A  
HETATM   15  C   UNL     1      -7.404  14.463  69.893  1.00  0.00     0.185 C  
HETATM   16  O   UNL     1      -6.560  15.172  66.465  1.00  0.00     0.661 OA 
HETATM   17  N   UNL     1      -7.191  14.130  68.472  1.00  0.00    -0.102 N  
HETATM   18  C   UNL     1      -7.094  15.232  67.567  1.00  0.00    -0.196 C  
BRANCH  11  19
HETATM   19  C   UNL     1     -10.391  17.996  70.078  1.00  0.00     1.032 C  
HETATM   20  H1  UNL     1     -11.164  19.559  71.116  1.00  0.00     0.000 HD 
HETATM   21  N   UNL     1     -10.439  19.305  70.445  1.00  0.00     0.514 N  
HETATM   22  H2  UNL     1      -9.787  19.994  70.071  1.00  0.00     0.000 HD 
HETATM   23  O   UNL     1     -11.201  17.190  70.537  1.00  0.00     0.331 OA 
ENDBRANCH  11  19
BRANCH  17  24
HETATM   24  C   UNL     1      -7.187  12.752  68.039  1.00  0.00    -0.115 A  
HETATM   25  C   UNL     1      -6.217  11.835  68.458  1.00  0.00    -0.051 A  
HETATM   26  C   UNL     1      -6.140  10.535  67.924  1.00  0.00    -0.047 A  
HETATM   27  C   UNL     1      -7.022  10.091  66.933  1.00  0.00    -0.089 A  
HETATM   28  C   UNL     1      -8.031  10.975  66.560  1.00  0.00    -0.158 A  
HETATM   29  C   UNL     1      -8.110  12.270  67.101  1.00  0.00    -0.173 A  
BRANCH  27  30
HETATM   30  N   UNL     1      -6.814   8.841  66.264  1.00  0.00    -0.073 N  
HETATM   31  C   UNL     1      -6.833   7.580  67.001  1.00  0.00    -0.071 C  
HETATM   32  C   UNL     1      -7.761   6.568  66.348  1.00  0.00    -0.099 C  
HETATM   33  C   UNL     1      -7.322   6.343  64.913  1.00  0.00    -0.079 C  
HETATM   34  C   UNL     1      -7.268   7.660  64.161  1.00  0.00    -0.080 C  
HETATM   35  C   UNL     1      -6.548   8.782  64.890  1.00  0.00    -0.069 C  
HETATM   36  O   UNL     1      -5.928   9.631  64.251  1.00  0.00    -0.077 OA 
ENDBRANCH  27  30
ENDBRANCH  17  24
ENDBRANCH   6   9
ENDBRANCH   2   3
TORSDOF 5
ENDMDL
MODEL       68
REMARK 921   NORMALIZED FREE ENERGY PREDICTED BY IDOCK:    1.92 KCAL/MOL
REMARK 922        TOTAL FREE ENERGY PREDICTED BY IDOCK:    1.11 KCAL/MOL
REMARK 923 INTER-LIGAND FREE ENERGY PREDICTED BY IDOCK:    1.28 KCAL/MOL
REMARK 924 INTRA-LIGAND FREE ENERGY PREDICTED BY IDOCK:   -0.17 KCAL/MOL
REMARK 927      BINDING AFFINITY PREDICTED BY RF-SCORE:    0.00 PKD
ROOT
HETATM    1  C   UNL     1      -5.309  17.308  65.922  1.00  0.00     0.184 C  
HETATM    2  O   UNL     1      -5.229  16.957  67.300  1.00  0.00    -0.120 OA 
ENDROOT
BRANCH   2   3
HETATM    3  C   UNL     1      -6.273  16.208  67.771  1.00  0.00    -0.137 A  
HETATM    4  C   UNL     1      -5.963  14.905  68.156  1.00  0.00    -0.145 A  
HETATM    5  C   UNL     1      -6.959  14.044  68.635  1.00  0.00    -0.106 A  
HETATM    6  C   UNL     1      -8.285  14.483  68.745  1.00  0.00    -0.146 A  
HETATM    7  C   UNL     1      -8.576  15.819  68.431  1.00  0.00    -0.171 A  
HETATM    8  C   UNL     1      -7.578  16.672  67.934  1.00  0.00    -0.169 A  
BRANCH   6   9
HETATM    9  N   UNL     1      -9.332  13.616  69.189  1.00  0.00     0.313 NA 
HETATM   10  N   UNL     1     -10.566  14.153  69.513  1.00  0.00    -0.042 NA 
HETATM   11  C   UNL     1     -11.265  13.136  70.054  1.00  0.00     0.243 A  
HETATM   12  C   UNL     1     -10.521  11.948  70.006  1.00  0.00     1.213 A  
HETATM   13  C   UNL     1     -10.893  10.574  70.402  1.00  0.00    -0.172 C  
HETATM   14  C   UNL     1      -9.332  12.240  69.370  1.00  0.00     1.124 A  
HETATM   15  C   UNL     1      -9.611   9.748  70.465  1.00  0.00    -0.103 C  
HETATM   16  O   UNL     1      -7.484  11.476  68.129  1.00  0.00    -0.090 OA 
HETATM   17  N   UNL     1      -8.811   9.885  69.233  1.00  0.00    -0.161 N  
HETATM   18  C   UNL     1      -8.426  11.213  68.868  1.00  0.00    -0.092 C  
BRANCH  11  19
HETATM   19  C   UNL     1     -12.641  13.246  70.573  1.00  0.00    -0.189 C  
HETATM   20  H1  UNL     1     -13.719  13.481  72.277  1.00  0.00     0.000 HD 
HETATM   21  N   UNL     1     -12.767  13.406  71.918  1.00  0.00    -0.227 N  
HETATM   22  H2  UNL     1     -11.955  13.448  72.534  1.00  0.00     0.000 HD 
HETATM   23  O   UNL     1     -13.640  13.213  69.854  1.00  0.00     1.649 OA 
ENDBRANCH  11  19
BRANCH  17  24
HETATM   24  C   UNL     1      -8.536   8.731  68.410  1.00  0.00    -0.134 A  
HETATM   25  C   UNL     1      -9.540   8.045  67.717  1.00  0.00    -0.179 A  
HETATM   26  C   UNL     1      -9.285   6.842  67.032  1.00  0.00    -0.160 A  
HETATM   27  C   UNL     1      -8.014   6.257  67.017  1.00  0.00    -0.109 A  
HETATM   28  C   UNL     1      -6.997   6.969  67.647  1.00  0.00    -0.083 A  
HETATM   29  C   UNL     1      -7.253   8.173  68.324  1.00  0.00    -0.093 A  
BRANCH  27  30
HETATM   30  N   UNL     1      -7.811   4.943  66.482  1.00  0.00    -0.099 N  
HETATM   31  C   UNL     1      -8.154   3.753  67.256  1.00  0.00    -0.091 C  
HETATM   32  C   UNL     1      -9.021   2.798  66.453  1.00  0.00    -0.153 C  
HETATM   33  C   UNL     1      -8.293   2.415  65.178  1.00  0.00    -0.095 C  
HETATM   34  C   UNL     1      -7.906   3.656  64.394  1.00  0.00    -0.085 C  
HETATM   35  C   UNL     1      -7.243   4.749  65.217  1.00  0.00    -0.068 C  
HETATM   36  O   UNL     1      -6.392   5.473  64.702  1.00  0.00    -0.028 OA 
ENDBRANCH  27  30
ENDBRANCH  17  24
ENDBRANCH   6   9
ENDBRANCH   2   3
TORSDOF 5
ENDMDL
MODEL       69
REMARK 921   NORMALIZED FREE ENERGY PREDICTED BY IDOCK:    2.34 KCAL/MOL
REMARK 922        TOTAL FREE ENERGY PREDICTED BY IDOCK:    1.65 KCAL/MOL
REMARK 923 INTER-LIGAND FREE ENERGY PREDICTED BY IDOCK:    0.51 KCAL/MOL
REMARK 924 INTRA-LIGAND FREE ENERGY PREDICTED BY IDOCK:    1.14 KCAL/MOL
REMARK 927      BINDING AFFINITY PREDICTED BY RF-SCORE:    0.00 PKD
ROOT
HETATM    1  C   UNL     1      -8.129  20.030  70.075  1.00  0.00     0.956 C  
HETATM    2  O   UNL     1      -8.363  18.707  70.548  1.00  0.00     2.555 OA 
ENDROOT
BRANCH   2   3
HETATM    3  C   UNL     1      -8.940  17.859  69.642  1.00  0.00     0.943 A  
HETATM    4  C   UNL     1      -8.543  16.524  69.719  1.00  0.00     0.763 A  
HETATM    5  C   UNL     1      -9.057  15.573  68.827  1.00  0.00    -0.207 A  
HETATM    6  C   UNL     1      -9.986  15.947  67.847  1.00  0.00    -0.221 A  
HETATM    7  C   UNL     1     -10.440  17.274  67.826  1.00  0.00    -0.371 A  
HETATM    8  C   UNL     1      -9.909  18.227  68.710  1.00  0.00    -0.377 A  
BRANCH   6   9
HETATM    9  N   UNL     1     -10.496  15.009  66.895  1.00  0.00    -0.274 NA 
HETATM   10  N   UNL     1     -11.063  15.473  65.722  1.00  0.00    -0.268 NA 
HETATM   11  C   UNL     1     -11.598  14.387  65.130  1.00  0.00    -0.361 A  
HETATM   12  C   UNL     1     -11.309  13.233  65.873  1.00  0.00    -0.333 A  
HETATM   13  C   UNL     1     -11.613  11.815  65.586  1.00  0.00    -0.190 C  
HETATM   14  C   UNL     1     -10.529  13.622  66.942  1.00  0.00    -0.272 A  
HETATM   15  C   UNL     1     -11.387  11.025  66.873  1.00  0.00    -0.032 C  
HETATM   16  O   UNL     1      -8.941  13.042  68.580  1.00  0.00    -0.152 OA 
HETATM   17  N   UNL     1     -10.066  11.309  67.465  1.00  0.00    -0.181 N  
HETATM   18  C   UNL     1      -9.787  12.678  67.770  1.00  0.00    -0.212 C  
BRANCH  11  19
HETATM   19  C   UNL     1     -12.334  14.403  63.853  1.00  0.00    -0.077 C  
HETATM   20  H1  UNL     1     -13.151  13.202  62.436  1.00  0.00     0.000 HD 
HETATM   21  N   UNL     1     -12.642  13.190  63.319  1.00  0.00    -0.663 N  
HETATM   22  H2  UNL     1     -12.378  12.318  63.777  1.00  0.00     0.000 HD 
HETATM   23  O   UNL     1     -12.678  15.439  63.284  1.00  0.00     0.332 OA 
ENDBRANCH  11  19
BRANCH  17  24
HETATM   24  C   UNL     1      -9.094  10.253  67.620  1.00  0.00    -0.137 A  
HETATM   25  C   UNL     1      -7.716  10.482  67.543  1.00  0.00    -0.098 A  
HETATM   26  C   UNL     1      -6.784   9.427  67.557  1.00  0.00    -0.068 A  
HETATM   27  C   UNL     1      -7.184   8.089  67.634  1.00  0.00    -0.091 A  
HETATM   28  C   UNL     1      -8.549   7.858  67.779  1.00  0.00    -0.128 A  
HETATM   29  C   UNL     1      -9.478   8.913  67.773  1.00  0.00    -0.163 A  
BRANCH  27  30
HETATM   30  N   UNL     1      -6.242   7.024  67.454  1.00  0.00    -0.039 N  
HETATM   31  C   UNL     1      -5.954   6.083  68.534  1.00  0.00    -0.020 C  
HETATM   32  C   UNL     1      -6.071   4.642  68.062  1.00  0.00    -0.031 C  
HETATM   33  C   UNL     1      -5.129   4.422  66.894  1.00  0.00    -0.008 C  
HETATM   34  C   UNL     1      -5.407   5.425  65.790  1.00  0.00    -0.013 C  
HETATM   35  C   UNL     1      -5.537   6.866  66.255  1.00  0.00    -0.022 C  
HETATM   36  O   UNL     1      -5.175   7.784  65.519  1.00  0.00    -0.028 OA 
ENDBRANCH  27  30
ENDBRANCH  17  24
ENDBRANCH   6   9
ENDBRANCH   2   3
TORSDOF 5
ENDMDL
MODEL       70
REMARK 921   NORMALIZED FREE ENERGY PREDICTED BY IDOCK:    4.16 KCAL/MOL
REMARK 922        TOTAL FREE ENERGY PREDICTED BY IDOCK:    4.00 KCAL/MOL
REMARK 923 INTER-LIGAND FREE ENERGY PREDICTED BY IDOCK:    2.89 KCAL/MOL
REMARK 924 INTRA-LIGAND FREE ENERGY PREDICTED BY IDOCK:    1.12 KCAL/MOL
REMARK 927      BINDING AFFINITY PREDICTED BY RF-SCORE:    0.00 PKD
ROOT
HETATM    1  C   UNL     1     -10.871  13.122  62.606  1.00  0.00     3.540 C  
HETATM    2  O   UNL     1      -9.884  12.996  63.625  1.00  0.00    -0.084 OA 
ENDROOT
BRANCH   2   3
HETATM    3  C   UNL     1     -10.369  12.961  64.904  1.00  0.00    -0.308 A  
HETATM    4  C   UNL     1     -10.318  11.722  65.541  1.00  0.00    -0.304 A  
HETATM    5  C   UNL     1     -10.806  11.567  66.845  1.00  0.00    -0.331 A  
HETATM    6  C   UNL     1     -11.345  12.660  67.537  1.00  0.00    -0.308 A  
HETATM    7  C   UNL     1     -11.321  13.920  66.921  1.00  0.00    -0.343 A  
HETATM    8  C   UNL     1     -10.848  14.066  65.607  1.00  0.00    -0.295 A  
BRANCH   6   9
HETATM    9  N   UNL     1     -11.890  12.525  68.852  1.00  0.00    -0.311 NA 
HETATM   10  N   UNL     1     -12.850  13.423  69.284  1.00  0.00     0.673 NA 
HETATM   11  C   UNL     1     -13.029  13.151  70.592  1.00  0.00     0.080 A  
HETATM   12  C   UNL     1     -12.256  12.045  70.973  1.00  0.00    -0.245 A  
HETATM   13  C   UNL     1     -12.180  11.335  72.267  1.00  0.00     1.585 C  
HETATM   14  C   UNL     1     -11.607  11.594  69.842  1.00  0.00    -0.288 A  
HETATM   15  C   UNL     1     -10.943  10.442  72.233  1.00  0.00     3.893 C  
HETATM   16  O   UNL     1     -10.558   9.819  68.708  1.00  0.00    -0.207 OA 
HETATM   17  N   UNL     1     -10.906   9.604  71.019  1.00  0.00    -0.335 N  
HETATM   18  C   UNL     1     -10.949  10.295  69.768  1.00  0.00    -0.289 C  
BRANCH  11  19
HETATM   19  C   UNL     1     -13.951  13.880  71.483  1.00  0.00    -0.163 C  
HETATM   20  H1  UNL     1     -15.023  15.594  71.657  1.00  0.00     0.000 HD 
HETATM   21  N   UNL     1     -14.385  15.091  71.041  1.00  0.00    -0.677 N  
HETATM   22  H2  UNL     1     -14.089  15.475  70.143  1.00  0.00     0.000 HD 
HETATM   23  O   UNL     1     -14.337  13.437  72.564  1.00  0.00    -0.692 OA 
ENDBRANCH  11  19
BRANCH  17  24
HETATM   24  C   UNL     1     -10.930   8.164  71.126  1.00  0.00    -0.237 A  
HETATM   25  C   UNL     1     -11.735   7.492  72.053  1.00  0.00    -0.333 A  
HETATM   26  C   UNL     1     -11.648   6.101  72.244  1.00  0.00    -0.362 A  
HETATM   27  C   UNL     1     -10.741   5.312  71.528  1.00  0.00    -0.151 A  
HETATM   28  C   UNL     1      -9.985   5.964  70.557  1.00  0.00    -0.243 A  
HETATM   29  C   UNL     1     -10.079   7.353  70.363  1.00  0.00    -0.193 A  
BRANCH  27  30
HETATM   30  N   UNL     1     -10.529   3.936  71.866  1.00  0.00     0.016 N  
HETATM   31  C   UNL     1      -9.796   3.044  70.971  1.00  0.00    -0.013 C  
HETATM   32  C   UNL     1      -8.695   2.299  71.707  1.00  0.00    -0.103 C  
HETATM   33  C   UNL     1      -9.303   1.520  72.858  1.00  0.00    -0.091 C  
HETATM   34  C   UNL     1     -10.094   2.444  73.766  1.00  0.00    -0.170 C  
HETATM   35  C   UNL     1     -11.045   3.385  73.045  1.00  0.00     0.014 C  
HETATM   36  O   UNL     1     -12.100   3.720  73.583  1.00  0.00     0.161 OA 
ENDBRANCH  27  30
ENDBRANCH  17  24
ENDBRANCH   6   9
ENDBRANCH   2   3
TORSDOF 5
ENDMDL
MODEL       71
REMARK 921   NORMALIZED FREE ENERGY PREDICTED BY IDOCK:    4.37 KCAL/MOL
REMARK 922        TOTAL FREE ENERGY PREDICTED BY IDOCK:    4.28 KCAL/MOL
REMARK 923 INTER-LIGAND FREE ENERGY PREDICTED BY IDOCK:    3.61 KCAL/MOL
REMARK 924 INTRA-LIGAND FREE ENERGY PREDICTED BY IDOCK:    0.66 KCAL/MOL
REMARK 927      BINDING AFFINITY PREDICTED BY RF-SCORE:    0.00 PKD
ROOT
HETATM    1  C   UNL     1     -10.785  13.753  63.111  1.00  0.00     2.959 C  
HETATM    2  O   UNL     1      -9.795  13.767  64.136  1.00  0.00     0.107 OA 
ENDROOT
BRANCH   2   3
HETATM    3  C   UNL     1     -10.251  13.458  65.389  1.00  0.00    -0.298 A  
HETATM    4  C   UNL     1      -9.996  12.158  65.825  1.00  0.00    -0.271 A  
HETATM    5  C   UNL     1     -10.435  11.727  67.084  1.00  0.00    -0.250 A  
HETATM    6  C   UNL     1     -11.129  12.601  67.932  1.00  0.00    -0.247 A  
HETATM    7  C   UNL     1     -11.312  13.929  67.520  1.00  0.00    -0.342 A  
HETATM    8  C   UNL     1     -10.887  14.350  66.250  1.00  0.00    -0.313 A  
BRANCH   6   9
HETATM    9  N   UNL     1     -11.627  12.179  69.205  1.00  0.00    -0.296 NA 
HETATM   10  N   UNL     1     -12.723  12.824  69.752  1.00  0.00     0.327 NA 
HETATM   11  C   UNL     1     -12.837  12.333  71.001  1.00  0.00    -0.160 A  
HETATM   12  C   UNL     1     -11.880  11.332  71.225  1.00  0.00     0.255 A  
HETATM   13  C   UNL     1     -11.668  10.461  72.400  1.00  0.00     2.222 C  
HETATM   14  C   UNL     1     -11.176  11.174  70.049  1.00  0.00    -0.181 A  
HETATM   15  C   UNL     1     -10.295   9.810  72.251  1.00  0.00     2.358 C  
HETATM   16  O   UNL     1      -9.849   9.796  68.677  1.00  0.00    -0.151 OA 
HETATM   17  N   UNL     1     -10.128   9.182  70.926  1.00  0.00    -0.263 N  
HETATM   18  C   UNL     1     -10.304  10.034  69.791  1.00  0.00    -0.255 C  
BRANCH  11  19
HETATM   19  C   UNL     1     -13.861  12.749  71.977  1.00  0.00    -0.116 C  
HETATM   20  H1  UNL     1     -15.053  14.301  72.516  1.00  0.00     0.000 HD 
HETATM   21  N   UNL     1     -14.345  14.013  71.840  1.00  0.00    -0.441 N  
HETATM   22  H2  UNL     1     -14.019  14.638  71.103  1.00  0.00     0.000 HD 
HETATM   23  O   UNL     1     -14.285  12.013  72.868  1.00  0.00     0.643 OA 
ENDBRANCH  11  19
BRANCH  17  24
HETATM   24  C   UNL     1      -9.901   7.760  70.817  1.00  0.00    -0.180 A  
HETATM   25  C   UNL     1      -8.892   7.103  71.529  1.00  0.00    -0.127 A  
HETATM   26  C   UNL     1      -8.589   5.746  71.312  1.00  0.00    -0.129 A  
HETATM   27  C   UNL     1      -9.272   4.980  70.360  1.00  0.00    -0.148 A  
HETATM   28  C   UNL     1     -10.322   5.610  69.697  1.00  0.00    -0.346 A  
HETATM   29  C   UNL     1     -10.627   6.963  69.921  1.00  0.00    -0.256 A  
BRANCH  27  30
HETATM   30  N   UNL     1      -8.829   3.662  70.015  1.00  0.00    -0.078 N  
HETATM   31  C   UNL     1      -9.238   3.034  68.761  1.00  0.00    -0.166 C  
HETATM   32  C   UNL     1      -8.042   2.493  67.994  1.00  0.00    -0.067 C  
HETATM   33  C   UNL     1      -7.295   1.504  68.869  1.00  0.00    -0.039 C  
HETATM   34  C   UNL     1      -6.904   2.148  70.186  1.00  0.00    -0.033 C  
HETATM   35  C   UNL     1      -8.021   2.912  70.878  1.00  0.00    -0.050 C  
HETATM   36  O   UNL     1      -8.063   2.958  72.107  1.00  0.00    -0.054 OA 
ENDBRANCH  27  30
ENDBRANCH  17  24
ENDBRANCH   6   9
ENDBRANCH   2   3
TORSDOF 5
ENDMDL
MODEL       72
REMARK 921   NORMALIZED FREE ENERGY PREDICTED BY IDOCK:    4.55 KCAL/MOL
REMARK 922        TOTAL FREE ENERGY PREDICTED BY IDOCK:    4.51 KCAL/MOL
REMARK 923 INTER-LIGAND FREE ENERGY PREDICTED BY IDOCK:    5.41 KCAL/MOL
REMARK 924 INTRA-LIGAND FREE ENERGY PREDICTED BY IDOCK:   -0.90 KCAL/MOL
REMARK 927      BINDING AFFINITY PREDICTED BY RF-SCORE:    0.00 PKD
ROOT
HETATM    1  C   UNL     1     -12.854  16.703  66.928  1.00  0.00     5.069 C  
HETATM    2  O   UNL     1     -13.069  15.329  67.238  1.00  0.00     2.107 OA 
ENDROOT
BRANCH   2   3
HETATM    3  C   UNL     1     -11.959  14.647  67.656  1.00  0.00    -0.274 A  
HETATM    4  C   UNL     1     -10.769  15.373  67.673  1.00  0.00    -0.292 A  
HETATM    5  C   UNL     1      -9.567  14.768  68.067  1.00  0.00    -0.209 A  
HETATM    6  C   UNL     1      -9.545  13.424  68.461  1.00  0.00    -0.141 A  
HETATM    7  C   UNL     1     -10.758  12.722  68.518  1.00  0.00    -0.275 A  
HETATM    8  C   UNL     1     -11.956  13.327  68.105  1.00  0.00    -0.340 A  
BRANCH   6   9
HETATM    9  N   UNL     1      -8.329  12.766  68.827  1.00  0.00     0.052 NA 
HETATM   10  N   UNL     1      -7.758  13.032  70.059  1.00  0.00     1.645 NA 
HETATM   11  C   UNL     1      -6.560  12.415  70.038  1.00  0.00     0.205 A  
HETATM   12  C   UNL     1      -6.399  11.699  68.843  1.00  0.00    -0.062 A  
HETATM   13  C   UNL     1      -5.300  10.814  68.402  1.00  0.00    -0.040 C  
HETATM   14  C   UNL     1      -7.564  11.848  68.119  1.00  0.00    -0.121 A  
HETATM   15  C   UNL     1      -5.467  10.581  66.903  1.00  0.00    -0.044 C  
HETATM   16  O   UNL     1      -9.014  11.020  66.461  1.00  0.00    -0.162 OA 
HETATM   17  N   UNL     1      -6.837  10.147  66.566  1.00  0.00    -0.086 N  
HETATM   18  C   UNL     1      -7.897  11.020  66.966  1.00  0.00    -0.137 C  
BRANCH  11  19
HETATM   19  C   UNL     1      -5.581  12.443  71.139  1.00  0.00     0.007 C  
HETATM   20  H1  UNL     1      -4.456  11.256  72.341  1.00  0.00     0.000 HD 
HETATM   21  N   UNL     1      -5.134  11.236  71.579  1.00  0.00    -0.070 N  
HETATM   22  H2  UNL     1      -5.458  10.360  71.170  1.00  0.00     0.000 HD 
HETATM   23  O   UNL     1      -5.160  13.484  71.644  1.00  0.00    -0.146 OA 
ENDBRANCH  11  19
BRANCH  17  24
HETATM   24  C   UNL     1      -7.064   8.858  65.956  1.00  0.00    -0.088 A  
HETATM   25  C   UNL     1      -7.602   8.719  64.672  1.00  0.00    -0.109 A  
HETATM   26  C   UNL     1      -7.949   7.462  64.142  1.00  0.00    -0.092 A  
HETATM   27  C   UNL     1      -7.788   6.281  64.876  1.00  0.00    -0.113 A  
HETATM   28  C   UNL     1      -7.191   6.407  66.128  1.00  0.00    -0.072 A  
HETATM   29  C   UNL     1      -6.839   7.662  66.652  1.00  0.00    -0.066 A  
BRANCH  27  30
HETATM   30  N   UNL     1      -8.320   5.038  64.403  1.00  0.00    -0.131 N  
HETATM   31  C   UNL     1      -9.526   4.461  64.993  1.00  0.00    -0.167 C  
HETATM   32  C   UNL     1     -10.543   4.089  63.926  1.00  0.00    -0.163 C  
HETATM   33  C   UNL     1      -9.908   3.118  62.950  1.00  0.00    -0.097 C  
HETATM   34  C   UNL     1      -8.636   3.705  62.366  1.00  0.00    -0.081 C  
HETATM   35  C   UNL     1      -7.687   4.311  63.388  1.00  0.00    -0.066 C  
HETATM   36  O   UNL     1      -6.472   4.269  63.197  1.00  0.00    -0.025 OA 
ENDBRANCH  27  30
ENDBRANCH  17  24
ENDBRANCH   6   9
ENDBRANCH   2   3
TORSDOF 5
ENDMDL
MODEL       73
REMARK 921   NORMALIZED FREE ENERGY PREDICTED BY IDOCK:    5.17 KCAL/MOL
REMARK 922        TOTAL FREE ENERGY PREDICTED BY IDOCK:    5.31 KCAL/MOL
REMARK 923 INTER-LIGAND FREE ENERGY PREDICTED BY IDOCK:    6.11 KCAL/MOL
REMARK 924 INTRA-LIGAND FREE ENERGY PREDICTED BY IDOCK:   -0.80 KCAL/MOL
REMARK 927      BINDING AFFINITY PREDICTED BY RF-SCORE:    0.00 PKD
ROOT
HETATM    1  C   UNL     1     -11.344  19.929  70.234  1.00  0.00     4.464 C  
HETATM    2  O   UNL     1     -10.436  18.846  70.416  1.00  0.00     1.048 OA 
ENDROOT
BRANCH   2   3
HETATM    3  C   UNL     1     -10.620  17.785  69.572  1.00  0.00     0.420 A  
HETATM    4  C   UNL     1     -11.671  16.927  69.892  1.00  0.00     1.115 A  
HETATM    5  C   UNL     1     -11.938  15.798  69.106  1.00  0.00    -0.312 A  
HETATM    6  C   UNL     1     -11.156  15.517  67.977  1.00  0.00    -0.322 A  
HETATM    7  C   UNL     1     -10.151  16.427  67.616  1.00  0.00    -0.263 A  
HETATM    8  C   UNL     1      -9.877  17.546  68.417  1.00  0.00    -0.325 A  
BRANCH   6   9
HETATM    9  N   UNL     1     -11.376  14.351  67.180  1.00  0.00    -0.328 NA 
HETATM   10  N   UNL     1     -11.628  14.491  65.826  1.00  0.00    -0.350 NA 
HETATM   11  C   UNL     1     -11.962  13.259  65.397  1.00  0.00    -0.395 A  
HETATM   12  C   UNL     1     -11.848  12.328  66.440  1.00  0.00    -0.382 A  
HETATM   13  C   UNL     1     -12.030  10.861  66.432  1.00  0.00     1.759 C  
HETATM   14  C   UNL     1     -11.385  13.011  67.545  1.00  0.00    -0.305 A  
HETATM   15  C   UNL     1     -12.130  10.401  67.885  1.00  0.00     1.587 C  
HETATM   16  O   UNL     1     -10.266  12.950  69.615  1.00  0.00     0.630 OA 
HETATM   17  N   UNL     1     -11.017  10.922  68.701  1.00  0.00    -0.208 N  
HETATM   18  C   UNL     1     -10.861  12.343  68.731  1.00  0.00    -0.226 C  
BRANCH  11  19
HETATM   19  C   UNL     1     -12.339  12.926  64.010  1.00  0.00    -0.380 C  
HETATM   20  H1  UNL     1     -11.579  12.394  62.205  1.00  0.00     0.000 HD 
HETATM   21  N   UNL     1     -11.317  12.624  63.164  1.00  0.00    -0.769 N  
HETATM   22  H2  UNL     1     -10.345  12.627  63.471  1.00  0.00     0.000 HD 
HETATM   23  O   UNL     1     -13.504  12.901  63.614  1.00  0.00     0.425 OA 
ENDBRANCH  11  19
BRANCH  17  24
HETATM   24  C   UNL     1     -10.093  10.014  69.339  1.00  0.00    -0.219 A  
HETATM   25  C   UNL     1     -10.324   8.637  69.415  1.00  0.00    -0.221 A  
HETATM   26  C   UNL     1      -9.489   7.781  70.158  1.00  0.00    -0.160 A  
HETATM   27  C   UNL     1      -8.388   8.263  70.875  1.00  0.00    -0.130 A  
HETATM   28  C   UNL     1      -8.114   9.622  70.749  1.00  0.00     0.046 A  
HETATM   29  C   UNL     1      -8.944  10.473  70.000  1.00  0.00     0.442 A  
BRANCH  27  30
HETATM   30  N   UNL     1      -7.665   7.417  71.777  1.00  0.00    -0.085 N  
HETATM   31  C   UNL     1      -7.781   7.583  73.223  1.00  0.00    -0.101 C  
HETATM   32  C   UNL     1      -8.096   6.265  73.911  1.00  0.00    -0.105 C  
HETATM   33  C   UNL     1      -7.014   5.256  73.574  1.00  0.00    -0.081 C  
HETATM   34  C   UNL     1      -6.870   5.113  72.070  1.00  0.00    -0.061 C  
HETATM   35  C   UNL     1      -6.792   6.426  71.309  1.00  0.00    -0.067 C  
HETATM   36  O   UNL     1      -6.120   6.500  70.281  1.00  0.00    -0.029 OA 
ENDBRANCH  27  30
ENDBRANCH  17  24
ENDBRANCH   6   9
ENDBRANCH   2   3
TORSDOF 5
ENDMDL
MODEL       74
REMARK 921   NORMALIZED FREE ENERGY PREDICTED BY IDOCK:    7.69 KCAL/MOL
REMARK 922        TOTAL FREE ENERGY PREDICTED BY IDOCK:    8.56 KCAL/MOL
REMARK 923 INTER-LIGAND FREE ENERGY PREDICTED BY IDOCK:    8.37 KCAL/MOL
REMARK 924 INTRA-LIGAND FREE ENERGY PREDICTED BY IDOCK:    0.19 KCAL/MOL
REMARK 927      BINDING AFFINITY PREDICTED BY RF-SCORE:    0.00 PKD
ROOT
HETATM    1  C   UNL     1     -12.604   3.550  74.080  1.00  0.00     2.631 C  
HETATM    2  O   UNL     1     -12.904   4.030  72.772  1.00  0.00     1.197 OA 
ENDROOT
BRANCH   2   3
HETATM    3  C   UNL     1     -11.831   4.499  72.064  1.00  0.00     1.675 A  
HETATM    4  C   UNL     1     -11.639   3.935  70.804  1.00  0.00     5.904 A  
HETATM    5  C   UNL     1     -10.560   4.328  70.001  1.00  0.00     1.003 A  
HETATM    6  C   UNL     1      -9.659   5.303  70.449  1.00  0.00    -0.179 A  
HETATM    7  C   UNL     1      -9.903   5.923  71.683  1.00  0.00    -0.197 A  
HETATM    8  C   UNL     1     -10.975   5.513  72.492  1.00  0.00    -0.316 A  
BRANCH   6   9
HETATM    9  N   UNL     1      -8.524   5.695  69.671  1.00  0.00    -0.109 NA 
HETATM   10  N   UNL     1      -7.848   4.742  68.931  1.00  0.00    -0.075 NA 
HETATM   11  C   UNL     1      -6.749   5.367  68.464  1.00  0.00    -0.054 A  
HETATM   12  C   UNL     1      -6.762   6.721  68.832  1.00  0.00    -0.053 A  
HETATM   13  C   UNL     1      -5.824   7.810  68.491  1.00  0.00    -0.031 C  
HETATM   14  C   UNL     1      -7.938   6.944  69.518  1.00  0.00    -0.125 A  
HETATM   15  C   UNL     1      -6.113   8.980  69.427  1.00  0.00    -0.040 C  
HETATM   16  O   UNL     1      -9.587   8.467  70.225  1.00  0.00    -0.163 OA 
HETATM   17  N   UNL     1      -7.547   9.326  69.442  1.00  0.00    -0.077 N  
HETATM   18  C   UNL     1      -8.451   8.279  69.803  1.00  0.00    -0.128 C  
BRANCH  11  19
HETATM   19  C   UNL     1      -5.709   4.731  67.635  1.00  0.00    -0.021 C  
HETATM   20  H1  UNL     1      -4.488   5.041  66.044  1.00  0.00     0.000 HD 
HETATM   21  N   UNL     1      -5.207   5.481  66.617  1.00  0.00    -0.005 N  
HETATM   22  H2  UNL     1      -5.533   6.431  66.437  1.00  0.00     0.000 HD 
HETATM   23  O   UNL     1      -5.286   3.593  67.836  1.00  0.00    -0.011 OA 
ENDBRANCH  11  19
BRANCH  17  24
HETATM   24  C   UNL     1      -7.987  10.633  69.012  1.00  0.00    -0.140 A  
HETATM   25  C   UNL     1      -7.179  11.770  69.118  1.00  0.00    -0.043 A  
HETATM   26  C   UNL     1      -7.664  13.059  68.826  1.00  0.00     0.004 A  
HETATM   27  C   UNL     1      -8.987  13.277  68.427  1.00  0.00    -0.124 A  
HETATM   28  C   UNL     1      -9.777  12.143  68.256  1.00  0.00    -0.216 A  
HETATM   29  C   UNL     1      -9.288  10.856  68.540  1.00  0.00    -0.181 A  
BRANCH  27  30
HETATM   30  N   UNL     1      -9.519  14.603  68.320  1.00  0.00    -0.204 N  
HETATM   31  C   UNL     1     -10.904  14.891  68.684  1.00  0.00    -0.251 C  
HETATM   32  C   UNL     1     -10.994  16.069  69.640  1.00  0.00    -0.326 C  
HETATM   33  C   UNL     1     -10.346  17.282  68.999  1.00  0.00    -0.330 C  
HETATM   34  C   UNL     1      -8.919  16.968  68.590  1.00  0.00    -0.267 C  
HETATM   35  C   UNL     1      -8.747  15.663  67.829  1.00  0.00    -0.170 C  
HETATM   36  O   UNL     1      -7.871  15.565  66.970  1.00  0.00    -0.205 OA 
ENDBRANCH  27  30
ENDBRANCH  17  24
ENDBRANCH   6   9
ENDBRANCH   2   3
TORSDOF 5
ENDMDL
MODEL       75
REMARK 921   NORMALIZED FREE ENERGY PREDICTED BY IDOCK:    8.22 KCAL/MOL
REMARK 922        TOTAL FREE ENERGY PREDICTED BY IDOCK:    9.24 KCAL/MOL
REMARK 923 INTER-LIGAND FREE ENERGY PREDICTED BY IDOCK:    8.55 KCAL/MOL
REMARK 924 INTRA-LIGAND FREE ENERGY PREDICTED BY IDOCK:    0.70 KCAL/MOL
REMARK 927      BINDING AFFINITY PREDICTED BY RF-SCORE:    0.00 PKD
ROOT
HETATM    1  C   UNL     1     -10.722  17.865  71.566  1.00  0.00     2.850 C  
HETATM    2  O   UNL     1     -11.348  16.611  71.823  1.00  0.00    -0.160 OA 
ENDROOT
BRANCH   2   3
HETATM    3  C   UNL     1     -10.917  15.574  71.040  1.00  0.00    -0.266 A  
HETATM    4  C   UNL     1     -10.070  15.918  69.987  1.00  0.00    -0.113 A  
HETATM    5  C   UNL     1      -9.583  14.939  69.111  1.00  0.00    -0.172 A  
HETATM    6  C   UNL     1      -9.933  13.593  69.286  1.00  0.00     0.369 A  
HETATM    7  C   UNL     1     -10.720  13.244  70.393  1.00  0.00     1.776 A  
HETATM    8  C   UNL     1     -11.220  14.231  71.257  1.00  0.00     0.706 A  
BRANCH   6   9
HETATM    9  N   UNL     1      -9.488  12.576  68.384  1.00  0.00    -0.200 NA 
HETATM   10  N   UNL     1      -8.477  12.862  67.484  1.00  0.00    -0.174 NA 
HETATM   11  C   UNL     1      -8.407  11.788  66.673  1.00  0.00    -0.136 A  
HETATM   12  C   UNL     1      -9.304  10.796  67.095  1.00  0.00    -0.171 A  
HETATM   13  C   UNL     1      -9.528   9.430  66.577  1.00  0.00    -0.246 C  
HETATM   14  C   UNL     1      -9.919  11.264  68.238  1.00  0.00    -0.195 A  
HETATM   15  C   UNL     1     -10.840   8.921  67.168  1.00  0.00     0.001 C  
HETATM   16  O   UNL     1     -11.057  10.785  70.241  1.00  0.00    -0.276 OA 
HETATM   17  N   UNL     1     -10.878   9.083  68.634  1.00  0.00    -0.087 N  
HETATM   18  C   UNL     1     -10.692  10.410  69.133  1.00  0.00    -0.234 C  
BRANCH  11  19
HETATM   19  C   UNL     1      -7.478  11.653  65.536  1.00  0.00     1.088 C  
HETATM   20  H1  UNL     1      -5.514  11.717  65.028  1.00  0.00     0.000 HD 
HETATM   21  N   UNL     1      -6.156  11.810  65.815  1.00  0.00     0.335 N  
HETATM   22  H2  UNL     1      -5.825  12.011  66.759  1.00  0.00     0.000 HD 
HETATM   23  O   UNL     1      -7.846  11.398  64.389  1.00  0.00     0.816 OA 
ENDBRANCH  11  19
BRANCH  17  24
HETATM   24  C   UNL     1     -10.997   7.928  69.493  1.00  0.00    -0.071 A  
HETATM   25  C   UNL     1     -12.230   7.341  69.796  1.00  0.00     0.654 A  
HETATM   26  C   UNL     1     -12.350   6.305  70.741  1.00  0.00     0.302 A  
HETATM   27  C   UNL     1     -11.243   5.813  71.442  1.00  0.00    -0.164 A  
HETATM   28  C   UNL     1     -10.004   6.347  71.096  1.00  0.00    -0.203 A  
HETATM   29  C   UNL     1      -9.886   7.376  70.146  1.00  0.00    -0.180 A  
BRANCH  27  30
HETATM   30  N   UNL     1     -11.405   4.898  72.533  1.00  0.00    -0.068 N  
HETATM   31  C   UNL     1     -12.707   4.702  73.165  1.00  0.00     1.119 C  
HETATM   32  C   UNL     1     -13.062   3.227  73.258  1.00  0.00     1.617 C  
HETATM   33  C   UNL     1     -11.978   2.500  74.031  1.00  0.00     0.576 C  
HETATM   34  C   UNL     1     -10.621   2.737  73.393  1.00  0.00    -0.263 C  
HETATM   35  C   UNL     1     -10.318   4.188  73.059  1.00  0.00    -0.171 C  
HETATM   36  O   UNL     1      -9.161   4.602  73.115  1.00  0.00    -0.116 OA 
ENDBRANCH  27  30
ENDBRANCH  17  24
ENDBRANCH   6   9
ENDBRANCH   2   3
TORSDOF 5
ENDMDL
MODEL       76
REMARK 921   NORMALIZED FREE ENERGY PREDICTED BY IDOCK:    9.64 KCAL/MOL
REMARK 922        TOTAL FREE ENERGY PREDICTED BY IDOCK:   11.09 KCAL/MOL
REMARK 923 INTER-LIGAND FREE ENERGY PREDICTED BY IDOCK:   10.13 KCAL/MOL
REMARK 924 INTRA-LIGAND FREE ENERGY PREDICTED BY IDOCK:    0.96 KCAL/MOL
REMARK 927      BINDING AFFINITY PREDICTED BY RF-SCORE:    0.00 PKD
ROOT
HETATM    1  C   UNL     1      -9.536   6.142  62.831  1.00  0.00     1.648 C  
HETATM    2  O   UNL     1      -8.910   6.891  63.869  1.00  0.00     0.559 OA 
ENDROOT
BRANCH   2   3
HETATM    3  C   UNL     1      -9.313   6.574  65.138  1.00  0.00     0.758 A  
HETATM    4  C   UNL     1      -9.977   7.582  65.836  1.00  0.00     0.563 A  
HETATM    5  C   UNL     1     -10.417   7.372  67.150  1.00  0.00    -0.403 A  
HETATM    6  C   UNL     1     -10.204   6.140  67.782  1.00  0.00    -0.172 A  
HETATM    7  C   UNL     1      -9.607   5.104  67.047  1.00  0.00    -0.155 A  
HETATM    8  C   UNL     1      -9.152   5.326  65.738  1.00  0.00    -0.161 A  
BRANCH   6   9
HETATM    9  N   UNL     1     -10.603   5.908  69.136  1.00  0.00    -0.268 NA 
HETATM   10  N   UNL     1     -10.129   4.791  69.801  1.00  0.00    -0.242 NA 
HETATM   11  C   UNL     1     -10.806   4.756  70.965  1.00  0.00     0.359 A  
HETATM   12  C   UNL     1     -11.643   5.876  71.080  1.00  0.00    -0.026 A  
HETATM   13  C   UNL     1     -12.509   6.309  72.197  1.00  0.00    -0.117 C  
HETATM   14  C   UNL     1     -11.438   6.652  69.958  1.00  0.00    -0.375 A  
HETATM   15  C   UNL     1     -13.448   7.387  71.662  1.00  0.00    -0.366 C  
HETATM   16  O   UNL     1     -11.538   8.773  68.943  1.00  0.00     0.625 OA 
HETATM   17  N   UNL     1     -12.712   8.449  70.950  1.00  0.00     0.011 N  
HETATM   18  C   UNL     1     -11.899   8.032  69.850  1.00  0.00     0.544 C  
BRANCH  11  19
HETATM   19  C   UNL     1     -10.648   3.716  71.998  1.00  0.00     0.241 C  
HETATM   20  H1  UNL     1     -11.017   3.298  73.950  1.00  0.00     0.000 HD 
HETATM   21  N   UNL     1     -11.126   4.018  73.236  1.00  0.00    -0.219 N  
HETATM   22  H2  UNL     1     -11.570   4.914  73.438  1.00  0.00     0.000 HD 
HETATM   23  O   UNL     1     -10.130   2.620  71.781  1.00  0.00    -0.156 OA 
ENDBRANCH  11  19
BRANCH  17  24
HETATM   24  C   UNL     1     -12.754   9.811  71.427  1.00  0.00    -0.387 A  
HETATM   25  C   UNL     1     -13.935  10.560  71.461  1.00  0.00     0.525 A  
HETATM   26  C   UNL     1     -13.942  11.927  71.795  1.00  0.00     0.784 A  
HETATM   27  C   UNL     1     -12.764  12.618  72.099  1.00  0.00     0.052 A  
HETATM   28  C   UNL     1     -11.594  11.864  72.132  1.00  0.00     4.337 A  
HETATM   29  C   UNL     1     -11.591  10.497  71.805  1.00  0.00     0.768 A  
BRANCH  27  30
HETATM   30  N   UNL     1     -12.760  14.044  72.248  1.00  0.00    -0.282 N  
HETATM   31  C   UNL     1     -13.351  14.909  71.231  1.00  0.00    -0.421 C  
HETATM   32  C   UNL     1     -14.320  15.907  71.845  1.00  0.00     0.033 C  
HETATM   33  C   UNL     1     -13.593  16.730  72.891  1.00  0.00     1.592 C  
HETATM   34  C   UNL     1     -12.949  15.826  73.925  1.00  0.00    -0.566 C  
HETATM   35  C   UNL     1     -12.158  14.661  73.351  1.00  0.00    -0.121 C  
HETATM   36  O   UNL     1     -11.164  14.243  73.944  1.00  0.00     1.169 OA 
ENDBRANCH  27  30
ENDBRANCH  17  24
ENDBRANCH   6   9
ENDBRANCH   2   3
TORSDOF 5
ENDMDL
MODEL       77
REMARK 921   NORMALIZED FREE ENERGY PREDICTED BY IDOCK:   12.23 KCAL/MOL
REMARK 922        TOTAL FREE ENERGY PREDICTED BY IDOCK:   14.43 KCAL/MOL
REMARK 923 INTER-LIGAND FREE ENERGY PREDICTED BY IDOCK:   13.95 KCAL/MOL
REMARK 924 INTRA-LIGAND FREE ENERGY PREDICTED BY IDOCK:    0.48 KCAL/MOL
REMARK 927      BINDING AFFINITY PREDICTED BY RF-SCORE:    0.00 PKD
ROOT
HETATM    1  C   UNL     1      -7.651  20.309  71.959  1.00  0.00     1.854 C  
HETATM    2  O   UNL     1      -9.042  20.324  71.652  1.00  0.00     1.513 OA 
ENDROOT
BRANCH   2   3
HETATM    3  C   UNL     1      -9.436  19.429  70.695  1.00  0.00     1.819 A  
HETATM    4  C   UNL     1      -8.870  19.601  69.432  1.00  0.00     0.173 A  
HETATM    5  C   UNL     1      -9.217  18.753  68.371  1.00  0.00    -0.376 A  
HETATM    6  C   UNL     1     -10.132  17.710  68.566  1.00  0.00    -0.375 A  
HETATM    7  C   UNL     1     -10.637  17.493  69.857  1.00  0.00     0.587 A  
HETATM    8  C   UNL     1     -10.301  18.357  70.911  1.00  0.00     2.565 A  
BRANCH   6   9
HETATM    9  N   UNL     1     -10.539  16.854  67.494  1.00  0.00    -0.326 NA 
HETATM   10  N   UNL     1     -10.304  17.245  66.188  1.00  0.00    -0.350 NA 
HETATM   11  C   UNL     1     -10.945  16.338  65.425  1.00  0.00    -0.197 A  
HETATM   12  C   UNL     1     -11.514  15.337  66.225  1.00  0.00    -0.079 A  
HETATM   13  C   UNL     1     -12.237  14.107  65.843  1.00  0.00    -0.458 C  
HETATM   14  C   UNL     1     -11.172  15.619  67.532  1.00  0.00    -0.245 A  
HETATM   15  C   UNL     1     -12.931  13.571  67.092  1.00  0.00     1.601 C  
HETATM   16  O   UNL     1     -10.831  14.841  69.727  1.00  0.00    -0.250 OA 
HETATM   17  N   UNL     1     -11.999  13.460  68.230  1.00  0.00    -0.346 N  
HETATM   18  C   UNL     1     -11.323  14.659  68.619  1.00  0.00    -0.283 C  
BRANCH  11  19
HETATM   19  C   UNL     1     -10.993  16.364  63.951  1.00  0.00     1.680 C  
HETATM   20  H1  UNL     1     -12.013  17.134  62.374  1.00  0.00     0.000 HD 
HETATM   21  N   UNL     1     -11.980  17.116  63.393  1.00  0.00     4.441 N  
HETATM   22  H2  UNL     1     -12.650  17.633  63.962  1.00  0.00     0.000 HD 
HETATM   23  O   UNL     1     -10.190  15.763  63.237  1.00  0.00     4.444 OA 
ENDBRANCH  11  19
BRANCH  17  24
HETATM   24  C   UNL     1     -11.731  12.174  68.831  1.00  0.00    -0.327 A  
HETATM   25  C   UNL     1     -11.901  11.933  70.198  1.00  0.00    -0.390 A  
HETATM   26  C   UNL     1     -11.506  10.722  70.796  1.00  0.00    -0.216 A  
HETATM   27  C   UNL     1     -10.908   9.695  70.058  1.00  0.00    -0.264 A  
HETATM   28  C   UNL     1     -10.798   9.902  68.686  1.00  0.00    -0.244 A  
HETATM   29  C   UNL     1     -11.200  11.109  68.090  1.00  0.00    -0.356 A  
BRANCH  27  30
HETATM   30  N   UNL     1     -10.339   8.551  70.708  1.00  0.00    -0.193 N  
HETATM   31  C   UNL     1     -10.136   8.530  72.154  1.00  0.00    -0.323 C  
HETATM   32  C   UNL     1     -10.721   7.274  72.779  1.00  0.00    -0.340 C  
HETATM   33  C   UNL     1     -10.091   6.055  72.132  1.00  0.00    -0.208 C  
HETATM   34  C   UNL     1     -10.272   6.099  70.626  1.00  0.00    -0.250 C  
HETATM   35  C   UNL     1      -9.922   7.430  69.980  1.00  0.00    -0.185 C  
HETATM   36  O   UNL     1      -9.456   7.455  68.842  1.00  0.00    -0.145 OA 
ENDBRANCH  27  30
ENDBRANCH  17  24
ENDBRANCH   6   9
ENDBRANCH   2   3
TORSDOF 5
ENDMDL
MODEL       78
REMARK 921   NORMALIZED FREE ENERGY PREDICTED BY IDOCK:   12.84 KCAL/MOL
REMARK 922        TOTAL FREE ENERGY PREDICTED BY IDOCK:   15.22 KCAL/MOL
REMARK 923 INTER-LIGAND FREE ENERGY PREDICTED BY IDOCK:   14.93 KCAL/MOL
REMARK 924 INTRA-LIGAND FREE ENERGY PREDICTED BY IDOCK:    0.29 KCAL/MOL
REMARK 927      BINDING AFFINITY PREDICTED BY RF-SCORE:    0.00 PKD
ROOT
HETATM    1  C   UNL     1     -12.735  18.556  74.545  1.00  0.00     4.792 C  
HETATM    2  O   UNL     1     -11.372  18.334  74.192  1.00  0.00     0.609 OA 
ENDROOT
BRANCH   2   3
HETATM    3  C   UNL     1     -11.175  17.765  72.963  1.00  0.00     2.086 A  
HETATM    4  C   UNL     1     -10.490  18.547  72.034  1.00  0.00     3.794 A  
HETATM    5  C   UNL     1     -10.249  18.071  70.738  1.00  0.00     2.505 A  
HETATM    6  C   UNL     1     -10.685  16.795  70.357  1.00  0.00     0.235 A  
HETATM    7  C   UNL     1     -11.303  15.983  71.320  1.00  0.00    -0.397 A  
HETATM    8  C   UNL     1     -11.558  16.472  72.612  1.00  0.00    -0.148 A  
BRANCH   6   9
HETATM    9  N   UNL     1     -10.493  16.298  69.030  1.00  0.00    -0.256 NA 
HETATM   10  N   UNL     1      -9.920  17.118  68.075  1.00  0.00    -0.282 NA 
HETATM   11  C   UNL     1     -10.035  16.446  66.913  1.00  0.00    -0.271 A  
HETATM   12  C   UNL     1     -10.600  15.181  67.132  1.00  0.00    -0.295 A  
HETATM   13  C   UNL     1     -10.847  14.071  66.188  1.00  0.00    -0.291 C  
HETATM   14  C   UNL     1     -10.801  15.056  68.491  1.00  0.00    -0.250 A  
HETATM   15  C   UNL     1     -11.786  13.082  66.874  1.00  0.00    -0.380 C  
HETATM   16  O   UNL     1     -11.065  13.646  70.356  1.00  0.00     0.250 OA 
HETATM   17  N   UNL     1     -11.302  12.709  68.217  1.00  0.00    -0.272 N  
HETATM   18  C   UNL     1     -11.093  13.782  69.138  1.00  0.00    -0.240 C  
BRANCH  11  19
HETATM   19  C   UNL     1      -9.579  16.948  65.603  1.00  0.00     0.102 C  
HETATM   20  H1  UNL     1      -9.572  18.587  64.406  1.00  0.00     0.000 HD 
HETATM   21  N   UNL     1      -9.887  18.240  65.312  1.00  0.00     1.031 N  
HETATM   22  H2  UNL     1     -10.405  18.830  65.964  1.00  0.00     0.000 HD 
HETATM   23  O   UNL     1      -8.941  16.264  64.802  1.00  0.00     1.763 OA 
ENDBRANCH  11  19
BRANCH  17  24
HETATM   24  C   UNL     1     -10.971  11.336  68.517  1.00  0.00    -0.220 A  
HETATM   25  C   UNL     1      -9.655  10.862  68.513  1.00  0.00    -0.187 A  
HETATM   26  C   UNL     1      -9.354   9.496  68.670  1.00  0.00    -0.142 A  
HETATM   27  C   UNL     1     -10.357   8.533  68.825  1.00  0.00    -0.213 A  
HETATM   28  C   UNL     1     -11.664   9.006  68.898  1.00  0.00     1.114 A  
HETATM   29  C   UNL     1     -11.961  10.371  68.749  1.00  0.00     0.142 A  
BRANCH  27  30
HETATM   30  N   UNL     1     -10.050   7.133  68.791  1.00  0.00    -0.168 N  
HETATM   31  C   UNL     1      -8.933   6.588  69.558  1.00  0.00    -0.137 C  
HETATM   32  C   UNL     1      -9.364   5.394  70.396  1.00  0.00    -0.203 C  
HETATM   33  C   UNL     1      -9.957   4.335  69.486  1.00  0.00    -0.127 C  
HETATM   34  C   UNL     1     -11.093   4.915  68.664  1.00  0.00     1.612 C  
HETATM   35  C   UNL     1     -10.782   6.244  67.995  1.00  0.00    -0.295 C  
HETATM   36  O   UNL     1     -11.293   6.518  66.910  1.00  0.00    -0.330 OA 
ENDBRANCH  27  30
ENDBRANCH  17  24
ENDBRANCH   6   9
ENDBRANCH   2   3
TORSDOF 5
ENDMDL
MODEL       79
REMARK 921   NORMALIZED FREE ENERGY PREDICTED BY IDOCK:   15.17 KCAL/MOL
REMARK 922        TOTAL FREE ENERGY PREDICTED BY IDOCK:   18.23 KCAL/MOL
REMARK 923 INTER-LIGAND FREE ENERGY PREDICTED BY IDOCK:   18.82 KCAL/MOL
REMARK 924 INTRA-LIGAND FREE ENERGY PREDICTED BY IDOCK:   -0.59 KCAL/MOL
REMARK 927      BINDING AFFINITY PREDICTED BY RF-SCORE:    0.00 PKD
ROOT
HETATM    1  C   UNL     1     -12.331   7.305  70.807  1.00  0.00    -0.182 C  
HETATM    2  O   UNL     1     -12.452   7.021  69.416  1.00  0.00     1.007 OA 
ENDROOT
BRANCH   2   3
HETATM    3  C   UNL     1     -11.558   7.671  68.610  1.00  0.00     1.146 A  
HETATM    4  C   UNL     1     -10.334   7.993  69.196  1.00  0.00    -0.226 A  
HETATM    5  C   UNL     1      -9.351   8.677  68.468  1.00  0.00    -0.138 A  
HETATM    6  C   UNL     1      -9.578   9.039  67.133  1.00  0.00    -0.167 A  
HETATM    7  C   UNL     1     -10.779   8.641  66.526  1.00  0.00     0.222 A  
HETATM    8  C   UNL     1     -11.768   7.973  67.266  1.00  0.00     2.692 A  
BRANCH   6   9
HETATM    9  N   UNL     1      -8.612   9.774  66.377  1.00  0.00    -0.123 NA 
HETATM   10  N   UNL     1      -7.931   9.143  65.350  1.00  0.00    -0.103 NA 
HETATM   11  C   UNL     1      -6.988  10.021  64.957  1.00  0.00    -0.135 A  
HETATM   12  C   UNL     1      -7.112  11.225  65.664  1.00  0.00     0.406 A  
HETATM   13  C   UNL     1      -6.365  12.493  65.528  1.00  0.00     4.904 C  
HETATM   14  C   UNL     1      -8.205  11.095  66.497  1.00  0.00    -0.167 A  
HETATM   15  C   UNL     1      -6.664  13.341  66.761  1.00  0.00     1.300 C  
HETATM   16  O   UNL     1      -9.914  12.135  67.737  1.00  0.00    -0.190 OA 
HETATM   17  N   UNL     1      -8.115  13.455  67.007  1.00  0.00    -0.072 N  
HETATM   18  C   UNL     1      -8.831  12.228  67.170  1.00  0.00    -0.194 C  
BRANCH  11  19
HETATM   19  C   UNL     1      -5.999   9.770  63.892  1.00  0.00    -0.112 C  
HETATM   20  H1  UNL     1      -5.200  10.559  62.201  1.00  0.00     0.000 HD 
HETATM   21  N   UNL     1      -5.883  10.733  62.938  1.00  0.00    -0.317 N  
HETATM   22  H2  UNL     1      -6.449  11.581  62.957  1.00  0.00     0.000 HD 
HETATM   23  O   UNL     1      -5.293   8.763  63.848  1.00  0.00    -0.059 OA 
ENDBRANCH  11  19
BRANCH  17  24
HETATM   24  C   UNL     1      -8.760  14.746  66.978  1.00  0.00    -0.235 A  
HETATM   25  C   UNL     1      -9.703  15.094  66.005  1.00  0.00    -0.361 A  
HETATM   26  C   UNL     1     -10.222  16.398  65.903  1.00  0.00    -0.379 A  
HETATM   27  C   UNL     1      -9.813  17.425  66.760  1.00  0.00    -0.296 A  
HETATM   28  C   UNL     1      -8.926  17.070  67.772  1.00  0.00    -0.224 A  
HETATM   29  C   UNL     1      -8.415  15.765  67.878  1.00  0.00    -0.161 A  
BRANCH  27  30
HETATM   30  N   UNL     1     -10.201  18.784  66.525  1.00  0.00    -0.388 N  
HETATM   31  C   UNL     1     -10.534  19.251  65.181  1.00  0.00     0.850 C  
HETATM   32  C   UNL     1     -11.870  19.976  65.160  1.00  0.00     2.787 C  
HETATM   33  C   UNL     1     -11.822  21.138  66.133  1.00  0.00     6.087 C  
HETATM   34  C   UNL     1     -11.439  20.655  67.520  1.00  0.00     2.434 C  
HETATM   35  C   UNL     1     -10.239  19.724  67.562  1.00  0.00    -0.436 C  
HETATM   36  O   UNL     1      -9.486  19.736  68.536  1.00  0.00    -0.348 OA 
ENDBRANCH  27  30
ENDBRANCH  17  24
ENDBRANCH   6   9
ENDBRANCH   2   3
TORSDOF 5
ENDMDL
MODEL       80
REMARK 921   NORMALIZED FREE ENERGY PREDICTED BY IDOCK:   15.51 KCAL/MOL
REMARK 922        TOTAL FREE ENERGY PREDICTED BY IDOCK:   18.66 KCAL/MOL
REMARK 923 INTER-LIGAND FREE ENERGY PREDICTED BY IDOCK:   18.78 KCAL/MOL
REMARK 924 INTRA-LIGAND FREE ENERGY PREDICTED BY IDOCK:   -0.11 KCAL/MOL
REMARK 927      BINDING AFFINITY PREDICTED BY RF-SCORE:    0.00 PKD
ROOT
HETATM    1  C   UNL     1      -5.978  18.237  66.143  1.00  0.00    -0.188 C  
HETATM    2  O   UNL     1      -5.882  18.030  67.549  1.00  0.00    -0.143 OA 
ENDROOT
BRANCH   2   3
HETATM    3  C   UNL     1      -6.940  17.370  68.113  1.00  0.00    -0.190 A  
HETATM    4  C   UNL     1      -6.650  16.133  68.687  1.00  0.00    -0.126 A  
HETATM    5  C   UNL     1      -7.661  15.363  69.276  1.00  0.00    -0.221 A  
HETATM    6  C   UNL     1      -8.982  15.829  69.307  1.00  0.00    -0.266 A  
HETATM    7  C   UNL     1      -9.253  17.109  68.800  1.00  0.00    -0.249 A  
HETATM    8  C   UNL     1      -8.239  17.868  68.194  1.00  0.00    -0.269 A  
BRANCH   6   9
HETATM    9  N   UNL     1     -10.044  15.048  69.863  1.00  0.00    -0.112 NA 
HETATM   10  N   UNL     1     -11.291  15.624  70.036  1.00  0.00    -0.303 NA 
HETATM   11  C   UNL     1     -12.009  14.717  70.727  1.00  0.00    -0.310 A  
HETATM   12  C   UNL     1     -11.261  13.547  70.924  1.00  0.00     1.342 A  
HETATM   13  C   UNL     1     -11.646  12.264  71.550  1.00  0.00     2.325 C  
HETATM   14  C   UNL     1     -10.049  13.728  70.291  1.00  0.00     2.121 A  
HETATM   15  C   UNL     1     -10.365  11.476  71.811  1.00  0.00     9.141 C  
HETATM   16  O   UNL     1      -8.152  12.768  69.281  1.00  0.00     0.406 OA 
HETATM   17  N   UNL     1      -9.518  11.392  70.606  1.00  0.00     3.971 N  
HETATM   18  C   UNL     1      -9.122  12.635  70.020  1.00  0.00     3.615 C  
BRANCH  11  19
HETATM   19  C   UNL     1     -13.404  14.907  71.165  1.00  0.00    -0.418 C  
HETATM   20  H1  UNL     1     -14.547  15.442  72.754  1.00  0.00     0.000 HD 
HETATM   21  N   UNL     1     -13.582  15.310  72.452  1.00  0.00    -0.441 N  
HETATM   22  H2  UNL     1     -12.794  15.472  73.079  1.00  0.00     0.000 HD 
HETATM   23  O   UNL     1     -14.374  14.733  70.427  1.00  0.00     0.723 OA 
ENDBRANCH  11  19
BRANCH  17  24
HETATM   24  C   UNL     1      -9.210  10.110  70.018  1.00  0.00     0.005 A  
HETATM   25  C   UNL     1     -10.185   9.301  69.424  1.00  0.00    -0.214 A  
HETATM   26  C   UNL     1      -9.901   7.996  68.980  1.00  0.00    -0.178 A  
HETATM   27  C   UNL     1      -8.630   7.429  69.120  1.00  0.00    -0.136 A  
HETATM   28  C   UNL     1      -7.640   8.251  69.650  1.00  0.00    -0.094 A  
HETATM   29  C   UNL     1      -7.923   9.557  70.086  1.00  0.00    -0.171 A  
BRANCH  27  30
HETATM   30  N   UNL     1      -8.405   6.041  68.842  1.00  0.00    -0.107 N  
HETATM   31  C   UNL     1      -8.777   5.009  69.806  1.00  0.00    -0.091 C  
HETATM   32  C   UNL     1      -9.611   3.916  69.157  1.00  0.00    -0.218 C  
HETATM   33  C   UNL     1      -8.832   3.314  68.003  1.00  0.00    -0.159 C  
HETATM   34  C   UNL     1      -8.414   4.394  67.022  1.00  0.00    -0.104 C  
HETATM   35  C   UNL     1      -7.786   5.624  67.657  1.00  0.00    -0.097 C  
HETATM   36  O   UNL     1      -6.916   6.250  67.053  1.00  0.00    -0.067 OA 
ENDBRANCH  27  30
ENDBRANCH  17  24
ENDBRANCH   6   9
ENDBRANCH   2   3
TORSDOF 5
ENDMDL
MODEL       81
REMARK 921   NORMALIZED FREE ENERGY PREDICTED BY IDOCK:   16.24 KCAL/MOL
REMARK 922        TOTAL FREE ENERGY PREDICTED BY IDOCK:   19.61 KCAL/MOL
REMARK 923 INTER-LIGAND FREE ENERGY PREDICTED BY IDOCK:   19.37 KCAL/MOL
REMARK 924 INTRA-LIGAND FREE ENERGY PREDICTED BY IDOCK:    0.25 KCAL/MOL
REMARK 927      BINDING AFFINITY PREDICTED BY RF-SCORE:    0.00 PKD
ROOT
HETATM    1  C   UNL     1      -8.708  20.931  72.554  1.00  0.00     3.503 C  
HETATM    2  O   UNL     1      -8.805  19.511  72.629  1.00  0.00     3.630 OA 
ENDROOT
BRANCH   2   3
HETATM    3  C   UNL     1      -9.006  18.878  71.433  1.00  0.00     6.156 A  
HETATM    4  C   UNL     1     -10.336  18.703  71.053  1.00  0.00     2.643 A  
HETATM    5  C   UNL     1     -10.657  18.050  69.855  1.00  0.00     1.067 A  
HETATM    6  C   UNL     1      -9.644  17.571  69.013  1.00  0.00    -0.151 A  
HETATM    7  C   UNL     1      -8.309  17.822  69.362  1.00  0.00     0.453 A  
HETATM    8  C   UNL     1      -7.993  18.460  70.572  1.00  0.00     3.403 A  
BRANCH   6   9
HETATM    9  N   UNL     1      -9.940  16.864  67.805  1.00  0.00    -0.269 NA 
HETATM   10  N   UNL     1     -10.341  17.571  66.686  1.00  0.00    -0.331 NA 
HETATM   11  C   UNL     1     -10.709  16.636  65.788  1.00  0.00    -0.204 A  
HETATM   12  C   UNL     1     -10.473  15.350  66.294  1.00  0.00    -0.310 A  
HETATM   13  C   UNL     1     -10.641  14.028  65.654  1.00  0.00    -0.313 C  
HETATM   14  C   UNL     1      -9.896  15.503  67.538  1.00  0.00    -0.220 A  
HETATM   15  C   UNL     1     -10.575  12.971  66.753  1.00  0.00    -0.262 C  
HETATM   16  O   UNL     1      -8.555  14.601  69.249  1.00  0.00    -0.090 OA 
HETATM   17  N   UNL     1      -9.383  13.143  67.606  1.00  0.00    -0.197 N  
HETATM   18  C   UNL     1      -9.239  14.412  68.249  1.00  0.00    -0.201 C  
BRANCH  11  19
HETATM   19  C   UNL     1     -11.234  16.926  64.440  1.00  0.00     0.588 C  
HETATM   20  H1  UNL     1     -11.927  16.050  62.746  1.00  0.00     0.000 HD 
HETATM   21  N   UNL     1     -11.564  15.850  63.678  1.00  0.00    -0.406 N  
HETATM   22  H2  UNL     1     -11.455  14.894  64.018  1.00  0.00     0.000 HD 
HETATM   23  O   UNL     1     -11.390  18.068  64.007  1.00  0.00     1.635 OA 
ENDBRANCH  11  19
BRANCH  17  24
HETATM   24  C   UNL     1      -8.386  12.101  67.685  1.00  0.00    -0.163 A  
HETATM   25  C   UNL     1      -8.038  11.310  66.585  1.00  0.00    -0.160 A  
HETATM   26  C   UNL     1      -7.169  10.209  66.705  1.00  0.00    -0.093 A  
HETATM   27  C   UNL     1      -6.615   9.836  67.934  1.00  0.00    -0.061 A  
HETATM   28  C   UNL     1      -6.904  10.660  69.019  1.00  0.00    -0.071 A  
HETATM   29  C   UNL     1      -7.766  11.763  68.896  1.00  0.00    -0.041 A  
BRANCH  27  30
HETATM   30  N   UNL     1      -5.891   8.608  68.078  1.00  0.00    -0.042 N  
HETATM   31  C   UNL     1      -5.530   8.096  69.397  1.00  0.00    -0.030 C  
HETATM   32  C   UNL     1      -5.944   6.642  69.561  1.00  0.00    -0.022 C  
HETATM   33  C   UNL     1      -5.295   5.813  68.470  1.00  0.00    -0.004 C  
HETATM   34  C   UNL     1      -5.642   6.370  67.101  1.00  0.00    -0.012 C  
HETATM   35  C   UNL     1      -5.469   7.873  66.963  1.00  0.00    -0.032 C  
HETATM   36  O   UNL     1      -5.134   8.355  65.881  1.00  0.00    -0.027 OA 
ENDBRANCH  27  30
ENDBRANCH  17  24
ENDBRANCH   6   9
ENDBRANCH   2   3
TORSDOF 5
ENDMDL
MODEL       82
REMARK 921   NORMALIZED FREE ENERGY PREDICTED BY IDOCK:   17.94 KCAL/MOL
REMARK 922        TOTAL FREE ENERGY PREDICTED BY IDOCK:   21.82 KCAL/MOL
REMARK 923 INTER-LIGAND FREE ENERGY PREDICTED BY IDOCK:   21.41 KCAL/MOL
REMARK 924 INTRA-LIGAND FREE ENERGY PREDICTED BY IDOCK:    0.41 KCAL/MOL
REMARK 927      BINDING AFFINITY PREDICTED BY RF-SCORE:    0.00 PKD
ROOT
HETATM    1  C   UNL     1      -8.142  12.716  63.571  1.00  0.00     5.679 C  
HETATM    2  O   UNL     1      -6.907  12.161  64.016  1.00  0.00     4.133 OA 
ENDROOT
BRANCH   2   3
HETATM    3  C   UNL     1      -6.704  12.205  65.368  1.00  0.00     3.535 A  
HETATM    4  C   UNL     1      -7.366  11.233  66.116  1.00  0.00     0.058 A  
HETATM    5  C   UNL     1      -7.244  11.197  67.511  1.00  0.00    -0.101 A  
HETATM    6  C   UNL     1      -6.443  12.133  68.179  1.00  0.00    -0.056 A  
HETATM    7  C   UNL     1      -5.717  13.058  67.415  1.00  0.00    -0.009 A  
HETATM    8  C   UNL     1      -5.858  13.102  66.019  1.00  0.00     4.795 A  
BRANCH   6   9
HETATM    9  N   UNL     1      -6.332  12.149  69.605  1.00  0.00    -0.127 NA 
HETATM   10  N   UNL     1      -6.392  13.358  70.276  1.00  0.00    -0.020 NA 
HETATM   11  C   UNL     1      -6.084  13.069  71.556  1.00  0.00     1.054 A  
HETATM   12  C   UNL     1      -5.908  11.687  71.719  1.00  0.00     1.077 A  
HETATM   13  C   UNL     1      -5.641  10.898  72.939  1.00  0.00     1.067 C  
HETATM   14  C   UNL     1      -6.159  11.099  70.496  1.00  0.00    -0.084 A  
HETATM   15  C   UNL     1      -5.197   9.505  72.500  1.00  0.00    -0.061 C  
HETATM   16  O   UNL     1      -6.791   9.181  69.287  1.00  0.00    -0.048 OA 
HETATM   17  N   UNL     1      -6.134   8.914  71.526  1.00  0.00    -0.059 N  
HETATM   18  C   UNL     1      -6.367   9.665  70.332  1.00  0.00    -0.081 C  
BRANCH  11  19
HETATM   19  C   UNL     1      -6.000  14.061  72.644  1.00  0.00     0.459 C  
HETATM   20  H1  UNL     1      -6.218  16.036  73.059  1.00  0.00     0.000 HD 
HETATM   21  N   UNL     1      -6.276  15.350  72.307  1.00  0.00     1.427 N  
HETATM   22  H2  UNL     1      -6.528  15.616  71.355  1.00  0.00     0.000 HD 
HETATM   23  O   UNL     1      -5.713  13.769  73.804  1.00  0.00    -0.494 OA 
ENDBRANCH  11  19
BRANCH  17  24
HETATM   24  C   UNL     1      -6.837   7.692  71.838  1.00  0.00    -0.062 A  
HETATM   25  C   UNL     1      -7.632   7.022  70.903  1.00  0.00    -0.086 A  
HETATM   26  C   UNL     1      -8.422   5.912  71.255  1.00  0.00    -0.128 A  
HETATM   27  C   UNL     1      -8.467   5.424  72.566  1.00  0.00    -0.118 A  
HETATM   28  C   UNL     1      -7.627   6.044  73.486  1.00  0.00    -0.096 A  
HETATM   29  C   UNL     1      -6.833   7.148  73.130  1.00  0.00    -0.069 A  
BRANCH  27  30
HETATM   30  N   UNL     1      -9.416   4.421  72.950  1.00  0.00    -0.129 N  
HETATM   31  C   UNL     1      -9.055   3.006  72.957  1.00  0.00    -0.090 C  
HETATM   32  C   UNL     1      -9.414   2.347  74.280  1.00  0.00    -0.105 C  
HETATM   33  C   UNL     1     -10.898   2.522  74.537  1.00  0.00    -0.037 C  
HETATM   34  C   UNL     1     -11.277   3.991  74.492  1.00  0.00     0.722 C  
HETATM   35  C   UNL     1     -10.732   4.754  73.295  1.00  0.00    -0.248 C  
HETATM   36  O   UNL     1     -11.378   5.683  72.814  1.00  0.00    -0.289 OA 
ENDBRANCH  27  30
ENDBRANCH  17  24
ENDBRANCH   6   9
ENDBRANCH   2   3
TORSDOF 5
ENDMDL
MODEL       83
REMARK 921   NORMALIZED FREE ENERGY PREDICTED BY IDOCK:   18.40 KCAL/MOL
REMARK 922        TOTAL FREE ENERGY PREDICTED BY IDOCK:   22.41 KCAL/MOL
REMARK 923 INTER-LIGAND FREE ENERGY PREDICTED BY IDOCK:   21.76 KCAL/MOL
REMARK 924 INTRA-LIGAND FREE ENERGY PREDICTED BY IDOCK:    0.65 KCAL/MOL
REMARK 927      BINDING AFFINITY PREDICTED BY RF-SCORE:    0.00 PKD
ROOT
HETATM    1  C   UNL     1     -12.242  17.157  63.210  1.00  0.00     8.463 C  
HETATM    2  O   UNL     1     -13.115  16.040  63.069  1.00  0.00     2.060 OA 
ENDROOT
BRANCH   2   3
HETATM    3  C   UNL     1     -12.868  14.998  63.921  1.00  0.00     0.942 A  
HETATM    4  C   UNL     1     -13.693  14.922  65.043  1.00  0.00     2.096 A  
HETATM    5  C   UNL     1     -13.517  13.907  65.993  1.00  0.00     1.388 A  
HETATM    6  C   UNL     1     -12.514  12.942  65.824  1.00  0.00    -0.262 A  
HETATM    7  C   UNL     1     -11.741  12.977  64.654  1.00  0.00    -0.408 A  
HETATM    8  C   UNL     1     -11.909  14.008  63.716  1.00  0.00    -0.160 A  
BRANCH   6   9
HETATM    9  N   UNL     1     -12.282  11.919  66.796  1.00  0.00    -0.234 NA 
HETATM   10  N   UNL     1     -13.183  11.749  67.832  1.00  0.00     4.095 NA 
HETATM   11  C   UNL     1     -12.611  10.853  68.659  1.00  0.00     1.118 A  
HETATM   12  C   UNL     1     -11.399  10.395  68.122  1.00  0.00    -0.284 A  
HETATM   13  C   UNL     1     -10.465   9.363  68.621  1.00  0.00    -0.236 C  
HETATM   14  C   UNL     1     -11.242  11.004  66.895  1.00  0.00    -0.136 A  
HETATM   15  C   UNL     1      -9.156   9.513  67.849  1.00  0.00    -0.125 C  
HETATM   16  O   UNL     1     -10.270  10.974  64.752  1.00  0.00    -0.276 OA 
HETATM   17  N   UNL     1      -9.383   9.547  66.391  1.00  0.00    -0.166 N  
HETATM   18  C   UNL     1     -10.263  10.565  65.908  1.00  0.00    -0.245 C  
BRANCH  11  19
HETATM   19  C   UNL     1     -13.203  10.378  69.923  1.00  0.00     0.610 C  
HETATM   20  H1  UNL     1     -14.371   8.923  70.722  1.00  0.00     0.000 HD 
HETATM   21  N   UNL     1     -13.961   9.251  69.848  1.00  0.00     1.440 N  
HETATM   22  H2  UNL     1     -14.112   8.761  68.966  1.00  0.00     0.000 HD 
HETATM   23  O   UNL     1     -13.029  10.940  71.004  1.00  0.00    -0.353 OA 
ENDBRANCH  11  19
BRANCH  17  24
HETATM   24  C   UNL     1      -8.811   8.529  65.540  1.00  0.00    -0.154 A  
HETATM   25  C   UNL     1      -9.497   7.991  64.447  1.00  0.00     1.962 A  
HETATM   26  C   UNL     1      -8.989   6.905  63.709  1.00  0.00     1.223 A  
HETATM   27  C   UNL     1      -7.775   6.293  64.038  1.00  0.00    -0.104 A  
HETATM   28  C   UNL     1      -7.055   6.867  65.083  1.00  0.00    -0.067 A  
HETATM   29  C   UNL     1      -7.561   7.956  65.813  1.00  0.00    -0.083 A  
BRANCH  27  30
HETATM   30  N   UNL     1      -7.365   5.075  63.404  1.00  0.00    -0.049 N  
HETATM   31  C   UNL     1      -6.105   4.995  62.669  1.00  0.00    -0.017 C  
HETATM   32  C   UNL     1      -5.275   3.803  63.117  1.00  0.00    -0.005 C  
HETATM   33  C   UNL     1      -6.084   2.534  62.931  1.00  0.00    -0.010 C  
HETATM   34  C   UNL     1      -7.408   2.635  63.666  1.00  0.00    -0.057 C  
HETATM   35  C   UNL     1      -8.169   3.929  63.433  1.00  0.00    -0.090 C  
HETATM   36  O   UNL     1      -9.400   3.926  63.437  1.00  0.00    -0.118 OA 
ENDBRANCH  27  30
ENDBRANCH  17  24
ENDBRANCH   6   9
ENDBRANCH   2   3
TORSDOF 5
ENDMDL
MODEL       84
REMARK 921   NORMALIZED FREE ENERGY PREDICTED BY IDOCK:   24.88 KCAL/MOL
REMARK 922        TOTAL FREE ENERGY PREDICTED BY IDOCK:   30.78 KCAL/MOL
REMARK 923 INTER-LIGAND FREE ENERGY PREDICTED BY IDOCK:   30.48 KCAL/MOL
REMARK 924 INTRA-LIGAND FREE ENERGY PREDICTED BY IDOCK:    0.30 KCAL/MOL
REMARK 927      BINDING AFFINITY PREDICTED BY RF-SCORE:    0.00 PKD
ROOT
HETATM    1  C   UNL     1     -11.529  12.925  62.819  1.00  0.00     1.297 C  
HETATM    2  O   UNL     1     -10.422  12.910  63.716  1.00  0.00    -0.379 OA 
ENDROOT
BRANCH   2   3
HETATM    3  C   UNL     1     -10.733  13.146  65.028  1.00  0.00    -0.323 A  
HETATM    4  C   UNL     1     -10.681  12.039  65.874  1.00  0.00    -0.314 A  
HETATM    5  C   UNL     1     -11.000  12.162  67.233  1.00  0.00    -0.308 A  
HETATM    6  C   UNL     1     -11.366  13.404  67.767  1.00  0.00    -0.294 A  
HETATM    7  C   UNL     1     -11.339  14.528  66.928  1.00  0.00    -0.355 A  
HETATM    8  C   UNL     1     -11.038  14.396  65.564  1.00  0.00    -0.326 A  
BRANCH   6   9
HETATM    9  N   UNL     1     -11.738  13.555  69.140  1.00  0.00    -0.305 NA 
HETATM   10  N   UNL     1     -12.495  14.648  69.523  1.00  0.00    -0.186 NA 
HETATM   11  C   UNL     1     -12.528  14.604  70.869  1.00  0.00    -0.336 A  
HETATM   12  C   UNL     1     -11.871  13.458  71.339  1.00  0.00     0.667 A  
HETATM   13  C   UNL     1     -11.717  12.945  72.717  1.00  0.00     4.815 C  
HETATM   14  C   UNL     1     -11.454  12.747  70.233  1.00  0.00     0.212 A  
HETATM   15  C   UNL     1     -10.632  11.872  72.692  1.00  0.00    14.825 C  
HETATM   16  O   UNL     1     -10.827  10.680  69.299  1.00  0.00    -0.208 OA 
HETATM   17  N   UNL     1     -10.880  10.868  71.639  1.00  0.00     2.798 N  
HETATM   18  C   UNL     1     -10.998  11.363  70.303  1.00  0.00     0.483 C  
BRANCH  11  19
HETATM   19  C   UNL     1     -13.209  15.594  71.725  1.00  0.00    -0.465 C  
HETATM   20  H1  UNL     1     -12.941  17.353  72.700  1.00  0.00     0.000 HD 
HETATM   21  N   UNL     1     -12.470  16.669  72.108  1.00  0.00    -0.149 N  
HETATM   22  H2  UNL     1     -11.498  16.786  71.819  1.00  0.00     0.000 HD 
HETATM   23  O   UNL     1     -14.384  15.488  72.077  1.00  0.00    -0.529 OA 
ENDBRANCH  11  19
BRANCH  17  24
HETATM   24  C   UNL     1     -11.089   9.482  71.987  1.00  0.00     0.255 A  
HETATM   25  C   UNL     1     -10.333   8.832  72.969  1.00  0.00     0.744 A  
HETATM   26  C   UNL     1     -10.449   7.449  73.204  1.00  0.00    -0.406 A  
HETATM   27  C   UNL     1     -11.315   6.644  72.458  1.00  0.00    -0.253 A  
HETATM   28  C   UNL     1     -12.118   7.295  71.525  1.00  0.00    -0.365 A  
HETATM   29  C   UNL     1     -12.007   8.678  71.298  1.00  0.00    -0.339 A  
BRANCH  27  30
HETATM   30  N   UNL     1     -11.283   5.216  72.574  1.00  0.00    -0.201 N  
HETATM   31  C   UNL     1     -11.325   4.565  73.881  1.00  0.00     0.058 C  
HETATM   32  C   UNL     1     -12.396   3.488  73.933  1.00  0.00     1.429 C  
HETATM   33  C   UNL     1     -12.134   2.472  72.837  1.00  0.00     0.794 C  
HETATM   34  C   UNL     1     -12.055   3.156  71.485  1.00  0.00     6.759 C  
HETATM   35  C   UNL     1     -11.172   4.393  71.447  1.00  0.00     1.422 C  
HETATM   36  O   UNL     1     -10.557   4.676  70.419  1.00  0.00    -0.032 OA 
ENDBRANCH  27  30
ENDBRANCH  17  24
ENDBRANCH   6   9
ENDBRANCH   2   3
TORSDOF 5
ENDMDL
MODEL       85
REMARK 921   NORMALIZED FREE ENERGY PREDICTED BY IDOCK:   26.67 KCAL/MOL
REMARK 922        TOTAL FREE ENERGY PREDICTED BY IDOCK:   33.10 KCAL/MOL
REMARK 923 INTER-LIGAND FREE ENERGY PREDICTED BY IDOCK:   33.84 KCAL/MOL
REMARK 924 INTRA-LIGAND FREE ENERGY PREDICTED BY IDOCK:   -0.74 KCAL/MOL
REMARK 927      BINDING AFFINITY PREDICTED BY RF-SCORE:    0.00 PKD
ROOT
HETATM    1  C   UNL     1      -6.905  18.856  72.213  1.00  0.00     3.437 C  
HETATM    2  O   UNL     1      -7.372  19.338  70.957  1.00  0.00     1.519 OA 
ENDROOT
BRANCH   2   3
HETATM    3  C   UNL     1      -7.835  18.376  70.100  1.00  0.00     1.908 A  
HETATM    4  C   UNL     1      -6.905  17.413  69.708  1.00  0.00     0.213 A  
HETATM    5  C   UNL     1      -7.266  16.392  68.819  1.00  0.00    -0.191 A  
HETATM    6  C   UNL     1      -8.571  16.315  68.316  1.00  0.00    -0.196 A  
HETATM    7  C   UNL     1      -9.521  17.239  68.776  1.00  0.00    -0.256 A  
HETATM    8  C   UNL     1      -9.150  18.271  69.653  1.00  0.00     0.828 A  
BRANCH   6   9
HETATM    9  N   UNL     1      -8.959  15.311  67.374  1.00  0.00    -0.177 NA 
HETATM   10  N   UNL     1      -8.526  15.407  66.063  1.00  0.00     0.162 NA 
HETATM   11  C   UNL     1      -9.186  14.439  65.399  1.00  0.00     0.729 A  
HETATM   12  C   UNL     1      -9.969  13.683  66.283  1.00  0.00    -0.305 A  
HETATM   13  C   UNL     1     -10.797  12.483  66.037  1.00  0.00    -0.309 C  
HETATM   14  C   UNL     1      -9.747  14.182  67.550  1.00  0.00    -0.234 A  
HETATM   15  C   UNL     1     -11.695  12.283  67.255  1.00  0.00    -0.324 C  
HETATM   16  O   UNL     1      -9.766  13.825  69.876  1.00  0.00     1.079 OA 
HETATM   17  N   UNL     1     -10.923  12.304  68.512  1.00  0.00    -0.227 N  
HETATM   18  C   UNL     1     -10.147  13.478  68.763  1.00  0.00    -0.103 C  
BRANCH  11  19
HETATM   19  C   UNL     1      -9.059  14.176  63.953  1.00  0.00     6.682 C  
HETATM   20  H1  UNL     1      -8.306  14.931  62.227  1.00  0.00     0.000 HD 
HETATM   21  N   UNL     1      -8.393  15.113  63.226  1.00  0.00    17.187 N  
HETATM   22  H2  UNL     1      -8.002  15.951  63.657  1.00  0.00     0.000 HD 
HETATM   23  O   UNL     1      -9.508  13.168  63.407  1.00  0.00     1.180 OA 
ENDBRANCH  11  19
BRANCH  17  24
HETATM   24  C   UNL     1     -10.896  11.143  69.370  1.00  0.00    -0.216 A  
HETATM   25  C   UNL     1     -10.778   9.841  68.871  1.00  0.00    -0.241 A  
HETATM   26  C   UNL     1     -10.892   8.711  69.702  1.00  0.00    -0.163 A  
HETATM   27  C   UNL     1     -11.143   8.825  71.073  1.00  0.00    -0.270 A  
HETATM   28  C   UNL     1     -11.194  10.118  71.588  1.00  0.00     0.411 A  
HETATM   29  C   UNL     1     -11.073  11.245  70.758  1.00  0.00     0.985 A  
BRANCH  27  30
HETATM   30  N   UNL     1     -11.447   7.672  71.868  1.00  0.00    -0.262 N  
HETATM   31  C   UNL     1     -12.815   7.173  71.980  1.00  0.00    -0.169 C  
HETATM   32  C   UNL     1     -12.889   5.683  71.689  1.00  0.00     1.647 C  
HETATM   33  C   UNL     1     -11.970   4.943  72.642  1.00  0.00     0.191 C  
HETATM   34  C   UNL     1     -10.557   5.489  72.550  1.00  0.00    -0.272 C  
HETATM   35  C   UNL     1     -10.455   7.005  72.596  1.00  0.00    -0.226 C  
HETATM   36  O   UNL     1      -9.472   7.538  73.111  1.00  0.00    -0.175 OA 
ENDBRANCH  27  30
ENDBRANCH  17  24
ENDBRANCH   6   9
ENDBRANCH   2   3
TORSDOF 5
ENDMDL
MODEL       86
REMARK 921   NORMALIZED FREE ENERGY PREDICTED BY IDOCK:   28.67 KCAL/MOL
REMARK 922        TOTAL FREE ENERGY PREDICTED BY IDOCK:   35.68 KCAL/MOL
REMARK 923 INTER-LIGAND FREE ENERGY PREDICTED BY IDOCK:   35.35 KCAL/MOL
REMARK 924 INTRA-LIGAND FREE ENERGY PREDICTED BY IDOCK:    0.33 KCAL/MOL
REMARK 927      BINDING AFFINITY PREDICTED BY RF-SCORE:    0.00 PKD
ROOT
HETATM    1  C   UNL     1     -11.948  18.180  63.444  1.00  0.00    12.499 C  
HETATM    2  O   UNL     1     -12.759  17.059  63.785  1.00  0.00     2.463 OA 
ENDROOT
BRANCH   2   3
HETATM    3  C   UNL     1     -12.297  16.304  64.829  1.00  0.00     1.330 A  
HETATM    4  C   UNL     1     -12.834  16.604  66.081  1.00  0.00     5.598 A  
HETATM    5  C   UNL     1     -12.419  15.906  67.223  1.00  0.00     1.891 A  
HETATM    6  C   UNL     1     -11.463  14.887  67.124  1.00  0.00    -0.335 A  
HETATM    7  C   UNL     1     -10.987  14.536  65.852  1.00  0.00    -0.320 A  
HETATM    8  C   UNL     1     -11.392  15.251  64.714  1.00  0.00    -0.396 A  
BRANCH   6   9
HETATM    9  N   UNL     1     -10.988  14.185  68.277  1.00  0.00    -0.244 NA 
HETATM   10  N   UNL     1     -11.581  14.418  69.505  1.00  0.00    -0.286 NA 
HETATM   11  C   UNL     1     -10.816  13.762  70.399  1.00  0.00     0.970 A  
HETATM   12  C   UNL     1      -9.795  13.056  69.747  1.00  0.00     1.809 A  
HETATM   13  C   UNL     1      -8.770  12.141  70.293  1.00  0.00     4.596 C  
HETATM   14  C   UNL     1      -9.967  13.252  68.393  1.00  0.00    -0.226 A  
HETATM   15  C   UNL     1      -7.715  11.931  69.210  1.00  0.00     0.273 C  
HETATM   16  O   UNL     1      -9.603  12.491  66.195  1.00  0.00    -0.249 OA 
HETATM   17  N   UNL     1      -8.322  11.547  67.921  1.00  0.00    -0.130 N  
HETATM   18  C   UNL     1      -9.291  12.448  67.380  1.00  0.00    -0.181 C  
BRANCH  11  19
HETATM   19  C   UNL     1     -11.053  13.745  71.855  1.00  0.00     3.442 C  
HETATM   20  H1  UNL     1     -10.833  14.844  73.547  1.00  0.00     0.000 HD 
HETATM   21  N   UNL     1     -10.669  14.856  72.541  1.00  0.00     0.636 N  
HETATM   22  H2  UNL     1     -10.242  15.656  72.075  1.00  0.00     0.000 HD 
HETATM   23  O   UNL     1     -11.578  12.801  72.443  1.00  0.00     3.246 OA 
ENDBRANCH  11  19
BRANCH  17  24
HETATM   24  C   UNL     1      -8.007  10.273  67.318  1.00  0.00    -0.107 A  
HETATM   25  C   UNL     1      -8.964   9.498  66.655  1.00  0.00    -0.168 A  
HETATM   26  C   UNL     1      -8.681   8.199  66.193  1.00  0.00    -0.179 A  
HETATM   27  C   UNL     1      -7.429   7.604  66.383  1.00  0.00    -0.084 A  
HETATM   28  C   UNL     1      -6.452   8.396  66.981  1.00  0.00    -0.057 A  
HETATM   29  C   UNL     1      -6.735   9.695  67.435  1.00  0.00    -0.071 A  
BRANCH  27  30
HETATM   30  N   UNL     1      -7.214   6.220  66.081  1.00  0.00    -0.074 N  
HETATM   31  C   UNL     1      -6.960   5.778  64.713  1.00  0.00    -0.052 C  
HETATM   32  C   UNL     1      -5.723   4.897  64.633  1.00  0.00    -0.017 C  
HETATM   33  C   UNL     1      -5.899   3.707  65.556  1.00  0.00    -0.022 C  
HETATM   34  C   UNL     1      -6.198   4.170  66.970  1.00  0.00    -0.036 C  
HETATM   35  C   UNL     1      -7.276   5.237  67.076  1.00  0.00    -0.078 C  
HETATM   36  O   UNL     1      -8.009   5.272  68.063  1.00  0.00    -0.091 OA 
ENDBRANCH  27  30
ENDBRANCH  17  24
ENDBRANCH   6   9
ENDBRANCH   2   3
TORSDOF 5
ENDMDL
MODEL       87
REMARK 921   NORMALIZED FREE ENERGY PREDICTED BY IDOCK:   28.77 KCAL/MOL
REMARK 922        TOTAL FREE ENERGY PREDICTED BY IDOCK:   35.81 KCAL/MOL
REMARK 923 INTER-LIGAND FREE ENERGY PREDICTED BY IDOCK:   35.44 KCAL/MOL
REMARK 924 INTRA-LIGAND FREE ENERGY PREDICTED BY IDOCK:    0.38 KCAL/MOL
REMARK 927      BINDING AFFINITY PREDICTED BY RF-SCORE:    0.00 PKD
ROOT
HETATM    1  C   UNL     1     -13.503  18.456  63.227  1.00  0.00    24.334 C  
HETATM    2  O   UNL     1     -12.719  17.273  63.103  1.00  0.00     6.627 OA 
ENDROOT
BRANCH   2   3
HETATM    3  C   UNL     1     -11.708  17.147  64.017  1.00  0.00     2.820 A  
HETATM    4  C   UNL     1     -11.576  15.891  64.608  1.00  0.00    -0.200 A  
HETATM    5  C   UNL     1     -10.587  15.654  65.573  1.00  0.00    -0.422 A  
HETATM    6  C   UNL     1      -9.706  16.676  65.952  1.00  0.00    -0.237 A  
HETATM    7  C   UNL     1      -9.793  17.913  65.296  1.00  0.00     1.157 A  
HETATM    8  C   UNL     1     -10.798  18.150  64.344  1.00  0.00     3.707 A  
BRANCH   6   9
HETATM    9  N   UNL     1      -8.714  16.479  66.963  1.00  0.00    -0.188 NA 
HETATM   10  N   UNL     1      -8.287  17.560  67.715  1.00  0.00    -0.217 NA 
HETATM   11  C   UNL     1      -7.248  17.101  68.440  1.00  0.00    -0.209 A  
HETATM   12  C   UNL     1      -7.062  15.729  68.216  1.00  0.00    -0.115 A  
HETATM   13  C   UNL     1      -6.111  14.783  68.837  1.00  0.00    -0.082 C  
HETATM   14  C   UNL     1      -8.055  15.320  67.350  1.00  0.00    -0.182 A  
HETATM   15  C   UNL     1      -6.101  13.515  67.988  1.00  0.00    -0.133 C  
HETATM   16  O   UNL     1      -9.383  13.570  66.508  1.00  0.00    -0.257 OA 
HETATM   17  N   UNL     1      -7.466  13.011  67.741  1.00  0.00    -0.130 N  
HETATM   18  C   UNL     1      -8.375  13.917  67.113  1.00  0.00    -0.154 C  
BRANCH  11  19
HETATM   19  C   UNL     1      -6.455  17.916  69.378  1.00  0.00    -0.224 C  
HETATM   20  H1  UNL     1      -6.277  18.424  71.335  1.00  0.00     0.000 HD 
HETATM   21  N   UNL     1      -6.826  17.861  70.686  1.00  0.00     1.677 N  
HETATM   22  H2  UNL     1      -7.609  17.288  71.000  1.00  0.00     0.000 HD 
HETATM   23  O   UNL     1      -5.496  18.606  69.032  1.00  0.00    -0.196 OA 
ENDBRANCH  11  19
BRANCH  17  24
HETATM   24  C   UNL     1      -7.857  11.703  68.214  1.00  0.00    -0.136 A  
HETATM   25  C   UNL     1      -7.211  11.065  69.278  1.00  0.00    -0.124 A  
HETATM   26  C   UNL     1      -7.507   9.737  69.641  1.00  0.00    -0.113 A  
HETATM   27  C   UNL     1      -8.454   8.976  68.947  1.00  0.00    -0.130 A  
HETATM   28  C   UNL     1      -9.147   9.627  67.930  1.00  0.00    -0.130 A  
HETATM   29  C   UNL     1      -8.856  10.955  67.575  1.00  0.00    -0.133 A  
BRANCH  27  30
HETATM   30  N   UNL     1      -8.607   7.574  69.201  1.00  0.00    -0.136 N  
HETATM   31  C   UNL     1      -8.877   7.078  70.548  1.00  0.00    -0.154 C  
HETATM   32  C   UNL     1     -10.069   6.134  70.564  1.00  0.00    -0.237 C  
HETATM   33  C   UNL     1      -9.806   4.983  69.612  1.00  0.00    -0.290 C  
HETATM   34  C   UNL     1      -9.489   5.503  68.222  1.00  0.00    -0.137 C  
HETATM   35  C   UNL     1      -8.466   6.627  68.180  1.00  0.00    -0.116 C  
HETATM   36  O   UNL     1      -7.706   6.729  67.217  1.00  0.00    -0.104 OA 
ENDBRANCH  27  30
ENDBRANCH  17  24
ENDBRANCH   6   9
ENDBRANCH   2   3
TORSDOF 5
ENDMDL
MODEL       88
REMARK 921   NORMALIZED FREE ENERGY PREDICTED BY IDOCK:   34.70 KCAL/MOL
REMARK 922        TOTAL FREE ENERGY PREDICTED BY IDOCK:   43.47 KCAL/MOL
REMARK 923 INTER-LIGAND FREE ENERGY PREDICTED BY IDOCK:   43.31 KCAL/MOL
REMARK 924 INTRA-LIGAND FREE ENERGY PREDICTED BY IDOCK:    0.16 KCAL/MOL
REMARK 927      BINDING AFFINITY PREDICTED BY RF-SCORE:    0.00 PKD
ROOT
HETATM    1  C   UNL     1     -10.443  21.379  62.411  1.00  0.00     8.483 C  
HETATM    2  O   UNL     1     -10.556  19.968  62.573  1.00  0.00    14.852 OA 
ENDROOT
BRANCH   2   3
HETATM    3  C   UNL     1      -9.992  19.468  63.715  1.00  0.00    10.892 A  
HETATM    4  C   UNL     1      -8.616  19.651  63.844  1.00  0.00     7.836 A  
HETATM    5  C   UNL     1      -7.931  19.161  64.965  1.00  0.00     1.744 A  
HETATM    6  C   UNL     1      -8.622  18.488  65.982  1.00  0.00     0.004 A  
HETATM    7  C   UNL     1     -10.017  18.378  65.884  1.00  0.00    -0.091 A  
HETATM    8  C   UNL     1     -10.695  18.853  64.750  1.00  0.00     2.343 A  
BRANCH   6   9
HETATM    9  N   UNL     1      -7.947  17.940  67.117  1.00  0.00    -0.206 NA 
HETATM   10  N   UNL     1      -7.343  18.793  68.025  1.00  0.00    -0.244 NA 
HETATM   11  C   UNL     1      -6.655  17.992  68.862  1.00  0.00    -0.241 A  
HETATM   12  C   UNL     1      -6.878  16.644  68.545  1.00  0.00    -0.157 A  
HETATM   13  C   UNL     1      -6.408  15.416  69.220  1.00  0.00    -0.128 C  
HETATM   14  C   UNL     1      -7.773  16.616  67.496  1.00  0.00    -0.165 A  
HETATM   15  C   UNL     1      -6.647  14.246  68.270  1.00  0.00    -0.113 C  
HETATM   16  O   UNL     1      -9.412  15.432  66.292  1.00  0.00    -0.262 OA 
HETATM   17  N   UNL     1      -8.031  14.229  67.761  1.00  0.00    -0.152 N  
HETATM   18  C   UNL     1      -8.474  15.406  67.081  1.00  0.00    -0.214 C  
BRANCH  11  19
HETATM   19  C   UNL     1      -5.829  18.466  69.988  1.00  0.00    -0.214 C  
HETATM   20  H1  UNL     1      -4.575  17.841  71.456  1.00  0.00     0.000 HD 
HETATM   21  N   UNL     1      -5.146  17.513  70.677  1.00  0.00    -0.254 N  
HETATM   22  H2  UNL     1      -5.202  16.525  70.429  1.00  0.00     0.000 HD 
HETATM   23  O   UNL     1      -5.731  19.652  70.302  1.00  0.00    -0.234 OA 
ENDBRANCH  11  19
BRANCH  17  24
HETATM   24  C   UNL     1      -8.897  13.107  68.041  1.00  0.00    -0.191 A  
HETATM   25  C   UNL     1      -8.763  12.323  69.191  1.00  0.00     0.618 A  
HETATM   26  C   UNL     1      -9.520  11.152  69.387  1.00  0.00     0.221 A  
HETATM   27  C   UNL     1     -10.438  10.699  68.435  1.00  0.00    -0.188 A  
HETATM   28  C   UNL     1     -10.625  11.511  67.319  1.00  0.00    -0.266 A  
HETATM   29  C   UNL     1      -9.874  12.683  67.129  1.00  0.00    -0.212 A  
BRANCH  27  30
HETATM   30  N   UNL     1     -11.057   9.412  68.557  1.00  0.00    -0.015 N  
HETATM   31  C   UNL     1     -11.140   8.505  67.416  1.00  0.00     0.431 C  
HETATM   32  C   UNL     1     -10.626   7.118  67.768  1.00  0.00    -0.293 C  
HETATM   33  C   UNL     1     -11.419   6.576  68.942  1.00  0.00    -0.150 C  
HETATM   34  C   UNL     1     -11.361   7.539  70.114  1.00  0.00    -0.170 C  
HETATM   35  C   UNL     1     -11.637   8.991  69.760  1.00  0.00     0.278 C  
HETATM   36  O   UNL     1     -12.191   9.726  70.576  1.00  0.00    -0.230 OA 
ENDBRANCH  27  30
ENDBRANCH  17  24
ENDBRANCH   6   9
ENDBRANCH   2   3
TORSDOF 5
ENDMDL
MODEL       89
REMARK 921   NORMALIZED FREE ENERGY PREDICTED BY IDOCK:   42.56 KCAL/MOL
REMARK 922        TOTAL FREE ENERGY PREDICTED BY IDOCK:   53.63 KCAL/MOL
REMARK 923 INTER-LIGAND FREE ENERGY PREDICTED BY IDOCK:   52.62 KCAL/MOL
REMARK 924 INTRA-LIGAND FREE ENERGY PREDICTED BY IDOCK:    1.00 KCAL/MOL
REMARK 927      BINDING AFFINITY PREDICTED BY RF-SCORE:    0.00 PKD
ROOT
HETATM    1  C   UNL     1     -10.073   6.726  63.709  1.00  0.00     6.001 C  
HETATM    2  O   UNL     1      -9.563   7.620  64.694  1.00  0.00     1.654 OA 
ENDROOT
BRANCH   2   3
HETATM    3  C   UNL     1     -10.118   7.492  65.939  1.00  0.00     0.814 A  
HETATM    4  C   UNL     1     -10.684   8.647  66.474  1.00  0.00     0.222 A  
HETATM    5  C   UNL     1     -11.264   8.635  67.751  1.00  0.00     0.582 A  
HETATM    6  C   UNL     1     -11.293   7.455  68.506  1.00  0.00     0.508 A  
HETATM    7  C   UNL     1     -10.793   6.278  67.929  1.00  0.00    -0.417 A  
HETATM    8  C   UNL     1     -10.197   6.300  66.658  1.00  0.00    -0.226 A  
BRANCH   6   9
HETATM    9  N   UNL     1     -11.838   7.419  69.827  1.00  0.00     0.250 NA 
HETATM   10  N   UNL     1     -11.754   6.252  70.565  1.00  0.00    -0.305 NA 
HETATM   11  C   UNL     1     -12.496   6.473  71.667  1.00  0.00    -0.216 A  
HETATM   12  C   UNL     1     -12.983   7.788  71.676  1.00  0.00    -0.374 A  
HETATM   13  C   UNL     1     -13.767   8.508  72.701  1.00  0.00    -0.207 C  
HETATM   14  C   UNL     1     -12.483   8.413  70.552  1.00  0.00     0.419 A  
HETATM   15  C   UNL     1     -14.316   9.778  72.055  1.00  0.00     0.335 C  
HETATM   16  O   UNL     1     -11.896  10.417  69.467  1.00  0.00    -0.225 OA 
HETATM   17  N   UNL     1     -13.257  10.548  71.375  1.00  0.00    -0.370 N  
HETATM   18  C   UNL     1     -12.520   9.858  70.362  1.00  0.00    -0.039 C  
BRANCH  11  19
HETATM   19  C   UNL     1     -12.719   5.487  72.742  1.00  0.00     0.673 C  
HETATM   20  H1  UNL     1     -13.040   5.308  74.738  1.00  0.00     0.000 HD 
HETATM   21  N   UNL     1     -12.886   5.990  73.995  1.00  0.00     5.418 N  
HETATM   22  H2  UNL     1     -12.859   6.992  74.182  1.00  0.00     0.000 HD 
HETATM   23  O   UNL     1     -12.770   4.273  72.546  1.00  0.00     1.501 OA 
ENDBRANCH  11  19
BRANCH  17  24
HETATM   24  C   UNL     1     -12.941  11.890  71.805  1.00  0.00    -0.350 A  
HETATM   25  C   UNL     1     -13.830  12.959  71.645  1.00  0.00     0.223 A  
HETATM   26  C   UNL     1     -13.460  14.285  71.938  1.00  0.00    -0.485 A  
HETATM   27  C   UNL     1     -12.178  14.610  72.393  1.00  0.00    -0.225 A  
HETATM   28  C   UNL     1     -11.311  13.544  72.618  1.00  0.00     4.279 A  
HETATM   29  C   UNL     1     -11.685  12.220  72.331  1.00  0.00     4.634 A  
BRANCH  27  30
HETATM   30  N   UNL     1     -11.756  15.976  72.503  1.00  0.00    -0.476 N  
HETATM   31  C   UNL     1     -10.825  16.394  73.548  1.00  0.00     3.691 C  
HETATM   32  C   UNL     1      -9.663  17.187  72.972  1.00  0.00    11.250 C  
HETATM   33  C   UNL     1     -10.204  18.391  72.223  1.00  0.00     5.033 C  
HETATM   34  C   UNL     1     -11.198  17.955  71.163  1.00  0.00     2.876 C  
HETATM   35  C   UNL     1     -12.247  16.964  71.642  1.00  0.00     1.580 C  
HETATM   36  O   UNL     1     -13.377  16.983  71.155  1.00  0.00     4.596 OA 
ENDBRANCH  27  30
ENDBRANCH  17  24
ENDBRANCH   6   9
ENDBRANCH   2   3
TORSDOF 5
ENDMDL
MODEL       90
REMARK 921   NORMALIZED FREE ENERGY PREDICTED BY IDOCK:   55.40 KCAL/MOL
REMARK 922        TOTAL FREE ENERGY PREDICTED BY IDOCK:   70.22 KCAL/MOL
REMARK 923 INTER-LIGAND FREE ENERGY PREDICTED BY IDOCK:   69.35 KCAL/MOL
REMARK 924 INTRA-LIGAND FREE ENERGY PREDICTED BY IDOCK:    0.87 KCAL/MOL
REMARK 927      BINDING AFFINITY PREDICTED BY RF-SCORE:    0.00 PKD
ROOT
HETATM    1  C   UNL     1      -8.267   7.209  72.961  1.00  0.00    -0.105 C  
HETATM    2  O   UNL     1      -7.975   6.209  71.990  1.00  0.00    -0.105 OA 
ENDROOT
BRANCH   2   3
HETATM    3  C   UNL     1      -8.524   6.420  70.754  1.00  0.00    -0.135 A  
HETATM    4  C   UNL     1      -8.138   7.594  70.110  1.00  0.00    -0.118 A  
HETATM    5  C   UNL     1      -8.654   7.921  68.848  1.00  0.00    -0.132 A  
HETATM    6  C   UNL     1      -9.560   7.065  68.208  1.00  0.00    -0.134 A  
HETATM    7  C   UNL     1      -9.882   5.847  68.826  1.00  0.00    -0.177 A  
HETATM    8  C   UNL     1      -9.377   5.535  70.098  1.00  0.00    -0.185 A  
BRANCH   6   9
HETATM    9  N   UNL     1     -10.137   7.390  66.940  1.00  0.00    -0.242 NA 
HETATM   10  N   UNL     1     -10.900   6.443  66.279  1.00  0.00     0.195 NA 
HETATM   11  C   UNL     1     -11.147   6.970  65.064  1.00  0.00     7.789 A  
HETATM   12  C   UNL     1     -10.619   8.267  64.975  1.00  0.00     5.113 A  
HETATM   13  C   UNL     1     -10.706   9.258  63.883  1.00  0.00     5.691 C  
HETATM   14  C   UNL     1     -10.062   8.563  66.202  1.00  0.00     0.017 A  
HETATM   15  C   UNL     1      -9.675  10.348  64.166  1.00  0.00    -0.324 C  
HETATM   16  O   UNL     1      -9.382  10.199  67.752  1.00  0.00    -0.140 OA 
HETATM   17  N   UNL     1      -9.795  10.871  65.540  1.00  0.00    -0.231 N  
HETATM   18  C   UNL     1      -9.681   9.914  66.597  1.00  0.00    -0.198 C  
BRANCH  11  19
HETATM   19  C   UNL     1     -11.913   6.299  63.997  1.00  0.00    11.290 C  
HETATM   20  H1  UNL     1     -11.750   5.506  62.136  1.00  0.00     0.000 HD 
HETATM   21  N   UNL     1     -11.220   5.970  62.874  1.00  0.00     5.010 N  
HETATM   22  H2  UNL     1     -10.226   6.175  62.774  1.00  0.00     0.000 HD 
HETATM   23  O   UNL     1     -13.109   6.026  64.094  1.00  0.00     6.791 OA 
ENDBRANCH  11  19
BRANCH  17  24
HETATM   24  C   UNL     1     -10.113  12.261  65.767  1.00  0.00    -0.252 A  
HETATM   25  C   UNL     1      -9.717  12.944  66.922  1.00  0.00    -0.240 A  
HETATM   26  C   UNL     1     -10.148  14.255  67.197  1.00  0.00    -0.254 A  
HETATM   27  C   UNL     1     -11.009  14.945  66.337  1.00  0.00    -0.336 A  
HETATM   28  C   UNL     1     -11.353  14.297  65.154  1.00  0.00    -0.345 A  
HETATM   29  C   UNL     1     -10.915  12.990  64.877  1.00  0.00    -0.329 A  
BRANCH  27  30
HETATM   30  N   UNL     1     -11.591  16.198  66.720  1.00  0.00     0.473 N  
HETATM   31  C   UNL     1     -12.269  17.044  65.741  1.00  0.00     3.875 C  
HETATM   32  C   UNL     1     -13.648  17.460  66.226  1.00  0.00    13.500 C  
HETATM   33  C   UNL     1     -13.513  18.180  67.554  1.00  0.00     9.203 C  
HETATM   34  C   UNL     1     -12.777  17.312  68.558  1.00  0.00     4.578 C  
HETATM   35  C   UNL     1     -11.500  16.675  68.033  1.00  0.00     0.087 C  
HETATM   36  O   UNL     1     -10.554  16.479  68.795  1.00  0.00    -0.280 OA 
ENDBRANCH  27  30
ENDBRANCH  17  24
ENDBRANCH   6   9
ENDBRANCH   2   3
TORSDOF 5
ENDMDL
MODEL       91
REMARK 921   NORMALIZED FREE ENERGY PREDICTED BY IDOCK:   56.30 KCAL/MOL
REMARK 922        TOTAL FREE ENERGY PREDICTED BY IDOCK:   71.38 KCAL/MOL
REMARK 923 INTER-LIGAND FREE ENERGY PREDICTED BY IDOCK:   70.66 KCAL/MOL
REMARK 924 INTRA-LIGAND FREE ENERGY PREDICTED BY IDOCK:    0.72 KCAL/MOL
REMARK 927      BINDING AFFINITY PREDICTED BY RF-SCORE:    0.00 PKD
ROOT
HETATM    1  C   UNL     1      -9.888  18.468  71.921  1.00  0.00     6.085 C  
HETATM    2  O   UNL     1     -10.062  17.062  72.076  1.00  0.00     4.615 OA 
ENDROOT
BRANCH   2   3
HETATM    3  C   UNL     1      -9.547  16.298  71.064  1.00  0.00     3.045 A  
HETATM    4  C   UNL     1      -9.019  16.999  69.981  1.00  0.00     1.738 A  
HETATM    5  C   UNL     1      -8.482  16.317  68.880  1.00  0.00    -0.253 A  
HETATM    6  C   UNL     1      -8.458  14.916  68.856  1.00  0.00    -0.174 A  
HETATM    7  C   UNL     1      -8.917  14.218  69.983  1.00  0.00     1.390 A  
HETATM    8  C   UNL     1      -9.471  14.906  71.075  1.00  0.00     2.260 A  
BRANCH   6   9
HETATM    9  N   UNL     1      -7.957  14.190  67.730  1.00  0.00    -0.154 NA 
HETATM   10  N   UNL     1      -7.016  14.782  66.905  1.00  0.00     0.129 NA 
HETATM   11  C   UNL     1      -6.879  13.942  65.861  1.00  0.00     6.426 A  
HETATM   12  C   UNL     1      -7.659  12.791  66.052  1.00  0.00     2.126 A  
HETATM   13  C   UNL     1      -7.773  11.570  65.227  1.00  0.00     0.977 C  
HETATM   14  C   UNL     1      -8.267  12.913  67.284  1.00  0.00    -0.176 A  
HETATM   15  C   UNL     1      -9.004  10.804  65.704  1.00  0.00    -0.189 C  
HETATM   16  O   UNL     1      -9.268  11.862  69.136  1.00  0.00     0.196 OA 
HETATM   17  N   UNL     1      -8.996  10.613  67.167  1.00  0.00    -0.137 N  
HETATM   18  C   UNL     1      -8.916  11.797  67.964  1.00  0.00    -0.176 C  
BRANCH  11  19
HETATM   19  C   UNL     1      -5.991  14.174  64.707  1.00  0.00    18.938 C  
HETATM   20  H1  UNL     1      -5.419  13.403  62.919  1.00  0.00     0.000 HD 
HETATM   21  N   UNL     1      -6.034  13.242  63.717  1.00  0.00    13.682 N  
HETATM   22  H2  UNL     1      -6.647  12.428  63.769  1.00  0.00     0.000 HD 
HETATM   23  O   UNL     1      -5.251  15.152  64.610  1.00  0.00    12.126 OA 
ENDBRANCH  11  19
BRANCH  17  24
HETATM   24  C   UNL     1      -8.968   9.282  67.728  1.00  0.00    -0.126 A  
HETATM   25  C   UNL     1     -10.131   8.541  67.962  1.00  0.00    -0.245 A  
HETATM   26  C   UNL     1     -10.104   7.305  68.635  1.00  0.00    -0.182 A  
HETATM   27  C   UNL     1      -8.914   6.755  69.122  1.00  0.00    -0.132 A  
HETATM   28  C   UNL     1      -7.745   7.456  68.834  1.00  0.00    -0.115 A  
HETATM   29  C   UNL     1      -7.773   8.685  68.155  1.00  0.00    -0.102 A  
BRANCH  27  30
HETATM   30  N   UNL     1      -8.924   5.599  69.969  1.00  0.00    -0.135 N  
HETATM   31  C   UNL     1      -9.430   5.672  71.337  1.00  0.00    -0.147 C  
HETATM   32  C   UNL     1     -10.448   4.578  71.612  1.00  0.00    -0.084 C  
HETATM   33  C   UNL     1      -9.811   3.227  71.349  1.00  0.00    -0.194 C  
HETATM   34  C   UNL     1      -9.254   3.167  69.939  1.00  0.00    -0.222 C  
HETATM   35  C   UNL     1      -8.417   4.369  69.533  1.00  0.00    -0.076 C  
HETATM   36  O   UNL     1      -7.475   4.226  68.754  1.00  0.00    -0.055 OA 
ENDBRANCH  27  30
ENDBRANCH  17  24
ENDBRANCH   6   9
ENDBRANCH   2   3
TORSDOF 5
ENDMDL
MODEL       92
REMARK 921   NORMALIZED FREE ENERGY PREDICTED BY IDOCK:   65.76 KCAL/MOL
REMARK 922        TOTAL FREE ENERGY PREDICTED BY IDOCK:   83.60 KCAL/MOL
REMARK 923 INTER-LIGAND FREE ENERGY PREDICTED BY IDOCK:   84.24 KCAL/MOL
REMARK 924 INTRA-LIGAND FREE ENERGY PREDICTED BY IDOCK:   -0.63 KCAL/MOL
REMARK 927      BINDING AFFINITY PREDICTED BY RF-SCORE:    0.00 PKD
ROOT
HETATM    1  C   UNL     1     -10.448  21.374  62.401  1.00  0.00     8.483 C  
HETATM    2  O   UNL     1     -10.652  19.967  62.496  1.00  0.00    14.852 OA 
ENDROOT
BRANCH   2   3
HETATM    3  C   UNL     1     -10.153  19.383  63.628  1.00  0.00    12.354 A  
HETATM    4  C   UNL     1      -8.917  19.860  64.065  1.00  0.00     6.840 A  
HETATM    5  C   UNL     1      -8.304  19.319  65.204  1.00  0.00     1.638 A  
HETATM    6  C   UNL     1      -8.929  18.297  65.930  1.00  0.00     0.229 A  
HETATM    7  C   UNL     1     -10.207  17.878  65.531  1.00  0.00     0.179 A  
HETATM    8  C   UNL     1     -10.808  18.409  64.379  1.00  0.00     4.081 A  
BRANCH   6   9
HETATM    9  N   UNL     1      -8.310  17.695  67.070  1.00  0.00    -0.214 NA 
HETATM   10  N   UNL     1      -8.093  18.458  68.205  1.00  0.00    -0.281 NA 
HETATM   11  C   UNL     1      -7.352  17.681  69.019  1.00  0.00    -0.194 A  
HETATM   12  C   UNL     1      -7.164  16.413  68.450  1.00  0.00    -0.158 A  
HETATM   13  C   UNL     1      -6.495  15.213  68.995  1.00  0.00    -0.106 C  
HETATM   14  C   UNL     1      -7.855  16.397  67.256  1.00  0.00    -0.166 A  
HETATM   15  C   UNL     1      -6.276  14.240  67.839  1.00  0.00    -0.157 C  
HETATM   16  O   UNL     1      -8.930  15.144  65.578  1.00  0.00     0.202 OA 
HETATM   17  N   UNL     1      -7.517  14.012  67.073  1.00  0.00     0.141 N  
HETATM   18  C   UNL     1      -8.146  15.171  66.521  1.00  0.00     0.188 C  
BRANCH  11  19
HETATM   19  C   UNL     1      -6.855  18.089  70.346  1.00  0.00     1.356 C  
HETATM   20  H1  UNL     1      -6.330  19.705  71.456  1.00  0.00     0.000 HD 
HETATM   21  N   UNL     1      -6.674  19.423  70.538  1.00  0.00     0.209 N  
HETATM   22  H2  UNL     1      -6.870  20.104  69.805  1.00  0.00     0.000 HD 
HETATM   23  O   UNL     1      -6.622  17.292  71.255  1.00  0.00     2.301 OA 
ENDBRANCH  11  19
BRANCH  17  24
HETATM   24  C   UNL     1      -8.091  12.690  66.993  1.00  0.00    -0.085 A  
HETATM   25  C   UNL     1      -8.248  12.011  65.780  1.00  0.00     0.713 A  
HETATM   26  C   UNL     1      -8.934  10.785  65.695  1.00  0.00    -0.205 A  
HETATM   27  C   UNL     1      -9.510  10.182  66.819  1.00  0.00    -0.168 A  
HETATM   28  C   UNL     1      -9.299  10.819  68.039  1.00  0.00    -0.152 A  
HETATM   29  C   UNL     1      -8.608  12.039  68.122  1.00  0.00    -0.173 A  
BRANCH  27  30
HETATM   30  N   UNL     1     -10.365   9.039  66.689  1.00  0.00    -0.251 N  
HETATM   31  C   UNL     1     -11.791   9.128  66.990  1.00  0.00     4.129 C  
HETATM   32  C   UNL     1     -12.634   8.567  65.856  1.00  0.00    14.958 C  
HETATM   33  C   UNL     1     -12.230   7.128  65.599  1.00  0.00     9.260 C  
HETATM   34  C   UNL     1     -10.741   7.035  65.323  1.00  0.00     4.597 C  
HETATM   35  C   UNL     1      -9.862   7.790  66.307  1.00  0.00    -0.041 C  
HETATM   36  O   UNL     1      -8.742   7.361  66.583  1.00  0.00    -0.123 OA 
ENDBRANCH  27  30
ENDBRANCH  17  24
ENDBRANCH   6   9
ENDBRANCH   2   3
TORSDOF 5
ENDMDL
