MODEL        1
REMARK 921   NORMALIZED FREE ENERGY PREDICTED BY IDOCK:   -6.00 KCAL/MOL
REMARK 922        TOTAL FREE ENERGY PREDICTED BY IDOCK:   -6.89 KCAL/MOL
REMARK 923 INTER-LIGAND FREE ENERGY PREDICTED BY IDOCK:   -6.70 KCAL/MOL
REMARK 924 INTRA-LIGAND FREE ENERGY PREDICTED BY IDOCK:   -0.19 KCAL/MOL
REMARK 927      BINDING AFFINITY PREDICTED BY RF-SCORE:    0.00 PKD
ROOT
HETATM    1  N   UNL     1     -13.629  16.065  73.763  1.00  0.00    -0.814 NA 
HETATM    2  H1  UNL     1     -13.510  17.072  73.873  1.00  0.00     0.000 HD 
HETATM    3  C   UNL     1     -13.170  15.417  72.614  1.00  0.00    -0.468 A  
HETATM    4  H2  UNL     1     -13.218  15.605  74.575  1.00  0.00     0.000 HD 
HETATM    5  C   UNL     1     -13.334  14.042  72.464  1.00  0.00    -0.639 A  
HETATM    6  C   UNL     1     -12.745  13.365  71.387  1.00  0.00    -0.322 A  
HETATM    7 CL   UNL     1     -13.035  11.660  71.262  1.00  0.00    -0.433 Cl 
HETATM    8  C   UNL     1     -11.933  14.030  70.445  1.00  0.00    -0.328 A  
HETATM    9  C   UNL     1     -11.727  15.406  70.652  1.00  0.00    -0.339 A  
HETATM   10  C   UNL     1     -12.325  16.080  71.728  1.00  0.00    -0.496 A  
HETATM   11 CL   UNL     1     -10.625  16.339  69.690  1.00  0.00    -0.310 Cl 
ENDROOT
BRANCH   8  12
HETATM   12  N   UNL     1     -11.399  13.305  69.361  1.00  0.00    -0.394 NA 
HETATM   13  H   UNL     1     -10.631  12.680  69.608  1.00  0.00     0.000 HD 
BRANCH  12  14
HETATM   14  C   UNL     1     -11.729  13.294  68.049  1.00  0.00    -0.359 A  
HETATM   15  N   UNL     1     -12.286  14.317  67.460  1.00  0.00    -0.598 NA 
HETATM   16  H   UNL     1     -12.525  15.218  67.871  1.00  0.00     0.000 HD 
HETATM   17  C   UNL     1     -12.493  13.873  66.055  1.00  0.00    -0.461 A  
HETATM   18  C   UNL     1     -11.898  12.469  65.936  1.00  0.00    -0.430 A  
HETATM   19  N   UNL     1     -11.389  12.233  67.268  1.00  0.00    -0.306 NA 
ENDBRANCH  12  14
ENDBRANCH   8  12
TORSDOF 2
ENDMDL
MODEL        2
REMARK 921   NORMALIZED FREE ENERGY PREDICTED BY IDOCK:   -5.93 KCAL/MOL
REMARK 922        TOTAL FREE ENERGY PREDICTED BY IDOCK:   -6.81 KCAL/MOL
REMARK 923 INTER-LIGAND FREE ENERGY PREDICTED BY IDOCK:   -6.48 KCAL/MOL
REMARK 924 INTRA-LIGAND FREE ENERGY PREDICTED BY IDOCK:   -0.34 KCAL/MOL
REMARK 927      BINDING AFFINITY PREDICTED BY RF-SCORE:    0.00 PKD
ROOT
HETATM    1  N   UNL     1     -13.814   9.061  73.085  1.00  0.00    -1.177 NA 
HETATM    2  H1  UNL     1     -14.504   9.485  73.705  1.00  0.00     0.000 HD 
HETATM    3  C   UNL     1     -13.223   9.808  72.062  1.00  0.00    -0.460 A  
HETATM    4  H2  UNL     1     -13.071   8.663  73.659  1.00  0.00     0.000 HD 
HETATM    5  C   UNL     1     -12.282   9.228  71.216  1.00  0.00    -0.410 A  
HETATM    6  C   UNL     1     -11.578  10.009  70.288  1.00  0.00    -0.280 A  
HETATM    7 CL   UNL     1     -10.454   9.193  69.249  1.00  0.00    -0.225 Cl 
HETATM    8  C   UNL     1     -11.757  11.406  70.203  1.00  0.00    -0.328 A  
HETATM    9  C   UNL     1     -12.664  11.979  71.112  1.00  0.00    -0.266 A  
HETATM   10  C   UNL     1     -13.371  11.192  72.034  1.00  0.00    -0.384 A  
HETATM   11 CL   UNL     1     -12.876  13.695  71.258  1.00  0.00    -0.424 Cl 
ENDROOT
BRANCH   8  12
HETATM   12  N   UNL     1     -11.050  12.133  69.225  1.00  0.00    -0.392 NA 
HETATM   13  H   UNL     1     -10.074  12.317  69.458  1.00  0.00     0.000 HD 
BRANCH  12  14
HETATM   14  C   UNL     1     -11.443  12.629  68.029  1.00  0.00    -0.318 A  
HETATM   15  N   UNL     1     -11.692  11.863  67.002  1.00  0.00    -0.589 NA 
HETATM   16  H   UNL     1     -11.645  10.846  66.957  1.00  0.00     0.000 HD 
HETATM   17  C   UNL     1     -12.062  12.806  65.912  1.00  0.00    -0.426 A  
HETATM   18  C   UNL     1     -12.051  14.212  66.512  1.00  0.00    -0.454 A  
HETATM   19  N   UNL     1     -11.693  13.959  67.889  1.00  0.00    -0.341 NA 
ENDBRANCH  12  14
ENDBRANCH   8  12
TORSDOF 2
ENDMDL
MODEL        3
REMARK 921   NORMALIZED FREE ENERGY PREDICTED BY IDOCK:   -5.89 KCAL/MOL
REMARK 922        TOTAL FREE ENERGY PREDICTED BY IDOCK:   -6.77 KCAL/MOL
REMARK 923 INTER-LIGAND FREE ENERGY PREDICTED BY IDOCK:   -6.52 KCAL/MOL
REMARK 924 INTRA-LIGAND FREE ENERGY PREDICTED BY IDOCK:   -0.25 KCAL/MOL
REMARK 927      BINDING AFFINITY PREDICTED BY RF-SCORE:    0.00 PKD
ROOT
HETATM    1  N   UNL     1     -12.299  13.854  63.223  1.00  0.00    -1.148 NA 
HETATM    2  H1  UNL     1     -12.779  13.003  62.930  1.00  0.00     0.000 HD 
HETATM    3  C   UNL     1     -12.042  14.095  64.576  1.00  0.00    -0.468 A  
HETATM    4  H2  UNL     1     -11.416  13.913  62.716  1.00  0.00     0.000 HD 
HETATM    5  C   UNL     1     -11.386  15.257  64.975  1.00  0.00    -0.359 A  
HETATM    6  C   UNL     1     -10.995  15.433  66.309  1.00  0.00    -0.278 A  
HETATM    7 CL   UNL     1     -10.219  16.928  66.722  1.00  0.00    -0.299 Cl 
HETATM    8  C   UNL     1     -11.203  14.435  67.285  1.00  0.00    -0.323 A  
HETATM    9  C   UNL     1     -11.807  13.244  66.845  1.00  0.00    -0.392 A  
HETATM   10  C   UNL     1     -12.204  13.075  65.510  1.00  0.00    -0.521 A  
HETATM   11 CL   UNL     1     -11.983  11.855  67.870  1.00  0.00    -0.300 Cl 
ENDROOT
BRANCH   8  12
HETATM   12  N   UNL     1     -10.823  14.684  68.618  1.00  0.00    -0.247 NA 
HETATM   13  H   UNL     1      -9.822  14.599  68.795  1.00  0.00     0.000 HD 
BRANCH  12  14
HETATM   14  C   UNL     1     -11.556  15.018  69.705  1.00  0.00    -0.304 A  
HETATM   15  N   UNL     1     -12.848  14.837  69.759  1.00  0.00    -0.572 NA 
HETATM   16  H   UNL     1     -13.451  14.433  69.043  1.00  0.00     0.000 HD 
HETATM   17  C   UNL     1     -13.243  15.354  71.097  1.00  0.00    -0.513 A  
HETATM   18  C   UNL     1     -11.960  15.782  71.809  1.00  0.00    -0.467 A  
HETATM   19  N   UNL     1     -10.942  15.465  70.834  1.00  0.00    -0.326 NA 
ENDBRANCH  12  14
ENDBRANCH   8  12
TORSDOF 2
ENDMDL
MODEL        4
REMARK 921   NORMALIZED FREE ENERGY PREDICTED BY IDOCK:   -5.86 KCAL/MOL
REMARK 922        TOTAL FREE ENERGY PREDICTED BY IDOCK:   -6.74 KCAL/MOL
REMARK 923 INTER-LIGAND FREE ENERGY PREDICTED BY IDOCK:   -6.45 KCAL/MOL
REMARK 924 INTRA-LIGAND FREE ENERGY PREDICTED BY IDOCK:   -0.29 KCAL/MOL
REMARK 927      BINDING AFFINITY PREDICTED BY RF-SCORE:    0.00 PKD
ROOT
HETATM    1  N   UNL     1     -11.063  16.200  64.091  1.00  0.00    -1.150 NA 
HETATM    2  H1  UNL     1     -10.735  17.085  63.705  1.00  0.00     0.000 HD 
HETATM    3  C   UNL     1     -10.909  15.919  65.452  1.00  0.00    -0.349 A  
HETATM    4  H2  UNL     1     -12.049  16.094  63.854  1.00  0.00     0.000 HD 
HETATM    5  C   UNL     1     -11.356  14.711  65.979  1.00  0.00    -0.344 A  
HETATM    6  C   UNL     1     -11.340  14.486  67.363  1.00  0.00    -0.356 A  
HETATM    7 CL   UNL     1     -11.880  12.937  67.926  1.00  0.00    -0.398 Cl 
HETATM    8  C   UNL     1     -10.919  15.478  68.274  1.00  0.00    -0.305 A  
HETATM    9  C   UNL     1     -10.534  16.713  67.723  1.00  0.00    -0.316 A  
HETATM   10  C   UNL     1     -10.545  16.931  66.337  1.00  0.00    -0.183 A  
HETATM   11 CL   UNL     1     -10.151  18.092  68.704  1.00  0.00    -0.394 Cl 
ENDROOT
BRANCH   8  12
HETATM   12  N   UNL     1     -10.888  15.181  69.650  1.00  0.00    -0.273 NA 
HETATM   13  H   UNL     1     -10.022  14.746  69.970  1.00  0.00     0.000 HD 
BRANCH  12  14
HETATM   14  C   UNL     1     -11.808  15.374  70.623  1.00  0.00    -0.351 A  
HETATM   15  N   UNL     1     -13.091  15.282  70.400  1.00  0.00    -0.676 NA 
HETATM   16  H   UNL     1     -13.556  15.053  69.522  1.00  0.00     0.000 HD 
HETATM   17  C   UNL     1     -13.723  15.586  71.711  1.00  0.00    -0.483 A  
HETATM   18  C   UNL     1     -12.590  15.789  72.718  1.00  0.00    -0.446 A  
HETATM   19  N   UNL     1     -11.412  15.573  71.910  1.00  0.00    -0.423 NA 
ENDBRANCH  12  14
ENDBRANCH   8  12
TORSDOF 2
ENDMDL
MODEL        5
REMARK 921   NORMALIZED FREE ENERGY PREDICTED BY IDOCK:   -5.82 KCAL/MOL
REMARK 922        TOTAL FREE ENERGY PREDICTED BY IDOCK:   -6.69 KCAL/MOL
REMARK 923 INTER-LIGAND FREE ENERGY PREDICTED BY IDOCK:   -6.41 KCAL/MOL
REMARK 924 INTRA-LIGAND FREE ENERGY PREDICTED BY IDOCK:   -0.28 KCAL/MOL
REMARK 927      BINDING AFFINITY PREDICTED BY RF-SCORE:    0.00 PKD
ROOT
HETATM    1  N   UNL     1     -12.199  13.784  63.187  1.00  0.00    -1.066 NA 
HETATM    2  H1  UNL     1     -12.045  14.499  62.477  1.00  0.00     0.000 HD 
HETATM    3  C   UNL     1     -11.725  13.963  64.490  1.00  0.00    -0.410 A  
HETATM    4  H2  UNL     1     -13.200  13.593  63.236  1.00  0.00     0.000 HD 
HETATM    5  C   UNL     1     -11.936  12.987  65.460  1.00  0.00    -0.470 A  
HETATM    6  C   UNL     1     -11.596  13.225  66.799  1.00  0.00    -0.365 A  
HETATM    7 CL   UNL     1     -11.858  11.936  67.929  1.00  0.00    -0.364 Cl 
HETATM    8  C   UNL     1     -11.075  14.464  67.226  1.00  0.00    -0.311 A  
HETATM    9  C   UNL     1     -10.933  15.459  66.241  1.00  0.00    -0.278 A  
HETATM   10  C   UNL     1     -11.268  15.213  64.901  1.00  0.00    -0.424 A  
HETATM   11 CL   UNL     1     -10.469  17.087  66.621  1.00  0.00    -0.288 Cl 
ENDROOT
BRANCH   8  12
HETATM   12  N   UNL     1     -10.716  14.632  68.577  1.00  0.00    -0.240 NA 
HETATM   13  H   UNL     1      -9.754  14.372  68.795  1.00  0.00     0.000 HD 
BRANCH  12  14
HETATM   14  C   UNL     1     -11.427  15.080  69.638  1.00  0.00    -0.294 A  
HETATM   15  N   UNL     1     -12.723  14.951  69.715  1.00  0.00    -0.598 NA 
HETATM   16  H   UNL     1     -13.347  14.511  69.039  1.00  0.00     0.000 HD 
HETATM   17  C   UNL     1     -13.087  15.589  71.008  1.00  0.00    -0.489 A  
HETATM   18  C   UNL     1     -11.783  16.028  71.675  1.00  0.00    -0.506 A  
HETATM   19  N   UNL     1     -10.786  15.596  70.722  1.00  0.00    -0.304 NA 
ENDBRANCH  12  14
ENDBRANCH   8  12
TORSDOF 2
ENDMDL
MODEL        6
REMARK 921   NORMALIZED FREE ENERGY PREDICTED BY IDOCK:   -5.74 KCAL/MOL
REMARK 922        TOTAL FREE ENERGY PREDICTED BY IDOCK:   -6.60 KCAL/MOL
REMARK 923 INTER-LIGAND FREE ENERGY PREDICTED BY IDOCK:   -6.30 KCAL/MOL
REMARK 924 INTRA-LIGAND FREE ENERGY PREDICTED BY IDOCK:   -0.30 KCAL/MOL
REMARK 927      BINDING AFFINITY PREDICTED BY RF-SCORE:    0.00 PKD
ROOT
HETATM    1  N   UNL     1     -13.977   8.988  72.969  1.00  0.00    -1.141 NA 
HETATM    2  H1  UNL     1     -13.818   7.983  73.029  1.00  0.00     0.000 HD 
HETATM    3  C   UNL     1     -13.176   9.787  72.148  1.00  0.00    -0.436 A  
HETATM    4  H2  UNL     1     -14.952   9.143  72.712  1.00  0.00     0.000 HD 
HETATM    5  C   UNL     1     -13.394  11.159  72.067  1.00  0.00    -0.384 A  
HETATM    6  C   UNL     1     -12.695  11.940  71.136  1.00  0.00    -0.284 A  
HETATM    7 CL   UNL     1     -13.002  13.647  71.134  1.00  0.00    -0.377 Cl 
HETATM    8  C   UNL     1     -11.786  11.370  70.219  1.00  0.00    -0.350 A  
HETATM    9  C   UNL     1     -11.632   9.973  70.274  1.00  0.00    -0.280 A  
HETATM   10  C   UNL     1     -12.329   9.197  71.214  1.00  0.00    -0.382 A  
HETATM   11 CL   UNL     1     -10.688   9.093  69.115  1.00  0.00    -0.222 Cl 
ENDROOT
BRANCH   8  12
HETATM   12  N   UNL     1     -11.084  12.208  69.332  1.00  0.00    -0.435 NA 
HETATM   13  H   UNL     1     -10.162  12.495  69.661  1.00  0.00     0.000 HD 
BRANCH  12  14
HETATM   14  C   UNL     1     -11.422  12.700  68.117  1.00  0.00    -0.313 A  
HETATM   15  N   UNL     1     -11.301  13.965  67.817  1.00  0.00    -0.293 NA 
HETATM   16  H   UNL     1     -10.946  14.715  68.409  1.00  0.00     0.000 HD 
HETATM   17  C   UNL     1     -11.798  14.068  66.419  1.00  0.00    -0.418 A  
HETATM   18  C   UNL     1     -12.146  12.650  65.962  1.00  0.00    -0.364 A  
HETATM   19  N   UNL     1     -11.808  11.858  67.121  1.00  0.00    -0.620 NA 
ENDBRANCH  12  14
ENDBRANCH   8  12
TORSDOF 2
ENDMDL
MODEL        7
REMARK 921   NORMALIZED FREE ENERGY PREDICTED BY IDOCK:   -5.72 KCAL/MOL
REMARK 922        TOTAL FREE ENERGY PREDICTED BY IDOCK:   -6.58 KCAL/MOL
REMARK 923 INTER-LIGAND FREE ENERGY PREDICTED BY IDOCK:   -6.24 KCAL/MOL
REMARK 924 INTRA-LIGAND FREE ENERGY PREDICTED BY IDOCK:   -0.34 KCAL/MOL
REMARK 927      BINDING AFFINITY PREDICTED BY RF-SCORE:    0.00 PKD
ROOT
HETATM    1  N   UNL     1     -11.104  13.820  64.179  1.00  0.00    -0.587 NA 
HETATM    2  H1  UNL     1     -11.370  12.975  63.674  1.00  0.00     0.000 HD 
HETATM    3  C   UNL     1     -11.293  13.911  65.561  1.00  0.00    -0.308 A  
HETATM    4  H2  UNL     1     -10.124  14.018  63.977  1.00  0.00     0.000 HD 
HETATM    5  C   UNL     1     -10.929  15.065  66.250  1.00  0.00    -0.338 A  
HETATM    6  C   UNL     1     -10.976  15.106  67.650  1.00  0.00    -0.308 A  
HETATM    7 CL   UNL     1     -10.543  16.598  68.420  1.00  0.00    -0.324 Cl 
HETATM    8  C   UNL     1     -11.344  13.979  68.416  1.00  0.00    -0.291 A  
HETATM    9  C   UNL     1     -11.642  12.805  67.702  1.00  0.00    -0.358 A  
HETATM   10  C   UNL     1     -11.601  12.772  66.300  1.00  0.00    -0.433 A  
HETATM   11 CL   UNL     1     -11.948  11.289  68.489  1.00  0.00    -0.353 Cl 
ENDROOT
BRANCH   8  12
HETATM   12  N   UNL     1     -11.410  14.091  69.819  1.00  0.00    -0.406 NA 
HETATM   13  H   UNL     1     -10.509  14.016  70.292  1.00  0.00     0.000 HD 
BRANCH  12  14
HETATM   14  C   UNL     1     -12.463  14.281  70.648  1.00  0.00    -0.358 A  
HETATM   15  N   UNL     1     -13.220  15.342  70.584  1.00  0.00    -0.682 NA 
HETATM   16  H   UNL     1     -13.144  16.124  69.935  1.00  0.00     0.000 HD 
HETATM   17  C   UNL     1     -14.220  15.154  71.669  1.00  0.00    -0.567 A  
HETATM   18  C   UNL     1     -13.947  13.788  72.300  1.00  0.00    -0.573 A  
HETATM   19  N   UNL     1     -12.831  13.304  71.520  1.00  0.00    -0.358 NA 
ENDBRANCH  12  14
ENDBRANCH   8  12
TORSDOF 2
ENDMDL
MODEL        8
REMARK 921   NORMALIZED FREE ENERGY PREDICTED BY IDOCK:   -5.71 KCAL/MOL
REMARK 922        TOTAL FREE ENERGY PREDICTED BY IDOCK:   -6.56 KCAL/MOL
REMARK 923 INTER-LIGAND FREE ENERGY PREDICTED BY IDOCK:   -6.24 KCAL/MOL
REMARK 924 INTRA-LIGAND FREE ENERGY PREDICTED BY IDOCK:   -0.32 KCAL/MOL
REMARK 927      BINDING AFFINITY PREDICTED BY RF-SCORE:    0.00 PKD
ROOT
HETATM    1  N   UNL     1     -11.285  13.927  64.165  1.00  0.00    -0.598 NA 
HETATM    2  H1  UNL     1     -11.049  14.757  63.622  1.00  0.00     0.000 HD 
HETATM    3  C   UNL     1     -11.225  13.950  65.561  1.00  0.00    -0.307 A  
HETATM    4  H2  UNL     1     -12.218  13.620  63.891  1.00  0.00     0.000 HD 
HETATM    5  C   UNL     1     -11.547  12.816  66.302  1.00  0.00    -0.433 A  
HETATM    6  C   UNL     1     -11.634  12.877  67.700  1.00  0.00    -0.355 A  
HETATM    7 CL   UNL     1     -12.002  11.406  68.541  1.00  0.00    -0.355 Cl 
HETATM    8  C   UNL     1     -11.447  14.084  68.406  1.00  0.00    -0.306 A  
HETATM    9  C   UNL     1     -11.188  15.230  67.632  1.00  0.00    -0.320 A  
HETATM   10  C   UNL     1     -11.095  15.163  66.234  1.00  0.00    -0.309 A  
HETATM   11 CL   UNL     1     -11.101  16.820  68.323  1.00  0.00    -0.328 Cl 
ENDROOT
BRANCH   8  12
HETATM   12  N   UNL     1     -11.508  14.077  69.813  1.00  0.00    -0.364 NA 
HETATM   13  H   UNL     1     -10.616  13.898  70.274  1.00  0.00     0.000 HD 
BRANCH  12  14
HETATM   14  C   UNL     1     -12.547  14.265  70.659  1.00  0.00    -0.355 A  
HETATM   15  N   UNL     1     -13.267  15.354  70.650  1.00  0.00    -0.697 NA 
HETATM   16  H   UNL     1     -13.167  16.162  70.036  1.00  0.00     0.000 HD 
HETATM   17  C   UNL     1     -14.264  15.153  71.735  1.00  0.00    -0.578 A  
HETATM   18  C   UNL     1     -14.034  13.751  72.301  1.00  0.00    -0.573 A  
HETATM   19  N   UNL     1     -12.942  13.263  71.490  1.00  0.00    -0.365 NA 
ENDBRANCH  12  14
ENDBRANCH   8  12
TORSDOF 2
ENDMDL
MODEL        9
REMARK 921   NORMALIZED FREE ENERGY PREDICTED BY IDOCK:   -5.70 KCAL/MOL
REMARK 922        TOTAL FREE ENERGY PREDICTED BY IDOCK:   -6.55 KCAL/MOL
REMARK 923 INTER-LIGAND FREE ENERGY PREDICTED BY IDOCK:   -6.39 KCAL/MOL
REMARK 924 INTRA-LIGAND FREE ENERGY PREDICTED BY IDOCK:   -0.16 KCAL/MOL
REMARK 927      BINDING AFFINITY PREDICTED BY RF-SCORE:    0.00 PKD
ROOT
HETATM    1  N   UNL     1     -13.534  16.033  73.812  1.00  0.00    -0.863 NA 
HETATM    2  H1  UNL     1     -14.041  15.507  74.523  1.00  0.00     0.000 HD 
HETATM    3  C   UNL     1     -12.864  15.369  72.781  1.00  0.00    -0.427 A  
HETATM    4  H2  UNL     1     -14.177  16.706  73.394  1.00  0.00     0.000 HD 
HETATM    5  C   UNL     1     -12.172  16.088  71.809  1.00  0.00    -0.535 A  
HETATM    6  C   UNL     1     -11.627  15.438  70.693  1.00  0.00    -0.332 A  
HETATM    7 CL   UNL     1     -10.748  16.409  69.556  1.00  0.00    -0.309 Cl 
HETATM    8  C   UNL     1     -11.792  14.053  70.484  1.00  0.00    -0.269 A  
HETATM    9  C   UNL     1     -12.551  13.359  71.443  1.00  0.00    -0.283 A  
HETATM   10  C   UNL     1     -13.089  14.013  72.562  1.00  0.00    -0.547 A  
HETATM   11 CL   UNL     1     -12.993  11.692  71.253  1.00  0.00    -0.433 Cl 
ENDROOT
BRANCH   8  12
HETATM   12  N   UNL     1     -11.188  13.448  69.364  1.00  0.00    -0.419 NA 
HETATM   13  H   UNL     1     -10.279  13.025  69.550  1.00  0.00     0.000 HD 
BRANCH  12  14
HETATM   14  C   UNL     1     -11.607  13.332  68.082  1.00  0.00    -0.338 A  
HETATM   15  N   UNL     1     -12.316  14.255  67.492  1.00  0.00    -0.587 NA 
HETATM   16  H   UNL     1     -12.626  15.145  67.879  1.00  0.00     0.000 HD 
HETATM   17  C   UNL     1     -12.570  13.717  66.128  1.00  0.00    -0.371 A  
HETATM   18  C   UNL     1     -11.830  12.383  66.027  1.00  0.00    -0.395 A  
HETATM   19  N   UNL     1     -11.205  12.275  67.325  1.00  0.00    -0.281 NA 
ENDBRANCH  12  14
ENDBRANCH   8  12
TORSDOF 2
ENDMDL
MODEL       10
REMARK 921   NORMALIZED FREE ENERGY PREDICTED BY IDOCK:   -5.66 KCAL/MOL
REMARK 922        TOTAL FREE ENERGY PREDICTED BY IDOCK:   -6.50 KCAL/MOL
REMARK 923 INTER-LIGAND FREE ENERGY PREDICTED BY IDOCK:   -6.21 KCAL/MOL
REMARK 924 INTRA-LIGAND FREE ENERGY PREDICTED BY IDOCK:   -0.30 KCAL/MOL
REMARK 927      BINDING AFFINITY PREDICTED BY RF-SCORE:    0.00 PKD
ROOT
HETATM    1  N   UNL     1     -11.368  16.712  64.070  1.00  0.00    -1.530 NA 
HETATM    2  H1  UNL     1     -11.712  16.831  63.117  1.00  0.00     0.000 HD 
HETATM    3  C   UNL     1     -11.621  15.532  64.774  1.00  0.00    -0.256 A  
HETATM    4  H2  UNL     1     -10.361  16.874  64.068  1.00  0.00     0.000 HD 
HETATM    5  C   UNL     1     -11.151  15.371  66.075  1.00  0.00    -0.233 A  
HETATM    6  C   UNL     1     -11.271  14.137  66.730  1.00  0.00    -0.323 A  
HETATM    7 CL   UNL     1     -10.694  14.041  68.362  1.00  0.00    -0.250 Cl 
HETATM    8  C   UNL     1     -11.824  13.006  66.092  1.00  0.00    -0.409 A  
HETATM    9  C   UNL     1     -12.230  13.174  64.757  1.00  0.00    -0.425 A  
HETATM   10  C   UNL     1     -12.114  14.413  64.108  1.00  0.00    -0.405 A  
HETATM   11 CL   UNL     1     -12.771  11.851  63.774  1.00  0.00    -0.542 Cl 
ENDROOT
BRANCH   8  12
HETATM   12  N   UNL     1     -11.954  11.803  66.813  1.00  0.00    -0.529 NA 
HETATM   13  H   UNL     1     -12.848  11.692  67.292  1.00  0.00     0.000 HD 
BRANCH  12  14
HETATM   14  C   UNL     1     -11.098  10.769  66.981  1.00  0.00    -0.174 A  
HETATM   15  N   UNL     1     -11.284   9.847  67.885  1.00  0.00    -0.509 NA 
HETATM   16  H   UNL     1     -12.057   9.768  68.545  1.00  0.00     0.000 HD 
HETATM   17  C   UNL     1     -10.116   8.937  67.739  1.00  0.00    -0.210 A  
HETATM   18  C   UNL     1      -9.289   9.455  66.562  1.00  0.00    -0.171 A  
HETATM   19  N   UNL     1     -10.052  10.602  66.126  1.00  0.00    -0.240 NA 
ENDBRANCH  12  14
ENDBRANCH   8  12
TORSDOF 2
ENDMDL
MODEL       11
REMARK 921   NORMALIZED FREE ENERGY PREDICTED BY IDOCK:   -5.60 KCAL/MOL
REMARK 922        TOTAL FREE ENERGY PREDICTED BY IDOCK:   -6.44 KCAL/MOL
REMARK 923 INTER-LIGAND FREE ENERGY PREDICTED BY IDOCK:   -6.33 KCAL/MOL
REMARK 924 INTRA-LIGAND FREE ENERGY PREDICTED BY IDOCK:   -0.12 KCAL/MOL
REMARK 927      BINDING AFFINITY PREDICTED BY RF-SCORE:    0.00 PKD
ROOT
HETATM    1  N   UNL     1     -11.327  16.674  64.146  1.00  0.00    -1.437 NA 
HETATM    2  H1  UNL     1     -11.027  17.505  64.655  1.00  0.00     0.000 HD 
HETATM    3  C   UNL     1     -11.409  15.437  64.792  1.00  0.00    -0.376 A  
HETATM    4  H2  UNL     1     -12.231  16.870  63.717  1.00  0.00     0.000 HD 
HETATM    5  C   UNL     1     -11.819  14.302  64.096  1.00  0.00    -0.338 A  
HETATM    6  C   UNL     1     -12.047  13.095  64.771  1.00  0.00    -0.409 A  
HETATM    7 CL   UNL     1     -12.516  11.724  63.817  1.00  0.00    -0.497 Cl 
HETATM    8  C   UNL     1     -11.918  12.988  66.172  1.00  0.00    -0.427 A  
HETATM    9  C   UNL     1     -11.569  14.163  66.861  1.00  0.00    -0.391 A  
HETATM   10  C   UNL     1     -11.334  15.368  66.180  1.00  0.00    -0.082 A  
HETATM   11 CL   UNL     1     -11.533  14.252  68.594  1.00  0.00    -0.306 Cl 
ENDROOT
BRANCH   8  12
HETATM   12  N   UNL     1     -12.123  11.740  66.790  1.00  0.00    -0.373 NA 
HETATM   13  H   UNL     1     -12.912  11.209  66.421  1.00  0.00     0.000 HD 
BRANCH  12  14
HETATM   14  C   UNL     1     -11.453  11.122  67.791  1.00  0.00    -0.272 A  
HETATM   15  N   UNL     1     -12.062  10.597  68.819  1.00  0.00    -0.790 NA 
HETATM   16  H   UNL     1     -13.064  10.565  69.001  1.00  0.00     0.000 HD 
HETATM   17  C   UNL     1     -10.966  10.056  69.667  1.00  0.00    -0.264 A  
HETATM   18  C   UNL     1      -9.657  10.296  68.915  1.00  0.00    -0.190 A  
HETATM   19  N   UNL     1     -10.108  10.936  67.701  1.00  0.00    -0.175 NA 
ENDBRANCH  12  14
ENDBRANCH   8  12
TORSDOF 2
ENDMDL
MODEL       12
REMARK 921   NORMALIZED FREE ENERGY PREDICTED BY IDOCK:   -5.50 KCAL/MOL
REMARK 922        TOTAL FREE ENERGY PREDICTED BY IDOCK:   -6.33 KCAL/MOL
REMARK 923 INTER-LIGAND FREE ENERGY PREDICTED BY IDOCK:   -5.99 KCAL/MOL
REMARK 924 INTRA-LIGAND FREE ENERGY PREDICTED BY IDOCK:   -0.34 KCAL/MOL
REMARK 927      BINDING AFFINITY PREDICTED BY RF-SCORE:    0.00 PKD
ROOT
HETATM    1  N   UNL     1     -12.355  13.918  63.673  1.00  0.00    -1.007 NA 
HETATM    2  H1  UNL     1     -12.548  13.125  63.062  1.00  0.00     0.000 HD 
HETATM    3  C   UNL     1     -12.164  13.729  65.044  1.00  0.00    -0.424 A  
HETATM    4  H2  UNL     1     -11.545  14.415  63.303  1.00  0.00     0.000 HD 
HETATM    5  C   UNL     1     -11.901  14.813  65.877  1.00  0.00    -0.204 A  
HETATM    6  C   UNL     1     -11.561  14.614  67.223  1.00  0.00    -0.387 A  
HETATM    7 CL   UNL     1     -11.289  16.024  68.194  1.00  0.00    -0.325 Cl 
HETATM    8  C   UNL     1     -11.428  13.322  67.774  1.00  0.00    -0.317 A  
HETATM    9  C   UNL     1     -11.633  12.241  66.897  1.00  0.00    -0.361 A  
HETATM   10  C   UNL     1     -11.980  12.446  65.553  1.00  0.00    -0.453 A  
HETATM   11 CL   UNL     1     -11.346  10.595  67.364  1.00  0.00    -0.290 Cl 
ENDROOT
BRANCH   8  12
HETATM   12  N   UNL     1     -11.123  13.184  69.142  1.00  0.00    -0.375 NA 
HETATM   13  H   UNL     1     -10.132  13.284  69.366  1.00  0.00     0.000 HD 
BRANCH  12  14
HETATM   14  C   UNL     1     -11.916  12.941  70.211  1.00  0.00    -0.283 A  
HETATM   15  N   UNL     1     -12.012  11.759  70.756  1.00  0.00    -0.438 NA 
HETATM   16  H   UNL     1     -11.525  10.906  70.484  1.00  0.00     0.000 HD 
HETATM   17  C   UNL     1     -12.990  11.936  71.863  1.00  0.00    -0.329 A  
HETATM   18  C   UNL     1     -13.368  13.417  71.896  1.00  0.00    -0.451 A  
HETATM   19  N   UNL     1     -12.571  13.965  70.823  1.00  0.00    -0.351 NA 
ENDBRANCH  12  14
ENDBRANCH   8  12
TORSDOF 2
ENDMDL
MODEL       13
REMARK 921   NORMALIZED FREE ENERGY PREDICTED BY IDOCK:   -5.48 KCAL/MOL
REMARK 922        TOTAL FREE ENERGY PREDICTED BY IDOCK:   -6.30 KCAL/MOL
REMARK 923 INTER-LIGAND FREE ENERGY PREDICTED BY IDOCK:   -5.99 KCAL/MOL
REMARK 924 INTRA-LIGAND FREE ENERGY PREDICTED BY IDOCK:   -0.31 KCAL/MOL
REMARK 927      BINDING AFFINITY PREDICTED BY RF-SCORE:    0.00 PKD
ROOT
HETATM    1  N   UNL     1     -10.212  10.754  62.739  1.00  0.00    -0.773 NA 
HETATM    2  H1  UNL     1      -9.870   9.811  62.923  1.00  0.00     0.000 HD 
HETATM    3  C   UNL     1     -10.838  11.492  63.747  1.00  0.00    -0.416 A  
HETATM    4  H2  UNL     1      -9.438  11.308  62.371  1.00  0.00     0.000 HD 
HETATM    5  C   UNL     1     -11.304  12.780  63.494  1.00  0.00    -0.480 A  
HETATM    6  C   UNL     1     -11.796  13.578  64.536  1.00  0.00    -0.405 A  
HETATM    7 CL   UNL     1     -12.392  15.153  64.121  1.00  0.00    -0.322 Cl 
HETATM    8  C   UNL     1     -11.797  13.137  65.876  1.00  0.00    -0.406 A  
HETATM    9  C   UNL     1     -11.259  11.860  66.117  1.00  0.00    -0.333 A  
HETATM   10  C   UNL     1     -10.775  11.061  65.069  1.00  0.00    -0.264 A  
HETATM   11 CL   UNL     1     -11.028  11.233  67.718  1.00  0.00    -0.282 Cl 
ENDROOT
BRANCH   8  12
HETATM   12  N   UNL     1     -12.339  13.969  66.875  1.00  0.00    -0.533 NA 
HETATM   13  H   UNL     1     -13.357  13.947  66.937  1.00  0.00     0.000 HD 
BRANCH  12  14
HETATM   14  C   UNL     1     -11.742  14.792  67.768  1.00  0.00    -0.343 A  
HETATM   15  N   UNL     1     -12.185  14.940  68.987  1.00  0.00    -0.573 NA 
HETATM   16  H   UNL     1     -12.984  14.479  69.420  1.00  0.00     0.000 HD 
HETATM   17  C   UNL     1     -11.265  15.933  69.602  1.00  0.00    -0.331 A  
HETATM   18  C   UNL     1     -10.195  16.259  68.559  1.00  0.00    -0.247 A  
HETATM   19  N   UNL     1     -10.580  15.422  67.447  1.00  0.00    -0.283 NA 
ENDBRANCH  12  14
ENDBRANCH   8  12
TORSDOF 2
ENDMDL
MODEL       14
REMARK 921   NORMALIZED FREE ENERGY PREDICTED BY IDOCK:   -5.46 KCAL/MOL
REMARK 922        TOTAL FREE ENERGY PREDICTED BY IDOCK:   -6.28 KCAL/MOL
REMARK 923 INTER-LIGAND FREE ENERGY PREDICTED BY IDOCK:   -6.00 KCAL/MOL
REMARK 924 INTRA-LIGAND FREE ENERGY PREDICTED BY IDOCK:   -0.28 KCAL/MOL
REMARK 927      BINDING AFFINITY PREDICTED BY RF-SCORE:    0.00 PKD
ROOT
HETATM    1  N   UNL     1     -14.096   8.917  73.175  1.00  0.00    -1.225 NA 
HETATM    2  H1  UNL     1     -14.853   9.462  73.585  1.00  0.00     0.000 HD 
HETATM    3  C   UNL     1     -13.284   9.466  72.179  1.00  0.00    -0.460 A  
HETATM    4  H2  UNL     1     -13.495   8.586  73.930  1.00  0.00     0.000 HD 
HETATM    5  C   UNL     1     -12.249   8.722  71.619  1.00  0.00    -0.399 A  
HETATM    6  C   UNL     1     -11.341   9.316  70.731  1.00  0.00    -0.287 A  
HETATM    7 CL   UNL     1     -10.109   8.301  70.053  1.00  0.00    -0.193 Cl 
HETATM    8  C   UNL     1     -11.406  10.687  70.406  1.00  0.00    -0.304 A  
HETATM    9  C   UNL     1     -12.417  11.434  71.036  1.00  0.00    -0.383 A  
HETATM   10  C   UNL     1     -13.329  10.833  71.918  1.00  0.00    -0.445 A  
HETATM   11 CL   UNL     1     -12.535  13.159  70.881  1.00  0.00    -0.440 Cl 
ENDROOT
BRANCH   8  12
HETATM   12  N   UNL     1     -10.489  11.220  69.479  1.00  0.00    -0.442 NA 
HETATM   13  H   UNL     1      -9.587  11.479  69.877  1.00  0.00     0.000 HD 
BRANCH  12  14
HETATM   14  C   UNL     1     -10.600  11.448  68.150  1.00  0.00    -0.189 A  
HETATM   15  N   UNL     1     -11.752  11.459  67.536  1.00  0.00    -0.609 NA 
HETATM   16  H   UNL     1     -12.676  11.321  67.943  1.00  0.00     0.000 HD 
HETATM   17  C   UNL     1     -11.414  11.718  66.110  1.00  0.00    -0.220 A  
HETATM   18  C   UNL     1      -9.901  11.923  66.038  1.00  0.00    -0.235 A  
HETATM   19  N   UNL     1      -9.501  11.779  67.419  1.00  0.00    -0.171 NA 
ENDBRANCH  12  14
ENDBRANCH   8  12
TORSDOF 2
ENDMDL
MODEL       15
REMARK 921   NORMALIZED FREE ENERGY PREDICTED BY IDOCK:   -5.42 KCAL/MOL
REMARK 922        TOTAL FREE ENERGY PREDICTED BY IDOCK:   -6.25 KCAL/MOL
REMARK 923 INTER-LIGAND FREE ENERGY PREDICTED BY IDOCK:   -5.95 KCAL/MOL
REMARK 924 INTRA-LIGAND FREE ENERGY PREDICTED BY IDOCK:   -0.30 KCAL/MOL
REMARK 927      BINDING AFFINITY PREDICTED BY RF-SCORE:    0.00 PKD
ROOT
HETATM    1  N   UNL     1     -12.176  12.499  65.360  1.00  0.00    -0.578 NA 
HETATM    2  H1  UNL     1     -12.091  13.123  64.558  1.00  0.00     0.000 HD 
HETATM    3  C   UNL     1     -11.832  12.939  66.642  1.00  0.00    -0.395 A  
HETATM    4  H2  UNL     1     -13.132  12.146  65.391  1.00  0.00     0.000 HD 
HETATM    5  C   UNL     1     -11.948  12.088  67.737  1.00  0.00    -0.177 A  
HETATM    6  C   UNL     1     -11.749  12.567  69.039  1.00  0.00    -0.318 A  
HETATM    7 CL   UNL     1     -11.876  11.425  70.338  1.00  0.00    -0.438 Cl 
HETATM    8  C   UNL     1     -11.471  13.926  69.298  1.00  0.00    -0.297 A  
HETATM    9  C   UNL     1     -11.424  14.781  68.182  1.00  0.00    -0.323 A  
HETATM   10  C   UNL     1     -11.617  14.294  66.880  1.00  0.00    -0.405 A  
HETATM   11 CL   UNL     1     -11.263  16.502  68.333  1.00  0.00    -0.337 Cl 
ENDROOT
BRANCH   8  12
HETATM   12  N   UNL     1     -11.242  14.343  70.624  1.00  0.00    -0.500 NA 
HETATM   13  H   UNL     1     -10.264  14.315  70.912  1.00  0.00     0.000 HD 
BRANCH  12  14
HETATM   14  C   UNL     1     -12.096  14.773  71.581  1.00  0.00    -0.350 A  
HETATM   15  N   UNL     1     -11.690  15.136  72.767  1.00  0.00    -0.380 NA 
HETATM   16  H   UNL     1     -10.733  15.160  73.119  1.00  0.00     0.000 HD 
HETATM   17  C   UNL     1     -12.935  15.506  73.492  1.00  0.00    -0.542 A  
HETATM   18  C   UNL     1     -14.090  15.364  72.501  1.00  0.00    -0.499 A  
HETATM   19  N   UNL     1     -13.415  14.941  71.295  1.00  0.00    -0.406 NA 
ENDBRANCH  12  14
ENDBRANCH   8  12
TORSDOF 2
ENDMDL
MODEL       16
REMARK 921   NORMALIZED FREE ENERGY PREDICTED BY IDOCK:   -5.38 KCAL/MOL
REMARK 922        TOTAL FREE ENERGY PREDICTED BY IDOCK:   -6.20 KCAL/MOL
REMARK 923 INTER-LIGAND FREE ENERGY PREDICTED BY IDOCK:   -5.94 KCAL/MOL
REMARK 924 INTRA-LIGAND FREE ENERGY PREDICTED BY IDOCK:   -0.26 KCAL/MOL
REMARK 927      BINDING AFFINITY PREDICTED BY RF-SCORE:    0.00 PKD
ROOT
HETATM    1  N   UNL     1      -8.103  12.895  66.687  1.00  0.00    -0.386 NA 
HETATM    2  H1  UNL     1      -7.993  11.881  66.717  1.00  0.00     0.000 HD 
HETATM    3  C   UNL     1      -9.222  13.504  67.261  1.00  0.00    -0.233 A  
HETATM    4  H2  UNL     1      -7.267  13.319  67.089  1.00  0.00     0.000 HD 
HETATM    5  C   UNL     1      -9.373  14.888  67.221  1.00  0.00    -0.210 A  
HETATM    6  C   UNL     1     -10.412  15.514  67.923  1.00  0.00    -0.266 A  
HETATM    7 CL   UNL     1     -10.544  17.238  67.782  1.00  0.00    -0.372 Cl 
HETATM    8  C   UNL     1     -11.312  14.785  68.728  1.00  0.00    -0.282 A  
HETATM    9  C   UNL     1     -11.100  13.397  68.808  1.00  0.00    -0.262 A  
HETATM   10  C   UNL     1     -10.063  12.774  68.097  1.00  0.00    -0.239 A  
HETATM   11 CL   UNL     1     -12.005  12.377  69.881  1.00  0.00    -0.394 Cl 
ENDROOT
BRANCH   8  12
HETATM   12  N   UNL     1     -12.360  15.464  69.379  1.00  0.00    -0.592 NA 
HETATM   13  H   UNL     1     -13.042  15.891  68.752  1.00  0.00     0.000 HD 
BRANCH  12  14
HETATM   14  C   UNL     1     -12.619  15.649  70.695  1.00  0.00    -0.414 A  
HETATM   15  N   UNL     1     -13.810  15.487  71.202  1.00  0.00    -0.762 NA 
HETATM   16  H   UNL     1     -14.661  15.203  70.717  1.00  0.00     0.000 HD 
HETATM   17  C   UNL     1     -13.650  15.809  72.645  1.00  0.00    -0.548 A  
HETATM   18  C   UNL     1     -12.168  16.104  72.877  1.00  0.00    -0.541 A  
HETATM   19  N   UNL     1     -11.604  15.914  71.561  1.00  0.00    -0.440 NA 
ENDBRANCH  12  14
ENDBRANCH   8  12
TORSDOF 2
ENDMDL
MODEL       17
REMARK 921   NORMALIZED FREE ENERGY PREDICTED BY IDOCK:   -5.37 KCAL/MOL
REMARK 922        TOTAL FREE ENERGY PREDICTED BY IDOCK:   -6.18 KCAL/MOL
REMARK 923 INTER-LIGAND FREE ENERGY PREDICTED BY IDOCK:   -5.98 KCAL/MOL
REMARK 924 INTRA-LIGAND FREE ENERGY PREDICTED BY IDOCK:   -0.20 KCAL/MOL
REMARK 927      BINDING AFFINITY PREDICTED BY RF-SCORE:    0.00 PKD
ROOT
HETATM    1  N   UNL     1     -11.452  16.628  63.875  1.00  0.00    -1.469 NA 
HETATM    2  H1  UNL     1     -12.210  16.792  63.212  1.00  0.00     0.000 HD 
HETATM    3  C   UNL     1     -11.350  15.408  64.549  1.00  0.00    -0.313 A  
HETATM    4  H2  UNL     1     -10.568  16.805  63.399  1.00  0.00     0.000 HD 
HETATM    5  C   UNL     1     -10.315  15.184  65.454  1.00  0.00    -0.415 A  
HETATM    6  C   UNL     1     -10.121  13.916  66.017  1.00  0.00    -0.313 A  
HETATM    7 CL   UNL     1      -8.832  13.741  67.164  1.00  0.00    -0.229 Cl 
HETATM    8  C   UNL     1     -10.925  12.812  65.663  1.00  0.00    -0.273 A  
HETATM    9  C   UNL     1     -11.921  13.045  64.698  1.00  0.00    -0.392 A  
HETATM   10  C   UNL     1     -12.117  14.319  64.142  1.00  0.00    -0.423 A  
HETATM   11 CL   UNL     1     -12.884  11.768  64.025  1.00  0.00    -0.328 Cl 
ENDROOT
BRANCH   8  12
HETATM   12  N   UNL     1     -10.708  11.570  66.291  1.00  0.00    -0.264 NA 
HETATM   13  H   UNL     1     -10.324  10.849  65.680  1.00  0.00     0.000 HD 
BRANCH  12  14
HETATM   14  C   UNL     1     -10.920  11.169  67.565  1.00  0.00    -0.275 A  
HETATM   15  N   UNL     1     -10.016  10.527  68.256  1.00  0.00    -0.155 NA 
HETATM   16  H   UNL     1      -9.076  10.265  67.960  1.00  0.00     0.000 HD 
HETATM   17  C   UNL     1     -10.664  10.265  69.569  1.00  0.00    -0.249 A  
HETATM   18  C   UNL     1     -12.043  10.925  69.528  1.00  0.00    -0.309 A  
HETATM   19  N   UNL     1     -12.065  11.518  68.211  1.00  0.00    -0.575 NA 
ENDBRANCH  12  14
ENDBRANCH   8  12
TORSDOF 2
ENDMDL
MODEL       18
REMARK 921   NORMALIZED FREE ENERGY PREDICTED BY IDOCK:   -5.37 KCAL/MOL
REMARK 922        TOTAL FREE ENERGY PREDICTED BY IDOCK:   -6.18 KCAL/MOL
REMARK 923 INTER-LIGAND FREE ENERGY PREDICTED BY IDOCK:   -5.96 KCAL/MOL
REMARK 924 INTRA-LIGAND FREE ENERGY PREDICTED BY IDOCK:   -0.22 KCAL/MOL
REMARK 927      BINDING AFFINITY PREDICTED BY RF-SCORE:    0.00 PKD
ROOT
HETATM    1  N   UNL     1     -12.485  13.990  63.399  1.00  0.00    -1.123 NA 
HETATM    2  H1  UNL     1     -12.908  14.918  63.419  1.00  0.00     0.000 HD 
HETATM    3  C   UNL     1     -11.912  13.446  64.552  1.00  0.00    -0.407 A  
HETATM    4  H2  UNL     1     -13.178  13.331  63.046  1.00  0.00     0.000 HD 
HETATM    5  C   UNL     1     -11.335  12.180  64.526  1.00  0.00    -0.393 A  
HETATM    6  C   UNL     1     -10.895  11.570  65.709  1.00  0.00    -0.262 A  
HETATM    7 CL   UNL     1     -10.153  10.008  65.573  1.00  0.00    -0.359 Cl 
HETATM    8  C   UNL     1     -11.058  12.184  66.968  1.00  0.00    -0.294 A  
HETATM    9  C   UNL     1     -11.703  13.434  66.979  1.00  0.00    -0.381 A  
HETATM   10  C   UNL     1     -12.135  14.043  65.791  1.00  0.00    -0.445 A  
HETATM   11 CL   UNL     1     -12.134  14.248  68.449  1.00  0.00    -0.345 Cl 
ENDROOT
BRANCH   8  12
HETATM   12  N   UNL     1     -10.561  11.541  68.119  1.00  0.00    -0.188 NA 
HETATM   13  H   UNL     1      -9.543  11.500  68.174  1.00  0.00     0.000 HD 
BRANCH  12  14
HETATM   14  C   UNL     1     -11.201  10.967  69.163  1.00  0.00    -0.255 A  
HETATM   15  N   UNL     1     -12.495  10.793  69.180  1.00  0.00    -0.717 NA 
HETATM   16  H   UNL     1     -13.166  11.035  68.452  1.00  0.00     0.000 HD 
HETATM   17  C   UNL     1     -12.771  10.164  70.499  1.00  0.00    -0.197 A  
HETATM   18  C   UNL     1     -11.422   9.947  71.184  1.00  0.00    -0.383 A  
HETATM   19  N   UNL     1     -10.490  10.453  70.203  1.00  0.00    -0.208 NA 
ENDBRANCH  12  14
ENDBRANCH   8  12
TORSDOF 2
ENDMDL
MODEL       19
REMARK 921   NORMALIZED FREE ENERGY PREDICTED BY IDOCK:   -5.34 KCAL/MOL
REMARK 922        TOTAL FREE ENERGY PREDICTED BY IDOCK:   -6.15 KCAL/MOL
REMARK 923 INTER-LIGAND FREE ENERGY PREDICTED BY IDOCK:   -5.85 KCAL/MOL
REMARK 924 INTRA-LIGAND FREE ENERGY PREDICTED BY IDOCK:   -0.31 KCAL/MOL
REMARK 927      BINDING AFFINITY PREDICTED BY RF-SCORE:    0.00 PKD
ROOT
HETATM    1  N   UNL     1     -12.588  14.142  64.808  1.00  0.00    -0.656 NA 
HETATM    2  H1  UNL     1     -12.862  15.124  64.791  1.00  0.00     0.000 HD 
HETATM    3  C   UNL     1     -12.063  13.572  65.971  1.00  0.00    -0.445 A  
HETATM    4  H2  UNL     1     -13.386  13.582  64.510  1.00  0.00     0.000 HD 
HETATM    5  C   UNL     1     -11.688  12.231  65.994  1.00  0.00    -0.451 A  
HETATM    6  C   UNL     1     -11.303  11.618  67.194  1.00  0.00    -0.306 A  
HETATM    7 CL   UNL     1     -10.815   9.955  67.120  1.00  0.00    -0.277 Cl 
HETATM    8  C   UNL     1     -11.323  12.309  68.424  1.00  0.00    -0.292 A  
HETATM    9  C   UNL     1     -11.769  13.642  68.388  1.00  0.00    -0.358 A  
HETATM   10  C   UNL     1     -12.146  14.254  67.182  1.00  0.00    -0.412 A  
HETATM   11 CL   UNL     1     -12.015  14.582  69.825  1.00  0.00    -0.360 Cl 
ENDROOT
BRANCH   8  12
HETATM   12  N   UNL     1     -10.889  11.652  69.592  1.00  0.00    -0.458 NA 
HETATM   13  H   UNL     1      -9.904  11.797  69.817  1.00  0.00     0.000 HD 
BRANCH  12  14
HETATM   14  C   UNL     1     -11.552  10.860  70.466  1.00  0.00    -0.300 A  
HETATM   15  N   UNL     1     -11.118   9.677  70.806  1.00  0.00    -0.306 NA 
HETATM   16  H   UNL     1     -10.266   9.212  70.494  1.00  0.00     0.000 HD 
HETATM   17  C   UNL     1     -12.144   9.158  71.749  1.00  0.00    -0.376 A  
HETATM   18  C   UNL     1     -13.180  10.267  71.939  1.00  0.00    -0.445 A  
HETATM   19  N   UNL     1     -12.658  11.326  71.107  1.00  0.00    -0.403 NA 
ENDBRANCH  12  14
ENDBRANCH   8  12
TORSDOF 2
ENDMDL
MODEL       20
REMARK 921   NORMALIZED FREE ENERGY PREDICTED BY IDOCK:   -5.34 KCAL/MOL
REMARK 922        TOTAL FREE ENERGY PREDICTED BY IDOCK:   -6.15 KCAL/MOL
REMARK 923 INTER-LIGAND FREE ENERGY PREDICTED BY IDOCK:   -5.83 KCAL/MOL
REMARK 924 INTRA-LIGAND FREE ENERGY PREDICTED BY IDOCK:   -0.32 KCAL/MOL
REMARK 927      BINDING AFFINITY PREDICTED BY RF-SCORE:    0.00 PKD
ROOT
HETATM    1  N   UNL     1     -13.751  13.213  72.875  1.00  0.00    -0.649 NA 
HETATM    2  H1  UNL     1     -14.134  14.080  73.251  1.00  0.00     0.000 HD 
HETATM    3  C   UNL     1     -13.145  13.192  71.615  1.00  0.00    -0.353 A  
HETATM    4  H2  UNL     1     -13.090  12.835  73.553  1.00  0.00     0.000 HD 
HETATM    5  C   UNL     1     -12.621  12.008  71.102  1.00  0.00    -0.372 A  
HETATM    6  C   UNL     1     -11.883  12.011  69.911  1.00  0.00    -0.331 A  
HETATM    7 CL   UNL     1     -11.303  10.484  69.327  1.00  0.00    -0.306 Cl 
HETATM    8  C   UNL     1     -11.600  13.204  69.213  1.00  0.00    -0.314 A  
HETATM    9  C   UNL     1     -12.081  14.396  69.785  1.00  0.00    -0.334 A  
HETATM   10  C   UNL     1     -12.827  14.386  70.974  1.00  0.00    -0.423 A  
HETATM   11 CL   UNL     1     -11.682  15.961  69.152  1.00  0.00    -0.383 Cl 
ENDROOT
BRANCH   8  12
HETATM   12  N   UNL     1     -10.885  13.141  68.001  1.00  0.00    -0.235 NA 
HETATM   13  H   UNL     1      -9.892  12.933  68.106  1.00  0.00     0.000 HD 
BRANCH  12  14
HETATM   14  C   UNL     1     -11.289  13.309  66.720  1.00  0.00    -0.327 A  
HETATM   15  N   UNL     1     -10.819  14.258  65.958  1.00  0.00    -0.298 NA 
HETATM   16  H   UNL     1     -10.116  14.958  66.195  1.00  0.00     0.000 HD 
HETATM   17  C   UNL     1     -11.538  14.092  64.666  1.00  0.00    -0.406 A  
HETATM   18  C   UNL     1     -12.427  12.856  64.804  1.00  0.00    -0.455 A  
HETATM   19  N   UNL     1     -12.136  12.411  66.147  1.00  0.00    -0.641 NA 
ENDBRANCH  12  14
ENDBRANCH   8  12
TORSDOF 2
ENDMDL
MODEL       21
REMARK 921   NORMALIZED FREE ENERGY PREDICTED BY IDOCK:   -5.33 KCAL/MOL
REMARK 922        TOTAL FREE ENERGY PREDICTED BY IDOCK:   -6.14 KCAL/MOL
REMARK 923 INTER-LIGAND FREE ENERGY PREDICTED BY IDOCK:   -5.85 KCAL/MOL
REMARK 924 INTRA-LIGAND FREE ENERGY PREDICTED BY IDOCK:   -0.29 KCAL/MOL
REMARK 927      BINDING AFFINITY PREDICTED BY RF-SCORE:    0.00 PKD
ROOT
HETATM    1  N   UNL     1     -10.030  10.664  62.753  1.00  0.00    -0.716 NA 
HETATM    2  H1  UNL     1      -9.983  11.072  61.820  1.00  0.00     0.000 HD 
HETATM    3  C   UNL     1     -10.446  11.432  63.844  1.00  0.00    -0.387 A  
HETATM    4  H2  UNL     1     -10.616   9.830  62.708  1.00  0.00     0.000 HD 
HETATM    5  C   UNL     1     -10.510  10.874  65.119  1.00  0.00    -0.316 A  
HETATM    6  C   UNL     1     -11.067  11.593  66.186  1.00  0.00    -0.280 A  
HETATM    7 CL   UNL     1     -11.069  10.833  67.745  1.00  0.00    -0.355 Cl 
HETATM    8  C   UNL     1     -11.622  12.878  66.009  1.00  0.00    -0.375 A  
HETATM    9  C   UNL     1     -11.606  13.394  64.701  1.00  0.00    -0.355 A  
HETATM   10  C   UNL     1     -11.041  12.674  63.637  1.00  0.00    -0.496 A  
HETATM   11 CL   UNL     1     -12.394  14.881  64.277  1.00  0.00    -0.448 Cl 
ENDROOT
BRANCH   8  12
HETATM   12  N   UNL     1     -12.133  13.568  67.126  1.00  0.00    -0.368 NA 
HETATM   13  H   UNL     1     -13.102  13.347  67.352  1.00  0.00     0.000 HD 
BRANCH  12  14
HETATM   14  C   UNL     1     -11.558  14.474  67.951  1.00  0.00    -0.344 A  
HETATM   15  N   UNL     1     -12.259  15.253  68.729  1.00  0.00    -0.597 NA 
HETATM   16  H   UNL     1     -13.273  15.282  68.833  1.00  0.00     0.000 HD 
HETATM   17  C   UNL     1     -11.248  16.089  69.431  1.00  0.00    -0.349 A  
HETATM   18  C   UNL     1      -9.871  15.603  68.977  1.00  0.00    -0.236 A  
HETATM   19  N   UNL     1     -10.204  14.528  68.070  1.00  0.00    -0.230 NA 
ENDBRANCH  12  14
ENDBRANCH   8  12
TORSDOF 2
ENDMDL
MODEL       22
REMARK 921   NORMALIZED FREE ENERGY PREDICTED BY IDOCK:   -5.27 KCAL/MOL
REMARK 922        TOTAL FREE ENERGY PREDICTED BY IDOCK:   -6.07 KCAL/MOL
REMARK 923 INTER-LIGAND FREE ENERGY PREDICTED BY IDOCK:   -5.77 KCAL/MOL
REMARK 924 INTRA-LIGAND FREE ENERGY PREDICTED BY IDOCK:   -0.30 KCAL/MOL
REMARK 927      BINDING AFFINITY PREDICTED BY RF-SCORE:    0.00 PKD
ROOT
HETATM    1  N   UNL     1      -9.220   9.460  63.272  1.00  0.00    -0.463 NA 
HETATM    2  H1  UNL     1      -9.123   9.628  62.271  1.00  0.00     0.000 HD 
HETATM    3  C   UNL     1      -9.869  10.389  64.089  1.00  0.00    -0.313 A  
HETATM    4  H2  UNL     1      -9.670   8.553  63.401  1.00  0.00     0.000 HD 
HETATM    5  C   UNL     1     -10.002  10.158  65.456  1.00  0.00    -0.363 A  
HETATM    6  C   UNL     1     -10.779  11.011  66.252  1.00  0.00    -0.212 A  
HETATM    7 CL   UNL     1     -10.856  10.668  67.951  1.00  0.00    -0.298 Cl 
HETATM    8  C   UNL     1     -11.489  12.100  65.704  1.00  0.00    -0.355 A  
HETATM    9  C   UNL     1     -11.394  12.275  64.312  1.00  0.00    -0.352 A  
HETATM   10  C   UNL     1     -10.609  11.423  63.520  1.00  0.00    -0.468 A  
HETATM   11 CL   UNL     1     -12.333  13.455  63.455  1.00  0.00    -0.476 Cl 
ENDROOT
BRANCH   8  12
HETATM   12  N   UNL     1     -12.223  12.946  66.559  1.00  0.00    -0.461 NA 
HETATM   13  H   UNL     1     -13.195  12.667  66.697  1.00  0.00     0.000 HD 
BRANCH  12  14
HETATM   14  C   UNL     1     -11.861  14.064  67.230  1.00  0.00    -0.411 A  
HETATM   15  N   UNL     1     -12.335  14.354  68.411  1.00  0.00    -0.599 NA 
HETATM   16  H   UNL     1     -12.993  13.811  68.969  1.00  0.00     0.000 HD 
HETATM   17  C   UNL     1     -11.702  15.655  68.759  1.00  0.00    -0.370 A  
HETATM   18  C   UNL     1     -10.745  16.007  67.620  1.00  0.00    -0.320 A  
HETATM   19  N   UNL     1     -10.897  14.881  66.727  1.00  0.00    -0.314 NA 
ENDBRANCH  12  14
ENDBRANCH   8  12
TORSDOF 2
ENDMDL
MODEL       23
REMARK 921   NORMALIZED FREE ENERGY PREDICTED BY IDOCK:   -5.26 KCAL/MOL
REMARK 922        TOTAL FREE ENERGY PREDICTED BY IDOCK:   -6.07 KCAL/MOL
REMARK 923 INTER-LIGAND FREE ENERGY PREDICTED BY IDOCK:   -6.26 KCAL/MOL
REMARK 924 INTRA-LIGAND FREE ENERGY PREDICTED BY IDOCK:    0.20 KCAL/MOL
REMARK 927      BINDING AFFINITY PREDICTED BY RF-SCORE:    0.00 PKD
ROOT
HETATM    1  N   UNL     1     -11.830  16.171  71.252  1.00  0.00    -0.591 NA 
HETATM    2  H1  UNL     1     -11.726  17.162  71.033  1.00  0.00     0.000 HD 
HETATM    3  C   UNL     1     -11.945  15.226  70.228  1.00  0.00    -0.330 A  
HETATM    4  H2  UNL     1     -11.057  15.894  71.856  1.00  0.00     0.000 HD 
HETATM    5  C   UNL     1     -12.087  13.874  70.527  1.00  0.00    -0.426 A  
HETATM    6  C   UNL     1     -12.052  12.910  69.510  1.00  0.00    -0.214 A  
HETATM    7 CL   UNL     1     -12.277  11.253  69.972  1.00  0.00    -0.388 Cl 
HETATM    8  C   UNL     1     -11.828  13.258  68.161  1.00  0.00    -0.353 A  
HETATM    9  C   UNL     1     -11.620  14.623  67.891  1.00  0.00    -0.348 A  
HETATM   10  C   UNL     1     -11.663  15.585  68.913  1.00  0.00    -0.385 A  
HETATM   11 CL   UNL     1     -11.165  15.203  66.321  1.00  0.00    -0.314 Cl 
ENDROOT
BRANCH   8  12
HETATM   12  N   UNL     1     -11.841  12.250  67.177  1.00  0.00    -0.566 NA 
HETATM   13  H   UNL     1     -11.959  11.305  67.542  1.00  0.00     0.000 HD 
BRANCH  12  14
HETATM   14  C   UNL     1     -11.725  12.319  65.831  1.00  0.00    -0.389 A  
HETATM   15  N   UNL     1     -10.599  12.085  65.214  1.00  0.00    -0.276 NA 
HETATM   16  H   UNL     1      -9.705  11.821  65.626  1.00  0.00     0.000 HD 
HETATM   17  C   UNL     1     -10.911  12.292  63.774  1.00  0.00    -0.435 A  
HETATM   18  C   UNL     1     -12.405  12.605  63.679  1.00  0.00    -0.492 A  
HETATM   19  N   UNL     1     -12.825  12.539  65.060  1.00  0.00    -0.758 NA 
ENDBRANCH  12  14
ENDBRANCH   8  12
TORSDOF 2
ENDMDL
MODEL       24
REMARK 921   NORMALIZED FREE ENERGY PREDICTED BY IDOCK:   -5.26 KCAL/MOL
REMARK 922        TOTAL FREE ENERGY PREDICTED BY IDOCK:   -6.06 KCAL/MOL
REMARK 923 INTER-LIGAND FREE ENERGY PREDICTED BY IDOCK:   -5.77 KCAL/MOL
REMARK 924 INTRA-LIGAND FREE ENERGY PREDICTED BY IDOCK:   -0.29 KCAL/MOL
REMARK 927      BINDING AFFINITY PREDICTED BY RF-SCORE:    0.00 PKD
ROOT
HETATM    1  N   UNL     1     -13.470  15.209  72.732  1.00  0.00    -0.477 NA 
HETATM    2  H1  UNL     1     -13.778  14.501  73.398  1.00  0.00     0.000 HD 
HETATM    3  C   UNL     1     -12.757  14.846  71.587  1.00  0.00    -0.330 A  
HETATM    4  H2  UNL     1     -14.285  15.750  72.442  1.00  0.00     0.000 HD 
HETATM    5  C   UNL     1     -12.337  15.813  70.678  1.00  0.00    -0.412 A  
HETATM    6  C   UNL     1     -11.754  15.443  69.458  1.00  0.00    -0.346 A  
HETATM    7 CL   UNL     1     -11.226  16.717  68.407  1.00  0.00    -0.316 Cl 
HETATM    8  C   UNL     1     -11.612  14.091  69.081  1.00  0.00    -0.313 A  
HETATM    9  C   UNL     1     -12.104  13.132  69.985  1.00  0.00    -0.305 A  
HETATM   10  C   UNL     1     -12.679  13.508  71.209  1.00  0.00    -0.432 A  
HETATM   11 CL   UNL     1     -12.163  11.439  69.607  1.00  0.00    -0.341 Cl 
ENDROOT
BRANCH   8  12
HETATM   12  N   UNL     1     -10.985  13.778  67.860  1.00  0.00    -0.248 NA 
HETATM   13  H   UNL     1      -9.969  13.695  67.915  1.00  0.00     0.000 HD 
BRANCH  12  14
HETATM   14  C   UNL     1     -11.496  13.567  66.625  1.00  0.00    -0.339 A  
HETATM   15  N   UNL     1     -11.986  12.415  66.259  1.00  0.00    -0.607 NA 
HETATM   16  H   UNL     1     -12.063  11.564  66.816  1.00  0.00     0.000 HD 
HETATM   17  C   UNL     1     -12.407  12.618  64.846  1.00  0.00    -0.498 A  
HETATM   18  C   UNL     1     -12.143  14.085  64.507  1.00  0.00    -0.459 A  
HETATM   19  N   UNL     1     -11.609  14.600  65.747  1.00  0.00    -0.348 NA 
ENDBRANCH  12  14
ENDBRANCH   8  12
TORSDOF 2
ENDMDL
MODEL       25
REMARK 921   NORMALIZED FREE ENERGY PREDICTED BY IDOCK:   -5.23 KCAL/MOL
REMARK 922        TOTAL FREE ENERGY PREDICTED BY IDOCK:   -6.02 KCAL/MOL
REMARK 923 INTER-LIGAND FREE ENERGY PREDICTED BY IDOCK:   -5.72 KCAL/MOL
REMARK 924 INTRA-LIGAND FREE ENERGY PREDICTED BY IDOCK:   -0.30 KCAL/MOL
REMARK 927      BINDING AFFINITY PREDICTED BY RF-SCORE:    0.00 PKD
ROOT
HETATM    1  N   UNL     1     -13.404  16.193  73.700  1.00  0.00    -0.889 NA 
HETATM    2  H1  UNL     1     -13.306  17.204  73.608  1.00  0.00     0.000 HD 
HETATM    3  C   UNL     1     -13.184  15.355  72.604  1.00  0.00    -0.468 A  
HETATM    4  H2  UNL     1     -12.803  15.883  74.464  1.00  0.00     0.000 HD 
HETATM    5  C   UNL     1     -13.317  13.975  72.731  1.00  0.00    -0.603 A  
HETATM    6  C   UNL     1     -12.954  13.123  71.679  1.00  0.00    -0.335 A  
HETATM    7 CL   UNL     1     -13.191  11.421  71.912  1.00  0.00    -0.563 Cl 
HETATM    8  C   UNL     1     -12.401  13.616  70.478  1.00  0.00    -0.355 A  
HETATM    9  C   UNL     1     -12.213  15.007  70.397  1.00  0.00    -0.341 A  
HETATM   10  C   UNL     1     -12.586  15.857  71.451  1.00  0.00    -0.437 A  
HETATM   11 CL   UNL     1     -11.394  15.762  69.067  1.00  0.00    -0.329 Cl 
ENDROOT
BRANCH   8  12
HETATM   12  N   UNL     1     -12.090  12.715  69.441  1.00  0.00    -0.230 NA 
HETATM   13  H   UNL     1     -12.858  12.533  68.794  1.00  0.00     0.000 HD 
BRANCH  12  14
HETATM   14  C   UNL     1     -10.948  12.048  69.153  1.00  0.00    -0.178 A  
HETATM   15  N   UNL     1      -9.880  12.651  68.707  1.00  0.00    -0.421 NA 
HETATM   16  H   UNL     1      -9.754  13.648  68.533  1.00  0.00     0.000 HD 
HETATM   17  C   UNL     1      -8.890  11.560  68.506  1.00  0.00    -0.139 A  
HETATM   18  C   UNL     1      -9.548  10.264  68.981  1.00  0.00    -0.203 A  
HETATM   19  N   UNL     1     -10.846  10.719  69.424  1.00  0.00    -0.230 NA 
ENDBRANCH  12  14
ENDBRANCH   8  12
TORSDOF 2
ENDMDL
MODEL       26
REMARK 921   NORMALIZED FREE ENERGY PREDICTED BY IDOCK:   -5.22 KCAL/MOL
REMARK 922        TOTAL FREE ENERGY PREDICTED BY IDOCK:   -6.01 KCAL/MOL
REMARK 923 INTER-LIGAND FREE ENERGY PREDICTED BY IDOCK:   -5.69 KCAL/MOL
REMARK 924 INTRA-LIGAND FREE ENERGY PREDICTED BY IDOCK:   -0.32 KCAL/MOL
REMARK 927      BINDING AFFINITY PREDICTED BY RF-SCORE:    0.00 PKD
ROOT
HETATM    1  N   UNL     1     -12.637  14.026  63.410  1.00  0.00    -1.030 NA 
HETATM    2  H1  UNL     1     -13.245  14.720  63.845  1.00  0.00     0.000 HD 
HETATM    3  C   UNL     1     -11.850  13.180  64.196  1.00  0.00    -0.429 A  
HETATM    4  H2  UNL     1     -13.204  13.449  62.789  1.00  0.00     0.000 HD 
HETATM    5  C   UNL     1     -11.020  12.233  63.601  1.00  0.00    -0.532 A  
HETATM    6  C   UNL     1     -10.345  11.285  64.382  1.00  0.00    -0.329 A  
HETATM    7 CL   UNL     1      -9.303  10.169  63.559  1.00  0.00    -0.319 Cl 
HETATM    8  C   UNL     1     -10.509  11.219  65.782  1.00  0.00    -0.254 A  
HETATM    9  C   UNL     1     -11.403  12.143  66.353  1.00  0.00    -0.356 A  
HETATM   10  C   UNL     1     -12.071  13.095  65.568  1.00  0.00    -0.490 A  
HETATM   11 CL   UNL     1     -11.850  12.093  68.029  1.00  0.00    -0.396 Cl 
ENDROOT
BRANCH   8  12
HETATM   12  N   UNL     1      -9.775  10.270  66.519  1.00  0.00    -0.185 NA 
HETATM   13  H   UNL     1      -8.795  10.514  66.666  1.00  0.00     0.000 HD 
BRANCH  12  14
HETATM   14  C   UNL     1     -10.144   9.089  67.066  1.00  0.00    -0.250 A  
HETATM   15  N   UNL     1     -10.367   8.024  66.345  1.00  0.00    -0.441 NA 
HETATM   16  H   UNL     1     -10.286   7.928  65.333  1.00  0.00     0.000 HD 
HETATM   17  C   UNL     1     -10.763   6.981  67.329  1.00  0.00    -0.342 A  
HETATM   18  C   UNL     1     -10.656   7.611  68.718  1.00  0.00    -0.145 A  
HETATM   19  N   UNL     1     -10.196   8.948  68.418  1.00  0.00    -0.194 NA 
ENDBRANCH  12  14
ENDBRANCH   8  12
TORSDOF 2
ENDMDL
MODEL       27
REMARK 921   NORMALIZED FREE ENERGY PREDICTED BY IDOCK:   -5.18 KCAL/MOL
REMARK 922        TOTAL FREE ENERGY PREDICTED BY IDOCK:   -5.97 KCAL/MOL
REMARK 923 INTER-LIGAND FREE ENERGY PREDICTED BY IDOCK:   -5.67 KCAL/MOL
REMARK 924 INTRA-LIGAND FREE ENERGY PREDICTED BY IDOCK:   -0.30 KCAL/MOL
REMARK 927      BINDING AFFINITY PREDICTED BY RF-SCORE:    0.00 PKD
ROOT
HETATM    1  N   UNL     1      -7.285  14.157  67.074  1.00  0.00    -0.340 NA 
HETATM    2  H1  UNL     1      -6.561  14.853  66.895  1.00  0.00     0.000 HD 
HETATM    3  C   UNL     1      -8.463  14.512  67.738  1.00  0.00    -0.174 A  
HETATM    4  H2  UNL     1      -7.538  13.723  66.187  1.00  0.00     0.000 HD 
HETATM    5  C   UNL     1      -9.451  13.562  67.982  1.00  0.00    -0.220 A  
HETATM    6  C   UNL     1     -10.692  13.943  68.511  1.00  0.00    -0.257 A  
HETATM    7 CL   UNL     1     -11.847  12.686  68.819  1.00  0.00    -0.347 Cl 
HETATM    8  C   UNL     1     -11.008  15.293  68.772  1.00  0.00    -0.260 A  
HETATM    9  C   UNL     1     -10.020  16.242  68.455  1.00  0.00    -0.234 A  
HETATM   10  C   UNL     1      -8.776  15.855  67.933  1.00  0.00    -0.168 A  
HETATM   11 CL   UNL     1     -10.303  17.951  68.554  1.00  0.00    -0.377 Cl 
ENDROOT
BRANCH   8  12
HETATM   12  N   UNL     1     -12.257  15.611  69.340  1.00  0.00    -0.551 NA 
HETATM   13  H   UNL     1     -12.989  15.822  68.661  1.00  0.00     0.000 HD 
BRANCH  12  14
HETATM   14  C   UNL     1     -12.655  15.685  70.631  1.00  0.00    -0.414 A  
HETATM   15  N   UNL     1     -13.859  15.353  71.011  1.00  0.00    -0.797 NA 
HETATM   16  H   UNL     1     -14.621  15.001  70.432  1.00  0.00     0.000 HD 
HETATM   17  C   UNL     1     -13.872  15.605  72.477  1.00  0.00    -0.555 A  
HETATM   18  C   UNL     1     -12.464  16.058  72.867  1.00  0.00    -0.497 A  
HETATM   19  N   UNL     1     -11.763  16.015  71.604  1.00  0.00    -0.481 NA 
ENDBRANCH  12  14
ENDBRANCH   8  12
TORSDOF 2
ENDMDL
MODEL       28
REMARK 921   NORMALIZED FREE ENERGY PREDICTED BY IDOCK:   -5.14 KCAL/MOL
REMARK 922        TOTAL FREE ENERGY PREDICTED BY IDOCK:   -5.93 KCAL/MOL
REMARK 923 INTER-LIGAND FREE ENERGY PREDICTED BY IDOCK:   -5.65 KCAL/MOL
REMARK 924 INTRA-LIGAND FREE ENERGY PREDICTED BY IDOCK:   -0.28 KCAL/MOL
REMARK 927      BINDING AFFINITY PREDICTED BY RF-SCORE:    0.00 PKD
ROOT
HETATM    1  N   UNL     1      -9.469  18.131  66.073  1.00  0.00    -0.519 NA 
HETATM    2  H1  UNL     1      -9.216  18.203  65.087  1.00  0.00     0.000 HD 
HETATM    3  C   UNL     1     -10.262  17.074  66.527  1.00  0.00    -0.320 A  
HETATM    4  H2  UNL     1      -8.611  18.146  66.624  1.00  0.00     0.000 HD 
HETATM    5  C   UNL     1     -10.607  16.976  67.872  1.00  0.00    -0.365 A  
HETATM    6  C   UNL     1     -11.273  15.842  68.358  1.00  0.00    -0.368 A  
HETATM    7 CL   UNL     1     -11.697  15.825  70.039  1.00  0.00    -0.349 Cl 
HETATM    8  C   UNL     1     -11.579  14.745  67.526  1.00  0.00    -0.361 A  
HETATM    9  C   UNL     1     -11.163  14.837  66.186  1.00  0.00    -0.337 A  
HETATM   10  C   UNL     1     -10.502  15.978  65.703  1.00  0.00    -0.416 A  
HETATM   11 CL   UNL     1     -11.307  13.515  65.072  1.00  0.00    -0.322 Cl 
ENDROOT
BRANCH   8  12
HETATM   12  N   UNL     1     -12.285  13.649  68.061  1.00  0.00    -0.386 NA 
HETATM   13  H   UNL     1     -13.293  13.788  68.129  1.00  0.00     0.000 HD 
BRANCH  12  14
HETATM   14  C   UNL     1     -11.856  12.444  68.500  1.00  0.00    -0.304 A  
HETATM   15  N   UNL     1     -11.571  12.217  69.753  1.00  0.00    -0.462 NA 
HETATM   16  H   UNL     1     -11.638  12.868  70.535  1.00  0.00     0.000 HD 
HETATM   17  C   UNL     1     -11.125  10.798  69.786  1.00  0.00    -0.281 A  
HETATM   18  C   UNL     1     -11.277  10.248  68.368  1.00  0.00    -0.224 A  
HETATM   19  N   UNL     1     -11.806  11.384  67.648  1.00  0.00    -0.636 NA 
ENDBRANCH  12  14
ENDBRANCH   8  12
TORSDOF 2
ENDMDL
MODEL       29
REMARK 921   NORMALIZED FREE ENERGY PREDICTED BY IDOCK:   -5.14 KCAL/MOL
REMARK 922        TOTAL FREE ENERGY PREDICTED BY IDOCK:   -5.93 KCAL/MOL
REMARK 923 INTER-LIGAND FREE ENERGY PREDICTED BY IDOCK:   -5.60 KCAL/MOL
REMARK 924 INTRA-LIGAND FREE ENERGY PREDICTED BY IDOCK:   -0.33 KCAL/MOL
REMARK 927      BINDING AFFINITY PREDICTED BY RF-SCORE:    0.00 PKD
ROOT
HETATM    1  N   UNL     1     -11.508   9.496  69.568  1.00  0.00    -0.442 NA 
HETATM    2  H1  UNL     1     -11.253   8.845  68.826  1.00  0.00     0.000 HD 
HETATM    3  C   UNL     1     -11.565  10.870  69.318  1.00  0.00    -0.318 A  
HETATM    4  H2  UNL     1     -12.407   9.205  69.953  1.00  0.00     0.000 HD 
HETATM    5  C   UNL     1     -11.914  11.759  70.331  1.00  0.00    -0.422 A  
HETATM    6  C   UNL     1     -12.117  13.118  70.050  1.00  0.00    -0.305 A  
HETATM    7 CL   UNL     1     -12.511  14.157  71.382  1.00  0.00    -0.426 Cl 
HETATM    8  C   UNL     1     -12.025  13.629  68.739  1.00  0.00    -0.359 A  
HETATM    9  C   UNL     1     -11.737  12.702  67.722  1.00  0.00    -0.356 A  
HETATM   10  C   UNL     1     -11.526  11.344  68.009  1.00  0.00    -0.377 A  
HETATM   11 CL   UNL     1     -11.753  13.128  66.040  1.00  0.00    -0.398 Cl 
ENDROOT
BRANCH   8  12
HETATM   12  N   UNL     1     -12.202  15.010  68.523  1.00  0.00    -0.602 NA 
HETATM   13  H   UNL     1     -13.176  15.305  68.453  1.00  0.00     0.000 HD 
BRANCH  12  14
HETATM   14  C   UNL     1     -11.303  16.013  68.393  1.00  0.00    -0.355 A  
HETATM   15  N   UNL     1     -10.876  16.706  69.413  1.00  0.00    -0.318 NA 
HETATM   16  H   UNL     1     -11.131  16.593  70.394  1.00  0.00     0.000 HD 
HETATM   17  C   UNL     1      -9.937  17.699  68.825  1.00  0.00    -0.358 A  
HETATM   18  C   UNL     1      -9.850  17.402  67.328  1.00  0.00    -0.278 A  
HETATM   19  N   UNL     1     -10.729  16.264  67.185  1.00  0.00    -0.288 NA 
ENDBRANCH  12  14
ENDBRANCH   8  12
TORSDOF 2
ENDMDL
MODEL       30
REMARK 921   NORMALIZED FREE ENERGY PREDICTED BY IDOCK:   -5.13 KCAL/MOL
REMARK 922        TOTAL FREE ENERGY PREDICTED BY IDOCK:   -5.92 KCAL/MOL
REMARK 923 INTER-LIGAND FREE ENERGY PREDICTED BY IDOCK:   -5.63 KCAL/MOL
REMARK 924 INTRA-LIGAND FREE ENERGY PREDICTED BY IDOCK:   -0.29 KCAL/MOL
REMARK 927      BINDING AFFINITY PREDICTED BY RF-SCORE:    0.00 PKD
ROOT
HETATM    1  N   UNL     1     -12.107  14.201  65.653  1.00  0.00    -0.397 NA 
HETATM    2  H1  UNL     1     -12.081  13.801  64.716  1.00  0.00     0.000 HD 
HETATM    3  C   UNL     1     -12.000  13.379  66.779  1.00  0.00    -0.394 A  
HETATM    4  H2  UNL     1     -11.386  14.920  65.714  1.00  0.00     0.000 HD 
HETATM    5  C   UNL     1     -12.035  13.926  68.059  1.00  0.00    -0.390 A  
HETATM    6  C   UNL     1     -11.779  13.129  69.183  1.00  0.00    -0.325 A  
HETATM    7 CL   UNL     1     -11.883  13.887  70.740  1.00  0.00    -0.319 Cl 
HETATM    8  C   UNL     1     -11.433  11.766  69.067  1.00  0.00    -0.297 A  
HETATM    9  C   UNL     1     -11.338  11.251  67.761  1.00  0.00    -0.285 A  
HETATM   10  C   UNL     1     -11.603  12.052  66.639  1.00  0.00    -0.389 A  
HETATM   11 CL   UNL     1     -10.762   9.649  67.431  1.00  0.00    -0.336 Cl 
ENDROOT
BRANCH   8  12
HETATM   12  N   UNL     1     -11.224  11.005  70.234  1.00  0.00    -0.472 NA 
HETATM   13  H   UNL     1     -10.310  11.137  70.666  1.00  0.00     0.000 HD 
BRANCH  12  14
HETATM   14  C   UNL     1     -12.028  10.129  70.880  1.00  0.00    -0.365 A  
HETATM   15  N   UNL     1     -13.271   9.934  70.534  1.00  0.00    -0.600 NA 
HETATM   16  H   UNL     1     -13.781  10.373  69.768  1.00  0.00     0.000 HD 
HETATM   17  C   UNL     1     -13.777   8.929  71.506  1.00  0.00    -0.345 A  
HETATM   18  C   UNL     1     -12.601   8.539  72.402  1.00  0.00    -0.348 A  
HETATM   19  N   UNL     1     -11.523   9.336  71.864  1.00  0.00    -0.367 NA 
ENDBRANCH  12  14
ENDBRANCH   8  12
TORSDOF 2
ENDMDL
MODEL       31
REMARK 921   NORMALIZED FREE ENERGY PREDICTED BY IDOCK:   -5.12 KCAL/MOL
REMARK 922        TOTAL FREE ENERGY PREDICTED BY IDOCK:   -5.90 KCAL/MOL
REMARK 923 INTER-LIGAND FREE ENERGY PREDICTED BY IDOCK:   -5.78 KCAL/MOL
REMARK 924 INTRA-LIGAND FREE ENERGY PREDICTED BY IDOCK:   -0.13 KCAL/MOL
REMARK 927      BINDING AFFINITY PREDICTED BY RF-SCORE:    0.00 PKD
ROOT
HETATM    1  N   UNL     1     -12.535  14.065  63.289  1.00  0.00    -1.112 NA 
HETATM    2  H1  UNL     1     -12.407  14.038  62.277  1.00  0.00     0.000 HD 
HETATM    3  C   UNL     1     -11.986  13.069  64.101  1.00  0.00    -0.427 A  
HETATM    4  H2  UNL     1     -12.208  14.969  63.628  1.00  0.00     0.000 HD 
HETATM    5  C   UNL     1     -12.161  13.106  65.481  1.00  0.00    -0.490 A  
HETATM    6  C   UNL     1     -11.490  12.197  66.311  1.00  0.00    -0.374 A  
HETATM    7 CL   UNL     1     -11.799  12.293  68.015  1.00  0.00    -0.407 Cl 
HETATM    8  C   UNL     1     -10.584  11.247  65.795  1.00  0.00    -0.248 A  
HETATM    9  C   UNL     1     -10.372  11.271  64.405  1.00  0.00    -0.329 A  
HETATM   10  C   UNL     1     -11.052  12.178  63.578  1.00  0.00    -0.525 A  
HETATM   11 CL   UNL     1      -9.170  10.290  63.629  1.00  0.00    -0.285 Cl 
ENDROOT
BRANCH   8  12
HETATM   12  N   UNL     1      -9.968  10.334  66.674  1.00  0.00    -0.207 NA 
HETATM   13  H   UNL     1      -9.366  10.763  67.376  1.00  0.00     0.000 HD 
BRANCH  12  14
HETATM   14  C   UNL     1     -10.036   8.984  66.746  1.00  0.00    -0.274 A  
HETATM   15  N   UNL     1     -11.005   8.366  67.366  1.00  0.00    -0.447 NA 
HETATM   16  H   UNL     1     -11.805   8.781  67.843  1.00  0.00     0.000 HD 
HETATM   17  C   UNL     1     -10.680   6.922  67.222  1.00  0.00    -0.351 A  
HETATM   18  C   UNL     1      -9.419   6.829  66.361  1.00  0.00    -0.119 A  
HETATM   19  N   UNL     1      -9.136   8.216  66.074  1.00  0.00    -0.184 NA 
ENDBRANCH  12  14
ENDBRANCH   8  12
TORSDOF 2
ENDMDL
MODEL       32
REMARK 921   NORMALIZED FREE ENERGY PREDICTED BY IDOCK:   -5.12 KCAL/MOL
REMARK 922        TOTAL FREE ENERGY PREDICTED BY IDOCK:   -5.90 KCAL/MOL
REMARK 923 INTER-LIGAND FREE ENERGY PREDICTED BY IDOCK:   -5.59 KCAL/MOL
REMARK 924 INTRA-LIGAND FREE ENERGY PREDICTED BY IDOCK:   -0.31 KCAL/MOL
REMARK 927      BINDING AFFINITY PREDICTED BY RF-SCORE:    0.00 PKD
ROOT
HETATM    1  N   UNL     1     -11.992  10.942  67.996  1.00  0.00    -0.777 NA 
HETATM    2  H1  UNL     1     -12.758  10.486  67.501  1.00  0.00     0.000 HD 
HETATM    3  C   UNL     1     -11.356  12.058  67.445  1.00  0.00    -0.327 A  
HETATM    4  H2  UNL     1     -12.317  11.188  68.930  1.00  0.00     0.000 HD 
HETATM    5  C   UNL     1     -10.309  12.680  68.121  1.00  0.00    -0.238 A  
HETATM    6  C   UNL     1      -9.769  13.884  67.648  1.00  0.00    -0.226 A  
HETATM    7 CL   UNL     1      -8.442  14.566  68.532  1.00  0.00    -0.162 Cl 
HETATM    8  C   UNL     1     -10.286  14.535  66.507  1.00  0.00    -0.279 A  
HETATM    9  C   UNL     1     -11.386  13.923  65.880  1.00  0.00    -0.313 A  
HETATM   10  C   UNL     1     -11.918  12.714  66.353  1.00  0.00    -0.425 A  
HETATM   11 CL   UNL     1     -12.247  14.671  64.572  1.00  0.00    -0.497 Cl 
ENDROOT
BRANCH   8  12
HETATM   12  N   UNL     1      -9.678  15.723  66.057  1.00  0.00    -0.318 NA 
HETATM   13  H   UNL     1      -8.864  15.580  65.458  1.00  0.00     0.000 HD 
BRANCH  12  14
HETATM   14  C   UNL     1      -9.987  17.021  66.280  1.00  0.00    -0.310 A  
HETATM   15  N   UNL     1     -10.486  17.790  65.352  1.00  0.00    -0.602 NA 
HETATM   16  H   UNL     1     -10.715  17.539  64.390  1.00  0.00     0.000 HD 
HETATM   17  C   UNL     1     -10.648  19.115  66.009  1.00  0.00    -0.442 A  
HETATM   18  C   UNL     1     -10.229  18.944  67.470  1.00  0.00    -0.391 A  
HETATM   19  N   UNL     1      -9.879  17.544  67.532  1.00  0.00    -0.285 NA 
ENDBRANCH  12  14
ENDBRANCH   8  12
TORSDOF 2
ENDMDL
MODEL       33
REMARK 921   NORMALIZED FREE ENERGY PREDICTED BY IDOCK:   -5.12 KCAL/MOL
REMARK 922        TOTAL FREE ENERGY PREDICTED BY IDOCK:   -5.90 KCAL/MOL
REMARK 923 INTER-LIGAND FREE ENERGY PREDICTED BY IDOCK:   -5.60 KCAL/MOL
REMARK 924 INTRA-LIGAND FREE ENERGY PREDICTED BY IDOCK:   -0.30 KCAL/MOL
REMARK 927      BINDING AFFINITY PREDICTED BY RF-SCORE:    0.00 PKD
ROOT
HETATM    1  N   UNL     1     -10.288  16.389  65.289  1.00  0.00    -0.618 NA 
HETATM    2  H1  UNL     1      -9.953  16.415  64.326  1.00  0.00     0.000 HD 
HETATM    3  C   UNL     1     -10.819  15.213  65.825  1.00  0.00    -0.353 A  
HETATM    4  H2  UNL     1      -9.534  16.706  65.897  1.00  0.00     0.000 HD 
HETATM    5  C   UNL     1     -11.276  15.179  67.140  1.00  0.00    -0.320 A  
HETATM    6  C   UNL     1     -11.668  13.968  67.728  1.00  0.00    -0.368 A  
HETATM    7 CL   UNL     1     -12.261  14.028  69.357  1.00  0.00    -0.373 Cl 
HETATM    8  C   UNL     1     -11.575  12.741  67.040  1.00  0.00    -0.360 A  
HETATM    9  C   UNL     1     -11.048  12.790  65.737  1.00  0.00    -0.285 A  
HETATM   10  C   UNL     1     -10.664  14.005  65.149  1.00  0.00    -0.393 A  
HETATM   11 CL   UNL     1     -10.708  11.360  64.814  1.00  0.00    -0.366 Cl 
ENDROOT
BRANCH   8  12
HETATM   12  N   UNL     1     -12.020  11.562  67.669  1.00  0.00    -0.634 NA 
HETATM   13  H   UNL     1     -13.019  11.379  67.567  1.00  0.00     0.000 HD 
BRANCH  12  14
HETATM   14  C   UNL     1     -11.352  10.629  68.385  1.00  0.00    -0.283 A  
HETATM   15  N   UNL     1     -10.912   9.521  67.853  1.00  0.00    -0.503 NA 
HETATM   16  H   UNL     1     -10.990   9.223  66.881  1.00  0.00     0.000 HD 
HETATM   17  C   UNL     1     -10.272   8.792  68.980  1.00  0.00    -0.207 A  
HETATM   18  C   UNL     1     -10.359   9.698  70.208  1.00  0.00    -0.280 A  
HETATM   19  N   UNL     1     -11.024  10.869  69.684  1.00  0.00    -0.260 NA 
ENDBRANCH  12  14
ENDBRANCH   8  12
TORSDOF 2
ENDMDL
MODEL       34
REMARK 921   NORMALIZED FREE ENERGY PREDICTED BY IDOCK:   -5.11 KCAL/MOL
REMARK 922        TOTAL FREE ENERGY PREDICTED BY IDOCK:   -5.89 KCAL/MOL
REMARK 923 INTER-LIGAND FREE ENERGY PREDICTED BY IDOCK:   -5.57 KCAL/MOL
REMARK 924 INTRA-LIGAND FREE ENERGY PREDICTED BY IDOCK:   -0.33 KCAL/MOL
REMARK 927      BINDING AFFINITY PREDICTED BY RF-SCORE:    0.00 PKD
ROOT
HETATM    1  N   UNL     1     -13.428  15.908  73.587  1.00  0.00    -0.800 NA 
HETATM    2  H1  UNL     1     -13.709  15.477  74.467  1.00  0.00     0.000 HD 
HETATM    3  C   UNL     1     -12.960  15.124  72.529  1.00  0.00    -0.379 A  
HETATM    4  H2  UNL     1     -14.204  16.474  73.246  1.00  0.00     0.000 HD 
HETATM    5  C   UNL     1     -12.576  15.713  71.328  1.00  0.00    -0.523 A  
HETATM    6  C   UNL     1     -12.250  14.923  70.217  1.00  0.00    -0.335 A  
HETATM    7 CL   UNL     1     -11.745  15.744  68.775  1.00  0.00    -0.401 Cl 
HETATM    8  C   UNL     1     -12.341  13.515  70.251  1.00  0.00    -0.300 A  
HETATM    9  C   UNL     1     -12.795  12.945  71.454  1.00  0.00    -0.283 A  
HETATM   10  C   UNL     1     -13.113  13.740  72.566  1.00  0.00    -0.517 A  
HETATM   11 CL   UNL     1     -13.126  11.249  71.614  1.00  0.00    -0.557 Cl 
ENDROOT
BRANCH   8  12
HETATM   12  N   UNL     1     -11.964  12.772  69.116  1.00  0.00    -0.277 NA 
HETATM   13  H   UNL     1     -12.714  12.621  68.441  1.00  0.00     0.000 HD 
BRANCH  12  14
HETATM   14  C   UNL     1     -10.778  12.223  68.765  1.00  0.00    -0.214 A  
HETATM   15  N   UNL     1     -10.249  11.226  69.421  1.00  0.00    -0.435 NA 
HETATM   16  H   UNL     1     -10.632  10.738  70.230  1.00  0.00     0.000 HD 
HETATM   17  C   UNL     1      -8.962  10.960  68.724  1.00  0.00    -0.164 A  
HETATM   18  C   UNL     1      -8.891  11.917  67.533  1.00  0.00    -0.169 A  
HETATM   19  N   UNL     1     -10.140  12.636  67.637  1.00  0.00    -0.215 NA 
ENDBRANCH  12  14
ENDBRANCH   8  12
TORSDOF 2
ENDMDL
MODEL       35
REMARK 921   NORMALIZED FREE ENERGY PREDICTED BY IDOCK:   -5.10 KCAL/MOL
REMARK 922        TOTAL FREE ENERGY PREDICTED BY IDOCK:   -5.88 KCAL/MOL
REMARK 923 INTER-LIGAND FREE ENERGY PREDICTED BY IDOCK:   -5.61 KCAL/MOL
REMARK 924 INTRA-LIGAND FREE ENERGY PREDICTED BY IDOCK:   -0.27 KCAL/MOL
REMARK 927      BINDING AFFINITY PREDICTED BY RF-SCORE:    0.00 PKD
ROOT
HETATM    1  N   UNL     1      -9.969   7.348  74.063  1.00  0.00    -0.417 NA 
HETATM    2  H1  UNL     1     -10.636   6.938  74.716  1.00  0.00     0.000 HD 
HETATM    3  C   UNL     1     -10.406   7.923  72.867  1.00  0.00    -0.347 A  
HETATM    4  H2  UNL     1      -9.415   8.042  74.566  1.00  0.00     0.000 HD 
HETATM    5  C   UNL     1      -9.494   8.483  71.976  1.00  0.00    -0.364 A  
HETATM    6  C   UNL     1      -9.938   9.191  70.851  1.00  0.00    -0.288 A  
HETATM    7 CL   UNL     1      -8.730   9.820  69.776  1.00  0.00    -0.210 Cl 
HETATM    8  C   UNL     1     -11.310   9.405  70.598  1.00  0.00    -0.292 A  
HETATM    9  C   UNL     1     -12.211   8.888  71.546  1.00  0.00    -0.327 A  
HETATM   10  C   UNL     1     -11.762   8.173  72.668  1.00  0.00    -0.419 A  
HETATM   11 CL   UNL     1     -13.915   9.204  71.480  1.00  0.00    -0.367 Cl 
ENDROOT
BRANCH   8  12
HETATM   12  N   UNL     1     -11.697  10.091  69.431  1.00  0.00    -0.471 NA 
HETATM   13  H   UNL     1     -11.981   9.487  68.660  1.00  0.00     0.000 HD 
BRANCH  12  14
HETATM   14  C   UNL     1     -11.758  11.414  69.155  1.00  0.00    -0.342 A  
HETATM   15  N   UNL     1     -11.672  12.327  70.085  1.00  0.00    -0.529 NA 
HETATM   16  H   UNL     1     -11.542  12.186  71.086  1.00  0.00     0.000 HD 
HETATM   17  C   UNL     1     -11.807  13.617  69.357  1.00  0.00    -0.339 A  
HETATM   18  C   UNL     1     -11.907  13.284  67.868  1.00  0.00    -0.349 A  
HETATM   19  N   UNL     1     -11.807  11.843  67.864  1.00  0.00    -0.552 NA 
ENDBRANCH  12  14
ENDBRANCH   8  12
TORSDOF 2
ENDMDL
MODEL       36
REMARK 921   NORMALIZED FREE ENERGY PREDICTED BY IDOCK:   -5.09 KCAL/MOL
REMARK 922        TOTAL FREE ENERGY PREDICTED BY IDOCK:   -5.87 KCAL/MOL
REMARK 923 INTER-LIGAND FREE ENERGY PREDICTED BY IDOCK:   -5.54 KCAL/MOL
REMARK 924 INTRA-LIGAND FREE ENERGY PREDICTED BY IDOCK:   -0.33 KCAL/MOL
REMARK 927      BINDING AFFINITY PREDICTED BY RF-SCORE:    0.00 PKD
ROOT
HETATM    1  N   UNL     1      -9.400  18.157  66.025  1.00  0.00    -0.519 NA 
HETATM    2  H1  UNL     1      -9.045  18.866  66.665  1.00  0.00     0.000 HD 
HETATM    3  C   UNL     1      -9.996  16.992  66.516  1.00  0.00    -0.310 A  
HETATM    4  H2  UNL     1     -10.055  18.604  65.384  1.00  0.00     0.000 HD 
HETATM    5  C   UNL     1     -10.481  16.023  65.641  1.00  0.00    -0.416 A  
HETATM    6  C   UNL     1     -11.211  14.927  66.122  1.00  0.00    -0.325 A  
HETATM    7 CL   UNL     1     -11.742  13.751  64.963  1.00  0.00    -0.338 Cl 
HETATM    8  C   UNL     1     -11.523  14.783  67.491  1.00  0.00    -0.354 A  
HETATM    9  C   UNL     1     -11.080  15.808  68.347  1.00  0.00    -0.341 A  
HETATM   10  C   UNL     1     -10.343  16.899  67.861  1.00  0.00    -0.332 A  
HETATM   11 CL   UNL     1     -11.519  15.875  70.024  1.00  0.00    -0.337 Cl 
ENDROOT
BRANCH   8  12
HETATM   12  N   UNL     1     -12.226  13.641  67.921  1.00  0.00    -0.382 NA 
HETATM   13  H   UNL     1     -13.242  13.729  67.877  1.00  0.00     0.000 HD 
BRANCH  12  14
HETATM   14  C   UNL     1     -11.788  12.448  68.382  1.00  0.00    -0.309 A  
HETATM   15  N   UNL     1     -11.447  12.262  69.629  1.00  0.00    -0.453 NA 
HETATM   16  H   UNL     1     -11.473  12.941  70.390  1.00  0.00     0.000 HD 
HETATM   17  C   UNL     1     -11.013  10.841  69.691  1.00  0.00    -0.264 A  
HETATM   18  C   UNL     1     -11.235  10.243  68.302  1.00  0.00    -0.232 A  
HETATM   19  N   UNL     1     -11.787  11.358  67.568  1.00  0.00    -0.627 NA 
ENDBRANCH  12  14
ENDBRANCH   8  12
TORSDOF 2
ENDMDL
MODEL       37
REMARK 921   NORMALIZED FREE ENERGY PREDICTED BY IDOCK:   -5.07 KCAL/MOL
REMARK 922        TOTAL FREE ENERGY PREDICTED BY IDOCK:   -5.85 KCAL/MOL
REMARK 923 INTER-LIGAND FREE ENERGY PREDICTED BY IDOCK:   -5.55 KCAL/MOL
REMARK 924 INTRA-LIGAND FREE ENERGY PREDICTED BY IDOCK:   -0.30 KCAL/MOL
REMARK 927      BINDING AFFINITY PREDICTED BY RF-SCORE:    0.00 PKD
ROOT
HETATM    1  N   UNL     1     -13.416  10.194  72.563  1.00  0.00    -0.556 NA 
HETATM    2  H1  UNL     1     -13.976  10.719  73.235  1.00  0.00     0.000 HD 
HETATM    3  C   UNL     1     -12.898  10.821  71.427  1.00  0.00    -0.452 A  
HETATM    4  H2  UNL     1     -12.645   9.754  73.064  1.00  0.00     0.000 HD 
HETATM    5  C   UNL     1     -12.135  10.104  70.509  1.00  0.00    -0.380 A  
HETATM    6  C   UNL     1     -11.490  10.759  69.450  1.00  0.00    -0.295 A  
HETATM    7 CL   UNL     1     -10.593   9.779  68.335  1.00  0.00    -0.249 Cl 
HETATM    8  C   UNL     1     -11.546  12.160  69.296  1.00  0.00    -0.318 A  
HETATM    9  C   UNL     1     -12.267  12.871  70.272  1.00  0.00    -0.289 A  
HETATM   10  C   UNL     1     -12.918  12.210  71.326  1.00  0.00    -0.303 A  
HETATM   11 CL   UNL     1     -12.297  14.605  70.330  1.00  0.00    -0.387 Cl 
ENDROOT
BRANCH   8  12
HETATM   12  N   UNL     1     -10.910  12.758  68.191  1.00  0.00    -0.219 NA 
HETATM   13  H   UNL     1      -9.916  12.947  68.326  1.00  0.00     0.000 HD 
BRANCH  12  14
HETATM   14  C   UNL     1     -11.388  13.125  66.980  1.00  0.00    -0.312 A  
HETATM   15  N   UNL     1     -11.080  14.264  66.422  1.00  0.00    -0.319 NA 
HETATM   16  H   UNL     1     -10.463  14.990  66.787  1.00  0.00     0.000 HD 
HETATM   17  C   UNL     1     -11.829  14.268  65.137  1.00  0.00    -0.384 A  
HETATM   18  C   UNL     1     -12.544  12.920  65.031  1.00  0.00    -0.472 A  
HETATM   19  N   UNL     1     -12.138  12.256  66.249  1.00  0.00    -0.620 NA 
ENDBRANCH  12  14
ENDBRANCH   8  12
TORSDOF 2
ENDMDL
MODEL       38
REMARK 921   NORMALIZED FREE ENERGY PREDICTED BY IDOCK:   -5.06 KCAL/MOL
REMARK 922        TOTAL FREE ENERGY PREDICTED BY IDOCK:   -5.84 KCAL/MOL
REMARK 923 INTER-LIGAND FREE ENERGY PREDICTED BY IDOCK:   -5.51 KCAL/MOL
REMARK 924 INTRA-LIGAND FREE ENERGY PREDICTED BY IDOCK:   -0.33 KCAL/MOL
REMARK 927      BINDING AFFINITY PREDICTED BY RF-SCORE:    0.00 PKD
ROOT
HETATM    1  N   UNL     1      -8.931   8.758  64.865  1.00  0.00    -0.412 NA 
HETATM    2  H1  UNL     1      -8.641   7.991  65.472  1.00  0.00     0.000 HD 
HETATM    3  C   UNL     1      -9.836   9.720  65.321  1.00  0.00    -0.265 A  
HETATM    4  H2  UNL     1      -8.094   9.238  64.536  1.00  0.00     0.000 HD 
HETATM    5  C   UNL     1     -10.232  10.767  64.493  1.00  0.00    -0.428 A  
HETATM    6  C   UNL     1     -11.020  11.814  64.992  1.00  0.00    -0.300 A  
HETATM    7 CL   UNL     1     -11.497  13.054  63.878  1.00  0.00    -0.469 Cl 
HETATM    8  C   UNL     1     -11.402  11.877  66.348  1.00  0.00    -0.339 A  
HETATM    9  C   UNL     1     -10.936  10.844  67.181  1.00  0.00    -0.272 A  
HETATM   10  C   UNL     1     -10.153   9.794  66.675  1.00  0.00    -0.303 A  
HETATM   11 CL   UNL     1     -11.170  10.855  68.900  1.00  0.00    -0.294 Cl 
ENDROOT
BRANCH   8  12
HETATM   12  N   UNL     1     -12.226  12.933  66.784  1.00  0.00    -0.432 NA 
HETATM   13  H   UNL     1     -13.214  12.820  66.556  1.00  0.00     0.000 HD 
BRANCH  12  14
HETATM   14  C   UNL     1     -11.934  14.071  67.454  1.00  0.00    -0.404 A  
HETATM   15  N   UNL     1     -12.398  14.318  68.648  1.00  0.00    -0.571 NA 
HETATM   16  H   UNL     1     -12.998  13.724  69.220  1.00  0.00     0.000 HD 
HETATM   17  C   UNL     1     -11.857  15.661  68.990  1.00  0.00    -0.364 A  
HETATM   18  C   UNL     1     -10.959  16.092  67.830  1.00  0.00    -0.327 A  
HETATM   19  N   UNL     1     -11.047  14.962  66.933  1.00  0.00    -0.332 NA 
ENDBRANCH  12  14
ENDBRANCH   8  12
TORSDOF 2
ENDMDL
MODEL       39
REMARK 921   NORMALIZED FREE ENERGY PREDICTED BY IDOCK:   -5.05 KCAL/MOL
REMARK 922        TOTAL FREE ENERGY PREDICTED BY IDOCK:   -5.83 KCAL/MOL
REMARK 923 INTER-LIGAND FREE ENERGY PREDICTED BY IDOCK:   -5.57 KCAL/MOL
REMARK 924 INTRA-LIGAND FREE ENERGY PREDICTED BY IDOCK:   -0.27 KCAL/MOL
REMARK 927      BINDING AFFINITY PREDICTED BY RF-SCORE:    0.00 PKD
ROOT
HETATM    1  N   UNL     1      -9.989   7.089  74.096  1.00  0.00    -0.411 NA 
HETATM    2  H1  UNL     1      -8.992   7.042  74.307  1.00  0.00     0.000 HD 
HETATM    3  C   UNL     1     -10.457   7.903  73.061  1.00  0.00    -0.343 A  
HETATM    4  H2  UNL     1     -10.326   6.141  73.934  1.00  0.00     0.000 HD 
HETATM    5  C   UNL     1     -11.818   7.968  72.773  1.00  0.00    -0.303 A  
HETATM    6  C   UNL     1     -12.277   8.663  71.645  1.00  0.00    -0.333 A  
HETATM    7 CL   UNL     1     -13.991   8.722  71.388  1.00  0.00    -0.379 Cl 
HETATM    8  C   UNL     1     -11.390   9.280  70.738  1.00  0.00    -0.287 A  
HETATM    9  C   UNL     1     -10.017   9.145  71.013  1.00  0.00    -0.297 A  
HETATM   10  C   UNL     1      -9.563   8.455  72.147  1.00  0.00    -0.367 A  
HETATM   11 CL   UNL     1      -8.790   9.694  69.916  1.00  0.00    -0.219 Cl 
ENDROOT
BRANCH   8  12
HETATM   12  N   UNL     1     -11.911   9.997  69.643  1.00  0.00    -0.475 NA 
HETATM   13  H   UNL     1     -12.410   9.424  68.962  1.00  0.00     0.000 HD 
BRANCH  12  14
HETATM   14  C   UNL     1     -11.865  11.314  69.340  1.00  0.00    -0.355 A  
HETATM   15  N   UNL     1     -11.744  12.238  70.253  1.00  0.00    -0.542 NA 
HETATM   16  H   UNL     1     -11.658  12.111  71.261  1.00  0.00     0.000 HD 
HETATM   17  C   UNL     1     -11.760  13.519  69.496  1.00  0.00    -0.322 A  
HETATM   18  C   UNL     1     -11.834  13.160  68.011  1.00  0.00    -0.358 A  
HETATM   19  N   UNL     1     -11.840  11.716  68.040  1.00  0.00    -0.573 NA 
ENDBRANCH  12  14
ENDBRANCH   8  12
TORSDOF 2
ENDMDL
MODEL       40
REMARK 921   NORMALIZED FREE ENERGY PREDICTED BY IDOCK:   -5.04 KCAL/MOL
REMARK 922        TOTAL FREE ENERGY PREDICTED BY IDOCK:   -5.82 KCAL/MOL
REMARK 923 INTER-LIGAND FREE ENERGY PREDICTED BY IDOCK:   -5.69 KCAL/MOL
REMARK 924 INTRA-LIGAND FREE ENERGY PREDICTED BY IDOCK:   -0.13 KCAL/MOL
REMARK 927      BINDING AFFINITY PREDICTED BY RF-SCORE:    0.00 PKD
ROOT
HETATM    1  N   UNL     1     -13.341  10.141  72.371  1.00  0.00    -0.587 NA 
HETATM    2  H1  UNL     1     -12.951   9.273  72.005  1.00  0.00     0.000 HD 
HETATM    3  C   UNL     1     -12.991  11.371  71.806  1.00  0.00    -0.414 A  
HETATM    4  H2  UNL     1     -14.358  10.064  72.361  1.00  0.00     0.000 HD 
HETATM    5  C   UNL     1     -13.524  12.556  72.306  1.00  0.00    -0.490 A  
HETATM    6  C   UNL     1     -13.295  13.774  71.652  1.00  0.00    -0.354 A  
HETATM    7 CL   UNL     1     -13.965  15.204  72.369  1.00  0.00    -0.590 Cl 
HETATM    8  C   UNL     1     -12.563  13.846  70.448  1.00  0.00    -0.282 A  
HETATM    9  C   UNL     1     -12.091  12.629  69.926  1.00  0.00    -0.252 A  
HETATM   10  C   UNL     1     -12.317  11.413  70.589  1.00  0.00    -0.466 A  
HETATM   11 CL   UNL     1     -11.322  12.516  68.375  1.00  0.00    -0.306 Cl 
ENDROOT
BRANCH   8  12
HETATM   12  N   UNL     1     -12.332  15.104  69.856  1.00  0.00    -0.493 NA 
HETATM   13  H   UNL     1     -13.140  15.726  69.856  1.00  0.00     0.000 HD 
BRANCH  12  14
HETATM   14  C   UNL     1     -11.222  15.629  69.286  1.00  0.00    -0.320 A  
HETATM   15  N   UNL     1     -10.066  15.642  69.892  1.00  0.00    -0.289 NA 
HETATM   16  H   UNL     1      -9.841  15.272  70.815  1.00  0.00     0.000 HD 
HETATM   17  C   UNL     1      -9.150  16.319  68.934  1.00  0.00    -0.250 A  
HETATM   18  C   UNL     1      -9.960  16.614  67.671  1.00  0.00    -0.264 A  
HETATM   19  N   UNL     1     -11.258  16.073  68.001  1.00  0.00    -0.333 NA 
ENDBRANCH  12  14
ENDBRANCH   8  12
TORSDOF 2
ENDMDL
MODEL       41
REMARK 921   NORMALIZED FREE ENERGY PREDICTED BY IDOCK:   -5.04 KCAL/MOL
REMARK 922        TOTAL FREE ENERGY PREDICTED BY IDOCK:   -5.82 KCAL/MOL
REMARK 923 INTER-LIGAND FREE ENERGY PREDICTED BY IDOCK:   -5.52 KCAL/MOL
REMARK 924 INTRA-LIGAND FREE ENERGY PREDICTED BY IDOCK:   -0.30 KCAL/MOL
REMARK 927      BINDING AFFINITY PREDICTED BY RF-SCORE:    0.00 PKD
ROOT
HETATM    1  N   UNL     1     -11.731   9.552  70.187  1.00  0.00    -0.447 NA 
HETATM    2  H1  UNL     1     -11.888   9.293  71.161  1.00  0.00     0.000 HD 
HETATM    3  C   UNL     1     -11.964  10.860  69.753  1.00  0.00    -0.351 A  
HETATM    4  H2  UNL     1     -10.775   9.299  69.939  1.00  0.00     0.000 HD 
HETATM    5  C   UNL     1     -11.750  11.212  68.423  1.00  0.00    -0.349 A  
HETATM    6  C   UNL     1     -11.837  12.551  68.016  1.00  0.00    -0.325 A  
HETATM    7 CL   UNL     1     -11.594  12.890  66.332  1.00  0.00    -0.398 Cl 
HETATM    8  C   UNL     1     -12.096  13.592  68.932  1.00  0.00    -0.300 A  
HETATM    9  C   UNL     1     -12.242  13.221  70.280  1.00  0.00    -0.321 A  
HETATM   10  C   UNL     1     -12.161  11.878  70.681  1.00  0.00    -0.424 A  
HETATM   11 CL   UNL     1     -12.395  14.386  71.556  1.00  0.00    -0.416 Cl 
ENDROOT
BRANCH   8  12
HETATM   12  N   UNL     1     -12.210  14.914  68.458  1.00  0.00    -0.597 NA 
HETATM   13  H   UNL     1     -13.137  15.161  68.113  1.00  0.00     0.000 HD 
BRANCH  12  14
HETATM   14  C   UNL     1     -11.301  15.914  68.383  1.00  0.00    -0.361 A  
HETATM   15  N   UNL     1     -11.087  16.740  69.370  1.00  0.00    -0.321 NA 
HETATM   16  H   UNL     1     -11.534  16.745  70.287  1.00  0.00     0.000 HD 
HETATM   17  C   UNL     1     -10.047  17.673  68.860  1.00  0.00    -0.351 A  
HETATM   18  C   UNL     1      -9.661  17.192  67.461  1.00  0.00    -0.256 A  
HETATM   19  N   UNL     1     -10.495  16.024  67.292  1.00  0.00    -0.304 NA 
ENDBRANCH  12  14
ENDBRANCH   8  12
TORSDOF 2
ENDMDL
MODEL       42
REMARK 921   NORMALIZED FREE ENERGY PREDICTED BY IDOCK:   -4.94 KCAL/MOL
REMARK 922        TOTAL FREE ENERGY PREDICTED BY IDOCK:   -5.70 KCAL/MOL
REMARK 923 INTER-LIGAND FREE ENERGY PREDICTED BY IDOCK:   -5.38 KCAL/MOL
REMARK 924 INTRA-LIGAND FREE ENERGY PREDICTED BY IDOCK:   -0.32 KCAL/MOL
REMARK 927      BINDING AFFINITY PREDICTED BY RF-SCORE:    0.00 PKD
ROOT
HETATM    1  N   UNL     1     -12.081  10.963  68.101  1.00  0.00    -0.790 NA 
HETATM    2  H1  UNL     1     -12.249  10.348  67.305  1.00  0.00     0.000 HD 
HETATM    3  C   UNL     1     -11.642  12.275  67.906  1.00  0.00    -0.354 A  
HETATM    4  H2  UNL     1     -12.928  10.990  68.668  1.00  0.00     0.000 HD 
HETATM    5  C   UNL     1     -11.412  13.113  68.994  1.00  0.00    -0.345 A  
HETATM    6  C   UNL     1     -11.119  14.470  68.800  1.00  0.00    -0.251 A  
HETATM    7 CL   UNL     1     -10.808  15.429  70.212  1.00  0.00    -0.322 Cl 
HETATM    8  C   UNL     1     -11.089  15.050  67.514  1.00  0.00    -0.317 A  
HETATM    9  C   UNL     1     -11.390  14.200  66.435  1.00  0.00    -0.338 A  
HETATM   10  C   UNL     1     -11.676  12.840  66.634  1.00  0.00    -0.459 A  
HETATM   11 CL   UNL     1     -11.564  14.782  64.810  1.00  0.00    -0.409 Cl 
ENDROOT
BRANCH   8  12
HETATM   12  N   UNL     1     -10.751  16.411  67.379  1.00  0.00    -0.309 NA 
HETATM   13  H   UNL     1     -11.545  17.049  67.414  1.00  0.00     0.000 HD 
BRANCH  12  14
HETATM   14  C   UNL     1      -9.553  17.017  67.210  1.00  0.00    -0.244 A  
HETATM   15  N   UNL     1      -8.880  17.525  68.207  1.00  0.00    -0.266 NA 
HETATM   16  H   UNL     1      -9.134  17.527  69.194  1.00  0.00     0.000 HD 
HETATM   17  C   UNL     1      -7.659  18.099  67.580  1.00  0.00    -0.219 A  
HETATM   18  C   UNL     1      -7.721  17.767  66.089  1.00  0.00    -0.245 A  
HETATM   19  N   UNL     1      -8.956  17.023  65.988  1.00  0.00    -0.515 NA 
ENDBRANCH  12  14
ENDBRANCH   8  12
TORSDOF 2
ENDMDL
MODEL       43
REMARK 921   NORMALIZED FREE ENERGY PREDICTED BY IDOCK:   -4.89 KCAL/MOL
REMARK 922        TOTAL FREE ENERGY PREDICTED BY IDOCK:   -5.65 KCAL/MOL
REMARK 923 INTER-LIGAND FREE ENERGY PREDICTED BY IDOCK:   -5.79 KCAL/MOL
REMARK 924 INTRA-LIGAND FREE ENERGY PREDICTED BY IDOCK:    0.14 KCAL/MOL
REMARK 927      BINDING AFFINITY PREDICTED BY RF-SCORE:    0.00 PKD
ROOT
HETATM    1  N   UNL     1     -10.528  17.963  69.298  1.00  0.00    -0.368 NA 
HETATM    2  H1  UNL     1     -10.201  18.750  68.738  1.00  0.00     0.000 HD 
HETATM    3  C   UNL     1     -10.888  16.758  68.687  1.00  0.00    -0.336 A  
HETATM    4  H2  UNL     1      -9.825  17.763  70.009  1.00  0.00     0.000 HD 
HETATM    5  C   UNL     1     -11.334  15.684  69.452  1.00  0.00    -0.332 A  
HETATM    6  C   UNL     1     -11.552  14.430  68.864  1.00  0.00    -0.306 A  
HETATM    7 CL   UNL     1     -12.146  13.161  69.887  1.00  0.00    -0.375 Cl 
HETATM    8  C   UNL     1     -11.288  14.192  67.499  1.00  0.00    -0.322 A  
HETATM    9  C   UNL     1     -10.775  15.273  66.760  1.00  0.00    -0.313 A  
HETATM   10  C   UNL     1     -10.565  16.529  67.352  1.00  0.00    -0.300 A  
HETATM   11 CL   UNL     1     -10.238  15.109  65.119  1.00  0.00    -0.402 Cl 
ENDROOT
BRANCH   8  12
HETATM   12  N   UNL     1     -11.563  12.922  66.955  1.00  0.00    -0.348 NA 
HETATM   13  H   UNL     1     -11.632  12.173  67.644  1.00  0.00     0.000 HD 
BRANCH  12  14
HETATM   14  C   UNL     1     -11.753  12.524  65.675  1.00  0.00    -0.423 A  
HETATM   15  N   UNL     1     -12.828  12.828  65.001  1.00  0.00    -0.821 NA 
HETATM   16  H   UNL     1     -13.623  13.385  65.313  1.00  0.00     0.000 HD 
HETATM   17  C   UNL     1     -12.634  12.182  63.675  1.00  0.00    -0.504 A  
HETATM   18  C   UNL     1     -11.250  11.533  63.691  1.00  0.00    -0.362 A  
HETATM   19  N   UNL     1     -10.763  11.870  65.009  1.00  0.00    -0.282 NA 
ENDBRANCH  12  14
ENDBRANCH   8  12
TORSDOF 2
ENDMDL
MODEL       44
REMARK 921   NORMALIZED FREE ENERGY PREDICTED BY IDOCK:   -4.88 KCAL/MOL
REMARK 922        TOTAL FREE ENERGY PREDICTED BY IDOCK:   -5.64 KCAL/MOL
REMARK 923 INTER-LIGAND FREE ENERGY PREDICTED BY IDOCK:   -5.42 KCAL/MOL
REMARK 924 INTRA-LIGAND FREE ENERGY PREDICTED BY IDOCK:   -0.22 KCAL/MOL
REMARK 927      BINDING AFFINITY PREDICTED BY RF-SCORE:    0.00 PKD
ROOT
HETATM    1  N   UNL     1      -7.337  19.670  69.492  1.00  0.00    -0.232 NA 
HETATM    2  H1  UNL     1      -7.666  20.611  69.707  1.00  0.00     0.000 HD 
HETATM    3  C   UNL     1      -8.019  18.873  68.569  1.00  0.00    -0.346 A  
HETATM    4  H2  UNL     1      -6.362  19.732  69.200  1.00  0.00     0.000 HD 
HETATM    5  C   UNL     1      -7.569  17.588  68.275  1.00  0.00    -0.240 A  
HETATM    6  C   UNL     1      -8.158  16.843  67.244  1.00  0.00    -0.184 A  
HETATM    7 CL   UNL     1      -7.558  15.238  66.976  1.00  0.00    -0.219 Cl 
HETATM    8  C   UNL     1      -9.189  17.371  66.439  1.00  0.00    -0.249 A  
HETATM    9  C   UNL     1      -9.582  18.694  66.710  1.00  0.00    -0.318 A  
HETATM   10  C   UNL     1      -8.994  19.433  67.748  1.00  0.00    -0.365 A  
HETATM   11 CL   UNL     1     -10.712  19.553  65.712  1.00  0.00    -0.566 Cl 
ENDROOT
BRANCH   8  12
HETATM   12  N   UNL     1      -9.769  16.562  65.443  1.00  0.00    -0.447 NA 
HETATM   13  H   UNL     1      -9.384  16.700  64.508  1.00  0.00     0.000 HD 
BRANCH  12  14
HETATM   14  C   UNL     1     -10.749  15.632  65.512  1.00  0.00    -0.389 A  
HETATM   15  N   UNL     1     -11.321  15.138  64.447  1.00  0.00    -0.668 NA 
HETATM   16  H   UNL     1     -11.116  15.356  63.472  1.00  0.00     0.000 HD 
HETATM   17  C   UNL     1     -12.336  14.187  64.973  1.00  0.00    -0.440 A  
HETATM   18  C   UNL     1     -12.191  14.173  66.495  1.00  0.00    -0.433 A  
HETATM   19  N   UNL     1     -11.104  15.099  66.712  1.00  0.00    -0.323 NA 
ENDBRANCH  12  14
ENDBRANCH   8  12
TORSDOF 2
ENDMDL
MODEL       45
REMARK 921   NORMALIZED FREE ENERGY PREDICTED BY IDOCK:   -4.86 KCAL/MOL
REMARK 922        TOTAL FREE ENERGY PREDICTED BY IDOCK:   -5.62 KCAL/MOL
REMARK 923 INTER-LIGAND FREE ENERGY PREDICTED BY IDOCK:   -5.36 KCAL/MOL
REMARK 924 INTRA-LIGAND FREE ENERGY PREDICTED BY IDOCK:   -0.26 KCAL/MOL
REMARK 927      BINDING AFFINITY PREDICTED BY RF-SCORE:    0.00 PKD
ROOT
HETATM    1  N   UNL     1      -7.096  19.606  69.422  1.00  0.00    -0.342 NA 
HETATM    2  H1  UNL     1      -6.307  19.246  69.959  1.00  0.00     0.000 HD 
HETATM    3  C   UNL     1      -7.637  18.863  68.369  1.00  0.00    -0.308 A  
HETATM    4  H2  UNL     1      -7.849  19.831  70.073  1.00  0.00     0.000 HD 
HETATM    5  C   UNL     1      -8.714  19.354  67.637  1.00  0.00    -0.350 A  
HETATM    6  C   UNL     1      -9.354  18.552  66.682  1.00  0.00    -0.310 A  
HETATM    7 CL   UNL     1     -10.661  19.261  65.790  1.00  0.00    -0.505 Cl 
HETATM    8  C   UNL     1      -8.969  17.213  66.456  1.00  0.00    -0.272 A  
HETATM    9  C   UNL     1      -7.923  16.717  67.254  1.00  0.00    -0.167 A  
HETATM   10  C   UNL     1      -7.281  17.527  68.203  1.00  0.00    -0.216 A  
HETATM   11 CL   UNL     1      -7.439  15.051  67.226  1.00  0.00    -0.233 Cl 
ENDROOT
BRANCH   8  12
HETATM   12  N   UNL     1      -9.624  16.467  65.456  1.00  0.00    -0.472 NA 
HETATM   13  H   UNL     1      -9.254  16.605  64.515  1.00  0.00     0.000 HD 
BRANCH  12  14
HETATM   14  C   UNL     1     -10.659  15.599  65.528  1.00  0.00    -0.404 A  
HETATM   15  N   UNL     1     -11.441  15.359  64.511  1.00  0.00    -0.646 NA 
HETATM   16  H   UNL     1     -11.383  15.753  63.572  1.00  0.00     0.000 HD 
HETATM   17  C   UNL     1     -12.437  14.382  65.027  1.00  0.00    -0.359 A  
HETATM   18  C   UNL     1     -12.043  14.059  66.468  1.00  0.00    -0.459 A  
HETATM   19  N   UNL     1     -10.855  14.860  66.653  1.00  0.00    -0.314 NA 
ENDBRANCH  12  14
ENDBRANCH   8  12
TORSDOF 2
ENDMDL
MODEL       46
REMARK 921   NORMALIZED FREE ENERGY PREDICTED BY IDOCK:   -4.86 KCAL/MOL
REMARK 922        TOTAL FREE ENERGY PREDICTED BY IDOCK:   -5.61 KCAL/MOL
REMARK 923 INTER-LIGAND FREE ENERGY PREDICTED BY IDOCK:   -5.44 KCAL/MOL
REMARK 924 INTRA-LIGAND FREE ENERGY PREDICTED BY IDOCK:   -0.17 KCAL/MOL
REMARK 927      BINDING AFFINITY PREDICTED BY RF-SCORE:    0.00 PKD
ROOT
HETATM    1  N   UNL     1     -11.751  11.488  62.982  1.00  0.00    -0.874 NA 
HETATM    2  H1  UNL     1     -11.861  10.486  63.138  1.00  0.00     0.000 HD 
HETATM    3  C   UNL     1     -11.819  12.385  64.052  1.00  0.00    -0.439 A  
HETATM    4  H2  UNL     1     -10.870  11.640  62.493  1.00  0.00     0.000 HD 
HETATM    5  C   UNL     1     -11.670  13.753  63.838  1.00  0.00    -0.304 A  
HETATM    6  C   UNL     1     -11.587  14.640  64.920  1.00  0.00    -0.405 A  
HETATM    7 CL   UNL     1     -11.441  16.329  64.558  1.00  0.00    -0.338 Cl 
HETATM    8  C   UNL     1     -11.604  14.188  66.257  1.00  0.00    -0.370 A  
HETATM    9  C   UNL     1     -11.689  12.797  66.448  1.00  0.00    -0.403 A  
HETATM   10  C   UNL     1     -11.779  11.914  65.362  1.00  0.00    -0.228 A  
HETATM   11 CL   UNL     1     -11.552  12.062  68.014  1.00  0.00    -0.390 Cl 
ENDROOT
BRANCH   8  12
HETATM   12  N   UNL     1     -11.557  15.129  67.304  1.00  0.00    -0.282 NA 
HETATM   13  H   UNL     1     -12.421  15.209  67.840  1.00  0.00     0.000 HD 
BRANCH  12  14
HETATM   14  C   UNL     1     -10.562  15.946  67.721  1.00  0.00    -0.302 A  
HETATM   15  N   UNL     1      -9.301  15.664  67.533  1.00  0.00    -0.205 NA 
HETATM   16  H   UNL     1      -8.908  14.850  67.063  1.00  0.00     0.000 HD 
HETATM   17  C   UNL     1      -8.567  16.798  68.157  1.00  0.00    -0.218 A  
HETATM   18  C   UNL     1      -9.617  17.791  68.657  1.00  0.00    -0.322 A  
HETATM   19  N   UNL     1     -10.855  17.156  68.268  1.00  0.00    -0.357 NA 
ENDBRANCH  12  14
ENDBRANCH   8  12
TORSDOF 2
ENDMDL
MODEL       47
REMARK 921   NORMALIZED FREE ENERGY PREDICTED BY IDOCK:   -4.85 KCAL/MOL
REMARK 922        TOTAL FREE ENERGY PREDICTED BY IDOCK:   -5.61 KCAL/MOL
REMARK 923 INTER-LIGAND FREE ENERGY PREDICTED BY IDOCK:   -5.35 KCAL/MOL
REMARK 924 INTRA-LIGAND FREE ENERGY PREDICTED BY IDOCK:   -0.26 KCAL/MOL
REMARK 927      BINDING AFFINITY PREDICTED BY RF-SCORE:    0.00 PKD
ROOT
HETATM    1  N   UNL     1     -11.429  15.970  68.733  1.00  0.00    -0.377 NA 
HETATM    2  H1  UNL     1     -11.061  16.105  67.791  1.00  0.00     0.000 HD 
HETATM    3  C   UNL     1     -11.851  14.707  69.156  1.00  0.00    -0.312 A  
HETATM    4  H2  UNL     1     -10.738  16.315  69.398  1.00  0.00     0.000 HD 
HETATM    5  C   UNL     1     -12.354  14.523  70.442  1.00  0.00    -0.400 A  
HETATM    6  C   UNL     1     -12.637  13.237  70.921  1.00  0.00    -0.306 A  
HETATM    7 CL   UNL     1     -13.296  13.109  72.520  1.00  0.00    -0.599 Cl 
HETATM    8  C   UNL     1     -12.386  12.083  70.150  1.00  0.00    -0.155 A  
HETATM    9  C   UNL     1     -11.816  12.287  68.880  1.00  0.00    -0.303 A  
HETATM   10  C   UNL     1     -11.541  13.578  68.402  1.00  0.00    -0.378 A  
HETATM   11 CL   UNL     1     -11.288  10.977  67.874  1.00  0.00    -0.375 Cl 
ENDROOT
BRANCH   8  12
HETATM   12  N   UNL     1     -12.726  10.818  70.670  1.00  0.00    -0.343 NA 
HETATM   13  H   UNL     1     -13.717  10.586  70.599  1.00  0.00     0.000 HD 
BRANCH  12  14
HETATM   14  C   UNL     1     -11.966   9.859  71.246  1.00  0.00    -0.402 A  
HETATM   15  N   UNL     1     -10.667   9.831  71.126  1.00  0.00    -0.291 NA 
HETATM   16  H   UNL     1     -10.072  10.492  70.626  1.00  0.00     0.000 HD 
HETATM   17  C   UNL     1     -10.246   8.621  71.882  1.00  0.00    -0.334 A  
HETATM   18  C   UNL     1     -11.507   8.020  72.503  1.00  0.00    -0.409 A  
HETATM   19  N   UNL     1     -12.536   8.936  72.067  1.00  0.00    -0.366 NA 
ENDBRANCH  12  14
ENDBRANCH   8  12
TORSDOF 2
ENDMDL
MODEL       48
REMARK 921   NORMALIZED FREE ENERGY PREDICTED BY IDOCK:   -4.85 KCAL/MOL
REMARK 922        TOTAL FREE ENERGY PREDICTED BY IDOCK:   -5.60 KCAL/MOL
REMARK 923 INTER-LIGAND FREE ENERGY PREDICTED BY IDOCK:   -5.44 KCAL/MOL
REMARK 924 INTRA-LIGAND FREE ENERGY PREDICTED BY IDOCK:   -0.16 KCAL/MOL
REMARK 927      BINDING AFFINITY PREDICTED BY RF-SCORE:    0.00 PKD
ROOT
HETATM    1  N   UNL     1     -10.296  10.693  62.653  1.00  0.00    -0.721 NA 
HETATM    2  H1  UNL     1     -10.794  11.082  61.853  1.00  0.00     0.000 HD 
HETATM    3  C   UNL     1     -10.424  11.272  63.919  1.00  0.00    -0.391 A  
HETATM    4  H2  UNL     1     -10.535   9.705  62.729  1.00  0.00     0.000 HD 
HETATM    5  C   UNL     1      -9.744  10.740  65.011  1.00  0.00    -0.323 A  
HETATM    6  C   UNL     1      -9.984  11.222  66.306  1.00  0.00    -0.221 A  
HETATM    7 CL   UNL     1      -9.062  10.528  67.600  1.00  0.00    -0.142 Cl 
HETATM    8  C   UNL     1     -10.947  12.221  66.561  1.00  0.00    -0.279 A  
HETATM    9  C   UNL     1     -11.669  12.696  65.452  1.00  0.00    -0.387 A  
HETATM   10  C   UNL     1     -11.419  12.216  64.157  1.00  0.00    -0.460 A  
HETATM   11 CL   UNL     1     -13.001  13.797  65.609  1.00  0.00    -0.460 Cl 
ENDROOT
BRANCH   8  12
HETATM   12  N   UNL     1     -11.118  12.693  67.878  1.00  0.00    -0.234 NA 
HETATM   13  H   UNL     1     -10.681  13.596  68.063  1.00  0.00     0.000 HD 
BRANCH  12  14
HETATM   14  C   UNL     1     -11.762  12.155  68.939  1.00  0.00    -0.327 A  
HETATM   15  N   UNL     1     -12.258  10.948  68.917  1.00  0.00    -0.764 NA 
HETATM   16  H   UNL     1     -12.224  10.274  68.153  1.00  0.00     0.000 HD 
HETATM   17  C   UNL     1     -12.885  10.777  70.255  1.00  0.00    -0.160 A  
HETATM   18  C   UNL     1     -12.596  12.049  71.052  1.00  0.00    -0.273 A  
HETATM   19  N   UNL     1     -11.821  12.832  70.118  1.00  0.00    -0.296 NA 
ENDBRANCH  12  14
ENDBRANCH   8  12
TORSDOF 2
ENDMDL
MODEL       49
REMARK 921   NORMALIZED FREE ENERGY PREDICTED BY IDOCK:   -4.84 KCAL/MOL
REMARK 922        TOTAL FREE ENERGY PREDICTED BY IDOCK:   -5.59 KCAL/MOL
REMARK 923 INTER-LIGAND FREE ENERGY PREDICTED BY IDOCK:   -5.28 KCAL/MOL
REMARK 924 INTRA-LIGAND FREE ENERGY PREDICTED BY IDOCK:   -0.31 KCAL/MOL
REMARK 927      BINDING AFFINITY PREDICTED BY RF-SCORE:    0.00 PKD
ROOT
HETATM    1  N   UNL     1     -13.583  14.881  72.489  1.00  0.00    -0.426 NA 
HETATM    2  H1  UNL     1     -13.381  15.822  72.151  1.00  0.00     0.000 HD 
HETATM    3  C   UNL     1     -13.237  13.763  71.725  1.00  0.00    -0.386 A  
HETATM    4  H2  UNL     1     -13.165  14.778  73.413  1.00  0.00     0.000 HD 
HETATM    5  C   UNL     1     -13.513  12.479  72.187  1.00  0.00    -0.523 A  
HETATM    6  C   UNL     1     -13.036  11.355  71.498  1.00  0.00    -0.399 A  
HETATM    7 CL   UNL     1     -13.462   9.795  72.125  1.00  0.00    -0.518 Cl 
HETATM    8  C   UNL     1     -12.227  11.473  70.348  1.00  0.00    -0.355 A  
HETATM    9  C   UNL     1     -11.905  12.780  69.939  1.00  0.00    -0.301 A  
HETATM   10  C   UNL     1     -12.392  13.902  70.627  1.00  0.00    -0.451 A  
HETATM   11 CL   UNL     1     -10.788  13.105  68.651  1.00  0.00    -0.275 Cl 
ENDROOT
BRANCH   8  12
HETATM   12  N   UNL     1     -11.809  10.308  69.676  1.00  0.00    -0.456 NA 
HETATM   13  H   UNL     1     -12.446   9.991  68.945  1.00  0.00     0.000 HD 
BRANCH  12  14
HETATM   14  C   UNL     1     -10.708   9.538  69.832  1.00  0.00    -0.240 A  
HETATM   15  N   UNL     1      -9.556  10.030  70.198  1.00  0.00    -0.398 NA 
HETATM   16  H   UNL     1      -9.335  11.001  70.418  1.00  0.00     0.000 HD 
HETATM   17  C   UNL     1      -8.638   8.860  70.221  1.00  0.00    -0.167 A  
HETATM   18  C   UNL     1      -9.476   7.626  69.884  1.00  0.00    -0.160 A  
HETATM   19  N   UNL     1     -10.797   8.185  69.710  1.00  0.00    -0.227 NA 
ENDBRANCH  12  14
ENDBRANCH   8  12
TORSDOF 2
ENDMDL
MODEL       50
REMARK 921   NORMALIZED FREE ENERGY PREDICTED BY IDOCK:   -4.83 KCAL/MOL
REMARK 922        TOTAL FREE ENERGY PREDICTED BY IDOCK:   -5.59 KCAL/MOL
REMARK 923 INTER-LIGAND FREE ENERGY PREDICTED BY IDOCK:   -5.33 KCAL/MOL
REMARK 924 INTRA-LIGAND FREE ENERGY PREDICTED BY IDOCK:   -0.26 KCAL/MOL
REMARK 927      BINDING AFFINITY PREDICTED BY RF-SCORE:    0.00 PKD
ROOT
HETATM    1  N   UNL     1     -12.005  11.672  67.587  1.00  0.00    -0.625 NA 
HETATM    2  H1  UNL     1     -12.461  11.159  68.341  1.00  0.00     0.000 HD 
HETATM    3  C   UNL     1     -11.839  13.058  67.670  1.00  0.00    -0.351 A  
HETATM    4  H2  UNL     1     -11.092  11.251  67.420  1.00  0.00     0.000 HD 
HETATM    5  C   UNL     1     -11.216  13.758  66.640  1.00  0.00    -0.327 A  
HETATM    6  C   UNL     1     -10.913  15.119  66.783  1.00  0.00    -0.321 A  
HETATM    7 CL   UNL     1     -10.174  15.918  65.433  1.00  0.00    -0.384 Cl 
HETATM    8  C   UNL     1     -11.179  15.820  67.979  1.00  0.00    -0.338 A  
HETATM    9  C   UNL     1     -11.747  15.076  69.029  1.00  0.00    -0.325 A  
HETATM   10  C   UNL     1     -12.055  13.715  68.878  1.00  0.00    -0.335 A  
HETATM   11 CL   UNL     1     -11.981  15.736  70.617  1.00  0.00    -0.402 Cl 
ENDROOT
BRANCH   8  12
HETATM   12  N   UNL     1     -10.888  17.196  68.051  1.00  0.00    -0.366 NA 
HETATM   13  H   UNL     1     -11.687  17.807  67.882  1.00  0.00     0.000 HD 
BRANCH  12  14
HETATM   14  C   UNL     1      -9.730  17.848  68.305  1.00  0.00    -0.327 A  
HETATM   15  N   UNL     1      -9.652  19.151  68.329  1.00  0.00    -0.334 NA 
HETATM   16  H   UNL     1     -10.405  19.823  68.183  1.00  0.00     0.000 HD 
HETATM   17  C   UNL     1      -8.221  19.436  68.617  1.00  0.00    -0.364 A  
HETATM   18  C   UNL     1      -7.528  18.088  68.823  1.00  0.00    -0.264 A  
HETATM   19  N   UNL     1      -8.614  17.151  68.652  1.00  0.00    -0.264 NA 
ENDBRANCH  12  14
ENDBRANCH   8  12
TORSDOF 2
ENDMDL
MODEL       51
REMARK 921   NORMALIZED FREE ENERGY PREDICTED BY IDOCK:   -4.82 KCAL/MOL
REMARK 922        TOTAL FREE ENERGY PREDICTED BY IDOCK:   -5.58 KCAL/MOL
REMARK 923 INTER-LIGAND FREE ENERGY PREDICTED BY IDOCK:   -5.32 KCAL/MOL
REMARK 924 INTRA-LIGAND FREE ENERGY PREDICTED BY IDOCK:   -0.25 KCAL/MOL
REMARK 927      BINDING AFFINITY PREDICTED BY RF-SCORE:    0.00 PKD
ROOT
HETATM    1  N   UNL     1     -11.975  14.911  68.163  1.00  0.00    -0.545 NA 
HETATM    2  H1  UNL     1     -12.258  15.750  68.668  1.00  0.00     0.000 HD 
HETATM    3  C   UNL     1     -11.892  13.680  68.820  1.00  0.00    -0.360 A  
HETATM    4  H2  UNL     1     -12.589  14.801  67.356  1.00  0.00     0.000 HD 
HETATM    5  C   UNL     1     -11.505  12.535  68.130  1.00  0.00    -0.368 A  
HETATM    6  C   UNL     1     -11.564  11.276  68.745  1.00  0.00    -0.316 A  
HETATM    7 CL   UNL     1     -11.025   9.911  67.821  1.00  0.00    -0.325 Cl 
HETATM    8  C   UNL     1     -12.056  11.111  70.057  1.00  0.00    -0.359 A  
HETATM    9  C   UNL     1     -12.503  12.273  70.711  1.00  0.00    -0.265 A  
HETATM   10  C   UNL     1     -12.435  13.531  70.094  1.00  0.00    -0.276 A  
HETATM   11 CL   UNL     1     -13.291  12.227  72.256  1.00  0.00    -0.536 Cl 
ENDROOT
BRANCH   8  12
HETATM   12  N   UNL     1     -12.056   9.827  70.637  1.00  0.00    -0.397 NA 
HETATM   13  H   UNL     1     -12.906   9.289  70.472  1.00  0.00     0.000 HD 
BRANCH  12  14
HETATM   14  C   UNL     1     -11.121   9.184  71.374  1.00  0.00    -0.345 A  
HETATM   15  N   UNL     1     -11.435   8.387  72.359  1.00  0.00    -0.384 NA 
HETATM   16  H   UNL     1     -12.368   8.139  72.687  1.00  0.00     0.000 HD 
HETATM   17  C   UNL     1     -10.129   7.924  72.898  1.00  0.00    -0.310 A  
HETATM   18  C   UNL     1      -9.039   8.529  72.012  1.00  0.00    -0.247 A  
HETATM   19  N   UNL     1      -9.806   9.271  71.039  1.00  0.00    -0.290 NA 
ENDBRANCH  12  14
ENDBRANCH   8  12
TORSDOF 2
ENDMDL
MODEL       52
REMARK 921   NORMALIZED FREE ENERGY PREDICTED BY IDOCK:   -4.81 KCAL/MOL
REMARK 922        TOTAL FREE ENERGY PREDICTED BY IDOCK:   -5.56 KCAL/MOL
REMARK 923 INTER-LIGAND FREE ENERGY PREDICTED BY IDOCK:   -5.36 KCAL/MOL
REMARK 924 INTRA-LIGAND FREE ENERGY PREDICTED BY IDOCK:   -0.20 KCAL/MOL
REMARK 927      BINDING AFFINITY PREDICTED BY RF-SCORE:    0.00 PKD
ROOT
HETATM    1  N   UNL     1     -10.780  16.993  67.767  1.00  0.00    -0.342 NA 
HETATM    2  H1  UNL     1     -10.752  17.708  68.494  1.00  0.00     0.000 HD 
HETATM    3  C   UNL     1     -11.035  15.658  68.093  1.00  0.00    -0.314 A  
HETATM    4  H2  UNL     1     -11.455  17.283  67.060  1.00  0.00     0.000 HD 
HETATM    5  C   UNL     1     -11.073  14.682  67.101  1.00  0.00    -0.328 A  
HETATM    6  C   UNL     1     -11.475  13.373  67.401  1.00  0.00    -0.333 A  
HETATM    7 CL   UNL     1     -11.453  12.216  66.109  1.00  0.00    -0.414 Cl 
HETATM    8  C   UNL     1     -11.898  13.002  68.694  1.00  0.00    -0.318 A  
HETATM    9  C   UNL     1     -11.915  14.019  69.665  1.00  0.00    -0.339 A  
HETATM   10  C   UNL     1     -11.505  15.327  69.362  1.00  0.00    -0.329 A  
HETATM   11 CL   UNL     1     -12.565  13.778  71.256  1.00  0.00    -0.436 Cl 
ENDROOT
BRANCH   8  12
HETATM   12  N   UNL     1     -12.254  11.662  68.946  1.00  0.00    -0.377 NA 
HETATM   13  H   UNL     1     -12.938  11.277  68.293  1.00  0.00     0.000 HD 
BRANCH  12  14
HETATM   14  C   UNL     1     -11.846  10.798  69.903  1.00  0.00    -0.335 A  
HETATM   15  N   UNL     1     -10.590  10.483  70.070  1.00  0.00    -0.439 NA 
HETATM   16  H   UNL     1      -9.786  10.829  69.549  1.00  0.00     0.000 HD 
HETATM   17  C   UNL     1     -10.596   9.505  71.192  1.00  0.00    -0.318 A  
HETATM   18  C   UNL     1     -12.042   9.382  71.672  1.00  0.00    -0.388 A  
HETATM   19  N   UNL     1     -12.738  10.302  70.802  1.00  0.00    -0.348 NA 
ENDBRANCH  12  14
ENDBRANCH   8  12
TORSDOF 2
ENDMDL
MODEL       53
REMARK 921   NORMALIZED FREE ENERGY PREDICTED BY IDOCK:   -4.80 KCAL/MOL
REMARK 922        TOTAL FREE ENERGY PREDICTED BY IDOCK:   -5.55 KCAL/MOL
REMARK 923 INTER-LIGAND FREE ENERGY PREDICTED BY IDOCK:   -5.26 KCAL/MOL
REMARK 924 INTRA-LIGAND FREE ENERGY PREDICTED BY IDOCK:   -0.29 KCAL/MOL
REMARK 927      BINDING AFFINITY PREDICTED BY RF-SCORE:    0.00 PKD
ROOT
HETATM    1  N   UNL     1     -11.687  15.572  69.442  1.00  0.00    -0.345 NA 
HETATM    2  H1  UNL     1     -11.493  15.290  70.403  1.00  0.00     0.000 HD 
HETATM    3  C   UNL     1     -11.590  14.649  68.397  1.00  0.00    -0.323 A  
HETATM    4  H2  UNL     1     -12.617  15.990  69.414  1.00  0.00     0.000 HD 
HETATM    5  C   UNL     1     -11.855  15.035  67.086  1.00  0.00    -0.141 A  
HETATM    6  C   UNL     1     -11.906  14.084  66.058  1.00  0.00    -0.388 A  
HETATM    7 CL   UNL     1     -12.204  14.662  64.450  1.00  0.00    -0.511 Cl 
HETATM    8  C   UNL     1     -11.739  12.706  66.309  1.00  0.00    -0.402 A  
HETATM    9  C   UNL     1     -11.538  12.332  67.650  1.00  0.00    -0.354 A  
HETATM   10  C   UNL     1     -11.481  13.289  68.675  1.00  0.00    -0.339 A  
HETATM   11 CL   UNL     1     -11.483  10.674  68.157  1.00  0.00    -0.355 Cl 
ENDROOT
BRANCH   8  12
HETATM   12  N   UNL     1     -11.762  11.800  65.231  1.00  0.00    -0.202 NA 
HETATM   13  H   UNL     1     -12.695  11.492  64.957  1.00  0.00     0.000 HD 
BRANCH  12  14
HETATM   14  C   UNL     1     -10.759  11.268  64.494  1.00  0.00    -0.323 A  
HETATM   15  N   UNL     1     -10.807  11.205  63.191  1.00  0.00    -0.820 NA 
HETATM   16  H   UNL     1     -11.550  11.536  62.578  1.00  0.00     0.000 HD 
HETATM   17  C   UNL     1      -9.535  10.540  62.802  1.00  0.00    -0.325 A  
HETATM   18  C   UNL     1      -8.737  10.309  64.086  1.00  0.00    -0.204 A  
HETATM   19  N   UNL     1      -9.606  10.870  65.096  1.00  0.00    -0.227 NA 
ENDBRANCH  12  14
ENDBRANCH   8  12
TORSDOF 2
ENDMDL
MODEL       54
REMARK 921   NORMALIZED FREE ENERGY PREDICTED BY IDOCK:   -4.77 KCAL/MOL
REMARK 922        TOTAL FREE ENERGY PREDICTED BY IDOCK:   -5.52 KCAL/MOL
REMARK 923 INTER-LIGAND FREE ENERGY PREDICTED BY IDOCK:   -5.21 KCAL/MOL
REMARK 924 INTRA-LIGAND FREE ENERGY PREDICTED BY IDOCK:   -0.31 KCAL/MOL
REMARK 927      BINDING AFFINITY PREDICTED BY RF-SCORE:    0.00 PKD
ROOT
HETATM    1  N   UNL     1     -10.656  17.524  69.208  1.00  0.00    -0.379 NA 
HETATM    2  H1  UNL     1     -10.341  18.244  68.558  1.00  0.00     0.000 HD 
HETATM    3  C   UNL     1     -11.095  16.284  68.736  1.00  0.00    -0.355 A  
HETATM    4  H2  UNL     1      -9.913  17.361  69.888  1.00  0.00     0.000 HD 
HETATM    5  C   UNL     1     -11.525  15.301  69.624  1.00  0.00    -0.321 A  
HETATM    6  C   UNL     1     -11.823  14.009  69.169  1.00  0.00    -0.350 A  
HETATM    7 CL   UNL     1     -12.388  12.862  70.341  1.00  0.00    -0.371 Cl 
HETATM    8  C   UNL     1     -11.660  13.639  67.818  1.00  0.00    -0.338 A  
HETATM    9  C   UNL     1     -11.162  14.628  66.951  1.00  0.00    -0.343 A  
HETATM   10  C   UNL     1     -10.872  15.923  67.410  1.00  0.00    -0.291 A  
HETATM   11 CL   UNL     1     -10.743  14.297  65.301  1.00  0.00    -0.349 Cl 
ENDROOT
BRANCH   8  12
HETATM   12  N   UNL     1     -12.013  12.337  67.412  1.00  0.00    -0.544 NA 
HETATM   13  H   UNL     1     -12.970  12.245  67.070  1.00  0.00     0.000 HD 
BRANCH  12  14
HETATM   14  C   UNL     1     -11.302  11.186  67.397  1.00  0.00    -0.255 A  
HETATM   15  N   UNL     1     -11.589  10.177  68.173  1.00  0.00    -0.672 NA 
HETATM   16  H   UNL     1     -12.348  10.107  68.849  1.00  0.00     0.000 HD 
HETATM   17  C   UNL     1     -10.560   9.152  67.851  1.00  0.00    -0.214 A  
HETATM   18  C   UNL     1      -9.699   9.719  66.722  1.00  0.00    -0.194 A  
HETATM   19  N   UNL     1     -10.311  11.007  66.482  1.00  0.00    -0.238 NA 
ENDBRANCH  12  14
ENDBRANCH   8  12
TORSDOF 2
ENDMDL
MODEL       55
REMARK 921   NORMALIZED FREE ENERGY PREDICTED BY IDOCK:   -4.77 KCAL/MOL
REMARK 922        TOTAL FREE ENERGY PREDICTED BY IDOCK:   -5.51 KCAL/MOL
REMARK 923 INTER-LIGAND FREE ENERGY PREDICTED BY IDOCK:   -5.19 KCAL/MOL
REMARK 924 INTRA-LIGAND FREE ENERGY PREDICTED BY IDOCK:   -0.32 KCAL/MOL
REMARK 927      BINDING AFFINITY PREDICTED BY RF-SCORE:    0.00 PKD
ROOT
HETATM    1  N   UNL     1     -11.930  10.497  68.705  1.00  0.00    -0.734 NA 
HETATM    2  H1  UNL     1     -12.300  10.407  69.652  1.00  0.00     0.000 HD 
HETATM    3  C   UNL     1     -11.825  11.753  68.101  1.00  0.00    -0.254 A  
HETATM    4  H2  UNL     1     -11.014  10.052  68.677  1.00  0.00     0.000 HD 
HETATM    5  C   UNL     1     -11.320  11.876  66.809  1.00  0.00    -0.393 A  
HETATM    6  C   UNL     1     -11.073  13.140  66.256  1.00  0.00    -0.287 A  
HETATM    7 CL   UNL     1     -10.482  13.196  64.627  1.00  0.00    -0.392 Cl 
HETATM    8  C   UNL     1     -11.277  14.327  66.991  1.00  0.00    -0.323 A  
HETATM    9  C   UNL     1     -11.723  14.177  68.316  1.00  0.00    -0.348 A  
HETATM   10  C   UNL     1     -11.977  12.909  68.862  1.00  0.00    -0.291 A  
HETATM   11 CL   UNL     1     -11.864  15.516  69.410  1.00  0.00    -0.379 Cl 
ENDROOT
BRANCH   8  12
HETATM   12  N   UNL     1     -11.048  15.571  66.370  1.00  0.00    -0.237 NA 
HETATM   13  H   UNL     1     -11.805  15.886  65.763  1.00  0.00     0.000 HD 
BRANCH  12  14
HETATM   14  C   UNL     1      -9.996  16.419  66.438  1.00  0.00    -0.303 A  
HETATM   15  N   UNL     1      -8.807  16.094  66.008  1.00  0.00    -0.348 NA 
HETATM   16  H   UNL     1      -8.519  15.218  65.574  1.00  0.00     0.000 HD 
HETATM   17  C   UNL     1      -7.966  17.288  66.293  1.00  0.00    -0.295 A  
HETATM   18  C   UNL     1      -8.889  18.356  66.882  1.00  0.00    -0.279 A  
HETATM   19  N   UNL     1     -10.175  17.696  66.872  1.00  0.00    -0.323 NA 
ENDBRANCH  12  14
ENDBRANCH   8  12
TORSDOF 2
ENDMDL
MODEL       56
REMARK 921   NORMALIZED FREE ENERGY PREDICTED BY IDOCK:   -4.76 KCAL/MOL
REMARK 922        TOTAL FREE ENERGY PREDICTED BY IDOCK:   -5.50 KCAL/MOL
REMARK 923 INTER-LIGAND FREE ENERGY PREDICTED BY IDOCK:   -5.39 KCAL/MOL
REMARK 924 INTRA-LIGAND FREE ENERGY PREDICTED BY IDOCK:   -0.11 KCAL/MOL
REMARK 927      BINDING AFFINITY PREDICTED BY RF-SCORE:    0.00 PKD
ROOT
HETATM    1  N   UNL     1      -8.669  17.859  68.733  1.00  0.00    -0.248 NA 
HETATM    2  H1  UNL     1      -8.405  17.821  69.718  1.00  0.00     0.000 HD 
HETATM    3  C   UNL     1      -9.442  16.843  68.165  1.00  0.00    -0.251 A  
HETATM    4  H2  UNL     1      -9.136  18.749  68.563  1.00  0.00     0.000 HD 
HETATM    5  C   UNL     1      -9.802  16.897  66.821  1.00  0.00    -0.284 A  
HETATM    6  C   UNL     1     -10.699  15.962  66.284  1.00  0.00    -0.261 A  
HETATM    7 CL   UNL     1     -11.058  16.083  64.591  1.00  0.00    -0.444 Cl 
HETATM    8  C   UNL     1     -11.304  14.968  67.081  1.00  0.00    -0.320 A  
HETATM    9  C   UNL     1     -10.978  14.975  68.449  1.00  0.00    -0.264 A  
HETATM   10  C   UNL     1     -10.074  15.908  68.980  1.00  0.00    -0.228 A  
HETATM   11 CL   UNL     1     -11.757  13.934  69.598  1.00  0.00    -0.348 Cl 
ENDROOT
BRANCH   8  12
HETATM   12  N   UNL     1     -12.168  14.033  66.478  1.00  0.00    -0.459 NA 
HETATM   13  H   UNL     1     -13.122  14.045  66.838  1.00  0.00     0.000 HD 
BRANCH  12  14
HETATM   14  C   UNL     1     -11.950  13.120  65.504  1.00  0.00    -0.412 A  
HETATM   15  N   UNL     1     -10.978  12.251  65.565  1.00  0.00    -0.289 NA 
HETATM   16  H   UNL     1     -10.295  12.131  66.312  1.00  0.00     0.000 HD 
HETATM   17  C   UNL     1     -11.090  11.474  64.301  1.00  0.00    -0.315 A  
HETATM   18  C   UNL     1     -12.321  11.997  63.561  1.00  0.00    -0.551 A  
HETATM   19  N   UNL     1     -12.817  13.012  64.461  1.00  0.00    -0.719 NA 
ENDBRANCH  12  14
ENDBRANCH   8  12
TORSDOF 2
ENDMDL
MODEL       57
REMARK 921   NORMALIZED FREE ENERGY PREDICTED BY IDOCK:   -4.72 KCAL/MOL
REMARK 922        TOTAL FREE ENERGY PREDICTED BY IDOCK:   -5.46 KCAL/MOL
REMARK 923 INTER-LIGAND FREE ENERGY PREDICTED BY IDOCK:   -5.16 KCAL/MOL
REMARK 924 INTRA-LIGAND FREE ENERGY PREDICTED BY IDOCK:   -0.30 KCAL/MOL
REMARK 927      BINDING AFFINITY PREDICTED BY RF-SCORE:    0.00 PKD
ROOT
HETATM    1  N   UNL     1     -11.996  14.948  67.852  1.00  0.00    -0.532 NA 
HETATM    2  H1  UNL     1     -12.447  15.799  68.186  1.00  0.00     0.000 HD 
HETATM    3  C   UNL     1     -11.828  13.853  68.704  1.00  0.00    -0.372 A  
HETATM    4  H2  UNL     1     -12.490  14.631  67.018  1.00  0.00     0.000 HD 
HETATM    5  C   UNL     1     -11.212  12.690  68.247  1.00  0.00    -0.312 A  
HETATM    6  C   UNL     1     -11.175  11.540  69.048  1.00  0.00    -0.262 A  
HETATM    7 CL   UNL     1     -10.352  10.152  68.412  1.00  0.00    -0.197 Cl 
HETATM    8  C   UNL     1     -11.793  11.495  70.315  1.00  0.00    -0.342 A  
HETATM    9  C   UNL     1     -12.466  12.658  70.728  1.00  0.00    -0.270 A  
HETATM   10  C   UNL     1     -12.494  13.810  69.926  1.00  0.00    -0.259 A  
HETATM   11 CL   UNL     1     -13.419  12.720  72.177  1.00  0.00    -0.637 Cl 
ENDROOT
BRANCH   8  12
HETATM   12  N   UNL     1     -11.690  10.323  71.091  1.00  0.00    -0.361 NA 
HETATM   13  H   UNL     1     -10.818  10.238  71.614  1.00  0.00     0.000 HD 
BRANCH  12  14
HETATM   14  C   UNL     1     -12.548   9.291  71.262  1.00  0.00    -0.306 A  
HETATM   15  N   UNL     1     -13.759   9.301  70.774  1.00  0.00    -0.494 NA 
HETATM   16  H   UNL     1     -14.201  10.032  70.219  1.00  0.00     0.000 HD 
HETATM   17  C   UNL     1     -14.349   8.007  71.210  1.00  0.00    -0.281 A  
HETATM   18  C   UNL     1     -13.253   7.242  71.954  1.00  0.00    -0.233 A  
HETATM   19  N   UNL     1     -12.131   8.149  71.871  1.00  0.00    -0.304 NA 
ENDBRANCH  12  14
ENDBRANCH   8  12
TORSDOF 2
ENDMDL
MODEL       58
REMARK 921   NORMALIZED FREE ENERGY PREDICTED BY IDOCK:   -4.72 KCAL/MOL
REMARK 922        TOTAL FREE ENERGY PREDICTED BY IDOCK:   -5.45 KCAL/MOL
REMARK 923 INTER-LIGAND FREE ENERGY PREDICTED BY IDOCK:   -5.17 KCAL/MOL
REMARK 924 INTRA-LIGAND FREE ENERGY PREDICTED BY IDOCK:   -0.29 KCAL/MOL
REMARK 927      BINDING AFFINITY PREDICTED BY RF-SCORE:    0.00 PKD
ROOT
HETATM    1  N   UNL     1     -11.679  15.157  69.550  1.00  0.00    -0.308 NA 
HETATM    2  H1  UNL     1     -11.847  16.155  69.423  1.00  0.00     0.000 HD 
HETATM    3  C   UNL     1     -11.773  14.278  68.467  1.00  0.00    -0.341 A  
HETATM    4  H2  UNL     1     -10.760  15.040  69.977  1.00  0.00     0.000 HD 
HETATM    5  C   UNL     1     -11.543  12.916  68.640  1.00  0.00    -0.353 A  
HETATM    6  C   UNL     1     -11.488  12.055  67.536  1.00  0.00    -0.333 A  
HETATM    7 CL   UNL     1     -11.236  10.368  67.851  1.00  0.00    -0.367 Cl 
HETATM    8  C   UNL     1     -11.615  12.530  66.214  1.00  0.00    -0.394 A  
HETATM    9  C   UNL     1     -11.780  13.918  66.059  1.00  0.00    -0.366 A  
HETATM   10  C   UNL     1     -11.842  14.776  67.168  1.00  0.00    -0.307 A  
HETATM   11 CL   UNL     1     -11.783  14.689  64.504  1.00  0.00    -0.420 Cl 
ENDROOT
BRANCH   8  12
HETATM   12  N   UNL     1     -11.591  11.613  65.145  1.00  0.00    -0.131 NA 
HETATM   13  H   UNL     1     -12.498  11.205  64.917  1.00  0.00     0.000 HD 
BRANCH  12  14
HETATM   14  C   UNL     1     -10.571  11.178  64.369  1.00  0.00    -0.343 A  
HETATM   15  N   UNL     1     -10.661  11.115  63.068  1.00  0.00    -0.818 NA 
HETATM   16  H   UNL     1     -11.455  11.379  62.485  1.00  0.00     0.000 HD 
HETATM   17  C   UNL     1      -9.348  10.572  62.628  1.00  0.00    -0.312 A  
HETATM   18  C   UNL     1      -8.486  10.412  63.880  1.00  0.00    -0.161 A  
HETATM   19  N   UNL     1      -9.364  10.886  64.925  1.00  0.00    -0.216 NA 
ENDBRANCH  12  14
ENDBRANCH   8  12
TORSDOF 2
ENDMDL
MODEL       59
REMARK 921   NORMALIZED FREE ENERGY PREDICTED BY IDOCK:   -4.71 KCAL/MOL
REMARK 922        TOTAL FREE ENERGY PREDICTED BY IDOCK:   -5.44 KCAL/MOL
REMARK 923 INTER-LIGAND FREE ENERGY PREDICTED BY IDOCK:   -5.24 KCAL/MOL
REMARK 924 INTRA-LIGAND FREE ENERGY PREDICTED BY IDOCK:   -0.20 KCAL/MOL
REMARK 927      BINDING AFFINITY PREDICTED BY RF-SCORE:    0.00 PKD
ROOT
HETATM    1  N   UNL     1      -9.711  10.162  65.259  1.00  0.00    -0.279 NA 
HETATM    2  H1  UNL     1      -9.624   9.210  65.615  1.00  0.00     0.000 HD 
HETATM    3  C   UNL     1     -10.488  11.106  65.935  1.00  0.00    -0.253 A  
HETATM    4  H2  UNL     1      -8.773  10.546  65.142  1.00  0.00     0.000 HD 
HETATM    5  C   UNL     1     -10.606  12.405  65.448  1.00  0.00    -0.316 A  
HETATM    6  C   UNL     1     -11.259  13.392  66.198  1.00  0.00    -0.295 A  
HETATM    7 CL   UNL     1     -11.392  14.972  65.494  1.00  0.00    -0.338 Cl 
HETATM    8  C   UNL     1     -11.779  13.130  67.483  1.00  0.00    -0.366 A  
HETATM    9  C   UNL     1     -11.590  11.829  67.983  1.00  0.00    -0.316 A  
HETATM   10  C   UNL     1     -10.942  10.841  67.225  1.00  0.00    -0.359 A  
HETATM   11 CL   UNL     1     -12.014  11.383  69.605  1.00  0.00    -0.396 Cl 
ENDROOT
BRANCH   8  12
HETATM   12  N   UNL     1     -12.459  14.152  68.174  1.00  0.00    -0.470 NA 
HETATM   13  H   UNL     1     -13.246  14.555  67.665  1.00  0.00     0.000 HD 
BRANCH  12  14
HETATM   14  C   UNL     1     -12.249  14.691  69.397  1.00  0.00    -0.235 A  
HETATM   15  N   UNL     1     -13.210  14.847  70.267  1.00  0.00    -0.608 NA 
HETATM   16  H   UNL     1     -14.192  14.590  70.164  1.00  0.00     0.000 HD 
HETATM   17  C   UNL     1     -12.554  15.483  71.440  1.00  0.00    -0.431 A  
HETATM   18  C   UNL     1     -11.064  15.590  71.118  1.00  0.00    -0.314 A  
HETATM   19  N   UNL     1     -10.987  14.997  69.802  1.00  0.00    -0.266 NA 
ENDBRANCH  12  14
ENDBRANCH   8  12
TORSDOF 2
ENDMDL
MODEL       60
REMARK 921   NORMALIZED FREE ENERGY PREDICTED BY IDOCK:   -4.71 KCAL/MOL
REMARK 922        TOTAL FREE ENERGY PREDICTED BY IDOCK:   -5.44 KCAL/MOL
REMARK 923 INTER-LIGAND FREE ENERGY PREDICTED BY IDOCK:   -5.28 KCAL/MOL
REMARK 924 INTRA-LIGAND FREE ENERGY PREDICTED BY IDOCK:   -0.16 KCAL/MOL
REMARK 927      BINDING AFFINITY PREDICTED BY RF-SCORE:    0.00 PKD
ROOT
HETATM    1  N   UNL     1      -8.488   8.804  72.063  1.00  0.00    -0.368 NA 
HETATM    2  H1  UNL     1      -8.857   8.416  72.932  1.00  0.00     0.000 HD 
HETATM    3  C   UNL     1      -9.353   9.227  71.050  1.00  0.00    -0.227 A  
HETATM    4  H2  UNL     1      -7.868   9.579  72.298  1.00  0.00     0.000 HD 
HETATM    5  C   UNL     1      -8.848   9.756  69.865  1.00  0.00    -0.248 A  
HETATM    6  C   UNL     1      -9.708  10.318  68.911  1.00  0.00    -0.189 A  
HETATM    7 CL   UNL     1      -8.994  10.916  67.448  1.00  0.00    -0.136 Cl 
HETATM    8  C   UNL     1     -11.099  10.413  69.126  1.00  0.00    -0.246 A  
HETATM    9  C   UNL     1     -11.578   9.933  70.358  1.00  0.00    -0.282 A  
HETATM   10  C   UNL     1     -10.714   9.365  71.307  1.00  0.00    -0.421 A  
HETATM   11 CL   UNL     1     -13.229  10.126  70.855  1.00  0.00    -0.431 Cl 
ENDROOT
BRANCH   8  12
HETATM   12  N   UNL     1     -11.918  10.953  68.115  1.00  0.00    -0.796 NA 
HETATM   13  H   UNL     1     -12.565  10.286  67.694  1.00  0.00     0.000 HD 
BRANCH  12  14
HETATM   14  C   UNL     1     -11.995  12.204  67.606  1.00  0.00    -0.120 A  
HETATM   15  N   UNL     1     -11.853  13.270  68.346  1.00  0.00    -0.354 NA 
HETATM   16  H   UNL     1     -11.662  13.313  69.347  1.00  0.00     0.000 HD 
HETATM   17  C   UNL     1     -12.032  14.407  67.404  1.00  0.00    -0.373 A  
HETATM   18  C   UNL     1     -12.223  13.809  66.010  1.00  0.00    -0.457 A  
HETATM   19  N   UNL     1     -12.124  12.390  66.264  1.00  0.00    -0.630 NA 
ENDBRANCH  12  14
ENDBRANCH   8  12
TORSDOF 2
ENDMDL
MODEL       61
REMARK 921   NORMALIZED FREE ENERGY PREDICTED BY IDOCK:   -4.69 KCAL/MOL
REMARK 922        TOTAL FREE ENERGY PREDICTED BY IDOCK:   -5.43 KCAL/MOL
REMARK 923 INTER-LIGAND FREE ENERGY PREDICTED BY IDOCK:   -5.10 KCAL/MOL
REMARK 924 INTRA-LIGAND FREE ENERGY PREDICTED BY IDOCK:   -0.33 KCAL/MOL
REMARK 927      BINDING AFFINITY PREDICTED BY RF-SCORE:    0.00 PKD
ROOT
HETATM    1  N   UNL     1     -11.835  16.303  70.944  1.00  0.00    -0.556 NA 
HETATM    2  H1  UNL     1     -11.828  16.233  71.961  1.00  0.00     0.000 HD 
HETATM    3  C   UNL     1     -11.752  15.154  70.152  1.00  0.00    -0.307 A  
HETATM    4  H2  UNL     1     -12.666  16.823  70.665  1.00  0.00     0.000 HD 
HETATM    5  C   UNL     1     -11.761  15.250  68.763  1.00  0.00    -0.374 A  
HETATM    6  C   UNL     1     -11.830  14.098  67.968  1.00  0.00    -0.365 A  
HETATM    7 CL   UNL     1     -11.797  14.313  66.247  1.00  0.00    -0.405 Cl 
HETATM    8  C   UNL     1     -11.938  12.809  68.532  1.00  0.00    -0.225 A  
HETATM    9  C   UNL     1     -11.993  12.740  69.935  1.00  0.00    -0.298 A  
HETATM   10  C   UNL     1     -11.917  13.897  70.727  1.00  0.00    -0.348 A  
HETATM   11 CL   UNL     1     -12.294  11.258  70.784  1.00  0.00    -0.480 Cl 
ENDROOT
BRANCH   8  12
HETATM   12  N   UNL     1     -11.964  11.685  67.683  1.00  0.00    -0.625 NA 
HETATM   13  H   UNL     1     -12.891  11.440  67.335  1.00  0.00     0.000 HD 
BRANCH  12  14
HETATM   14  C   UNL     1     -10.972  10.875  67.249  1.00  0.00    -0.294 A  
HETATM   15  N   UNL     1     -10.130  11.236  66.319  1.00  0.00    -0.222 NA 
HETATM   16  H   UNL     1     -10.092  12.128  65.826  1.00  0.00     0.000 HD 
HETATM   17  C   UNL     1      -9.241  10.058  66.138  1.00  0.00    -0.165 A  
HETATM   18  C   UNL     1      -9.672   9.010  67.165  1.00  0.00    -0.181 A  
HETATM   19  N   UNL     1     -10.754   9.675  67.853  1.00  0.00    -0.258 NA 
ENDBRANCH  12  14
ENDBRANCH   8  12
TORSDOF 2
ENDMDL
MODEL       62
REMARK 921   NORMALIZED FREE ENERGY PREDICTED BY IDOCK:   -4.68 KCAL/MOL
REMARK 922        TOTAL FREE ENERGY PREDICTED BY IDOCK:   -5.42 KCAL/MOL
REMARK 923 INTER-LIGAND FREE ENERGY PREDICTED BY IDOCK:   -5.18 KCAL/MOL
REMARK 924 INTRA-LIGAND FREE ENERGY PREDICTED BY IDOCK:   -0.24 KCAL/MOL
REMARK 927      BINDING AFFINITY PREDICTED BY RF-SCORE:    0.00 PKD
ROOT
HETATM    1  N   UNL     1     -12.421   8.119  72.893  1.00  0.00    -0.653 NA 
HETATM    2  H1  UNL     1     -12.987   8.230  73.734  1.00  0.00     0.000 HD 
HETATM    3  C   UNL     1     -12.412   9.109  71.907  1.00  0.00    -0.387 A  
HETATM    4  H2  UNL     1     -11.457   7.944  73.178  1.00  0.00     0.000 HD 
HETATM    5  C   UNL     1     -11.638   8.957  70.759  1.00  0.00    -0.301 A  
HETATM    6  C   UNL     1     -11.509  10.007  69.840  1.00  0.00    -0.215 A  
HETATM    7 CL   UNL     1     -10.557   9.714  68.421  1.00  0.00    -0.256 Cl 
HETATM    8  C   UNL     1     -12.111  11.265  70.058  1.00  0.00    -0.348 A  
HETATM    9  C   UNL     1     -12.832  11.417  71.255  1.00  0.00    -0.379 A  
HETATM   10  C   UNL     1     -12.965  10.360  72.168  1.00  0.00    -0.393 A  
HETATM   11 CL   UNL     1     -13.491  12.941  71.759  1.00  0.00    -0.439 Cl 
ENDROOT
BRANCH   8  12
HETATM   12  N   UNL     1     -11.978  12.271  69.081  1.00  0.00    -0.282 NA 
HETATM   13  H   UNL     1     -12.403  12.046  68.181  1.00  0.00     0.000 HD 
BRANCH  12  14
HETATM   14  C   UNL     1     -11.383  13.485  69.129  1.00  0.00    -0.282 A  
HETATM   15  N   UNL     1     -10.087  13.626  69.205  1.00  0.00    -0.424 NA 
HETATM   16  H   UNL     1      -9.380  12.892  69.223  1.00  0.00     0.000 HD 
HETATM   17  C   UNL     1      -9.873  15.097  69.259  1.00  0.00    -0.230 A  
HETATM   18  C   UNL     1     -11.246  15.756  69.127  1.00  0.00    -0.322 A  
HETATM   19  N   UNL     1     -12.126  14.617  68.995  1.00  0.00    -0.272 NA 
ENDBRANCH  12  14
ENDBRANCH   8  12
TORSDOF 2
ENDMDL
MODEL       63
REMARK 921   NORMALIZED FREE ENERGY PREDICTED BY IDOCK:   -4.68 KCAL/MOL
REMARK 922        TOTAL FREE ENERGY PREDICTED BY IDOCK:   -5.42 KCAL/MOL
REMARK 923 INTER-LIGAND FREE ENERGY PREDICTED BY IDOCK:   -5.11 KCAL/MOL
REMARK 924 INTRA-LIGAND FREE ENERGY PREDICTED BY IDOCK:   -0.31 KCAL/MOL
REMARK 927      BINDING AFFINITY PREDICTED BY RF-SCORE:    0.00 PKD
ROOT
HETATM    1  N   UNL     1     -10.794   8.871  69.822  1.00  0.00    -0.301 NA 
HETATM    2  H1  UNL     1     -10.924   8.635  70.806  1.00  0.00     0.000 HD 
HETATM    3  C   UNL     1     -11.265  10.084  69.314  1.00  0.00    -0.166 A  
HETATM    4  H2  UNL     1      -9.800   8.799  69.606  1.00  0.00     0.000 HD 
HETATM    5  C   UNL     1     -11.087  10.405  67.971  1.00  0.00    -0.359 A  
HETATM    6  C   UNL     1     -11.423  11.679  67.490  1.00  0.00    -0.289 A  
HETATM    7 CL   UNL     1     -11.204  11.975  65.796  1.00  0.00    -0.374 Cl 
HETATM    8  C   UNL     1     -11.906  12.693  68.344  1.00  0.00    -0.301 A  
HETATM    9  C   UNL     1     -12.015  12.368  69.707  1.00  0.00    -0.289 A  
HETATM   10  C   UNL     1     -11.685  11.089  70.182  1.00  0.00    -0.442 A  
HETATM   11 CL   UNL     1     -12.429  13.542  70.916  1.00  0.00    -0.446 Cl 
ENDROOT
BRANCH   8  12
HETATM   12  N   UNL     1     -12.263  13.941  67.797  1.00  0.00    -0.489 NA 
HETATM   13  H   UNL     1     -13.218  13.989  67.440  1.00  0.00     0.000 HD 
BRANCH  12  14
HETATM   14  C   UNL     1     -11.559  15.089  67.664  1.00  0.00    -0.312 A  
HETATM   15  N   UNL     1     -10.936  15.403  66.561  1.00  0.00    -0.303 NA 
HETATM   16  H   UNL     1     -10.903  14.872  65.691  1.00  0.00     0.000 HD 
HETATM   17  C   UNL     1     -10.286  16.708  66.856  1.00  0.00    -0.291 A  
HETATM   18  C   UNL     1     -10.704  17.108  68.271  1.00  0.00    -0.363 A  
HETATM   19  N   UNL     1     -11.565  16.014  68.662  1.00  0.00    -0.384 NA 
ENDBRANCH  12  14
ENDBRANCH   8  12
TORSDOF 2
ENDMDL
MODEL       64
REMARK 921   NORMALIZED FREE ENERGY PREDICTED BY IDOCK:   -4.68 KCAL/MOL
REMARK 922        TOTAL FREE ENERGY PREDICTED BY IDOCK:   -5.42 KCAL/MOL
REMARK 923 INTER-LIGAND FREE ENERGY PREDICTED BY IDOCK:   -5.10 KCAL/MOL
REMARK 924 INTRA-LIGAND FREE ENERGY PREDICTED BY IDOCK:   -0.32 KCAL/MOL
REMARK 927      BINDING AFFINITY PREDICTED BY RF-SCORE:    0.00 PKD
ROOT
HETATM    1  N   UNL     1     -12.023  15.687  68.879  1.00  0.00    -0.560 NA 
HETATM    2  H1  UNL     1     -12.029  16.364  68.116  1.00  0.00     0.000 HD 
HETATM    3  C   UNL     1     -12.033  14.315  68.611  1.00  0.00    -0.313 A  
HETATM    4  H2  UNL     1     -11.223  15.889  69.479  1.00  0.00     0.000 HD 
HETATM    5  C   UNL     1     -12.025  13.391  69.653  1.00  0.00    -0.386 A  
HETATM    6  C   UNL     1     -11.884  12.021  69.392  1.00  0.00    -0.324 A  
HETATM    7 CL   UNL     1     -11.924  10.942  70.749  1.00  0.00    -0.444 Cl 
HETATM    8  C   UNL     1     -11.701  11.528  68.083  1.00  0.00    -0.287 A  
HETATM    9  C   UNL     1     -11.645  12.484  67.053  1.00  0.00    -0.368 A  
HETATM   10  C   UNL     1     -11.794  13.854  67.319  1.00  0.00    -0.442 A  
HETATM   11 CL   UNL     1     -11.258  12.067  65.414  1.00  0.00    -0.373 Cl 
ENDROOT
BRANCH   8  12
HETATM   12  N   UNL     1     -11.603  10.137  67.878  1.00  0.00    -0.629 NA 
HETATM   13  H   UNL     1     -12.497   9.645  67.889  1.00  0.00     0.000 HD 
BRANCH  12  14
HETATM   14  C   UNL     1     -10.529   9.342  67.667  1.00  0.00    -0.268 A  
HETATM   15  N   UNL     1      -9.521   9.295  68.495  1.00  0.00    -0.145 NA 
HETATM   16  H   UNL     1      -9.409   9.806  69.370  1.00  0.00     0.000 HD 
HETATM   17  C   UNL     1      -8.573   8.330  67.876  1.00  0.00    -0.132 A  
HETATM   18  C   UNL     1      -9.243   7.791  66.612  1.00  0.00    -0.177 A  
HETATM   19  N   UNL     1     -10.515   8.476  66.618  1.00  0.00    -0.250 NA 
ENDBRANCH  12  14
ENDBRANCH   8  12
TORSDOF 2
ENDMDL
MODEL       65
REMARK 921   NORMALIZED FREE ENERGY PREDICTED BY IDOCK:   -4.65 KCAL/MOL
REMARK 922        TOTAL FREE ENERGY PREDICTED BY IDOCK:   -5.38 KCAL/MOL
REMARK 923 INTER-LIGAND FREE ENERGY PREDICTED BY IDOCK:   -5.09 KCAL/MOL
REMARK 924 INTRA-LIGAND FREE ENERGY PREDICTED BY IDOCK:   -0.29 KCAL/MOL
REMARK 927      BINDING AFFINITY PREDICTED BY RF-SCORE:    0.00 PKD
ROOT
HETATM    1  N   UNL     1     -12.143  11.565  70.227  1.00  0.00    -0.352 NA 
HETATM    2  H1  UNL     1     -12.076  10.840  69.513  1.00  0.00     0.000 HD 
HETATM    3  C   UNL     1     -11.826  12.892  69.922  1.00  0.00    -0.303 A  
HETATM    4  H2  UNL     1     -13.085  11.544  70.617  1.00  0.00     0.000 HD 
HETATM    5  C   UNL     1     -11.917  13.883  70.897  1.00  0.00    -0.310 A  
HETATM    6  C   UNL     1     -11.747  15.233  70.561  1.00  0.00    -0.318 A  
HETATM    7 CL   UNL     1     -11.839  16.392  71.848  1.00  0.00    -0.524 Cl 
HETATM    8  C   UNL     1     -11.525  15.647  69.231  1.00  0.00    -0.362 A  
HETATM    9  C   UNL     1     -11.503  14.636  68.254  1.00  0.00    -0.314 A  
HETATM   10  C   UNL     1     -11.667  13.285  68.596  1.00  0.00    -0.376 A  
HETATM   11 CL   UNL     1     -11.411  14.983  66.556  1.00  0.00    -0.319 Cl 
ENDROOT
BRANCH   8  12
HETATM   12  N   UNL     1     -11.323  17.015  68.960  1.00  0.00    -0.118 NA 
HETATM   13  H   UNL     1     -12.181  17.558  68.866  1.00  0.00     0.000 HD 
BRANCH  12  14
HETATM   14  C   UNL     1     -10.186  17.732  68.802  1.00  0.00    -0.373 A  
HETATM   15  N   UNL     1     -10.184  19.036  68.757  1.00  0.00    -0.493 NA 
HETATM   16  H   UNL     1     -10.982  19.665  68.842  1.00  0.00     0.000 HD 
HETATM   17  C   UNL     1      -8.756  19.402  68.554  1.00  0.00    -0.367 A  
HETATM   18  C   UNL     1      -7.954  18.100  68.566  1.00  0.00    -0.300 A  
HETATM   19  N   UNL     1      -8.979  17.105  68.789  1.00  0.00    -0.258 NA 
ENDBRANCH  12  14
ENDBRANCH   8  12
TORSDOF 2
ENDMDL
MODEL       66
REMARK 921   NORMALIZED FREE ENERGY PREDICTED BY IDOCK:   -4.65 KCAL/MOL
REMARK 922        TOTAL FREE ENERGY PREDICTED BY IDOCK:   -5.38 KCAL/MOL
REMARK 923 INTER-LIGAND FREE ENERGY PREDICTED BY IDOCK:   -5.08 KCAL/MOL
REMARK 924 INTRA-LIGAND FREE ENERGY PREDICTED BY IDOCK:   -0.30 KCAL/MOL
REMARK 927      BINDING AFFINITY PREDICTED BY RF-SCORE:    0.00 PKD
ROOT
HETATM    1  N   UNL     1     -11.604  15.936  70.758  1.00  0.00    -0.381 NA 
HETATM    2  H1  UNL     1     -11.523  16.927  70.534  1.00  0.00     0.000 HD 
HETATM    3  C   UNL     1     -11.772  14.989  69.744  1.00  0.00    -0.307 A  
HETATM    4  H2  UNL     1     -10.792  15.667  71.314  1.00  0.00     0.000 HD 
HETATM    5  C   UNL     1     -11.883  13.636  70.051  1.00  0.00    -0.378 A  
HETATM    6  C   UNL     1     -11.901  12.672  69.033  1.00  0.00    -0.294 A  
HETATM    7 CL   UNL     1     -12.081  11.013  69.508  1.00  0.00    -0.404 Cl 
HETATM    8  C   UNL     1     -11.763  13.021  67.674  1.00  0.00    -0.366 A  
HETATM    9  C   UNL     1     -11.585  14.388  67.392  1.00  0.00    -0.375 A  
HETATM   10  C   UNL     1     -11.575  15.350  68.413  1.00  0.00    -0.368 A  
HETATM   11 CL   UNL     1     -11.232  14.972  65.796  1.00  0.00    -0.337 Cl 
ENDROOT
BRANCH   8  12
HETATM   12  N   UNL     1     -11.827  12.013  66.692  1.00  0.00    -0.610 NA 
HETATM   13  H   UNL     1     -12.757  11.620  66.550  1.00  0.00     0.000 HD 
BRANCH  12  14
HETATM   14  C   UNL     1     -10.867  11.476  65.905  1.00  0.00    -0.260 A  
HETATM   15  N   UNL     1     -11.007  11.360  64.612  1.00  0.00    -0.290 NA 
HETATM   16  H   UNL     1     -11.801  11.650  64.043  1.00  0.00     0.000 HD 
HETATM   17  C   UNL     1      -9.749  10.709  64.156  1.00  0.00    -0.320 A  
HETATM   18  C   UNL     1      -8.856  10.548  65.386  1.00  0.00    -0.187 A  
HETATM   19  N   UNL     1      -9.663  11.128  66.435  1.00  0.00    -0.199 NA 
ENDBRANCH  12  14
ENDBRANCH   8  12
TORSDOF 2
ENDMDL
MODEL       67
REMARK 921   NORMALIZED FREE ENERGY PREDICTED BY IDOCK:   -4.59 KCAL/MOL
REMARK 922        TOTAL FREE ENERGY PREDICTED BY IDOCK:   -5.31 KCAL/MOL
REMARK 923 INTER-LIGAND FREE ENERGY PREDICTED BY IDOCK:   -4.99 KCAL/MOL
REMARK 924 INTRA-LIGAND FREE ENERGY PREDICTED BY IDOCK:   -0.33 KCAL/MOL
REMARK 927      BINDING AFFINITY PREDICTED BY RF-SCORE:    0.00 PKD
ROOT
HETATM    1  N   UNL     1     -12.499  14.081  63.167  1.00  0.00    -1.070 NA 
HETATM    2  H1  UNL     1     -13.056  14.892  63.434  1.00  0.00     0.000 HD 
HETATM    3  C   UNL     1     -11.821  13.335  64.135  1.00  0.00    -0.443 A  
HETATM    4  H2  UNL     1     -13.093  13.447  62.633  1.00  0.00     0.000 HD 
HETATM    5  C   UNL     1     -11.060  12.227  63.769  1.00  0.00    -0.507 A  
HETATM    6  C   UNL     1     -10.502  11.390  64.745  1.00  0.00    -0.308 A  
HETATM    7 CL   UNL     1      -9.537  10.058  64.197  1.00  0.00    -0.332 Cl 
HETATM    8  C   UNL     1     -10.724  11.602  66.123  1.00  0.00    -0.278 A  
HETATM    9  C   UNL     1     -11.550  12.686  66.466  1.00  0.00    -0.381 A  
HETATM   10  C   UNL     1     -12.100  13.526  65.485  1.00  0.00    -0.454 A  
HETATM   11 CL   UNL     1     -12.061  12.988  68.097  1.00  0.00    -0.290 Cl 
ENDROOT
BRANCH   8  12
HETATM   12  N   UNL     1     -10.106  10.750  67.059  1.00  0.00    -0.200 NA 
HETATM   13  H   UNL     1     -10.636   9.905  67.276  1.00  0.00     0.000 HD 
BRANCH  12  14
HETATM   14  C   UNL     1      -8.931  10.858  67.721  1.00  0.00    -0.139 A  
HETATM   15  N   UNL     1      -8.711  11.792  68.606  1.00  0.00    -0.325 NA 
HETATM   16  H   UNL     1      -9.354  12.520  68.917  1.00  0.00     0.000 HD 
HETATM   17  C   UNL     1      -7.313  11.558  69.058  1.00  0.00    -0.094 A  
HETATM   18  C   UNL     1      -6.814  10.302  68.342  1.00  0.00    -0.061 A  
HETATM   19  N   UNL     1      -7.963   9.916  67.555  1.00  0.00    -0.105 NA 
ENDBRANCH  12  14
ENDBRANCH   8  12
TORSDOF 2
ENDMDL
MODEL       68
REMARK 921   NORMALIZED FREE ENERGY PREDICTED BY IDOCK:   -4.59 KCAL/MOL
REMARK 922        TOTAL FREE ENERGY PREDICTED BY IDOCK:   -5.31 KCAL/MOL
REMARK 923 INTER-LIGAND FREE ENERGY PREDICTED BY IDOCK:   -4.99 KCAL/MOL
REMARK 924 INTRA-LIGAND FREE ENERGY PREDICTED BY IDOCK:   -0.33 KCAL/MOL
REMARK 927      BINDING AFFINITY PREDICTED BY RF-SCORE:    0.00 PKD
ROOT
HETATM    1  N   UNL     1      -9.228   7.264  71.814  1.00  0.00    -0.142 NA 
HETATM    2  H1  UNL     1      -8.545   6.644  71.379  1.00  0.00     0.000 HD 
HETATM    3  C   UNL     1      -9.889   8.236  71.057  1.00  0.00    -0.187 A  
HETATM    4  H2  UNL     1      -9.931   6.689  72.278  1.00  0.00     0.000 HD 
HETATM    5  C   UNL     1     -10.822   9.082  71.651  1.00  0.00    -0.437 A  
HETATM    6  C   UNL     1     -11.594   9.954  70.870  1.00  0.00    -0.373 A  
HETATM    7 CL   UNL     1     -12.702  10.998  71.700  1.00  0.00    -0.506 Cl 
HETATM    8  C   UNL     1     -11.494   9.980  69.463  1.00  0.00    -0.120 A  
HETATM    9  C   UNL     1     -10.594   9.071  68.880  1.00  0.00    -0.180 A  
HETATM   10  C   UNL     1      -9.818   8.205  69.666  1.00  0.00    -0.184 A  
HETATM   11 CL   UNL     1     -10.470   8.852  67.163  1.00  0.00    -0.353 Cl 
ENDROOT
BRANCH   8  12
HETATM   12  N   UNL     1     -12.267  10.905  68.734  1.00  0.00    -0.793 NA 
HETATM   13  H   UNL     1     -13.216  10.591  68.526  1.00  0.00     0.000 HD 
BRANCH  12  14
HETATM   14  C   UNL     1     -11.970  12.138  68.263  1.00  0.00    -0.187 A  
HETATM   15  N   UNL     1     -11.608  13.117  69.047  1.00  0.00    -0.292 NA 
HETATM   16  H   UNL     1     -11.490  13.094  70.059  1.00  0.00     0.000 HD 
HETATM   17  C   UNL     1     -11.405  14.273  68.133  1.00  0.00    -0.288 A  
HETATM   18  C   UNL     1     -11.639  13.766  66.710  1.00  0.00    -0.370 A  
HETATM   19  N   UNL     1     -11.940  12.369  66.923  1.00  0.00    -0.575 NA 
ENDBRANCH  12  14
ENDBRANCH   8  12
TORSDOF 2
ENDMDL
MODEL       69
REMARK 921   NORMALIZED FREE ENERGY PREDICTED BY IDOCK:   -4.58 KCAL/MOL
REMARK 922        TOTAL FREE ENERGY PREDICTED BY IDOCK:   -5.30 KCAL/MOL
REMARK 923 INTER-LIGAND FREE ENERGY PREDICTED BY IDOCK:   -5.08 KCAL/MOL
REMARK 924 INTRA-LIGAND FREE ENERGY PREDICTED BY IDOCK:   -0.22 KCAL/MOL
REMARK 927      BINDING AFFINITY PREDICTED BY RF-SCORE:    0.00 PKD
ROOT
HETATM    1  N   UNL     1     -10.183  10.555  62.465  1.00  0.00    -0.718 NA 
HETATM    2  H1  UNL     1      -9.782   9.632  62.300  1.00  0.00     0.000 HD 
HETATM    3  C   UNL     1     -10.378  11.023  63.767  1.00  0.00    -0.364 A  
HETATM    4  H2  UNL     1      -9.622  11.242  61.960  1.00  0.00     0.000 HD 
HETATM    5  C   UNL     1     -10.925  12.283  63.992  1.00  0.00    -0.438 A  
HETATM    6  C   UNL     1     -10.984  12.816  65.287  1.00  0.00    -0.284 A  
HETATM    7 CL   UNL     1     -11.718  14.376  65.476  1.00  0.00    -0.347 Cl 
HETATM    8  C   UNL     1     -10.455  12.128  66.400  1.00  0.00    -0.230 A  
HETATM    9  C   UNL     1      -9.848  10.887  66.140  1.00  0.00    -0.222 A  
HETATM   10  C   UNL     1      -9.798  10.354  64.843  1.00  0.00    -0.400 A  
HETATM   11 CL   UNL     1      -9.001   9.990  67.361  1.00  0.00    -0.136 Cl 
ENDROOT
BRANCH   8  12
HETATM   12  N   UNL     1     -10.577  12.696  67.683  1.00  0.00    -0.216 NA 
HETATM   13  H   UNL     1      -9.978  13.506  67.846  1.00  0.00     0.000 HD 
BRANCH  12  14
HETATM   14  C   UNL     1     -11.352  12.353  68.738  1.00  0.00    -0.293 A  
HETATM   15  N   UNL     1     -11.501  13.128  69.778  1.00  0.00    -0.488 NA 
HETATM   16  H   UNL     1     -11.093  14.050  69.931  1.00  0.00     0.000 HD 
HETATM   17  C   UNL     1     -12.397  12.366  70.688  1.00  0.00    -0.279 A  
HETATM   18  C   UNL     1     -12.784  11.078  69.962  1.00  0.00    -0.093 A  
HETATM   19  N   UNL     1     -12.095  11.213  68.699  1.00  0.00    -0.575 NA 
ENDBRANCH  12  14
ENDBRANCH   8  12
TORSDOF 2
ENDMDL
MODEL       70
REMARK 921   NORMALIZED FREE ENERGY PREDICTED BY IDOCK:   -4.58 KCAL/MOL
REMARK 922        TOTAL FREE ENERGY PREDICTED BY IDOCK:   -5.30 KCAL/MOL
REMARK 923 INTER-LIGAND FREE ENERGY PREDICTED BY IDOCK:   -5.02 KCAL/MOL
REMARK 924 INTRA-LIGAND FREE ENERGY PREDICTED BY IDOCK:   -0.28 KCAL/MOL
REMARK 927      BINDING AFFINITY PREDICTED BY RF-SCORE:    0.00 PKD
ROOT
HETATM    1  N   UNL     1      -9.995  10.065  64.199  1.00  0.00    -0.466 NA 
HETATM    2  H1  UNL     1     -10.600   9.885  63.398  1.00  0.00     0.000 HD 
HETATM    3  C   UNL     1     -10.169  11.213  64.978  1.00  0.00    -0.296 A  
HETATM    4  H2  UNL     1     -10.030   9.253  64.815  1.00  0.00     0.000 HD 
HETATM    5  C   UNL     1      -9.342  11.458  66.071  1.00  0.00    -0.235 A  
HETATM    6  C   UNL     1      -9.606  12.525  66.941  1.00  0.00    -0.229 A  
HETATM    7 CL   UNL     1      -8.499  12.777  68.252  1.00  0.00    -0.172 Cl 
HETATM    8  C   UNL     1     -10.733  13.358  66.777  1.00  0.00    -0.277 A  
HETATM    9  C   UNL     1     -11.591  13.051  65.706  1.00  0.00    -0.356 A  
HETATM   10  C   UNL     1     -11.318  11.986  64.833  1.00  0.00    -0.366 A  
HETATM   11 CL   UNL     1     -13.104  13.864  65.461  1.00  0.00    -0.394 Cl 
ENDROOT
BRANCH   8  12
HETATM   12  N   UNL     1     -10.925  14.438  67.660  1.00  0.00    -0.280 NA 
HETATM   13  H   UNL     1     -10.488  15.311  67.363  1.00  0.00     0.000 HD 
BRANCH  12  14
HETATM   14  C   UNL     1     -11.591  14.519  68.836  1.00  0.00    -0.309 A  
HETATM   15  N   UNL     1     -12.105  15.636  69.273  1.00  0.00    -0.539 NA 
HETATM   16  H   UNL     1     -12.092  16.548  68.817  1.00  0.00     0.000 HD 
HETATM   17  C   UNL     1     -12.711  15.282  70.584  1.00  0.00    -0.416 A  
HETATM   18  C   UNL     1     -12.520  13.777  70.775  1.00  0.00    -0.370 A  
HETATM   19  N   UNL     1     -11.838  13.394  69.560  1.00  0.00    -0.316 NA 
ENDBRANCH  12  14
ENDBRANCH   8  12
TORSDOF 2
ENDMDL
MODEL       71
REMARK 921   NORMALIZED FREE ENERGY PREDICTED BY IDOCK:   -4.57 KCAL/MOL
REMARK 922        TOTAL FREE ENERGY PREDICTED BY IDOCK:   -5.29 KCAL/MOL
REMARK 923 INTER-LIGAND FREE ENERGY PREDICTED BY IDOCK:   -5.03 KCAL/MOL
REMARK 924 INTRA-LIGAND FREE ENERGY PREDICTED BY IDOCK:   -0.26 KCAL/MOL
REMARK 927      BINDING AFFINITY PREDICTED BY RF-SCORE:    0.00 PKD
ROOT
HETATM    1  N   UNL     1      -5.941  19.805  68.650  1.00  0.00    -0.230 NA 
HETATM    2  H1  UNL     1      -6.031  20.800  68.444  1.00  0.00     0.000 HD 
HETATM    3  C   UNL     1      -7.074  18.989  68.714  1.00  0.00    -0.318 A  
HETATM    4  H2  UNL     1      -5.291  19.397  67.979  1.00  0.00     0.000 HD 
HETATM    5  C   UNL     1      -6.951  17.631  68.996  1.00  0.00    -0.233 A  
HETATM    6  C   UNL     1      -8.063  16.781  68.914  1.00  0.00    -0.230 A  
HETATM    7 CL   UNL     1      -7.824  15.112  69.320  1.00  0.00    -0.195 Cl 
HETATM    8  C   UNL     1      -9.329  17.249  68.503  1.00  0.00    -0.276 A  
HETATM    9  C   UNL     1      -9.415  18.610  68.160  1.00  0.00    -0.325 A  
HETATM   10  C   UNL     1      -8.300  19.458  68.251  1.00  0.00    -0.379 A  
HETATM   11 CL   UNL     1     -10.847  19.310  67.476  1.00  0.00    -0.560 Cl 
ENDROOT
BRANCH   8  12
HETATM   12  N   UNL     1     -10.419  16.356  68.476  1.00  0.00    -0.274 NA 
HETATM   13  H   UNL     1     -10.575  15.907  67.574  1.00  0.00     0.000 HD 
BRANCH  12  14
HETATM   14  C   UNL     1     -11.294  15.992  69.442  1.00  0.00    -0.355 A  
HETATM   15  N   UNL     1     -12.348  15.264  69.191  1.00  0.00    -0.603 NA 
HETATM   16  H   UNL     1     -12.639  14.878  68.293  1.00  0.00     0.000 HD 
HETATM   17  C   UNL     1     -13.029  15.125  70.506  1.00  0.00    -0.321 A  
HETATM   18  C   UNL     1     -12.151  15.827  71.542  1.00  0.00    -0.454 A  
HETATM   19  N   UNL     1     -11.041  16.294  70.744  1.00  0.00    -0.278 NA 
ENDBRANCH  12  14
ENDBRANCH   8  12
TORSDOF 2
ENDMDL
MODEL       72
REMARK 921   NORMALIZED FREE ENERGY PREDICTED BY IDOCK:   -4.56 KCAL/MOL
REMARK 922        TOTAL FREE ENERGY PREDICTED BY IDOCK:   -5.28 KCAL/MOL
REMARK 923 INTER-LIGAND FREE ENERGY PREDICTED BY IDOCK:   -4.99 KCAL/MOL
REMARK 924 INTRA-LIGAND FREE ENERGY PREDICTED BY IDOCK:   -0.29 KCAL/MOL
REMARK 927      BINDING AFFINITY PREDICTED BY RF-SCORE:    0.00 PKD
ROOT
HETATM    1  N   UNL     1     -11.650  16.264  63.919  1.00  0.00    -1.573 NA 
HETATM    2  H1  UNL     1     -12.033  15.994  63.013  1.00  0.00     0.000 HD 
HETATM    3  C   UNL     1     -11.336  15.294  64.875  1.00  0.00    -0.384 A  
HETATM    4  H2  UNL     1     -10.819  16.834  63.757  1.00  0.00     0.000 HD 
HETATM    5  C   UNL     1     -10.813  15.663  66.111  1.00  0.00    -0.264 A  
HETATM    6  C   UNL     1     -10.358  14.692  67.013  1.00  0.00    -0.263 A  
HETATM    7 CL   UNL     1      -9.759  15.242  68.545  1.00  0.00    -0.205 Cl 
HETATM    8  C   UNL     1     -10.367  13.317  66.694  1.00  0.00    -0.274 A  
HETATM    9  C   UNL     1     -10.837  12.973  65.414  1.00  0.00    -0.284 A  
HETATM   10  C   UNL     1     -11.298  13.949  64.517  1.00  0.00    -0.381 A  
HETATM   11 CL   UNL     1     -10.758  11.353  64.798  1.00  0.00    -0.366 Cl 
ENDROOT
BRANCH   8  12
HETATM   12  N   UNL     1      -9.933  12.384  67.655  1.00  0.00    -0.197 NA 
HETATM   13  H   UNL     1     -10.681  11.973  68.214  1.00  0.00     0.000 HD 
BRANCH  12  14
HETATM   14  C   UNL     1      -8.694  11.937  67.966  1.00  0.00    -0.173 A  
HETATM   15  N   UNL     1      -8.119  12.206  69.107  1.00  0.00    -0.318 NA 
HETATM   16  H   UNL     1      -8.500  12.745  69.884  1.00  0.00     0.000 HD 
HETATM   17  C   UNL     1      -6.786  11.552  69.019  1.00  0.00    -0.107 A  
HETATM   18  C   UNL     1      -6.736  10.814  67.680  1.00  0.00    -0.069 A  
HETATM   19  N   UNL     1      -8.040  11.092  67.123  1.00  0.00    -0.132 NA 
ENDBRANCH  12  14
ENDBRANCH   8  12
TORSDOF 2
ENDMDL
MODEL       73
REMARK 921   NORMALIZED FREE ENERGY PREDICTED BY IDOCK:   -4.53 KCAL/MOL
REMARK 922        TOTAL FREE ENERGY PREDICTED BY IDOCK:   -5.25 KCAL/MOL
REMARK 923 INTER-LIGAND FREE ENERGY PREDICTED BY IDOCK:   -4.97 KCAL/MOL
REMARK 924 INTRA-LIGAND FREE ENERGY PREDICTED BY IDOCK:   -0.28 KCAL/MOL
REMARK 927      BINDING AFFINITY PREDICTED BY RF-SCORE:    0.00 PKD
ROOT
HETATM    1  N   UNL     1     -14.247   8.882  73.247  1.00  0.00    -1.237 NA 
HETATM    2  H1  UNL     1     -14.492   8.001  73.700  1.00  0.00     0.000 HD 
HETATM    3  C   UNL     1     -13.223   8.932  72.298  1.00  0.00    -0.447 A  
HETATM    4  H2  UNL     1     -15.091   9.269  72.826  1.00  0.00     0.000 HD 
HETATM    5  C   UNL     1     -12.889  10.135  71.680  1.00  0.00    -0.559 A  
HETATM    6  C   UNL     1     -11.969  10.164  70.624  1.00  0.00    -0.332 A  
HETATM    7 CL   UNL     1     -11.586  11.712  69.942  1.00  0.00    -0.376 Cl 
HETATM    8  C   UNL     1     -11.382   8.986  70.115  1.00  0.00    -0.121 A  
HETATM    9  C   UNL     1     -11.783   7.776  70.710  1.00  0.00    -0.225 A  
HETATM   10  C   UNL     1     -12.700   7.753  71.772  1.00  0.00    -0.354 A  
HETATM   11 CL   UNL     1     -11.291   6.229  70.098  1.00  0.00    -0.467 Cl 
ENDROOT
BRANCH   8  12
HETATM   12  N   UNL     1     -10.434   9.081  69.077  1.00  0.00    -0.223 NA 
HETATM   13  H   UNL     1     -10.823   8.985  68.139  1.00  0.00     0.000 HD 
BRANCH  12  14
HETATM   14  C   UNL     1      -9.096   9.277  69.109  1.00  0.00    -0.145 A  
HETATM   15  N   UNL     1      -8.377   9.377  68.024  1.00  0.00    -0.119 NA 
HETATM   16  H   UNL     1      -8.700   9.339  67.058  1.00  0.00     0.000 HD 
HETATM   17  C   UNL     1      -6.984   9.560  68.512  1.00  0.00    -0.065 A  
HETATM   18  C   UNL     1      -7.048   9.620  70.039  1.00  0.00    -0.104 A  
HETATM   19  N   UNL     1      -8.463   9.482  70.296  1.00  0.00    -0.197 NA 
ENDBRANCH  12  14
ENDBRANCH   8  12
TORSDOF 2
ENDMDL
MODEL       74
REMARK 921   NORMALIZED FREE ENERGY PREDICTED BY IDOCK:   -4.53 KCAL/MOL
REMARK 922        TOTAL FREE ENERGY PREDICTED BY IDOCK:   -5.25 KCAL/MOL
REMARK 923 INTER-LIGAND FREE ENERGY PREDICTED BY IDOCK:   -4.94 KCAL/MOL
REMARK 924 INTRA-LIGAND FREE ENERGY PREDICTED BY IDOCK:   -0.31 KCAL/MOL
REMARK 927      BINDING AFFINITY PREDICTED BY RF-SCORE:    0.00 PKD
ROOT
HETATM    1  N   UNL     1      -9.075   7.026  70.937  1.00  0.00    -0.152 NA 
HETATM    2  H1  UNL     1      -9.334   6.235  71.527  1.00  0.00     0.000 HD 
HETATM    3  C   UNL     1      -9.975   8.071  70.713  1.00  0.00    -0.188 A  
HETATM    4  H2  UNL     1      -8.208   7.423  71.299  1.00  0.00     0.000 HD 
HETATM    5  C   UNL     1      -9.620   9.150  69.908  1.00  0.00    -0.206 A  
HETATM    6  C   UNL     1     -10.459  10.268  69.801  1.00  0.00    -0.259 A  
HETATM    7 CL   UNL     1      -9.953  11.547  68.744  1.00  0.00    -0.198 Cl 
HETATM    8  C   UNL     1     -11.662  10.369  70.531  1.00  0.00    -0.344 A  
HETATM    9  C   UNL     1     -11.967   9.297  71.389  1.00  0.00    -0.351 A  
HETATM   10  C   UNL     1     -11.128   8.177  71.487  1.00  0.00    -0.302 A  
HETATM   11 CL   UNL     1     -13.315   9.334  72.481  1.00  0.00    -0.503 Cl 
ENDROOT
BRANCH   8  12
HETATM   12  N   UNL     1     -12.483  11.500  70.354  1.00  0.00    -0.270 NA 
HETATM   13  H   UNL     1     -13.135  11.430  69.573  1.00  0.00     0.000 HD 
BRANCH  12  14
HETATM   14  C   UNL     1     -12.556  12.663  71.041  1.00  0.00    -0.262 A  
HETATM   15  N   UNL     1     -11.846  13.710  70.720  1.00  0.00    -0.519 NA 
HETATM   16  H   UNL     1     -11.187  13.804  69.948  1.00  0.00     0.000 HD 
HETATM   17  C   UNL     1     -12.213  14.736  71.732  1.00  0.00    -0.347 A  
HETATM   18  C   UNL     1     -13.292  14.122  72.623  1.00  0.00    -0.541 A  
HETATM   19  N   UNL     1     -13.464  12.809  72.043  1.00  0.00    -0.494 NA 
ENDBRANCH  12  14
ENDBRANCH   8  12
TORSDOF 2
ENDMDL
MODEL       75
REMARK 921   NORMALIZED FREE ENERGY PREDICTED BY IDOCK:   -4.51 KCAL/MOL
REMARK 922        TOTAL FREE ENERGY PREDICTED BY IDOCK:   -5.22 KCAL/MOL
REMARK 923 INTER-LIGAND FREE ENERGY PREDICTED BY IDOCK:   -4.91 KCAL/MOL
REMARK 924 INTRA-LIGAND FREE ENERGY PREDICTED BY IDOCK:   -0.31 KCAL/MOL
REMARK 927      BINDING AFFINITY PREDICTED BY RF-SCORE:    0.00 PKD
ROOT
HETATM    1  N   UNL     1      -6.162  15.500  67.288  1.00  0.00    -0.322 NA 
HETATM    2  H1  UNL     1      -5.733  14.604  67.055  1.00  0.00     0.000 HD 
HETATM    3  C   UNL     1      -7.518  15.574  67.617  1.00  0.00    -0.167 A  
HETATM    4  H2  UNL     1      -5.626  15.922  68.046  1.00  0.00     0.000 HD 
HETATM    5  C   UNL     1      -8.102  16.798  67.934  1.00  0.00    -0.189 A  
HETATM    6  C   UNL     1      -9.420  16.858  68.408  1.00  0.00    -0.258 A  
HETATM    7 CL   UNL     1     -10.077  18.428  68.741  1.00  0.00    -0.409 Cl 
HETATM    8  C   UNL     1     -10.188  15.694  68.626  1.00  0.00    -0.212 A  
HETATM    9  C   UNL     1      -9.555  14.466  68.362  1.00  0.00    -0.219 A  
HETATM   10  C   UNL     1      -8.237  14.411  67.880  1.00  0.00    -0.157 A  
HETATM   11 CL   UNL     1     -10.291  12.940  68.734  1.00  0.00    -0.190 Cl 
ENDROOT
BRANCH   8  12
HETATM   12  N   UNL     1     -11.520  15.819  69.067  1.00  0.00    -0.367 NA 
HETATM   13  H   UNL     1     -12.194  16.012  68.326  1.00  0.00     0.000 HD 
BRANCH  12  14
HETATM   14  C   UNL     1     -12.059  15.726  70.304  1.00  0.00    -0.347 A  
HETATM   15  N   UNL     1     -13.322  15.460  70.498  1.00  0.00    -0.761 NA 
HETATM   16  H   UNL     1     -14.037  15.281  69.792  1.00  0.00     0.000 HD 
HETATM   17  C   UNL     1     -13.487  15.475  71.976  1.00  0.00    -0.482 A  
HETATM   18  C   UNL     1     -12.103  15.719  72.579  1.00  0.00    -0.489 A  
HETATM   19  N   UNL     1     -11.264  15.807  71.405  1.00  0.00    -0.341 NA 
ENDBRANCH  12  14
ENDBRANCH   8  12
TORSDOF 2
ENDMDL
MODEL       76
REMARK 921   NORMALIZED FREE ENERGY PREDICTED BY IDOCK:   -4.50 KCAL/MOL
REMARK 922        TOTAL FREE ENERGY PREDICTED BY IDOCK:   -5.21 KCAL/MOL
REMARK 923 INTER-LIGAND FREE ENERGY PREDICTED BY IDOCK:   -4.89 KCAL/MOL
REMARK 924 INTRA-LIGAND FREE ENERGY PREDICTED BY IDOCK:   -0.33 KCAL/MOL
REMARK 927      BINDING AFFINITY PREDICTED BY RF-SCORE:    0.00 PKD
ROOT
HETATM    1  N   UNL     1      -9.921   7.566  69.787  1.00  0.00    -0.184 NA 
HETATM    2  H1  UNL     1     -10.093   7.272  70.748  1.00  0.00     0.000 HD 
HETATM    3  C   UNL     1     -10.535   8.712  69.274  1.00  0.00    -0.217 A  
HETATM    4  H2  UNL     1      -8.914   7.659  69.657  1.00  0.00     0.000 HD 
HETATM    5  C   UNL     1     -10.300   9.113  67.962  1.00  0.00    -0.272 A  
HETATM    6  C   UNL     1     -10.792  10.339  67.491  1.00  0.00    -0.298 A  
HETATM    7 CL   UNL     1     -10.483  10.737  65.831  1.00  0.00    -0.297 Cl 
HETATM    8  C   UNL     1     -11.498  11.229  68.327  1.00  0.00    -0.308 A  
HETATM    9  C   UNL     1     -11.666  10.833  69.666  1.00  0.00    -0.323 A  
HETATM   10  C   UNL     1     -11.178   9.602  70.131  1.00  0.00    -0.302 A  
HETATM   11 CL   UNL     1     -12.359  11.877  70.866  1.00  0.00    -0.452 Cl 
ENDROOT
BRANCH   8  12
HETATM   12  N   UNL     1     -12.001  12.429  67.787  1.00  0.00    -0.461 NA 
HETATM   13  H   UNL     1     -12.860  12.322  67.247  1.00  0.00     0.000 HD 
BRANCH  12  14
HETATM   14  C   UNL     1     -11.543  13.699  67.863  1.00  0.00    -0.341 A  
HETATM   15  N   UNL     1     -12.265  14.676  68.342  1.00  0.00    -0.610 NA 
HETATM   16  H   UNL     1     -13.212  14.625  68.717  1.00  0.00     0.000 HD 
HETATM   17  C   UNL     1     -11.399  15.879  68.218  1.00  0.00    -0.342 A  
HETATM   18  C   UNL     1     -10.054  15.408  67.664  1.00  0.00    -0.236 A  
HETATM   19  N   UNL     1     -10.255  13.983  67.530  1.00  0.00    -0.243 NA 
ENDBRANCH  12  14
ENDBRANCH   8  12
TORSDOF 2
ENDMDL
MODEL       77
REMARK 921   NORMALIZED FREE ENERGY PREDICTED BY IDOCK:   -4.46 KCAL/MOL
REMARK 922        TOTAL FREE ENERGY PREDICTED BY IDOCK:   -5.17 KCAL/MOL
REMARK 923 INTER-LIGAND FREE ENERGY PREDICTED BY IDOCK:   -4.87 KCAL/MOL
REMARK 924 INTRA-LIGAND FREE ENERGY PREDICTED BY IDOCK:   -0.31 KCAL/MOL
REMARK 927      BINDING AFFINITY PREDICTED BY RF-SCORE:    0.00 PKD
ROOT
HETATM    1  N   UNL     1     -11.877  11.584  67.619  1.00  0.00    -0.629 NA 
HETATM    2  H1  UNL     1     -12.794  12.027  67.565  1.00  0.00     0.000 HD 
HETATM    3  C   UNL     1     -11.452  10.975  68.803  1.00  0.00    -0.305 A  
HETATM    4  H2  UNL     1     -11.808  10.900  66.866  1.00  0.00     0.000 HD 
HETATM    5  C   UNL     1     -10.200  10.369  68.877  1.00  0.00    -0.220 A  
HETATM    6  C   UNL     1      -9.831   9.630  70.009  1.00  0.00    -0.246 A  
HETATM    7 CL   UNL     1      -8.237   8.944  70.029  1.00  0.00    -0.113 Cl 
HETATM    8  C   UNL     1     -10.715   9.430  71.090  1.00  0.00    -0.347 A  
HETATM    9  C   UNL     1     -11.997   9.994  70.965  1.00  0.00    -0.376 A  
HETATM   10  C   UNL     1     -12.360  10.740  69.832  1.00  0.00    -0.340 A  
HETATM   11 CL   UNL     1     -13.260   9.704  72.119  1.00  0.00    -0.525 Cl 
ENDROOT
BRANCH   8  12
HETATM   12  N   UNL     1     -10.275   8.709  72.217  1.00  0.00    -0.322 NA 
HETATM   13  H   UNL     1      -9.765   9.268  72.903  1.00  0.00     0.000 HD 
BRANCH  12  14
HETATM   14  C   UNL     1     -10.410   7.405  72.549  1.00  0.00    -0.227 A  
HETATM   15  N   UNL     1     -10.734   7.020  73.753  1.00  0.00    -0.513 NA 
HETATM   16  H   UNL     1     -10.932   7.606  74.563  1.00  0.00     0.000 HD 
HETATM   17  C   UNL     1     -10.749   5.534  73.680  1.00  0.00    -0.282 A  
HETATM   18  C   UNL     1     -10.456   5.153  72.228  1.00  0.00    -0.219 A  
HETATM   19  N   UNL     1     -10.312   6.442  71.592  1.00  0.00    -0.203 NA 
ENDBRANCH  12  14
ENDBRANCH   8  12
TORSDOF 2
ENDMDL
MODEL       78
REMARK 921   NORMALIZED FREE ENERGY PREDICTED BY IDOCK:   -4.45 KCAL/MOL
REMARK 922        TOTAL FREE ENERGY PREDICTED BY IDOCK:   -5.15 KCAL/MOL
REMARK 923 INTER-LIGAND FREE ENERGY PREDICTED BY IDOCK:   -4.82 KCAL/MOL
REMARK 924 INTRA-LIGAND FREE ENERGY PREDICTED BY IDOCK:   -0.33 KCAL/MOL
REMARK 927      BINDING AFFINITY PREDICTED BY RF-SCORE:    0.00 PKD
ROOT
HETATM    1  N   UNL     1      -8.026   7.704  70.584  1.00  0.00    -0.098 NA 
HETATM    2  H1  UNL     1      -7.236   7.813  69.948  1.00  0.00     0.000 HD 
HETATM    3  C   UNL     1      -9.044   8.661  70.623  1.00  0.00    -0.171 A  
HETATM    4  H2  UNL     1      -8.451   6.793  70.412  1.00  0.00     0.000 HD 
HETATM    5  C   UNL     1     -10.122   8.512  71.491  1.00  0.00    -0.315 A  
HETATM    6  C   UNL     1     -11.216   9.386  71.429  1.00  0.00    -0.381 A  
HETATM    7 CL   UNL     1     -12.495   9.147  72.576  1.00  0.00    -0.332 Cl 
HETATM    8  C   UNL     1     -11.293  10.414  70.466  1.00  0.00    -0.341 A  
HETATM    9  C   UNL     1     -10.224  10.505  69.556  1.00  0.00    -0.200 A  
HETATM   10  C   UNL     1      -9.128   9.631  69.628  1.00  0.00    -0.224 A  
HETATM   11 CL   UNL     1     -10.237  11.597  68.209  1.00  0.00    -0.196 Cl 
ENDROOT
BRANCH   8  12
HETATM   12  N   UNL     1     -12.399  11.287  70.476  1.00  0.00    -0.352 NA 
HETATM   13  H   UNL     1     -13.198  10.962  69.932  1.00  0.00     0.000 HD 
BRANCH  12  14
HETATM   14  C   UNL     1     -12.584  12.481  71.084  1.00  0.00    -0.253 A  
HETATM   15  N   UNL     1     -11.981  13.568  70.686  1.00  0.00    -0.512 NA 
HETATM   16  H   UNL     1     -11.336  13.673  69.904  1.00  0.00     0.000 HD 
HETATM   17  C   UNL     1     -12.445  14.621  71.630  1.00  0.00    -0.345 A  
HETATM   18  C   UNL     1     -13.458  13.966  72.569  1.00  0.00    -0.572 A  
HETATM   19  N   UNL     1     -13.501  12.606  72.081  1.00  0.00    -0.531 NA 
ENDBRANCH  12  14
ENDBRANCH   8  12
TORSDOF 2
ENDMDL
MODEL       79
REMARK 921   NORMALIZED FREE ENERGY PREDICTED BY IDOCK:   -4.43 KCAL/MOL
REMARK 922        TOTAL FREE ENERGY PREDICTED BY IDOCK:   -5.14 KCAL/MOL
REMARK 923 INTER-LIGAND FREE ENERGY PREDICTED BY IDOCK:   -4.82 KCAL/MOL
REMARK 924 INTRA-LIGAND FREE ENERGY PREDICTED BY IDOCK:   -0.32 KCAL/MOL
REMARK 927      BINDING AFFINITY PREDICTED BY RF-SCORE:    0.00 PKD
ROOT
HETATM    1  N   UNL     1     -12.774  12.249  63.234  1.00  0.00    -0.821 NA 
HETATM    2  H1  UNL     1     -13.097  11.287  63.332  1.00  0.00     0.000 HD 
HETATM    3  C   UNL     1     -12.269  12.944  64.337  1.00  0.00    -0.417 A  
HETATM    4  H2  UNL     1     -12.076  12.278  62.491  1.00  0.00     0.000 HD 
HETATM    5  C   UNL     1     -11.829  14.258  64.203  1.00  0.00    -0.338 A  
HETATM    6  C   UNL     1     -11.185  14.907  65.266  1.00  0.00    -0.369 A  
HETATM    7 CL   UNL     1     -10.706  16.556  65.021  1.00  0.00    -0.321 Cl 
HETATM    8  C   UNL     1     -10.916  14.251  66.486  1.00  0.00    -0.316 A  
HETATM    9  C   UNL     1     -11.310  12.904  66.575  1.00  0.00    -0.318 A  
HETATM   10  C   UNL     1     -11.961  12.261  65.510  1.00  0.00    -0.387 A  
HETATM   11 CL   UNL     1     -10.908  11.904  67.934  1.00  0.00    -0.238 Cl 
ENDROOT
BRANCH   8  12
HETATM   12  N   UNL     1     -10.301  14.966  67.532  1.00  0.00    -0.238 NA 
HETATM   13  H   UNL     1     -10.931  15.573  68.057  1.00  0.00     0.000 HD 
BRANCH  12  14
HETATM   14  C   UNL     1      -9.017  14.988  67.960  1.00  0.00    -0.173 A  
HETATM   15  N   UNL     1      -8.703  14.983  69.227  1.00  0.00    -0.348 NA 
HETATM   16  H   UNL     1      -9.336  14.950  70.026  1.00  0.00     0.000 HD 
HETATM   17  C   UNL     1      -7.217  15.035  69.245  1.00  0.00    -0.179 A  
HETATM   18  C   UNL     1      -6.749  14.995  67.789  1.00  0.00    -0.168 A  
HETATM   19  N   UNL     1      -7.996  14.909  67.064  1.00  0.00    -0.189 NA 
ENDBRANCH  12  14
ENDBRANCH   8  12
TORSDOF 2
ENDMDL
MODEL       80
REMARK 921   NORMALIZED FREE ENERGY PREDICTED BY IDOCK:   -4.41 KCAL/MOL
REMARK 922        TOTAL FREE ENERGY PREDICTED BY IDOCK:   -5.11 KCAL/MOL
REMARK 923 INTER-LIGAND FREE ENERGY PREDICTED BY IDOCK:   -4.91 KCAL/MOL
REMARK 924 INTRA-LIGAND FREE ENERGY PREDICTED BY IDOCK:   -0.20 KCAL/MOL
REMARK 927      BINDING AFFINITY PREDICTED BY RF-SCORE:    0.00 PKD
ROOT
HETATM    1  N   UNL     1      -8.479   8.001  66.698  1.00  0.00    -0.128 NA 
HETATM    2  H1  UNL     1      -7.874   7.698  65.936  1.00  0.00     0.000 HD 
HETATM    3  C   UNL     1      -9.251   9.159  66.575  1.00  0.00    -0.175 A  
HETATM    4  H2  UNL     1      -9.099   7.228  66.939  1.00  0.00     0.000 HD 
HETATM    5  C   UNL     1     -10.078   9.572  67.617  1.00  0.00    -0.254 A  
HETATM    6  C   UNL     1     -10.963  10.645  67.444  1.00  0.00    -0.298 A  
HETATM    7 CL   UNL     1     -11.925  11.113  68.809  1.00  0.00    -0.389 Cl 
HETATM    8  C   UNL     1     -11.089  11.315  66.209  1.00  0.00    -0.166 A  
HETATM    9  C   UNL     1     -10.293  10.838  65.152  1.00  0.00    -0.271 A  
HETATM   10  C   UNL     1      -9.402   9.769  65.333  1.00  0.00    -0.311 A  
HETATM   11 CL   UNL     1     -10.444  11.434  63.529  1.00  0.00    -0.445 Cl 
ENDROOT
BRANCH   8  12
HETATM   12  N   UNL     1     -11.968  12.411  66.105  1.00  0.00    -0.608 NA 
HETATM   13  H   UNL     1     -12.913  12.228  66.442  1.00  0.00     0.000 HD 
BRANCH  12  14
HETATM   14  C   UNL     1     -11.775  13.665  65.636  1.00  0.00    -0.342 A  
HETATM   15  N   UNL     1     -12.580  14.219  64.771  1.00  0.00    -0.651 NA 
HETATM   16  H   UNL     1     -13.424  13.820  64.360  1.00  0.00     0.000 HD 
HETATM   17  C   UNL     1     -11.992  15.562  64.518  1.00  0.00    -0.170 A  
HETATM   18  C   UNL     1     -10.774  15.698  65.432  1.00  0.00    -0.408 A  
HETATM   19  N   UNL     1     -10.774  14.437  66.139  1.00  0.00    -0.298 NA 
ENDBRANCH  12  14
ENDBRANCH   8  12
TORSDOF 2
ENDMDL
MODEL       81
REMARK 921   NORMALIZED FREE ENERGY PREDICTED BY IDOCK:   -4.40 KCAL/MOL
REMARK 922        TOTAL FREE ENERGY PREDICTED BY IDOCK:   -5.10 KCAL/MOL
REMARK 923 INTER-LIGAND FREE ENERGY PREDICTED BY IDOCK:   -4.85 KCAL/MOL
REMARK 924 INTRA-LIGAND FREE ENERGY PREDICTED BY IDOCK:   -0.26 KCAL/MOL
REMARK 927      BINDING AFFINITY PREDICTED BY RF-SCORE:    0.00 PKD
ROOT
HETATM    1  N   UNL     1      -6.353  20.794  68.012  1.00  0.00    -0.314 NA 
HETATM    2  H1  UNL     1      -5.427  20.556  68.367  1.00  0.00     0.000 HD 
HETATM    3  C   UNL     1      -7.129  19.836  67.356  1.00  0.00    -0.219 A  
HETATM    4  H2  UNL     1      -6.901  21.176  68.782  1.00  0.00     0.000 HD 
HETATM    5  C   UNL     1      -8.394  20.161  66.871  1.00  0.00    -0.370 A  
HETATM    6  C   UNL     1      -9.235  19.170  66.347  1.00  0.00    -0.343 A  
HETATM    7 CL   UNL     1     -10.776  19.674  65.732  1.00  0.00    -0.579 Cl 
HETATM    8  C   UNL     1      -8.862  17.809  66.331  1.00  0.00    -0.231 A  
HETATM    9  C   UNL     1      -7.609  17.495  66.886  1.00  0.00    -0.213 A  
HETATM   10  C   UNL     1      -6.767  18.492  67.402  1.00  0.00    -0.205 A  
HETATM   11 CL   UNL     1      -7.067  15.860  67.099  1.00  0.00    -0.245 Cl 
ENDROOT
BRANCH   8  12
HETATM   12  N   UNL     1      -9.733  16.862  65.757  1.00  0.00    -0.548 NA 
HETATM   13  H   UNL     1      -9.899  16.992  64.758  1.00  0.00     0.000 HD 
BRANCH  12  14
HETATM   14  C   UNL     1     -10.387  15.810  66.301  1.00  0.00    -0.310 A  
HETATM   15  N   UNL     1     -10.334  14.612  65.785  1.00  0.00    -0.313 NA 
HETATM   16  H   UNL     1      -9.816  14.311  64.960  1.00  0.00     0.000 HD 
HETATM   17  C   UNL     1     -11.198  13.785  66.670  1.00  0.00    -0.318 A  
HETATM   18  C   UNL     1     -11.681  14.694  67.801  1.00  0.00    -0.359 A  
HETATM   19  N   UNL     1     -11.047  15.952  67.481  1.00  0.00    -0.281 NA 
ENDBRANCH  12  14
ENDBRANCH   8  12
TORSDOF 2
ENDMDL
MODEL       82
REMARK 921   NORMALIZED FREE ENERGY PREDICTED BY IDOCK:   -4.40 KCAL/MOL
REMARK 922        TOTAL FREE ENERGY PREDICTED BY IDOCK:   -5.10 KCAL/MOL
REMARK 923 INTER-LIGAND FREE ENERGY PREDICTED BY IDOCK:   -4.83 KCAL/MOL
REMARK 924 INTRA-LIGAND FREE ENERGY PREDICTED BY IDOCK:   -0.27 KCAL/MOL
REMARK 927      BINDING AFFINITY PREDICTED BY RF-SCORE:    0.00 PKD
ROOT
HETATM    1  N   UNL     1     -12.638  10.398  71.660  1.00  0.00    -0.419 NA 
HETATM    2  H1  UNL     1     -13.164  11.026  72.267  1.00  0.00     0.000 HD 
HETATM    3  C   UNL     1     -12.104  10.859  70.453  1.00  0.00    -0.363 A  
HETATM    4  H2  UNL     1     -11.882   9.985  72.206  1.00  0.00     0.000 HD 
HETATM    5  C   UNL     1     -11.386  10.001  69.624  1.00  0.00    -0.253 A  
HETATM    6  C   UNL     1     -10.723  10.492  68.491  1.00  0.00    -0.224 A  
HETATM    7 CL   UNL     1      -9.887   9.344  67.496  1.00  0.00    -0.204 Cl 
HETATM    8  C   UNL     1     -10.716  11.865  68.169  1.00  0.00    -0.215 A  
HETATM    9  C   UNL     1     -11.392  12.722  69.056  1.00  0.00    -0.294 A  
HETATM   10  C   UNL     1     -12.060  12.225  70.186  1.00  0.00    -0.364 A  
HETATM   11 CL   UNL     1     -11.340  14.450  68.905  1.00  0.00    -0.280 Cl 
ENDROOT
BRANCH   8  12
HETATM   12  N   UNL     1     -10.065  12.295  66.996  1.00  0.00    -0.212 NA 
HETATM   13  H   UNL     1      -9.137  12.691  67.148  1.00  0.00     0.000 HD 
BRANCH  12  14
HETATM   14  C   UNL     1     -10.458  12.274  65.701  1.00  0.00    -0.261 A  
HETATM   15  N   UNL     1      -9.645  11.962  64.729  1.00  0.00    -0.427 NA 
HETATM   16  H   UNL     1      -8.664  11.693  64.799  1.00  0.00     0.000 HD 
HETATM   17  C   UNL     1     -10.470  12.086  63.497  1.00  0.00    -0.464 A  
HETATM   18  C   UNL     1     -11.888  12.443  63.941  1.00  0.00    -0.466 A  
HETATM   19  N   UNL     1     -11.764  12.481  65.380  1.00  0.00    -0.379 NA 
ENDBRANCH  12  14
ENDBRANCH   8  12
TORSDOF 2
ENDMDL
MODEL       83
REMARK 921   NORMALIZED FREE ENERGY PREDICTED BY IDOCK:   -4.39 KCAL/MOL
REMARK 922        TOTAL FREE ENERGY PREDICTED BY IDOCK:   -5.09 KCAL/MOL
REMARK 923 INTER-LIGAND FREE ENERGY PREDICTED BY IDOCK:   -4.85 KCAL/MOL
REMARK 924 INTRA-LIGAND FREE ENERGY PREDICTED BY IDOCK:   -0.24 KCAL/MOL
REMARK 927      BINDING AFFINITY PREDICTED BY RF-SCORE:    0.00 PKD
ROOT
HETATM    1  N   UNL     1      -9.275  13.684  66.167  1.00  0.00    -0.490 NA 
HETATM    2  H1  UNL     1      -9.226  14.688  66.339  1.00  0.00     0.000 HD 
HETATM    3  C   UNL     1      -9.858  12.830  67.106  1.00  0.00    -0.216 A  
HETATM    4  H2  UNL     1      -9.738  13.536  65.270  1.00  0.00     0.000 HD 
HETATM    5  C   UNL     1      -9.924  11.459  66.870  1.00  0.00    -0.235 A  
HETATM    6  C   UNL     1     -10.638  10.619  67.735  1.00  0.00    -0.236 A  
HETATM    7 CL   UNL     1     -10.633   8.920  67.383  1.00  0.00    -0.343 Cl 
HETATM    8  C   UNL     1     -11.351  11.123  68.843  1.00  0.00    -0.278 A  
HETATM    9  C   UNL     1     -11.326  12.518  69.024  1.00  0.00    -0.290 A  
HETATM   10  C   UNL     1     -10.603  13.354  68.159  1.00  0.00    -0.255 A  
HETATM   11 CL   UNL     1     -12.282  13.318  70.230  1.00  0.00    -0.410 Cl 
ENDROOT
BRANCH   8  12
HETATM   12  N   UNL     1     -12.019  10.226  69.700  1.00  0.00    -0.481 NA 
HETATM   13  H   UNL     1     -13.021  10.143  69.526  1.00  0.00     0.000 HD 
BRANCH  12  14
HETATM   14  C   UNL     1     -11.562   9.456  70.713  1.00  0.00    -0.298 A  
HETATM   15  N   UNL     1     -10.327   9.515  71.133  1.00  0.00    -0.299 NA 
HETATM   16  H   UNL     1      -9.580  10.119  70.791  1.00  0.00     0.000 HD 
HETATM   17  C   UNL     1     -10.253   8.504  72.222  1.00  0.00    -0.325 A  
HETATM   18  C   UNL     1     -11.658   7.925  72.393  1.00  0.00    -0.380 A  
HETATM   19  N   UNL     1     -12.418   8.657  71.406  1.00  0.00    -0.311 NA 
ENDBRANCH  12  14
ENDBRANCH   8  12
TORSDOF 2
ENDMDL
MODEL       84
REMARK 921   NORMALIZED FREE ENERGY PREDICTED BY IDOCK:   -4.34 KCAL/MOL
REMARK 922        TOTAL FREE ENERGY PREDICTED BY IDOCK:   -5.04 KCAL/MOL
REMARK 923 INTER-LIGAND FREE ENERGY PREDICTED BY IDOCK:   -4.71 KCAL/MOL
REMARK 924 INTRA-LIGAND FREE ENERGY PREDICTED BY IDOCK:   -0.33 KCAL/MOL
REMARK 927      BINDING AFFINITY PREDICTED BY RF-SCORE:    0.00 PKD
ROOT
HETATM    1  N   UNL     1      -9.695  20.572  66.495  1.00  0.00    -0.646 NA 
HETATM    2  H1  UNL     1     -10.310  20.995  65.801  1.00  0.00     0.000 HD 
HETATM    3  C   UNL     1      -9.719  19.193  66.720  1.00  0.00    -0.338 A  
HETATM    4  H2  UNL     1      -8.736  20.843  66.279  1.00  0.00     0.000 HD 
HETATM    5  C   UNL     1      -8.879  18.617  67.669  1.00  0.00    -0.292 A  
HETATM    6  C   UNL     1      -8.792  17.223  67.793  1.00  0.00    -0.234 A  
HETATM    7 CL   UNL     1      -7.748  16.596  69.028  1.00  0.00    -0.236 Cl 
HETATM    8  C   UNL     1      -9.507  16.354  66.943  1.00  0.00    -0.235 A  
HETATM    9  C   UNL     1     -10.298  16.957  65.949  1.00  0.00    -0.315 A  
HETATM   10  C   UNL     1     -10.388  18.353  65.834  1.00  0.00    -0.322 A  
HETATM   11 CL   UNL     1     -11.107  16.041  64.718  1.00  0.00    -0.450 Cl 
ENDROOT
BRANCH   8  12
HETATM   12  N   UNL     1      -9.410  14.962  67.140  1.00  0.00    -0.210 NA 
HETATM   13  H   UNL     1      -8.515  14.558  66.864  1.00  0.00     0.000 HD 
BRANCH  12  14
HETATM   14  C   UNL     1     -10.299  14.069  67.632  1.00  0.00    -0.242 A  
HETATM   15  N   UNL     1     -10.753  14.136  68.854  1.00  0.00    -0.255 NA 
HETATM   16  H   UNL     1     -10.531  14.832  69.565  1.00  0.00     0.000 HD 
HETATM   17  C   UNL     1     -11.668  12.970  68.978  1.00  0.00    -0.329 A  
HETATM   18  C   UNL     1     -11.710  12.285  67.612  1.00  0.00    -0.334 A  
HETATM   19  N   UNL     1     -10.833  13.117  66.820  1.00  0.00    -0.274 NA 
ENDBRANCH  12  14
ENDBRANCH   8  12
TORSDOF 2
ENDMDL
MODEL       85
REMARK 921   NORMALIZED FREE ENERGY PREDICTED BY IDOCK:   -4.34 KCAL/MOL
REMARK 922        TOTAL FREE ENERGY PREDICTED BY IDOCK:   -5.04 KCAL/MOL
REMARK 923 INTER-LIGAND FREE ENERGY PREDICTED BY IDOCK:   -5.60 KCAL/MOL
REMARK 924 INTRA-LIGAND FREE ENERGY PREDICTED BY IDOCK:    0.57 KCAL/MOL
REMARK 927      BINDING AFFINITY PREDICTED BY RF-SCORE:    0.00 PKD
ROOT
HETATM    1  N   UNL     1      -9.494  18.046  66.282  1.00  0.00    -0.449 NA 
HETATM    2  H1  UNL     1      -9.429  17.943  65.270  1.00  0.00     0.000 HD 
HETATM    3  C   UNL     1     -10.248  17.146  67.040  1.00  0.00    -0.313 A  
HETATM    4  H2  UNL     1      -8.548  18.069  66.662  1.00  0.00     0.000 HD 
HETATM    5  C   UNL     1     -10.336  17.286  68.423  1.00  0.00    -0.366 A  
HETATM    6  C   UNL     1     -10.965  16.304  69.202  1.00  0.00    -0.324 A  
HETATM    7 CL   UNL     1     -11.062  16.583  70.911  1.00  0.00    -0.120 Cl 
HETATM    8  C   UNL     1     -11.487  15.124  68.633  1.00  0.00    -0.325 A  
HETATM    9  C   UNL     1     -11.328  14.972  67.243  1.00  0.00    -0.332 A  
HETATM   10  C   UNL     1     -10.704  15.962  66.467  1.00  0.00    -0.258 A  
HETATM   11 CL   UNL     1     -11.758  13.513  66.410  1.00  0.00    -0.379 Cl 
ENDROOT
BRANCH   8  12
HETATM   12  N   UNL     1     -12.142  14.191  69.460  1.00  0.00    -0.333 NA 
HETATM   13  H   UNL     1     -12.012  13.217  69.184  1.00  0.00     0.000 HD 
BRANCH  12  14
HETATM   14  C   UNL     1     -12.913  14.362  70.558  1.00  0.00    -0.227 A  
HETATM   15  N   UNL     1     -13.830  15.289  70.630  1.00  0.00    -0.775 NA 
HETATM   16  H   UNL     1     -14.091  15.965  69.912  1.00  0.00     0.000 HD 
HETATM   17  C   UNL     1     -14.409  15.139  71.992  1.00  0.00    -0.586 A  
HETATM   18  C   UNL     1     -13.722  13.937  72.641  1.00  0.00    -0.471 A  
HETATM   19  N   UNL     1     -12.824  13.492  71.600  1.00  0.00    -0.346 NA 
ENDBRANCH  12  14
ENDBRANCH   8  12
TORSDOF 2
ENDMDL
MODEL       86
REMARK 921   NORMALIZED FREE ENERGY PREDICTED BY IDOCK:   -4.34 KCAL/MOL
REMARK 922        TOTAL FREE ENERGY PREDICTED BY IDOCK:   -5.03 KCAL/MOL
REMARK 923 INTER-LIGAND FREE ENERGY PREDICTED BY IDOCK:   -5.30 KCAL/MOL
REMARK 924 INTRA-LIGAND FREE ENERGY PREDICTED BY IDOCK:    0.27 KCAL/MOL
REMARK 927      BINDING AFFINITY PREDICTED BY RF-SCORE:    0.00 PKD
ROOT
HETATM    1  N   UNL     1     -11.744   9.199  70.467  1.00  0.00    -0.428 NA 
HETATM    2  H1  UNL     1     -11.362   8.371  70.011  1.00  0.00     0.000 HD 
HETATM    3  C   UNL     1     -11.685  10.446  69.839  1.00  0.00    -0.264 A  
HETATM    4  H2  UNL     1     -12.716   9.010  70.710  1.00  0.00     0.000 HD 
HETATM    5  C   UNL     1     -12.207  11.577  70.463  1.00  0.00    -0.469 A  
HETATM    6  C   UNL     1     -12.285  12.798  69.778  1.00  0.00    -0.147 A  
HETATM    7 CL   UNL     1     -12.913  14.161  70.647  1.00  0.00    -0.346 Cl 
HETATM    8  C   UNL     1     -11.888  12.922  68.430  1.00  0.00    -0.318 A  
HETATM    9  C   UNL     1     -11.426  11.753  67.800  1.00  0.00    -0.311 A  
HETATM   10  C   UNL     1     -11.343  10.534  68.493  1.00  0.00    -0.320 A  
HETATM   11 CL   UNL     1     -11.058  11.689  66.106  1.00  0.00    -0.350 Cl 
ENDROOT
BRANCH   8  12
HETATM   12  N   UNL     1     -11.954  14.183  67.806  1.00  0.00    -0.476 NA 
HETATM   13  H   UNL     1     -12.013  14.972  68.451  1.00  0.00     0.000 HD 
BRANCH  12  14
HETATM   14  C   UNL     1     -11.951  14.530  66.498  1.00  0.00    -0.340 A  
HETATM   15  N   UNL     1     -12.926  14.214  65.689  1.00  0.00    -0.578 NA 
HETATM   16  H   UNL     1     -13.781  13.706  65.913  1.00  0.00     0.000 HD 
HETATM   17  C   UNL     1     -12.511  14.760  64.370  1.00  0.00    -0.252 A  
HETATM   18  C   UNL     1     -11.187  15.494  64.585  1.00  0.00    -0.371 A  
HETATM   19  N   UNL     1     -10.962  15.321  66.002  1.00  0.00    -0.332 NA 
ENDBRANCH  12  14
ENDBRANCH   8  12
TORSDOF 2
ENDMDL
MODEL       87
REMARK 921   NORMALIZED FREE ENERGY PREDICTED BY IDOCK:   -4.32 KCAL/MOL
REMARK 922        TOTAL FREE ENERGY PREDICTED BY IDOCK:   -5.02 KCAL/MOL
REMARK 923 INTER-LIGAND FREE ENERGY PREDICTED BY IDOCK:   -4.70 KCAL/MOL
REMARK 924 INTRA-LIGAND FREE ENERGY PREDICTED BY IDOCK:   -0.32 KCAL/MOL
REMARK 927      BINDING AFFINITY PREDICTED BY RF-SCORE:    0.00 PKD
ROOT
HETATM    1  N   UNL     1      -7.299  10.834  65.128  1.00  0.00    -0.357 NA 
HETATM    2  H1  UNL     1      -6.598  10.095  65.155  1.00  0.00     0.000 HD 
HETATM    3  C   UNL     1      -8.511  10.690  65.809  1.00  0.00    -0.178 A  
HETATM    4  H2  UNL     1      -6.861  11.702  65.437  1.00  0.00     0.000 HD 
HETATM    5  C   UNL     1      -9.468  11.700  65.772  1.00  0.00    -0.244 A  
HETATM    6  C   UNL     1     -10.617  11.625  66.571  1.00  0.00    -0.253 A  
HETATM    7 CL   UNL     1     -11.773  12.910  66.429  1.00  0.00    -0.427 Cl 
HETATM    8  C   UNL     1     -10.830  10.561  67.472  1.00  0.00    -0.301 A  
HETATM    9  C   UNL     1      -9.818   9.586  67.542  1.00  0.00    -0.167 A  
HETATM   10  C   UNL     1      -8.673   9.661  66.734  1.00  0.00    -0.144 A  
HETATM   11 CL   UNL     1      -9.838   8.305  68.712  1.00  0.00    -0.171 Cl 
ENDROOT
BRANCH   8  12
HETATM   12  N   UNL     1     -12.021  10.519  68.222  1.00  0.00    -0.784 NA 
HETATM   13  H   UNL     1     -12.817  10.113  67.730  1.00  0.00     0.000 HD 
BRANCH  12  14
HETATM   14  C   UNL     1     -12.293  10.925  69.484  1.00  0.00    -0.171 A  
HETATM   15  N   UNL     1     -12.757  10.114  70.395  1.00  0.00    -0.544 NA 
HETATM   16  H   UNL     1     -12.956   9.119  70.300  1.00  0.00     0.000 HD 
HETATM   17  C   UNL     1     -12.930  10.965  71.603  1.00  0.00    -0.464 A  
HETATM   18  C   UNL     1     -12.420  12.362  71.243  1.00  0.00    -0.170 A  
HETATM   19  N   UNL     1     -11.988  12.192  69.875  1.00  0.00    -0.325 NA 
ENDBRANCH  12  14
ENDBRANCH   8  12
TORSDOF 2
ENDMDL
MODEL       88
REMARK 921   NORMALIZED FREE ENERGY PREDICTED BY IDOCK:   -4.31 KCAL/MOL
REMARK 922        TOTAL FREE ENERGY PREDICTED BY IDOCK:   -5.00 KCAL/MOL
REMARK 923 INTER-LIGAND FREE ENERGY PREDICTED BY IDOCK:   -4.69 KCAL/MOL
REMARK 924 INTRA-LIGAND FREE ENERGY PREDICTED BY IDOCK:   -0.31 KCAL/MOL
REMARK 927      BINDING AFFINITY PREDICTED BY RF-SCORE:    0.00 PKD
ROOT
HETATM    1  N   UNL     1     -10.880  12.441  65.039  1.00  0.00    -0.285 NA 
HETATM    2  H1  UNL     1     -10.466  11.934  64.256  1.00  0.00     0.000 HD 
HETATM    3  C   UNL     1     -10.876  11.892  66.324  1.00  0.00    -0.282 A  
HETATM    4  H2  UNL     1     -10.449  13.364  65.085  1.00  0.00     0.000 HD 
HETATM    5  C   UNL     1     -11.441  12.584  67.391  1.00  0.00    -0.404 A  
HETATM    6  C   UNL     1     -11.306  12.108  68.703  1.00  0.00    -0.280 A  
HETATM    7 CL   UNL     1     -12.077  13.016  69.964  1.00  0.00    -0.393 Cl 
HETATM    8  C   UNL     1     -10.563  10.947  69.001  1.00  0.00    -0.216 A  
HETATM    9  C   UNL     1      -9.945  10.301  67.915  1.00  0.00    -0.164 A  
HETATM   10  C   UNL     1     -10.089  10.777  66.603  1.00  0.00    -0.265 A  
HETATM   11 CL   UNL     1      -8.860   8.963  68.122  1.00  0.00    -0.134 Cl 
ENDROOT
BRANCH   8  12
HETATM   12  N   UNL     1     -10.495  10.495  70.333  1.00  0.00    -0.383 NA 
HETATM   13  H   UNL     1      -9.831  11.003  70.918  1.00  0.00     0.000 HD 
BRANCH  12  14
HETATM   14  C   UNL     1     -11.158   9.504  70.972  1.00  0.00    -0.363 A  
HETATM   15  N   UNL     1     -12.364   9.137  70.631  1.00  0.00    -0.490 NA 
HETATM   16  H   UNL     1     -12.939   9.510  69.876  1.00  0.00     0.000 HD 
HETATM   17  C   UNL     1     -12.712   8.055  71.590  1.00  0.00    -0.326 A  
HETATM   18  C   UNL     1     -11.484   7.825  72.471  1.00  0.00    -0.373 A  
HETATM   19  N   UNL     1     -10.536   8.777  71.939  1.00  0.00    -0.336 NA 
ENDBRANCH  12  14
ENDBRANCH   8  12
TORSDOF 2
ENDMDL
MODEL       89
REMARK 921   NORMALIZED FREE ENERGY PREDICTED BY IDOCK:   -4.31 KCAL/MOL
REMARK 922        TOTAL FREE ENERGY PREDICTED BY IDOCK:   -5.00 KCAL/MOL
REMARK 923 INTER-LIGAND FREE ENERGY PREDICTED BY IDOCK:   -4.80 KCAL/MOL
REMARK 924 INTRA-LIGAND FREE ENERGY PREDICTED BY IDOCK:   -0.20 KCAL/MOL
REMARK 927      BINDING AFFINITY PREDICTED BY RF-SCORE:    0.00 PKD
ROOT
HETATM    1  N   UNL     1     -10.002  12.886  63.652  1.00  0.00    -0.709 NA 
HETATM    2  H1  UNL     1      -9.524  12.444  62.867  1.00  0.00     0.000 HD 
HETATM    3  C   UNL     1     -10.391  12.133  64.762  1.00  0.00    -0.288 A  
HETATM    4  H2  UNL     1      -9.428  13.663  63.979  1.00  0.00     0.000 HD 
HETATM    5  C   UNL     1     -11.044  12.737  65.834  1.00  0.00    -0.318 A  
HETATM    6  C   UNL     1     -11.301  12.019  67.010  1.00  0.00    -0.336 A  
HETATM    7 CL   UNL     1     -12.154  12.842  68.276  1.00  0.00    -0.270 Cl 
HETATM    8  C   UNL     1     -10.876  10.684  67.176  1.00  0.00    -0.270 A  
HETATM    9  C   UNL     1     -10.161  10.115  66.107  1.00  0.00    -0.246 A  
HETATM   10  C   UNL     1      -9.912  10.836  64.929  1.00  0.00    -0.374 A  
HETATM   11 CL   UNL     1      -9.421   8.549  66.210  1.00  0.00    -0.287 Cl 
ENDROOT
BRANCH   8  12
HETATM   12  N   UNL     1     -11.197  10.001  68.365  1.00  0.00    -0.490 NA 
HETATM   13  H   UNL     1     -12.171   9.706  68.433  1.00  0.00     0.000 HD 
BRANCH  12  14
HETATM   14  C   UNL     1     -10.437   9.669  69.434  1.00  0.00    -0.220 A  
HETATM   15  N   UNL     1      -9.133   9.723  69.407  1.00  0.00    -0.187 NA 
HETATM   16  H   UNL     1      -8.537  10.017  68.634  1.00  0.00     0.000 HD 
HETATM   17  C   UNL     1      -8.711   9.260  70.757  1.00  0.00    -0.217 A  
HETATM   18  C   UNL     1      -9.985   9.010  71.564  1.00  0.00    -0.321 A  
HETATM   19  N   UNL     1     -11.024   9.361  70.622  1.00  0.00    -0.265 NA 
ENDBRANCH  12  14
ENDBRANCH   8  12
TORSDOF 2
ENDMDL
MODEL       90
REMARK 921   NORMALIZED FREE ENERGY PREDICTED BY IDOCK:   -4.31 KCAL/MOL
REMARK 922        TOTAL FREE ENERGY PREDICTED BY IDOCK:   -5.00 KCAL/MOL
REMARK 923 INTER-LIGAND FREE ENERGY PREDICTED BY IDOCK:   -4.71 KCAL/MOL
REMARK 924 INTRA-LIGAND FREE ENERGY PREDICTED BY IDOCK:   -0.29 KCAL/MOL
REMARK 927      BINDING AFFINITY PREDICTED BY RF-SCORE:    0.00 PKD
ROOT
HETATM    1  N   UNL     1      -5.433  17.621  66.920  1.00  0.00    -0.137 NA 
HETATM    2  H1  UNL     1      -4.643  17.019  67.152  1.00  0.00     0.000 HD 
HETATM    3  C   UNL     1      -6.712  17.084  66.758  1.00  0.00    -0.230 A  
HETATM    4  H2  UNL     1      -5.484  18.363  67.619  1.00  0.00     0.000 HD 
HETATM    5  C   UNL     1      -7.790  17.907  66.442  1.00  0.00    -0.307 A  
HETATM    6  C   UNL     1      -9.096  17.399  66.426  1.00  0.00    -0.248 A  
HETATM    7 CL   UNL     1     -10.371  18.488  65.983  1.00  0.00    -0.446 Cl 
HETATM    8  C   UNL     1      -9.379  16.060  66.769  1.00  0.00    -0.238 A  
HETATM    9  C   UNL     1      -8.283  15.265  67.150  1.00  0.00    -0.219 A  
HETATM   10  C   UNL     1      -6.976  15.776  67.157  1.00  0.00    -0.204 A  
HETATM   11 CL   UNL     1      -8.470  13.652  67.762  1.00  0.00    -0.169 Cl 
ENDROOT
BRANCH   8  12
HETATM   12  N   UNL     1     -10.707  15.595  66.698  1.00  0.00    -0.308 NA 
HETATM   13  H   UNL     1     -11.327  15.977  67.412  1.00  0.00     0.000 HD 
BRANCH  12  14
HETATM   14  C   UNL     1     -11.301  14.729  65.845  1.00  0.00    -0.331 A  
HETATM   15  N   UNL     1     -10.931  14.609  64.599  1.00  0.00    -0.582 NA 
HETATM   16  H   UNL     1     -10.180  15.107  64.122  1.00  0.00     0.000 HD 
HETATM   17  C   UNL     1     -11.848  13.584  64.033  1.00  0.00    -0.427 A  
HETATM   18  C   UNL     1     -12.739  13.098  65.176  1.00  0.00    -0.405 A  
HETATM   19  N   UNL     1     -12.253  13.868  66.298  1.00  0.00    -0.455 NA 
ENDBRANCH  12  14
ENDBRANCH   8  12
TORSDOF 2
ENDMDL
MODEL       91
REMARK 921   NORMALIZED FREE ENERGY PREDICTED BY IDOCK:   -4.29 KCAL/MOL
REMARK 922        TOTAL FREE ENERGY PREDICTED BY IDOCK:   -4.98 KCAL/MOL
REMARK 923 INTER-LIGAND FREE ENERGY PREDICTED BY IDOCK:   -4.67 KCAL/MOL
REMARK 924 INTRA-LIGAND FREE ENERGY PREDICTED BY IDOCK:   -0.31 KCAL/MOL
REMARK 927      BINDING AFFINITY PREDICTED BY RF-SCORE:    0.00 PKD
ROOT
HETATM    1  N   UNL     1     -13.865  12.743  72.697  1.00  0.00    -0.676 NA 
HETATM    2  H1  UNL     1     -13.969  11.825  73.129  1.00  0.00     0.000 HD 
HETATM    3  C   UNL     1     -13.030  12.916  71.590  1.00  0.00    -0.313 A  
HETATM    4  H2  UNL     1     -14.793  13.088  72.454  1.00  0.00     0.000 HD 
HETATM    5  C   UNL     1     -12.888  14.169  71.000  1.00  0.00    -0.421 A  
HETATM    6  C   UNL     1     -12.173  14.319  69.804  1.00  0.00    -0.339 A  
HETATM    7 CL   UNL     1     -12.016  15.923  69.164  1.00  0.00    -0.346 Cl 
HETATM    8  C   UNL     1     -11.612  13.215  69.128  1.00  0.00    -0.316 A  
HETATM    9  C   UNL     1     -11.825  11.951  69.707  1.00  0.00    -0.340 A  
HETATM   10  C   UNL     1     -12.535  11.807  70.909  1.00  0.00    -0.416 A  
HETATM   11 CL   UNL     1     -11.352  10.476  68.924  1.00  0.00    -0.310 Cl 
ENDROOT
BRANCH   8  12
HETATM   12  N   UNL     1     -10.872  13.431  67.950  1.00  0.00    -0.242 NA 
HETATM   13  H   UNL     1     -11.420  13.383  67.091  1.00  0.00     0.000 HD 
BRANCH  12  14
HETATM   14  C   UNL     1      -9.558  13.692  67.760  1.00  0.00    -0.224 A  
HETATM   15  N   UNL     1      -8.649  12.755  67.777  1.00  0.00    -0.172 NA 
HETATM   16  H   UNL     1      -8.789  11.754  67.913  1.00  0.00     0.000 HD 
HETATM   17  C   UNL     1      -7.366  13.473  67.554  1.00  0.00    -0.164 A  
HETATM   18  C   UNL     1      -7.709  14.948  67.337  1.00  0.00    -0.204 A  
HETATM   19  N   UNL     1      -9.150  14.950  67.438  1.00  0.00    -0.183 NA 
ENDBRANCH  12  14
ENDBRANCH   8  12
TORSDOF 2
ENDMDL
MODEL       92
REMARK 921   NORMALIZED FREE ENERGY PREDICTED BY IDOCK:   -4.28 KCAL/MOL
REMARK 922        TOTAL FREE ENERGY PREDICTED BY IDOCK:   -4.97 KCAL/MOL
REMARK 923 INTER-LIGAND FREE ENERGY PREDICTED BY IDOCK:   -4.80 KCAL/MOL
REMARK 924 INTRA-LIGAND FREE ENERGY PREDICTED BY IDOCK:   -0.18 KCAL/MOL
REMARK 927      BINDING AFFINITY PREDICTED BY RF-SCORE:    0.00 PKD
ROOT
HETATM    1  N   UNL     1     -12.297  14.507  68.175  1.00  0.00    -0.588 NA 
HETATM    2  H1  UNL     1     -11.839  14.847  69.021  1.00  0.00     0.000 HD 
HETATM    3  C   UNL     1     -11.559  13.861  67.179  1.00  0.00    -0.364 A  
HETATM    4  H2  UNL     1     -13.065  13.897  68.450  1.00  0.00     0.000 HD 
HETATM    5  C   UNL     1     -12.184  13.398  66.024  1.00  0.00    -0.491 A  
HETATM    6  C   UNL     1     -11.481  12.619  65.095  1.00  0.00    -0.326 A  
HETATM    7 CL   UNL     1     -12.330  12.120  63.667  1.00  0.00    -0.653 Cl 
HETATM    8  C   UNL     1     -10.140  12.235  65.307  1.00  0.00    -0.271 A  
HETATM    9  C   UNL     1      -9.550  12.658  66.512  1.00  0.00    -0.248 A  
HETATM   10  C   UNL     1     -10.256  13.444  67.436  1.00  0.00    -0.237 A  
HETATM   11 CL   UNL     1      -7.971  12.136  67.009  1.00  0.00    -0.162 Cl 
ENDROOT
BRANCH   8  12
HETATM   12  N   UNL     1      -9.473  11.484  64.320  1.00  0.00    -0.413 NA 
HETATM   13  H   UNL     1      -9.480  11.907  63.391  1.00  0.00     0.000 HD 
BRANCH  12  14
HETATM   14  C   UNL     1      -8.825  10.299  64.391  1.00  0.00    -0.209 A  
HETATM   15  N   UNL     1      -9.312   9.273  65.033  1.00  0.00    -0.440 NA 
HETATM   16  H   UNL     1     -10.200   9.213  65.530  1.00  0.00     0.000 HD 
HETATM   17  C   UNL     1      -8.284   8.209  64.877  1.00  0.00    -0.147 A  
HETATM   18  C   UNL     1      -7.181   8.780  63.985  1.00  0.00    -0.095 A  
HETATM   19  N   UNL     1      -7.671  10.108  63.694  1.00  0.00    -0.150 NA 
ENDBRANCH  12  14
ENDBRANCH   8  12
TORSDOF 2
ENDMDL
MODEL       93
REMARK 921   NORMALIZED FREE ENERGY PREDICTED BY IDOCK:   -4.28 KCAL/MOL
REMARK 922        TOTAL FREE ENERGY PREDICTED BY IDOCK:   -4.97 KCAL/MOL
REMARK 923 INTER-LIGAND FREE ENERGY PREDICTED BY IDOCK:   -4.76 KCAL/MOL
REMARK 924 INTRA-LIGAND FREE ENERGY PREDICTED BY IDOCK:   -0.20 KCAL/MOL
REMARK 927      BINDING AFFINITY PREDICTED BY RF-SCORE:    0.00 PKD
ROOT
HETATM    1  N   UNL     1      -8.391  11.814  68.568  1.00  0.00    -0.225 NA 
HETATM    2  H1  UNL     1      -9.038  11.036  68.700  1.00  0.00     0.000 HD 
HETATM    3  C   UNL     1      -8.749  12.907  67.774  1.00  0.00    -0.188 A  
HETATM    4  H2  UNL     1      -8.118  12.162  69.486  1.00  0.00     0.000 HD 
HETATM    5  C   UNL     1      -7.866  13.969  67.593  1.00  0.00    -0.185 A  
HETATM    6  C   UNL     1      -8.274  15.131  66.924  1.00  0.00    -0.199 A  
HETATM    7 CL   UNL     1      -7.095  16.385  66.711  1.00  0.00    -0.252 Cl 
HETATM    8  C   UNL     1      -9.594  15.294  66.451  1.00  0.00    -0.292 A  
HETATM    9  C   UNL     1     -10.486  14.237  66.704  1.00  0.00    -0.278 A  
HETATM   10  C   UNL     1     -10.071  13.072  67.367  1.00  0.00    -0.231 A  
HETATM   11 CL   UNL     1     -12.180  14.341  66.343  1.00  0.00    -0.454 Cl 
ENDROOT
BRANCH   8  12
HETATM   12  N   UNL     1      -9.935  16.468  65.752  1.00  0.00    -0.506 NA 
HETATM   13  H   UNL     1      -9.956  16.365  64.737  1.00  0.00     0.000 HD 
BRANCH  12  14
HETATM   14  C   UNL     1     -10.242  17.709  66.194  1.00  0.00    -0.343 A  
HETATM   15  N   UNL     1     -10.704  18.639  65.403  1.00  0.00    -0.518 NA 
HETATM   16  H   UNL     1     -10.901  18.567  64.405  1.00  0.00     0.000 HD 
HETATM   17  C   UNL     1     -10.877  19.827  66.282  1.00  0.00    -0.283 A  
HETATM   18  C   UNL     1     -10.510  19.392  67.701  1.00  0.00    -0.457 A  
HETATM   19  N   UNL     1     -10.172  17.999  67.522  1.00  0.00    -0.352 NA 
ENDBRANCH  12  14
ENDBRANCH   8  12
TORSDOF 2
ENDMDL
MODEL       94
REMARK 921   NORMALIZED FREE ENERGY PREDICTED BY IDOCK:   -4.27 KCAL/MOL
REMARK 922        TOTAL FREE ENERGY PREDICTED BY IDOCK:   -4.96 KCAL/MOL
REMARK 923 INTER-LIGAND FREE ENERGY PREDICTED BY IDOCK:   -4.65 KCAL/MOL
REMARK 924 INTRA-LIGAND FREE ENERGY PREDICTED BY IDOCK:   -0.31 KCAL/MOL
REMARK 927      BINDING AFFINITY PREDICTED BY RF-SCORE:    0.00 PKD
ROOT
HETATM    1  N   UNL     1     -10.958  12.937  69.210  1.00  0.00    -0.436 NA 
HETATM    2  H1  UNL     1     -10.267  13.099  68.477  1.00  0.00     0.000 HD 
HETATM    3  C   UNL     1     -11.287  11.637  69.602  1.00  0.00    -0.236 A  
HETATM    4  H2  UNL     1     -10.673  13.458  70.039  1.00  0.00     0.000 HD 
HETATM    5  C   UNL     1     -12.230  11.417  70.602  1.00  0.00    -0.484 A  
HETATM    6  C   UNL     1     -12.453  10.127  71.103  1.00  0.00    -0.387 A  
HETATM    7 CL   UNL     1     -13.675   9.943  72.320  1.00  0.00    -0.359 Cl 
HETATM    8  C   UNL     1     -11.709   9.015  70.655  1.00  0.00    -0.198 A  
HETATM    9  C   UNL     1     -10.715   9.271  69.693  1.00  0.00    -0.230 A  
HETATM   10  C   UNL     1     -10.501  10.564  69.189  1.00  0.00    -0.250 A  
HETATM   11 CL   UNL     1      -9.600   8.054  69.159  1.00  0.00    -0.155 Cl 
ENDROOT
BRANCH   8  12
HETATM   12  N   UNL     1     -12.003   7.736  71.167  1.00  0.00    -0.299 NA 
HETATM   13  H   UNL     1     -12.772   7.259  70.695  1.00  0.00     0.000 HD 
BRANCH  12  14
HETATM   14  C   UNL     1     -11.443   7.031  72.176  1.00  0.00    -0.274 A  
HETATM   15  N   UNL     1     -11.526   5.731  72.251  1.00  0.00    -0.285 NA 
HETATM   16  H   UNL     1     -11.982   5.097  71.595  1.00  0.00     0.000 HD 
HETATM   17  C   UNL     1     -10.806   5.380  73.505  1.00  0.00    -0.293 A  
HETATM   18  C   UNL     1     -10.246   6.682  74.079  1.00  0.00    -0.369 A  
HETATM   19  N   UNL     1     -10.676   7.661  73.107  1.00  0.00    -0.389 NA 
ENDBRANCH  12  14
ENDBRANCH   8  12
TORSDOF 2
ENDMDL
MODEL       95
REMARK 921   NORMALIZED FREE ENERGY PREDICTED BY IDOCK:   -4.27 KCAL/MOL
REMARK 922        TOTAL FREE ENERGY PREDICTED BY IDOCK:   -4.95 KCAL/MOL
REMARK 923 INTER-LIGAND FREE ENERGY PREDICTED BY IDOCK:   -4.68 KCAL/MOL
REMARK 924 INTRA-LIGAND FREE ENERGY PREDICTED BY IDOCK:   -0.27 KCAL/MOL
REMARK 927      BINDING AFFINITY PREDICTED BY RF-SCORE:    0.00 PKD
ROOT
HETATM    1  N   UNL     1     -10.110   9.969  64.074  1.00  0.00    -0.442 NA 
HETATM    2  H1  UNL     1     -10.488   9.802  63.141  1.00  0.00     0.000 HD 
HETATM    3  C   UNL     1     -10.190  11.237  64.656  1.00  0.00    -0.301 A  
HETATM    4  H2  UNL     1     -10.531   9.297  64.714  1.00  0.00     0.000 HD 
HETATM    5  C   UNL     1      -9.674  11.464  65.929  1.00  0.00    -0.257 A  
HETATM    6  C   UNL     1      -9.884  12.690  66.577  1.00  0.00    -0.256 A  
HETATM    7 CL   UNL     1      -9.170  12.897  68.144  1.00  0.00    -0.210 Cl 
HETATM    8  C   UNL     1     -10.657  13.717  65.995  1.00  0.00    -0.290 A  
HETATM    9  C   UNL     1     -11.224  13.440  64.739  1.00  0.00    -0.345 A  
HETATM   10  C   UNL     1     -11.005  12.215  64.091  1.00  0.00    -0.416 A  
HETATM   11 CL   UNL     1     -12.336  14.521  63.960  1.00  0.00    -0.370 Cl 
ENDROOT
BRANCH   8  12
HETATM   12  N   UNL     1     -10.802  14.941  66.677  1.00  0.00    -0.314 NA 
HETATM   13  H   UNL     1     -11.689  15.048  67.169  1.00  0.00     0.000 HD 
BRANCH  12  14
HETATM   14  C   UNL     1      -9.967  15.999  66.792  1.00  0.00    -0.258 A  
HETATM   15  N   UNL     1      -9.367  16.531  65.762  1.00  0.00    -0.504 NA 
HETATM   16  H   UNL     1      -9.445  16.254  64.783  1.00  0.00     0.000 HD 
HETATM   17  C   UNL     1      -8.545  17.631  66.333  1.00  0.00    -0.238 A  
HETATM   18  C   UNL     1      -8.838  17.676  67.833  1.00  0.00    -0.246 A  
HETATM   19  N   UNL     1      -9.807  16.617  67.993  1.00  0.00    -0.240 NA 
ENDBRANCH  12  14
ENDBRANCH   8  12
TORSDOF 2
ENDMDL
MODEL       96
REMARK 921   NORMALIZED FREE ENERGY PREDICTED BY IDOCK:   -4.22 KCAL/MOL
REMARK 922        TOTAL FREE ENERGY PREDICTED BY IDOCK:   -4.90 KCAL/MOL
REMARK 923 INTER-LIGAND FREE ENERGY PREDICTED BY IDOCK:   -4.66 KCAL/MOL
REMARK 924 INTRA-LIGAND FREE ENERGY PREDICTED BY IDOCK:   -0.24 KCAL/MOL
REMARK 927      BINDING AFFINITY PREDICTED BY RF-SCORE:    0.00 PKD
ROOT
HETATM    1  N   UNL     1     -12.336  14.486  63.652  1.00  0.00    -1.104 NA 
HETATM    2  H1  UNL     1     -12.959  15.026  63.052  1.00  0.00     0.000 HD 
HETATM    3  C   UNL     1     -11.363  15.127  64.424  1.00  0.00    -0.203 A  
HETATM    4  H2  UNL     1     -12.907  13.911  64.271  1.00  0.00     0.000 HD 
HETATM    5  C   UNL     1     -10.511  14.389  65.243  1.00  0.00    -0.410 A  
HETATM    6  C   UNL     1      -9.637  15.034  66.129  1.00  0.00    -0.314 A  
HETATM    7 CL   UNL     1      -8.586  14.035  67.081  1.00  0.00    -0.225 Cl 
HETATM    8  C   UNL     1      -9.614  16.438  66.263  1.00  0.00    -0.311 A  
HETATM    9  C   UNL     1     -10.529  17.159  65.475  1.00  0.00    -0.144 A  
HETATM   10  C   UNL     1     -11.397  16.510  64.584  1.00  0.00    -0.073 A  
HETATM   11 CL   UNL     1     -10.751  18.872  65.638  1.00  0.00    -0.390 Cl 
ENDROOT
BRANCH   8  12
HETATM   12  N   UNL     1      -8.688  17.032  67.142  1.00  0.00    -0.205 NA 
HETATM   13  H   UNL     1      -8.910  16.918  68.131  1.00  0.00     0.000 HD 
BRANCH  12  14
HETATM   14  C   UNL     1      -7.552  17.728  66.902  1.00  0.00    -0.210 A  
HETATM   15  N   UNL     1      -7.189  18.078  65.698  1.00  0.00    -0.533 NA 
HETATM   16  H   UNL     1      -7.682  17.903  64.822  1.00  0.00     0.000 HD 
HETATM   17  C   UNL     1      -5.897  18.789  65.888  1.00  0.00    -0.170 A  
HETATM   18  C   UNL     1      -5.633  18.845  67.393  1.00  0.00    -0.161 A  
HETATM   19  N   UNL     1      -6.794  18.179  67.937  1.00  0.00    -0.208 NA 
ENDBRANCH  12  14
ENDBRANCH   8  12
TORSDOF 2
ENDMDL
MODEL       97
REMARK 921   NORMALIZED FREE ENERGY PREDICTED BY IDOCK:   -4.21 KCAL/MOL
REMARK 922        TOTAL FREE ENERGY PREDICTED BY IDOCK:   -4.89 KCAL/MOL
REMARK 923 INTER-LIGAND FREE ENERGY PREDICTED BY IDOCK:   -4.57 KCAL/MOL
REMARK 924 INTRA-LIGAND FREE ENERGY PREDICTED BY IDOCK:   -0.33 KCAL/MOL
REMARK 927      BINDING AFFINITY PREDICTED BY RF-SCORE:    0.00 PKD
ROOT
HETATM    1  N   UNL     1      -5.507  18.844  67.283  1.00  0.00    -0.157 NA 
HETATM    2  H1  UNL     1      -4.799  18.300  66.791  1.00  0.00     0.000 HD 
HETATM    3  C   UNL     1      -6.824  18.384  67.369  1.00  0.00    -0.198 A  
HETATM    4  H2  UNL     1      -5.170  19.025  68.229  1.00  0.00     0.000 HD 
HETATM    5  C   UNL     1      -7.790  19.127  68.042  1.00  0.00    -0.325 A  
HETATM    6  C   UNL     1      -9.072  18.603  68.259  1.00  0.00    -0.322 A  
HETATM    7 CL   UNL     1     -10.221  19.616  69.072  1.00  0.00    -0.453 Cl 
HETATM    8  C   UNL     1      -9.421  17.298  67.853  1.00  0.00    -0.266 A  
HETATM    9  C   UNL     1      -8.410  16.540  67.235  1.00  0.00    -0.174 A  
HETATM   10  C   UNL     1      -7.130  17.073  67.013  1.00  0.00    -0.228 A  
HETATM   11 CL   UNL     1      -8.616  14.867  66.828  1.00  0.00    -0.274 Cl 
ENDROOT
BRANCH   8  12
HETATM   12  N   UNL     1     -10.736  16.838  68.064  1.00  0.00    -0.352 NA 
HETATM   13  H   UNL     1     -11.417  17.178  67.385  1.00  0.00     0.000 HD 
BRANCH  12  14
HETATM   14  C   UNL     1     -11.251  16.023  69.013  1.00  0.00    -0.347 A  
HETATM   15  N   UNL     1     -11.341  16.379  70.266  1.00  0.00    -0.468 NA 
HETATM   16  H   UNL     1     -11.067  17.268  70.683  1.00  0.00     0.000 HD 
HETATM   17  C   UNL     1     -11.933  15.197  70.949  1.00  0.00    -0.328 A  
HETATM   18  C   UNL     1     -12.227  14.155  69.870  1.00  0.00    -0.359 A  
HETATM   19  N   UNL     1     -11.796  14.826  68.665  1.00  0.00    -0.316 NA 
ENDBRANCH  12  14
ENDBRANCH   8  12
TORSDOF 2
ENDMDL
MODEL       98
REMARK 921   NORMALIZED FREE ENERGY PREDICTED BY IDOCK:   -4.14 KCAL/MOL
REMARK 922        TOTAL FREE ENERGY PREDICTED BY IDOCK:   -4.81 KCAL/MOL
REMARK 923 INTER-LIGAND FREE ENERGY PREDICTED BY IDOCK:   -4.69 KCAL/MOL
REMARK 924 INTRA-LIGAND FREE ENERGY PREDICTED BY IDOCK:   -0.12 KCAL/MOL
REMARK 927      BINDING AFFINITY PREDICTED BY RF-SCORE:    0.00 PKD
ROOT
HETATM    1  N   UNL     1      -6.908  14.713  70.449  1.00  0.00    -0.316 NA 
HETATM    2  H1  UNL     1      -6.454  13.873  70.807  1.00  0.00     0.000 HD 
HETATM    3  C   UNL     1      -7.469  14.727  69.169  1.00  0.00    -0.153 A  
HETATM    4  H2  UNL     1      -7.625  14.998  71.115  1.00  0.00     0.000 HD 
HETATM    5  C   UNL     1      -8.088  15.874  68.681  1.00  0.00    -0.162 A  
HETATM    6  C   UNL     1      -8.782  15.848  67.463  1.00  0.00    -0.178 A  
HETATM    7 CL   UNL     1      -9.488  17.335  66.915  1.00  0.00    -0.252 Cl 
HETATM    8  C   UNL     1      -8.922  14.663  66.711  1.00  0.00    -0.257 A  
HETATM    9  C   UNL     1      -8.346  13.501  67.256  1.00  0.00    -0.179 A  
HETATM   10  C   UNL     1      -7.646  13.534  68.472  1.00  0.00    -0.129 A  
HETATM   11 CL   UNL     1      -8.568  11.932  66.551  1.00  0.00    -0.164 Cl 
ENDROOT
BRANCH   8  12
HETATM   12  N   UNL     1      -9.598  14.706  65.476  1.00  0.00    -0.520 NA 
HETATM   13  H   UNL     1      -9.325  15.481  64.871  1.00  0.00     0.000 HD 
BRANCH  12  14
HETATM   14  C   UNL     1     -10.547  13.896  64.952  1.00  0.00    -0.419 A  
HETATM   15  N   UNL     1     -10.405  13.311  63.794  1.00  0.00    -0.633 NA 
HETATM   16  H   UNL     1      -9.607  13.364  63.162  1.00  0.00     0.000 HD 
HETATM   17  C   UNL     1     -11.669  12.550  63.601  1.00  0.00    -0.515 A  
HETATM   18  C   UNL     1     -12.506  12.743  64.866  1.00  0.00    -0.497 A  
HETATM   19  N   UNL     1     -11.653  13.580  65.679  1.00  0.00    -0.317 NA 
ENDBRANCH  12  14
ENDBRANCH   8  12
TORSDOF 2
ENDMDL
MODEL       99
REMARK 921   NORMALIZED FREE ENERGY PREDICTED BY IDOCK:   -4.12 KCAL/MOL
REMARK 922        TOTAL FREE ENERGY PREDICTED BY IDOCK:   -4.79 KCAL/MOL
REMARK 923 INTER-LIGAND FREE ENERGY PREDICTED BY IDOCK:   -4.49 KCAL/MOL
REMARK 924 INTRA-LIGAND FREE ENERGY PREDICTED BY IDOCK:   -0.30 KCAL/MOL
REMARK 927      BINDING AFFINITY PREDICTED BY RF-SCORE:    0.00 PKD
ROOT
HETATM    1  N   UNL     1     -13.530  11.274  72.174  1.00  0.00    -0.528 NA 
HETATM    2  H1  UNL     1     -13.504  12.246  71.866  1.00  0.00     0.000 HD 
HETATM    3  C   UNL     1     -12.728  10.312  71.554  1.00  0.00    -0.452 A  
HETATM    4  H2  UNL     1     -13.340  11.251  73.175  1.00  0.00     0.000 HD 
HETATM    5  C   UNL     1     -12.764   8.985  71.975  1.00  0.00    -0.467 A  
HETATM    6  C   UNL     1     -11.856   8.048  71.461  1.00  0.00    -0.292 A  
HETATM    7 CL   UNL     1     -12.001   6.411  72.014  1.00  0.00    -0.384 Cl 
HETATM    8  C   UNL     1     -10.850   8.413  70.542  1.00  0.00    -0.232 A  
HETATM    9  C   UNL     1     -10.790   9.771  70.182  1.00  0.00    -0.291 A  
HETATM   10  C   UNL     1     -11.706  10.704  70.694  1.00  0.00    -0.454 A  
HETATM   11 CL   UNL     1      -9.516  10.420  69.199  1.00  0.00    -0.211 Cl 
ENDROOT
BRANCH   8  12
HETATM   12  N   UNL     1      -9.991   7.421  70.030  1.00  0.00    -0.183 NA 
HETATM   13  H   UNL     1      -9.131   7.290  70.564  1.00  0.00     0.000 HD 
BRANCH  12  14
HETATM   14  C   UNL     1     -10.108   6.611  68.953  1.00  0.00    -0.165 A  
HETATM   15  N   UNL     1      -9.684   5.377  68.956  1.00  0.00    -0.140 NA 
HETATM   16  H   UNL     1      -9.244   4.871  69.724  1.00  0.00     0.000 HD 
HETATM   17  C   UNL     1      -9.986   4.873  67.590  1.00  0.00    -0.141 A  
HETATM   18  C   UNL     1     -10.712   5.996  66.848  1.00  0.00    -0.334 A  
HETATM   19  N   UNL     1     -10.778   7.037  67.847  1.00  0.00    -0.218 NA 
ENDBRANCH  12  14
ENDBRANCH   8  12
TORSDOF 2
ENDMDL
MODEL      100
REMARK 921   NORMALIZED FREE ENERGY PREDICTED BY IDOCK:   -4.08 KCAL/MOL
REMARK 922        TOTAL FREE ENERGY PREDICTED BY IDOCK:   -4.74 KCAL/MOL
REMARK 923 INTER-LIGAND FREE ENERGY PREDICTED BY IDOCK:   -4.46 KCAL/MOL
REMARK 924 INTRA-LIGAND FREE ENERGY PREDICTED BY IDOCK:   -0.29 KCAL/MOL
REMARK 927      BINDING AFFINITY PREDICTED BY RF-SCORE:    0.00 PKD
ROOT
HETATM    1  N   UNL     1     -11.338   8.302  71.374  1.00  0.00    -0.253 NA 
HETATM    2  H1  UNL     1     -10.776   7.606  70.883  1.00  0.00     0.000 HD 
HETATM    3  C   UNL     1     -11.507   9.583  70.841  1.00  0.00    -0.334 A  
HETATM    4  H2  UNL     1     -12.261   7.903  71.546  1.00  0.00     0.000 HD 
HETATM    5  C   UNL     1     -12.274  10.532  71.511  1.00  0.00    -0.385 A  
HETATM    6  C   UNL     1     -12.570  11.764  70.912  1.00  0.00    -0.289 A  
HETATM    7 CL   UNL     1     -13.499  12.899  71.837  1.00  0.00    -0.525 Cl 
HETATM    8  C   UNL     1     -12.148  12.075  69.602  1.00  0.00    -0.230 A  
HETATM    9  C   UNL     1     -11.432  11.076  68.919  1.00  0.00    -0.296 A  
HETATM   10  C   UNL     1     -11.132   9.847  69.526  1.00  0.00    -0.255 A  
HETATM   11 CL   UNL     1     -10.986  11.226  67.249  1.00  0.00    -0.319 Cl 
ENDROOT
BRANCH   8  12
HETATM   12  N   UNL     1     -12.442  13.344  69.066  1.00  0.00    -0.046 NA 
HETATM   13  H   UNL     1     -13.386  13.436  68.690  1.00  0.00     0.000 HD 
BRANCH  12  14
HETATM   14  C   UNL     1     -11.689  14.463  68.964  1.00  0.00    -0.310 A  
HETATM   15  N   UNL     1     -12.188  15.610  68.591  1.00  0.00    -0.520 NA 
HETATM   16  H   UNL     1     -13.156  15.820  68.351  1.00  0.00     0.000 HD 
HETATM   17  C   UNL     1     -11.028  16.542  68.593  1.00  0.00    -0.344 A  
HETATM   18  C   UNL     1      -9.820  15.752  69.097  1.00  0.00    -0.247 A  
HETATM   19  N   UNL     1     -10.385  14.448  69.353  1.00  0.00    -0.101 NA 
ENDBRANCH  12  14
ENDBRANCH   8  12
TORSDOF 2
ENDMDL
MODEL      101
REMARK 921   NORMALIZED FREE ENERGY PREDICTED BY IDOCK:   -4.08 KCAL/MOL
REMARK 922        TOTAL FREE ENERGY PREDICTED BY IDOCK:   -4.74 KCAL/MOL
REMARK 923 INTER-LIGAND FREE ENERGY PREDICTED BY IDOCK:   -4.67 KCAL/MOL
REMARK 924 INTRA-LIGAND FREE ENERGY PREDICTED BY IDOCK:   -0.07 KCAL/MOL
REMARK 927      BINDING AFFINITY PREDICTED BY RF-SCORE:    0.00 PKD
ROOT
HETATM    1  N   UNL     1      -8.417   9.969  66.934  1.00  0.00    -0.125 NA 
HETATM    2  H1  UNL     1      -7.959   9.089  67.170  1.00  0.00     0.000 HD 
HETATM    3  C   UNL     1      -9.508  10.425  67.680  1.00  0.00    -0.148 A  
HETATM    4  H2  UNL     1      -7.709  10.704  66.924  1.00  0.00     0.000 HD 
HETATM    5  C   UNL     1     -10.132  11.627  67.358  1.00  0.00    -0.218 A  
HETATM    6  C   UNL     1     -11.127  12.160  68.189  1.00  0.00    -0.248 A  
HETATM    7 CL   UNL     1     -11.876  13.642  67.687  1.00  0.00    -0.396 Cl 
HETATM    8  C   UNL     1     -11.502  11.535  69.397  1.00  0.00    -0.309 A  
HETATM    9  C   UNL     1     -10.812  10.358  69.735  1.00  0.00    -0.292 A  
HETATM   10  C   UNL     1      -9.822   9.823  68.896  1.00  0.00    -0.177 A  
HETATM   11 CL   UNL     1     -11.028   9.556  71.259  1.00  0.00    -0.433 Cl 
ENDROOT
BRANCH   8  12
HETATM   12  N   UNL     1     -12.535  12.097  70.172  1.00  0.00    -0.103 NA 
HETATM   13  H   UNL     1     -13.446  11.654  70.049  1.00  0.00     0.000 HD 
BRANCH  12  14
HETATM   14  C   UNL     1     -12.528  13.125  71.052  1.00  0.00    -0.318 A  
HETATM   15  N   UNL     1     -11.726  14.147  70.927  1.00  0.00    -0.508 NA 
HETATM   16  H   UNL     1     -11.043  14.317  70.190  1.00  0.00     0.000 HD 
HETATM   17  C   UNL     1     -12.032  15.009  72.101  1.00  0.00    -0.375 A  
HETATM   18  C   UNL     1     -13.181  14.344  72.859  1.00  0.00    -0.517 A  
HETATM   19  N   UNL     1     -13.446  13.172  72.055  1.00  0.00    -0.502 NA 
ENDBRANCH  12  14
ENDBRANCH   8  12
TORSDOF 2
ENDMDL
MODEL      102
REMARK 921   NORMALIZED FREE ENERGY PREDICTED BY IDOCK:   -4.07 KCAL/MOL
REMARK 922        TOTAL FREE ENERGY PREDICTED BY IDOCK:   -4.74 KCAL/MOL
REMARK 923 INTER-LIGAND FREE ENERGY PREDICTED BY IDOCK:   -4.48 KCAL/MOL
REMARK 924 INTRA-LIGAND FREE ENERGY PREDICTED BY IDOCK:   -0.26 KCAL/MOL
REMARK 927      BINDING AFFINITY PREDICTED BY RF-SCORE:    0.00 PKD
ROOT
HETATM    1  N   UNL     1      -9.465   8.536  65.281  1.00  0.00    -0.364 NA 
HETATM    2  H1  UNL     1      -9.228   9.401  64.796  1.00  0.00     0.000 HD 
HETATM    3  C   UNL     1      -9.743   8.542  66.650  1.00  0.00    -0.249 A  
HETATM    4  H2  UNL     1     -10.253   8.105  64.797  1.00  0.00     0.000 HD 
HETATM    5  C   UNL     1     -10.067   7.360  67.311  1.00  0.00    -0.296 A  
HETATM    6  C   UNL     1     -10.491   7.383  68.647  1.00  0.00    -0.189 A  
HETATM    7 CL   UNL     1     -10.836   5.859  69.400  1.00  0.00    -0.408 Cl 
HETATM    8  C   UNL     1     -10.652   8.591  69.358  1.00  0.00    -0.195 A  
HETATM    9  C   UNL     1     -10.383   9.776  68.650  1.00  0.00    -0.201 A  
HETATM   10  C   UNL     1      -9.951   9.748  67.315  1.00  0.00    -0.242 A  
HETATM   11 CL   UNL     1     -10.689  11.349  69.315  1.00  0.00    -0.227 Cl 
ENDROOT
BRANCH   8  12
HETATM   12  N   UNL     1     -11.044   8.549  70.710  1.00  0.00    -0.250 NA 
HETATM   13  H   UNL     1     -10.272   8.476  71.372  1.00  0.00     0.000 HD 
BRANCH  12  14
HETATM   14  C   UNL     1     -12.269   8.589  71.282  1.00  0.00    -0.277 A  
HETATM   15  N   UNL     1     -13.203   7.723  70.996  1.00  0.00    -0.559 NA 
HETATM   16  H   UNL     1     -13.146   6.934  70.353  1.00  0.00     0.000 HD 
HETATM   17  C   UNL     1     -14.370   8.144  71.818  1.00  0.00    -0.484 A  
HETATM   18  C   UNL     1     -13.917   9.337  72.661  1.00  0.00    -0.250 A  
HETATM   19  N   UNL     1     -12.535   9.489  72.267  1.00  0.00    -0.285 NA 
ENDBRANCH  12  14
ENDBRANCH   8  12
TORSDOF 2
ENDMDL
MODEL      103
REMARK 921   NORMALIZED FREE ENERGY PREDICTED BY IDOCK:   -4.07 KCAL/MOL
REMARK 922        TOTAL FREE ENERGY PREDICTED BY IDOCK:   -4.74 KCAL/MOL
REMARK 923 INTER-LIGAND FREE ENERGY PREDICTED BY IDOCK:   -4.47 KCAL/MOL
REMARK 924 INTRA-LIGAND FREE ENERGY PREDICTED BY IDOCK:   -0.27 KCAL/MOL
REMARK 927      BINDING AFFINITY PREDICTED BY RF-SCORE:    0.00 PKD
ROOT
HETATM    1  N   UNL     1      -7.306  10.581  70.189  1.00  0.00    -0.414 NA 
HETATM    2  H1  UNL     1      -7.381   9.600  70.460  1.00  0.00     0.000 HD 
HETATM    3  C   UNL     1      -7.788  11.014  68.951  1.00  0.00    -0.138 A  
HETATM    4  H2  UNL     1      -7.740  11.147  70.917  1.00  0.00     0.000 HD 
HETATM    5  C   UNL     1      -7.686  12.353  68.582  1.00  0.00    -0.067 A  
HETATM    6  C   UNL     1      -8.299  12.819  67.411  1.00  0.00    -0.189 A  
HETATM    7 CL   UNL     1      -8.085  14.493  67.011  1.00  0.00    -0.188 Cl 
HETATM    8  C   UNL     1      -9.077  11.975  66.590  1.00  0.00    -0.205 A  
HETATM    9  C   UNL     1      -9.222  10.644  67.018  1.00  0.00    -0.151 A  
HETATM   10  C   UNL     1      -8.600  10.179  68.187  1.00  0.00    -0.118 A  
HETATM   11 CL   UNL     1     -10.278   9.519  66.223  1.00  0.00    -0.325 Cl 
ENDROOT
BRANCH   8  12
HETATM   12  N   UNL     1      -9.638  12.491  65.406  1.00  0.00    -0.456 NA 
HETATM   13  H   UNL     1      -9.129  12.246  64.556  1.00  0.00     0.000 HD 
BRANCH  12  14
HETATM   14  C   UNL     1     -10.735  13.256  65.200  1.00  0.00    -0.322 A  
HETATM   15  N   UNL     1     -10.733  14.277  64.387  1.00  0.00    -0.600 NA 
HETATM   16  H   UNL     1      -9.960  14.617  63.815  1.00  0.00     0.000 HD 
HETATM   17  C   UNL     1     -12.109  14.834  64.481  1.00  0.00    -0.446 A  
HETATM   18  C   UNL     1     -12.900  13.919  65.417  1.00  0.00    -0.427 A  
HETATM   19  N   UNL     1     -11.923  12.914  65.768  1.00  0.00    -0.421 NA 
ENDBRANCH  12  14
ENDBRANCH   8  12
TORSDOF 2
ENDMDL
MODEL      104
REMARK 921   NORMALIZED FREE ENERGY PREDICTED BY IDOCK:   -4.07 KCAL/MOL
REMARK 922        TOTAL FREE ENERGY PREDICTED BY IDOCK:   -4.73 KCAL/MOL
REMARK 923 INTER-LIGAND FREE ENERGY PREDICTED BY IDOCK:   -4.43 KCAL/MOL
REMARK 924 INTRA-LIGAND FREE ENERGY PREDICTED BY IDOCK:   -0.31 KCAL/MOL
REMARK 927      BINDING AFFINITY PREDICTED BY RF-SCORE:    0.00 PKD
ROOT
HETATM    1  N   UNL     1      -9.719   7.664  67.297  1.00  0.00    -0.157 NA 
HETATM    2  H1  UNL     1      -9.957   7.309  68.223  1.00  0.00     0.000 HD 
HETATM    3  C   UNL     1     -10.212   8.897  66.860  1.00  0.00    -0.276 A  
HETATM    4  H2  UNL     1      -8.703   7.679  67.212  1.00  0.00     0.000 HD 
HETATM    5  C   UNL     1      -9.886   9.381  65.596  1.00  0.00    -0.294 A  
HETATM    6  C   UNL     1     -10.253  10.678  65.211  1.00  0.00    -0.282 A  
HETATM    7 CL   UNL     1      -9.839  11.181  63.604  1.00  0.00    -0.343 Cl 
HETATM    8  C   UNL     1     -10.919  11.556  66.093  1.00  0.00    -0.266 A  
HETATM    9  C   UNL     1     -11.178  11.069  67.387  1.00  0.00    -0.285 A  
HETATM   10  C   UNL     1     -10.815   9.767  67.764  1.00  0.00    -0.306 A  
HETATM   11 CL   UNL     1     -11.833  12.069  68.644  1.00  0.00    -0.372 Cl 
ENDROOT
BRANCH   8  12
HETATM   12  N   UNL     1     -11.296  12.835  65.638  1.00  0.00    -0.307 NA 
HETATM   13  H   UNL     1     -12.199  12.865  65.164  1.00  0.00     0.000 HD 
BRANCH  12  14
HETATM   14  C   UNL     1     -10.668  14.030  65.722  1.00  0.00    -0.293 A  
HETATM   15  N   UNL     1      -9.560  14.192  66.393  1.00  0.00    -0.299 NA 
HETATM   16  H   UNL     1      -9.033  13.486  66.906  1.00  0.00     0.000 HD 
HETATM   17  C   UNL     1      -9.237  15.636  66.241  1.00  0.00    -0.330 A  
HETATM   18  C   UNL     1     -10.298  16.238  65.319  1.00  0.00    -0.219 A  
HETATM   19  N   UNL     1     -11.126  15.095  65.010  1.00  0.00    -0.398 NA 
ENDBRANCH  12  14
ENDBRANCH   8  12
TORSDOF 2
ENDMDL
MODEL      105
REMARK 921   NORMALIZED FREE ENERGY PREDICTED BY IDOCK:   -4.05 KCAL/MOL
REMARK 922        TOTAL FREE ENERGY PREDICTED BY IDOCK:   -4.72 KCAL/MOL
REMARK 923 INTER-LIGAND FREE ENERGY PREDICTED BY IDOCK:   -4.41 KCAL/MOL
REMARK 924 INTRA-LIGAND FREE ENERGY PREDICTED BY IDOCK:   -0.31 KCAL/MOL
REMARK 927      BINDING AFFINITY PREDICTED BY RF-SCORE:    0.00 PKD
ROOT
HETATM    1  N   UNL     1     -10.637  19.570  67.340  1.00  0.00    -0.473 NA 
HETATM    2  H1  UNL     1     -10.287  20.188  68.072  1.00  0.00     0.000 HD 
HETATM    3  C   UNL     1     -10.054  18.318  67.129  1.00  0.00    -0.356 A  
HETATM    4  H2  UNL     1     -11.637  19.436  67.487  1.00  0.00     0.000 HD 
HETATM    5  C   UNL     1     -10.533  17.475  66.129  1.00  0.00    -0.288 A  
HETATM    6  C   UNL     1     -10.053  16.163  66.011  1.00  0.00    -0.351 A  
HETATM    7 CL   UNL     1     -10.678  15.199  64.712  1.00  0.00    -0.400 Cl 
HETATM    8  C   UNL     1      -9.112  15.630  66.916  1.00  0.00    -0.236 A  
HETATM    9  C   UNL     1      -8.692  16.477  67.958  1.00  0.00    -0.189 A  
HETATM   10  C   UNL     1      -9.170  17.792  68.067  1.00  0.00    -0.273 A  
HETATM   11 CL   UNL     1      -7.672  15.930  69.250  1.00  0.00    -0.219 Cl 
ENDROOT
BRANCH   8  12
HETATM   12  N   UNL     1      -8.638  14.317  66.725  1.00  0.00    -0.415 NA 
HETATM   13  H   UNL     1      -7.819  14.247  66.120  1.00  0.00     0.000 HD 
BRANCH  12  14
HETATM   14  C   UNL     1      -9.081  13.132  67.205  1.00  0.00    -0.230 A  
HETATM   15  N   UNL     1      -9.052  12.838  68.476  1.00  0.00    -0.371 NA 
HETATM   16  H   UNL     1      -8.726  13.424  69.244  1.00  0.00     0.000 HD 
HETATM   17  C   UNL     1      -9.601  11.458  68.554  1.00  0.00    -0.189 A  
HETATM   18  C   UNL     1     -10.008  11.057  67.136  1.00  0.00    -0.187 A  
HETATM   19  N   UNL     1      -9.676  12.236  66.371  1.00  0.00    -0.230 NA 
ENDBRANCH  12  14
ENDBRANCH   8  12
TORSDOF 2
ENDMDL
MODEL      106
REMARK 921   NORMALIZED FREE ENERGY PREDICTED BY IDOCK:   -4.02 KCAL/MOL
REMARK 922        TOTAL FREE ENERGY PREDICTED BY IDOCK:   -4.68 KCAL/MOL
REMARK 923 INTER-LIGAND FREE ENERGY PREDICTED BY IDOCK:   -4.34 KCAL/MOL
REMARK 924 INTRA-LIGAND FREE ENERGY PREDICTED BY IDOCK:   -0.33 KCAL/MOL
REMARK 927      BINDING AFFINITY PREDICTED BY RF-SCORE:    0.00 PKD
ROOT
HETATM    1  N   UNL     1      -7.371   8.231  69.770  1.00  0.00    -0.063 NA 
HETATM    2  H1  UNL     1      -6.643   7.818  69.188  1.00  0.00     0.000 HD 
HETATM    3  C   UNL     1      -8.374   9.020  69.200  1.00  0.00    -0.123 A  
HETATM    4  H2  UNL     1      -7.817   7.484  70.302  1.00  0.00     0.000 HD 
HETATM    5  C   UNL     1      -9.368   9.584  69.996  1.00  0.00    -0.265 A  
HETATM    6  C   UNL     1     -10.457  10.249  69.414  1.00  0.00    -0.236 A  
HETATM    7 CL   UNL     1     -11.626  10.953  70.485  1.00  0.00    -0.418 Cl 
HETATM    8  C   UNL     1     -10.615  10.336  68.015  1.00  0.00    -0.231 A  
HETATM    9  C   UNL     1      -9.634   9.702  67.231  1.00  0.00    -0.164 A  
HETATM   10  C   UNL     1      -8.542   9.044  67.818  1.00  0.00    -0.121 A  
HETATM   11 CL   UNL     1      -9.764   9.567  65.507  1.00  0.00    -0.363 Cl 
ENDROOT
BRANCH   8  12
HETATM   12  N   UNL     1     -11.709  11.050  67.488  1.00  0.00    -0.547 NA 
HETATM   13  H   UNL     1     -12.599  10.552  67.530  1.00  0.00     0.000 HD 
BRANCH  12  14
HETATM   14  C   UNL     1     -11.784  12.283  66.936  1.00  0.00    -0.334 A  
HETATM   15  N   UNL     1     -11.788  12.472  65.645  1.00  0.00    -0.424 NA 
HETATM   16  H   UNL     1     -11.752  11.764  64.911  1.00  0.00     0.000 HD 
HETATM   17  C   UNL     1     -11.857  13.949  65.482  1.00  0.00    -0.362 A  
HETATM   18  C   UNL     1     -11.965  14.550  66.884  1.00  0.00    -0.346 A  
HETATM   19  N   UNL     1     -11.963  13.376  67.726  1.00  0.00    -0.347 NA 
ENDBRANCH  12  14
ENDBRANCH   8  12
TORSDOF 2
ENDMDL
MODEL      107
REMARK 921   NORMALIZED FREE ENERGY PREDICTED BY IDOCK:   -3.94 KCAL/MOL
REMARK 922        TOTAL FREE ENERGY PREDICTED BY IDOCK:   -4.58 KCAL/MOL
REMARK 923 INTER-LIGAND FREE ENERGY PREDICTED BY IDOCK:   -4.28 KCAL/MOL
REMARK 924 INTRA-LIGAND FREE ENERGY PREDICTED BY IDOCK:   -0.30 KCAL/MOL
REMARK 927      BINDING AFFINITY PREDICTED BY RF-SCORE:    0.00 PKD
ROOT
HETATM    1  N   UNL     1      -9.110   8.927  64.522  1.00  0.00    -0.419 NA 
HETATM    2  H1  UNL     1      -9.496   9.501  63.773  1.00  0.00     0.000 HD 
HETATM    3  C   UNL     1      -9.239   9.320  65.857  1.00  0.00    -0.219 A  
HETATM    4  H2  UNL     1      -9.489   7.984  64.429  1.00  0.00     0.000 HD 
HETATM    5  C   UNL     1      -8.712   8.536  66.879  1.00  0.00    -0.137 A  
HETATM    6  C   UNL     1      -8.968   8.847  68.222  1.00  0.00    -0.137 A  
HETATM    7 CL   UNL     1      -8.238   7.836  69.428  1.00  0.00    -0.129 Cl 
HETATM    8  C   UNL     1      -9.797   9.927  68.592  1.00  0.00    -0.158 A  
HETATM    9  C   UNL     1     -10.372  10.665  67.542  1.00  0.00    -0.214 A  
HETATM   10  C   UNL     1     -10.107  10.354  66.199  1.00  0.00    -0.299 A  
HETATM   11 CL   UNL     1     -11.545  11.914  67.814  1.00  0.00    -0.397 Cl 
ENDROOT
BRANCH   8  12
HETATM   12  N   UNL     1      -9.986  10.215  69.957  1.00  0.00    -0.396 NA 
HETATM   13  H   UNL     1      -9.277  10.826  70.363  1.00  0.00     0.000 HD 
BRANCH  12  14
HETATM   14  C   UNL     1     -10.947   9.821  70.824  1.00  0.00    -0.336 A  
HETATM   15  N   UNL     1     -10.750   8.880  71.707  1.00  0.00    -0.341 NA 
HETATM   16  H   UNL     1      -9.896   8.348  71.870  1.00  0.00     0.000 HD 
HETATM   17  C   UNL     1     -12.049   8.756  72.420  1.00  0.00    -0.309 A  
HETATM   18  C   UNL     1     -12.979   9.826  71.847  1.00  0.00    -0.440 A  
HETATM   19  N   UNL     1     -12.138  10.479  70.871  1.00  0.00    -0.351 NA 
ENDBRANCH  12  14
ENDBRANCH   8  12
TORSDOF 2
ENDMDL
MODEL      108
REMARK 921   NORMALIZED FREE ENERGY PREDICTED BY IDOCK:   -3.93 KCAL/MOL
REMARK 922        TOTAL FREE ENERGY PREDICTED BY IDOCK:   -4.58 KCAL/MOL
REMARK 923 INTER-LIGAND FREE ENERGY PREDICTED BY IDOCK:   -4.39 KCAL/MOL
REMARK 924 INTRA-LIGAND FREE ENERGY PREDICTED BY IDOCK:   -0.19 KCAL/MOL
REMARK 927      BINDING AFFINITY PREDICTED BY RF-SCORE:    0.00 PKD
ROOT
HETATM    1  N   UNL     1     -10.472   5.998  67.980  1.00  0.00    -0.206 NA 
HETATM    2  H1  UNL     1     -10.842   5.643  68.861  1.00  0.00     0.000 HD 
HETATM    3  C   UNL     1     -10.487   7.369  67.705  1.00  0.00    -0.232 A  
HETATM    4  H2  UNL     1      -9.514   5.663  67.877  1.00  0.00     0.000 HD 
HETATM    5  C   UNL     1      -9.981   7.854  66.502  1.00  0.00    -0.267 A  
HETATM    6  C   UNL     1      -9.856   9.233  66.284  1.00  0.00    -0.291 A  
HETATM    7 CL   UNL     1      -9.254   9.745  64.740  1.00  0.00    -0.300 Cl 
HETATM    8  C   UNL     1     -10.189  10.177  67.278  1.00  0.00    -0.222 A  
HETATM    9  C   UNL     1     -10.634   9.663  68.509  1.00  0.00    -0.220 A  
HETATM   10  C   UNL     1     -10.764   8.281  68.719  1.00  0.00    -0.076 A  
HETATM   11 CL   UNL     1     -10.922  10.671  69.891  1.00  0.00    -0.337 Cl 
ENDROOT
BRANCH   8  12
HETATM   12  N   UNL     1     -10.079  11.551  66.988  1.00  0.00    -0.206 NA 
HETATM   13  H   UNL     1      -9.333  12.031  67.493  1.00  0.00     0.000 HD 
BRANCH  12  14
HETATM   14  C   UNL     1     -10.791  12.345  66.156  1.00  0.00    -0.273 A  
HETATM   15  N   UNL     1     -12.096  12.354  66.146  1.00  0.00    -0.641 NA 
HETATM   16  H   UNL     1     -12.728  11.811  66.734  1.00  0.00     0.000 HD 
HETATM   17  C   UNL     1     -12.456  13.333  65.085  1.00  0.00    -0.470 A  
HETATM   18  C   UNL     1     -11.148  13.922  64.556  1.00  0.00    -0.366 A  
HETATM   19  N   UNL     1     -10.156  13.248  65.362  1.00  0.00    -0.281 NA 
ENDBRANCH  12  14
ENDBRANCH   8  12
TORSDOF 2
ENDMDL
MODEL      109
REMARK 921   NORMALIZED FREE ENERGY PREDICTED BY IDOCK:   -3.91 KCAL/MOL
REMARK 922        TOTAL FREE ENERGY PREDICTED BY IDOCK:   -4.55 KCAL/MOL
REMARK 923 INTER-LIGAND FREE ENERGY PREDICTED BY IDOCK:   -4.22 KCAL/MOL
REMARK 924 INTRA-LIGAND FREE ENERGY PREDICTED BY IDOCK:   -0.34 KCAL/MOL
REMARK 927      BINDING AFFINITY PREDICTED BY RF-SCORE:    0.00 PKD
ROOT
HETATM    1  N   UNL     1      -8.155   7.475  66.843  1.00  0.00    -0.114 NA 
HETATM    2  H1  UNL     1      -7.733   7.523  65.917  1.00  0.00     0.000 HD 
HETATM    3  C   UNL     1      -9.048   8.464  67.269  1.00  0.00    -0.137 A  
HETATM    4  H2  UNL     1      -8.614   6.569  66.940  1.00  0.00     0.000 HD 
HETATM    5  C   UNL     1      -9.624   8.398  68.534  1.00  0.00    -0.155 A  
HETATM    6  C   UNL     1     -10.630   9.301  68.908  1.00  0.00    -0.199 A  
HETATM    7 CL   UNL     1     -11.262   9.169  70.518  1.00  0.00    -0.297 Cl 
HETATM    8  C   UNL     1     -11.128  10.272  68.015  1.00  0.00    -0.274 A  
HETATM    9  C   UNL     1     -10.578  10.277  66.721  1.00  0.00    -0.185 A  
HETATM   10  C   UNL     1      -9.566   9.376  66.353  1.00  0.00    -0.285 A  
HETATM   11 CL   UNL     1     -11.191  11.288  65.451  1.00  0.00    -0.147 Cl 
ENDROOT
BRANCH   8  12
HETATM   12  N   UNL     1     -12.112  11.177  68.459  1.00  0.00    -0.710 NA 
HETATM   13  H   UNL     1     -13.068  10.823  68.404  1.00  0.00     0.000 HD 
BRANCH  12  14
HETATM   14  C   UNL     1     -12.009  12.435  68.946  1.00  0.00    -0.241 A  
HETATM   15  N   UNL     1     -11.814  12.680  70.214  1.00  0.00    -0.537 NA 
HETATM   16  H   UNL     1     -11.705  12.005  70.969  1.00  0.00     0.000 HD 
HETATM   17  C   UNL     1     -11.788  14.164  70.309  1.00  0.00    -0.303 A  
HETATM   18  C   UNL     1     -11.925  14.707  68.886  1.00  0.00    -0.274 A  
HETATM   19  N   UNL     1     -12.003  13.499  68.098  1.00  0.00    -0.361 NA 
ENDBRANCH  12  14
ENDBRANCH   8  12
TORSDOF 2
ENDMDL
MODEL      110
REMARK 921   NORMALIZED FREE ENERGY PREDICTED BY IDOCK:   -3.87 KCAL/MOL
REMARK 922        TOTAL FREE ENERGY PREDICTED BY IDOCK:   -4.51 KCAL/MOL
REMARK 923 INTER-LIGAND FREE ENERGY PREDICTED BY IDOCK:   -4.21 KCAL/MOL
REMARK 924 INTRA-LIGAND FREE ENERGY PREDICTED BY IDOCK:   -0.31 KCAL/MOL
REMARK 927      BINDING AFFINITY PREDICTED BY RF-SCORE:    0.00 PKD
ROOT
HETATM    1  N   UNL     1      -7.910   3.218  70.007  1.00  0.00    -0.046 NA 
HETATM    2  H1  UNL     1      -7.545   2.727  70.822  1.00  0.00     0.000 HD 
HETATM    3  C   UNL     1      -9.053   4.016  70.111  1.00  0.00    -0.117 A  
HETATM    4  H2  UNL     1      -7.159   3.786  69.614  1.00  0.00     0.000 HD 
HETATM    5  C   UNL     1      -9.551   4.687  68.997  1.00  0.00    -0.242 A  
HETATM    6  C   UNL     1     -10.604   5.603  69.127  1.00  0.00    -0.264 A  
HETATM    7 CL   UNL     1     -11.184   6.362  67.679  1.00  0.00    -0.374 Cl 
HETATM    8  C   UNL     1     -11.168   5.917  70.381  1.00  0.00    -0.237 A  
HETATM    9  C   UNL     1     -10.605   5.277  71.500  1.00  0.00    -0.184 A  
HETATM   10  C   UNL     1      -9.556   4.355  71.364  1.00  0.00    -0.234 A  
HETATM   11 CL   UNL     1     -11.062   5.672  73.127  1.00  0.00    -0.320 Cl 
ENDROOT
BRANCH   8  12
HETATM   12  N   UNL     1     -12.249   6.817  70.445  1.00  0.00    -0.585 NA 
HETATM   13  H   UNL     1     -13.136   6.437  70.112  1.00  0.00     0.000 HD 
BRANCH  12  14
HETATM   14  C   UNL     1     -12.316   8.098  70.873  1.00  0.00    -0.048 A  
HETATM   15  N   UNL     1     -11.654   9.063  70.296  1.00  0.00    -0.455 NA 
HETATM   16  H   UNL     1     -11.041   9.000  69.484  1.00  0.00     0.000 HD 
HETATM   17  C   UNL     1     -11.993  10.277  71.087  1.00  0.00    -0.376 A  
HETATM   18  C   UNL     1     -13.006   9.850  72.150  1.00  0.00    -0.379 A  
HETATM   19  N   UNL     1     -13.173   8.442  71.873  1.00  0.00    -0.345 NA 
ENDBRANCH  12  14
ENDBRANCH   8  12
TORSDOF 2
ENDMDL
MODEL      111
REMARK 921   NORMALIZED FREE ENERGY PREDICTED BY IDOCK:   -3.87 KCAL/MOL
REMARK 922        TOTAL FREE ENERGY PREDICTED BY IDOCK:   -4.51 KCAL/MOL
REMARK 923 INTER-LIGAND FREE ENERGY PREDICTED BY IDOCK:   -4.20 KCAL/MOL
REMARK 924 INTRA-LIGAND FREE ENERGY PREDICTED BY IDOCK:   -0.30 KCAL/MOL
REMARK 927      BINDING AFFINITY PREDICTED BY RF-SCORE:    0.00 PKD
ROOT
HETATM    1  N   UNL     1     -10.761   5.679  67.654  1.00  0.00    -0.216 NA 
HETATM    2  H1  UNL     1     -10.999   5.092  68.453  1.00  0.00     0.000 HD 
HETATM    3  C   UNL     1     -10.636   7.063  67.801  1.00  0.00    -0.233 A  
HETATM    4  H2  UNL     1      -9.898   5.322  67.242  1.00  0.00     0.000 HD 
HETATM    5  C   UNL     1     -10.310   7.864  66.709  1.00  0.00    -0.357 A  
HETATM    6  C   UNL     1     -10.037   9.228  66.881  1.00  0.00    -0.256 A  
HETATM    7 CL   UNL     1      -9.679  10.154  65.459  1.00  0.00    -0.320 Cl 
HETATM    8  C   UNL     1     -10.035   9.833  68.155  1.00  0.00    -0.154 A  
HETATM    9  C   UNL     1     -10.300   8.991  69.250  1.00  0.00    -0.219 A  
HETATM   10  C   UNL     1     -10.581   7.627  69.073  1.00  0.00    -0.186 A  
HETATM   11 CL   UNL     1     -10.171   9.531  70.894  1.00  0.00    -0.370 Cl 
ENDROOT
BRANCH   8  12
HETATM   12  N   UNL     1      -9.791  11.216  68.262  1.00  0.00    -0.182 NA 
HETATM   13  H   UNL     1      -8.805  11.467  68.338  1.00  0.00     0.000 HD 
BRANCH  12  14
HETATM   14  C   UNL     1     -10.639  12.270  68.280  1.00  0.00    -0.227 A  
HETATM   15  N   UNL     1     -11.029  12.834  69.391  1.00  0.00    -0.450 NA 
HETATM   16  H   UNL     1     -10.759  12.588  70.343  1.00  0.00     0.000 HD 
HETATM   17  C   UNL     1     -11.955  13.914  68.957  1.00  0.00    -0.364 A  
HETATM   18  C   UNL     1     -11.962  13.912  67.428  1.00  0.00    -0.401 A  
HETATM   19  N   UNL     1     -11.036  12.848  67.114  1.00  0.00    -0.266 NA 
ENDBRANCH  12  14
ENDBRANCH   8  12
TORSDOF 2
ENDMDL
MODEL      112
REMARK 921   NORMALIZED FREE ENERGY PREDICTED BY IDOCK:   -3.85 KCAL/MOL
REMARK 922        TOTAL FREE ENERGY PREDICTED BY IDOCK:   -4.49 KCAL/MOL
REMARK 923 INTER-LIGAND FREE ENERGY PREDICTED BY IDOCK:   -4.19 KCAL/MOL
REMARK 924 INTRA-LIGAND FREE ENERGY PREDICTED BY IDOCK:   -0.29 KCAL/MOL
REMARK 927      BINDING AFFINITY PREDICTED BY RF-SCORE:    0.00 PKD
ROOT
HETATM    1  N   UNL     1     -10.720  18.771  67.432  1.00  0.00    -0.449 NA 
HETATM    2  H1  UNL     1     -11.589  19.198  67.753  1.00  0.00     0.000 HD 
HETATM    3  C   UNL     1     -10.343  17.503  67.882  1.00  0.00    -0.371 A  
HETATM    4  H2  UNL     1     -10.727  18.759  66.413  1.00  0.00     0.000 HD 
HETATM    5  C   UNL     1      -9.156  16.921  67.444  1.00  0.00    -0.221 A  
HETATM    6  C   UNL     1      -8.848  15.594  67.773  1.00  0.00    -0.171 A  
HETATM    7 CL   UNL     1      -7.329  14.966  67.216  1.00  0.00    -0.218 Cl 
HETATM    8  C   UNL     1      -9.735  14.784  68.512  1.00  0.00    -0.218 A  
HETATM    9  C   UNL     1     -10.957  15.371  68.887  1.00  0.00    -0.261 A  
HETATM   10  C   UNL     1     -11.258  16.703  68.562  1.00  0.00    -0.239 A  
HETATM   11 CL   UNL     1     -12.228  14.470  69.650  1.00  0.00    -0.353 Cl 
ENDROOT
BRANCH   8  12
HETATM   12  N   UNL     1      -9.354  13.469  68.845  1.00  0.00    -0.392 NA 
HETATM   13  H   UNL     1      -8.608  13.408  69.538  1.00  0.00     0.000 HD 
BRANCH  12  14
HETATM   14  C   UNL     1      -9.808  12.273  68.405  1.00  0.00    -0.199 A  
HETATM   15  N   UNL     1     -10.127  11.304  69.219  1.00  0.00    -0.426 NA 
HETATM   16  H   UNL     1     -10.096  11.310  70.238  1.00  0.00     0.000 HD 
HETATM   17  C   UNL     1     -10.544  10.188  68.328  1.00  0.00    -0.226 A  
HETATM   18  C   UNL     1     -10.479  10.712  66.893  1.00  0.00    -0.249 A  
HETATM   19  N   UNL     1     -10.047  12.078  67.080  1.00  0.00    -0.201 NA 
ENDBRANCH  12  14
ENDBRANCH   8  12
TORSDOF 2
ENDMDL
MODEL      113
REMARK 921   NORMALIZED FREE ENERGY PREDICTED BY IDOCK:   -3.84 KCAL/MOL
REMARK 922        TOTAL FREE ENERGY PREDICTED BY IDOCK:   -4.48 KCAL/MOL
REMARK 923 INTER-LIGAND FREE ENERGY PREDICTED BY IDOCK:   -4.23 KCAL/MOL
REMARK 924 INTRA-LIGAND FREE ENERGY PREDICTED BY IDOCK:   -0.25 KCAL/MOL
REMARK 927      BINDING AFFINITY PREDICTED BY RF-SCORE:    0.00 PKD
ROOT
HETATM    1  N   UNL     1      -9.627   6.934  73.029  1.00  0.00    -0.150 NA 
HETATM    2  H1  UNL     1     -10.048   7.130  73.937  1.00  0.00     0.000 HD 
HETATM    3  C   UNL     1     -10.125   7.535  71.870  1.00  0.00    -0.172 A  
HETATM    4  H2  UNL     1      -8.629   7.136  73.090  1.00  0.00     0.000 HD 
HETATM    5  C   UNL     1      -9.549   7.267  70.631  1.00  0.00    -0.172 A  
HETATM    6  C   UNL     1      -9.946   7.979  69.490  1.00  0.00    -0.186 A  
HETATM    7 CL   UNL     1      -9.202   7.551  67.984  1.00  0.00    -0.137 Cl 
HETATM    8  C   UNL     1     -10.899   9.017  69.554  1.00  0.00    -0.166 A  
HETATM    9  C   UNL     1     -11.418   9.316  70.827  1.00  0.00    -0.292 A  
HETATM   10  C   UNL     1     -11.024   8.595  71.965  1.00  0.00    -0.432 A  
HETATM   11 CL   UNL     1     -12.469  10.667  71.111  1.00  0.00    -0.485 Cl 
ENDROOT
BRANCH   8  12
HETATM   12  N   UNL     1     -11.286   9.672  68.369  1.00  0.00    -0.502 NA 
HETATM   13  H   UNL     1     -11.878   9.115  67.752  1.00  0.00     0.000 HD 
BRANCH  12  14
HETATM   14  C   UNL     1     -11.009  10.912  67.906  1.00  0.00    -0.271 A  
HETATM   15  N   UNL     1      -9.919  11.183  67.240  1.00  0.00    -0.182 NA 
HETATM   16  H   UNL     1      -9.173  10.539  66.977  1.00  0.00     0.000 HD 
HETATM   17  C   UNL     1     -10.007  12.639  66.952  1.00  0.00    -0.230 A  
HETATM   18  C   UNL     1     -11.351  13.124  67.496  1.00  0.00    -0.298 A  
HETATM   19  N   UNL     1     -11.924  11.911  68.035  1.00  0.00    -0.553 NA 
ENDBRANCH  12  14
ENDBRANCH   8  12
TORSDOF 2
ENDMDL
MODEL      114
REMARK 921   NORMALIZED FREE ENERGY PREDICTED BY IDOCK:   -3.84 KCAL/MOL
REMARK 922        TOTAL FREE ENERGY PREDICTED BY IDOCK:   -4.47 KCAL/MOL
REMARK 923 INTER-LIGAND FREE ENERGY PREDICTED BY IDOCK:   -4.25 KCAL/MOL
REMARK 924 INTRA-LIGAND FREE ENERGY PREDICTED BY IDOCK:   -0.22 KCAL/MOL
REMARK 927      BINDING AFFINITY PREDICTED BY RF-SCORE:    0.00 PKD
ROOT
HETATM    1  N   UNL     1      -7.424   9.429  69.850  1.00  0.00    -0.086 NA 
HETATM    2  H1  UNL     1      -7.684   8.613  70.405  1.00  0.00     0.000 HD 
HETATM    3  C   UNL     1      -8.406  10.265  69.313  1.00  0.00    -0.163 A  
HETATM    4  H2  UNL     1      -6.786  10.001  70.404  1.00  0.00     0.000 HD 
HETATM    5  C   UNL     1      -8.050  11.379  68.556  1.00  0.00    -0.149 A  
HETATM    6  C   UNL     1      -9.021  12.301  68.142  1.00  0.00    -0.192 A  
HETATM    7 CL   UNL     1      -8.490  13.636  67.171  1.00  0.00    -0.207 Cl 
HETATM    8  C   UNL     1     -10.377  12.169  68.508  1.00  0.00    -0.221 A  
HETATM    9  C   UNL     1     -10.703  11.074  69.328  1.00  0.00    -0.222 A  
HETATM   10  C   UNL     1      -9.728  10.149  69.734  1.00  0.00    -0.232 A  
HETATM   11 CL   UNL     1     -12.284  10.856  70.007  1.00  0.00    -0.403 Cl 
ENDROOT
BRANCH   8  12
HETATM   12  N   UNL     1     -11.314  13.107  68.031  1.00  0.00    -0.274 NA 
HETATM   13  H   UNL     1     -11.665  13.752  68.739  1.00  0.00     0.000 HD 
BRANCH  12  14
HETATM   14  C   UNL     1     -11.830  13.299  66.795  1.00  0.00    -0.394 A  
HETATM   15  N   UNL     1     -11.967  14.487  66.272  1.00  0.00    -0.361 NA 
HETATM   16  H   UNL     1     -11.711  15.383  66.685  1.00  0.00     0.000 HD 
HETATM   17  C   UNL     1     -12.581  14.241  64.940  1.00  0.00    -0.324 A  
HETATM   18  C   UNL     1     -12.696  12.726  64.771  1.00  0.00    -0.393 A  
HETATM   19  N   UNL     1     -12.129  12.232  66.005  1.00  0.00    -0.630 NA 
ENDBRANCH  12  14
ENDBRANCH   8  12
TORSDOF 2
ENDMDL
MODEL      115
REMARK 921   NORMALIZED FREE ENERGY PREDICTED BY IDOCK:   -3.83 KCAL/MOL
REMARK 922        TOTAL FREE ENERGY PREDICTED BY IDOCK:   -4.46 KCAL/MOL
REMARK 923 INTER-LIGAND FREE ENERGY PREDICTED BY IDOCK:   -4.17 KCAL/MOL
REMARK 924 INTRA-LIGAND FREE ENERGY PREDICTED BY IDOCK:   -0.29 KCAL/MOL
REMARK 927      BINDING AFFINITY PREDICTED BY RF-SCORE:    0.00 PKD
ROOT
HETATM    1  N   UNL     1     -12.247  14.809  70.112  1.00  0.00    -0.321 NA 
HETATM    2  H1  UNL     1     -12.180  13.830  70.391  1.00  0.00     0.000 HD 
HETATM    3  C   UNL     1     -11.314  15.361  69.230  1.00  0.00    -0.315 A  
HETATM    4  H2  UNL     1     -13.179  14.969  69.732  1.00  0.00     0.000 HD 
HETATM    5  C   UNL     1     -11.406  16.698  68.849  1.00  0.00    -0.123 A  
HETATM    6  C   UNL     1     -10.567  17.216  67.853  1.00  0.00    -0.376 A  
HETATM    7 CL   UNL     1     -10.727  18.901  67.473  1.00  0.00    -0.520 Cl 
HETATM    8  C   UNL     1      -9.636  16.407  67.168  1.00  0.00    -0.235 A  
HETATM    9  C   UNL     1      -9.607  15.046  67.522  1.00  0.00    -0.203 A  
HETATM   10  C   UNL     1     -10.444  14.534  68.525  1.00  0.00    -0.250 A  
HETATM   11 CL   UNL     1      -8.646  13.882  66.667  1.00  0.00    -0.057 Cl 
ENDROOT
BRANCH   8  12
HETATM   12  N   UNL     1      -8.793  16.992  66.204  1.00  0.00    -0.474 NA 
HETATM   13  H   UNL     1      -9.167  16.983  65.254  1.00  0.00     0.000 HD 
BRANCH  12  14
HETATM   14  C   UNL     1      -7.572  17.564  66.319  1.00  0.00    -0.308 A  
HETATM   15  N   UNL     1      -7.110  18.409  65.437  1.00  0.00    -0.530 NA 
HETATM   16  H   UNL     1      -7.576  18.749  64.597  1.00  0.00     0.000 HD 
HETATM   17  C   UNL     1      -5.753  18.763  65.933  1.00  0.00    -0.165 A  
HETATM   18  C   UNL     1      -5.560  18.041  67.267  1.00  0.00    -0.133 A  
HETATM   19  N   UNL     1      -6.818  17.350  67.431  1.00  0.00    -0.155 NA 
ENDBRANCH  12  14
ENDBRANCH   8  12
TORSDOF 2
ENDMDL
MODEL      116
REMARK 921   NORMALIZED FREE ENERGY PREDICTED BY IDOCK:   -3.82 KCAL/MOL
REMARK 922        TOTAL FREE ENERGY PREDICTED BY IDOCK:   -4.46 KCAL/MOL
REMARK 923 INTER-LIGAND FREE ENERGY PREDICTED BY IDOCK:   -4.46 KCAL/MOL
REMARK 924 INTRA-LIGAND FREE ENERGY PREDICTED BY IDOCK:   -0.00 KCAL/MOL
REMARK 927      BINDING AFFINITY PREDICTED BY RF-SCORE:    0.00 PKD
ROOT
HETATM    1  N   UNL     1      -8.815   9.290  63.109  1.00  0.00    -0.383 NA 
HETATM    2  H1  UNL     1      -9.145   9.303  62.145  1.00  0.00     0.000 HD 
HETATM    3  C   UNL     1      -9.252  10.253  64.023  1.00  0.00    -0.271 A  
HETATM    4  H2  UNL     1      -9.009   8.368  63.500  1.00  0.00     0.000 HD 
HETATM    5  C   UNL     1      -8.801  10.234  65.340  1.00  0.00    -0.192 A  
HETATM    6  C   UNL     1      -9.349  11.102  66.295  1.00  0.00    -0.195 A  
HETATM    7 CL   UNL     1      -8.697  11.035  67.901  1.00  0.00    -0.130 Cl 
HETATM    8  C   UNL     1     -10.400  11.989  65.980  1.00  0.00    -0.238 A  
HETATM    9  C   UNL     1     -10.885  11.944  64.660  1.00  0.00    -0.311 A  
HETATM   10  C   UNL     1     -10.328  11.078  63.706  1.00  0.00    -0.427 A  
HETATM   11 CL   UNL     1     -12.279  12.841  64.149  1.00  0.00    -0.484 Cl 
ENDROOT
BRANCH   8  12
HETATM   12  N   UNL     1     -10.884  12.865  66.971  1.00  0.00    -0.257 NA 
HETATM   13  H   UNL     1     -10.804  13.854  66.736  1.00  0.00     0.000 HD 
BRANCH  12  14
HETATM   14  C   UNL     1     -11.436  12.620  68.181  1.00  0.00    -0.313 A  
HETATM   15  N   UNL     1     -11.461  13.514  69.132  1.00  0.00    -0.278 NA 
HETATM   16  H   UNL     1     -11.104  14.469  69.099  1.00  0.00     0.000 HD 
HETATM   17  C   UNL     1     -12.126  12.830  70.273  1.00  0.00    -0.297 A  
HETATM   18  C   UNL     1     -12.534  11.439  69.786  1.00  0.00    -0.096 A  
HETATM   19  N   UNL     1     -12.086  11.447  68.412  1.00  0.00    -0.585 NA 
ENDBRANCH  12  14
ENDBRANCH   8  12
TORSDOF 2
ENDMDL
MODEL      117
REMARK 921   NORMALIZED FREE ENERGY PREDICTED BY IDOCK:   -3.82 KCAL/MOL
REMARK 922        TOTAL FREE ENERGY PREDICTED BY IDOCK:   -4.45 KCAL/MOL
REMARK 923 INTER-LIGAND FREE ENERGY PREDICTED BY IDOCK:   -4.15 KCAL/MOL
REMARK 924 INTRA-LIGAND FREE ENERGY PREDICTED BY IDOCK:   -0.30 KCAL/MOL
REMARK 927      BINDING AFFINITY PREDICTED BY RF-SCORE:    0.00 PKD
ROOT
HETATM    1  N   UNL     1     -10.425  10.727  69.480  1.00  0.00    -0.354 NA 
HETATM    2  H1  UNL     1      -9.516  11.170  69.348  1.00  0.00     0.000 HD 
HETATM    3  C   UNL     1     -10.569   9.651  70.360  1.00  0.00    -0.295 A  
HETATM    4  H2  UNL     1     -11.096  11.448  69.745  1.00  0.00     0.000 HD 
HETATM    5  C   UNL     1     -11.811   9.046  70.540  1.00  0.00    -0.107 A  
HETATM    6  C   UNL     1     -11.992   8.068  71.528  1.00  0.00    -0.297 A  
HETATM    7 CL   UNL     1     -13.563   7.343  71.653  1.00  0.00    -0.447 Cl 
HETATM    8  C   UNL     1     -10.952   7.692  72.403  1.00  0.00    -0.301 A  
HETATM    9  C   UNL     1      -9.726   8.363  72.246  1.00  0.00    -0.316 A  
HETATM   10  C   UNL     1      -9.547   9.336  71.251  1.00  0.00    -0.272 A  
HETATM   11 CL   UNL     1      -8.398   8.145  73.342  1.00  0.00    -0.267 Cl 
ENDROOT
BRANCH   8  12
HETATM   12  N   UNL     1     -11.182   6.676  73.351  1.00  0.00    -0.477 NA 
HETATM   13  H   UNL     1     -11.581   7.002  74.232  1.00  0.00     0.000 HD 
BRANCH  12  14
HETATM   14  C   UNL     1     -10.966   5.341  73.296  1.00  0.00    -0.313 A  
HETATM   15  N   UNL     1     -11.885   4.471  73.613  1.00  0.00    -0.260 NA 
HETATM   16  H   UNL     1     -12.841   4.655  73.916  1.00  0.00     0.000 HD 
HETATM   17  C   UNL     1     -11.226   3.149  73.435  1.00  0.00    -0.146 A  
HETATM   18  C   UNL     1      -9.820   3.417  72.898  1.00  0.00    -0.142 A  
HETATM   19  N   UNL     1      -9.795   4.858  72.800  1.00  0.00    -0.154 NA 
ENDBRANCH  12  14
ENDBRANCH   8  12
TORSDOF 2
ENDMDL
MODEL      118
REMARK 921   NORMALIZED FREE ENERGY PREDICTED BY IDOCK:   -3.80 KCAL/MOL
REMARK 922        TOTAL FREE ENERGY PREDICTED BY IDOCK:   -4.43 KCAL/MOL
REMARK 923 INTER-LIGAND FREE ENERGY PREDICTED BY IDOCK:   -4.13 KCAL/MOL
REMARK 924 INTRA-LIGAND FREE ENERGY PREDICTED BY IDOCK:   -0.30 KCAL/MOL
REMARK 927      BINDING AFFINITY PREDICTED BY RF-SCORE:    0.00 PKD
ROOT
HETATM    1  N   UNL     1      -9.343   6.155  66.796  1.00  0.00    -0.136 NA 
HETATM    2  H1  UNL     1      -9.934   5.804  67.550  1.00  0.00     0.000 HD 
HETATM    3  C   UNL     1      -9.452   7.480  66.366  1.00  0.00    -0.147 A  
HETATM    4  H2  UNL     1      -8.370   5.980  67.047  1.00  0.00     0.000 HD 
HETATM    5  C   UNL     1      -8.644   7.958  65.337  1.00  0.00    -0.118 A  
HETATM    6  C   UNL     1      -8.644   9.320  65.004  1.00  0.00    -0.177 A  
HETATM    7 CL   UNL     1      -7.636   9.818  63.684  1.00  0.00    -0.125 Cl 
HETATM    8  C   UNL     1      -9.416  10.261  65.717  1.00  0.00    -0.203 A  
HETATM    9  C   UNL     1     -10.173   9.766  66.794  1.00  0.00    -0.233 A  
HETATM   10  C   UNL     1     -10.176   8.401  67.119  1.00  0.00    -0.362 A  
HETATM   11 CL   UNL     1     -11.044  10.805  67.877  1.00  0.00    -0.342 Cl 
ENDROOT
BRANCH   8  12
HETATM   12  N   UNL     1      -9.405  11.610  65.312  1.00  0.00    -0.389 NA 
HETATM   13  H   UNL     1      -8.527  12.097  65.489  1.00  0.00     0.000 HD 
BRANCH  12  14
HETATM   14  C   UNL     1     -10.359  12.372  64.728  1.00  0.00    -0.299 A  
HETATM   15  N   UNL     1     -11.157  11.907  63.806  1.00  0.00    -0.399 NA 
HETATM   16  H   UNL     1     -11.186  10.961  63.425  1.00  0.00     0.000 HD 
HETATM   17  C   UNL     1     -12.014  13.064  63.434  1.00  0.00    -0.520 A  
HETATM   18  C   UNL     1     -11.619  14.227  64.345  1.00  0.00    -0.344 A  
HETATM   19  N   UNL     1     -10.586  13.639  65.167  1.00  0.00    -0.340 NA 
ENDBRANCH  12  14
ENDBRANCH   8  12
TORSDOF 2
ENDMDL
MODEL      119
REMARK 921   NORMALIZED FREE ENERGY PREDICTED BY IDOCK:   -3.80 KCAL/MOL
REMARK 922        TOTAL FREE ENERGY PREDICTED BY IDOCK:   -4.43 KCAL/MOL
REMARK 923 INTER-LIGAND FREE ENERGY PREDICTED BY IDOCK:   -4.13 KCAL/MOL
REMARK 924 INTRA-LIGAND FREE ENERGY PREDICTED BY IDOCK:   -0.30 KCAL/MOL
REMARK 927      BINDING AFFINITY PREDICTED BY RF-SCORE:    0.00 PKD
ROOT
HETATM    1  N   UNL     1     -12.572  15.140  69.917  1.00  0.00    -0.589 NA 
HETATM    2  H1  UNL     1     -13.499  15.449  69.627  1.00  0.00     0.000 HD 
HETATM    3  C   UNL     1     -11.430  15.608  69.260  1.00  0.00    -0.362 A  
HETATM    4  H2  UNL     1     -12.468  15.332  70.913  1.00  0.00     0.000 HD 
HETATM    5  C   UNL     1     -10.163  15.186  69.656  1.00  0.00    -0.219 A  
HETATM    6  C   UNL     1      -9.013  15.764  69.103  1.00  0.00    -0.256 A  
HETATM    7 CL   UNL     1      -7.479  15.148  69.628  1.00  0.00    -0.208 Cl 
HETATM    8  C   UNL     1      -9.084  16.818  68.167  1.00  0.00    -0.227 A  
HETATM    9  C   UNL     1     -10.372  17.273  67.832  1.00  0.00    -0.360 A  
HETATM   10  C   UNL     1     -11.522  16.686  68.383  1.00  0.00    -0.023 A  
HETATM   11 CL   UNL     1     -10.637  18.666  66.832  1.00  0.00    -0.445 Cl 
ENDROOT
BRANCH   8  12
HETATM   12  N   UNL     1      -7.895  17.334  67.617  1.00  0.00    -0.180 NA 
HETATM   13  H   UNL     1      -7.580  16.858  66.771  1.00  0.00     0.000 HD 
BRANCH  12  14
HETATM   14  C   UNL     1      -7.097  18.351  68.016  1.00  0.00    -0.231 A  
HETATM   15  N   UNL     1      -5.923  18.566  67.490  1.00  0.00    -0.170 NA 
HETATM   16  H   UNL     1      -5.470  18.043  66.741  1.00  0.00     0.000 HD 
HETATM   17  C   UNL     1      -5.392  19.745  68.226  1.00  0.00    -0.196 A  
HETATM   18  C   UNL     1      -6.486  20.198  69.194  1.00  0.00    -0.306 A  
HETATM   19  N   UNL     1      -7.549  19.258  68.924  1.00  0.00    -0.355 NA 
ENDBRANCH  12  14
ENDBRANCH   8  12
TORSDOF 2
ENDMDL
MODEL      120
REMARK 921   NORMALIZED FREE ENERGY PREDICTED BY IDOCK:   -3.79 KCAL/MOL
REMARK 922        TOTAL FREE ENERGY PREDICTED BY IDOCK:   -4.42 KCAL/MOL
REMARK 923 INTER-LIGAND FREE ENERGY PREDICTED BY IDOCK:   -4.14 KCAL/MOL
REMARK 924 INTRA-LIGAND FREE ENERGY PREDICTED BY IDOCK:   -0.28 KCAL/MOL
REMARK 927      BINDING AFFINITY PREDICTED BY RF-SCORE:    0.00 PKD
ROOT
HETATM    1  N   UNL     1     -13.101  12.929  64.695  1.00  0.00    -0.730 NA 
HETATM    2  H1  UNL     1     -13.512  13.072  63.773  1.00  0.00     0.000 HD 
HETATM    3  C   UNL     1     -11.901  12.226  64.837  1.00  0.00    -0.358 A  
HETATM    4  H2  UNL     1     -12.991  13.840  65.140  1.00  0.00     0.000 HD 
HETATM    5  C   UNL     1     -11.340  12.031  66.096  1.00  0.00    -0.407 A  
HETATM    6  C   UNL     1     -10.067  11.460  66.230  1.00  0.00    -0.224 A  
HETATM    7 CL   UNL     1      -9.466  11.220  67.839  1.00  0.00    -0.173 Cl 
HETATM    8  C   UNL     1      -9.289  11.104  65.108  1.00  0.00    -0.213 A  
HETATM    9  C   UNL     1      -9.848  11.371  63.846  1.00  0.00    -0.300 A  
HETATM   10  C   UNL     1     -11.126  11.937  63.717  1.00  0.00    -0.510 A  
HETATM   11 CL   UNL     1      -8.962  11.154  62.370  1.00  0.00    -0.359 Cl 
ENDROOT
BRANCH   8  12
HETATM   12  N   UNL     1      -8.032  10.498  65.305  1.00  0.00    -0.234 NA 
HETATM   13  H   UNL     1      -7.272  11.152  65.494  1.00  0.00     0.000 HD 
BRANCH  12  14
HETATM   14  C   UNL     1      -7.659   9.198  65.287  1.00  0.00    -0.098 A  
HETATM   15  N   UNL     1      -8.422   8.258  64.798  1.00  0.00    -0.328 NA 
HETATM   16  H   UNL     1      -9.344   8.361  64.374  1.00  0.00     0.000 HD 
HETATM   17  C   UNL     1      -7.648   7.004  64.999  1.00  0.00    -0.104 A  
HETATM   18  C   UNL     1      -6.303   7.400  65.608  1.00  0.00    -0.041 A  
HETATM   19  N   UNL     1      -6.411   8.838  65.692  1.00  0.00    -0.059 NA 
ENDBRANCH  12  14
ENDBRANCH   8  12
TORSDOF 2
ENDMDL
MODEL      121
REMARK 921   NORMALIZED FREE ENERGY PREDICTED BY IDOCK:   -3.78 KCAL/MOL
REMARK 922        TOTAL FREE ENERGY PREDICTED BY IDOCK:   -4.41 KCAL/MOL
REMARK 923 INTER-LIGAND FREE ENERGY PREDICTED BY IDOCK:   -4.14 KCAL/MOL
REMARK 924 INTRA-LIGAND FREE ENERGY PREDICTED BY IDOCK:   -0.27 KCAL/MOL
REMARK 927      BINDING AFFINITY PREDICTED BY RF-SCORE:    0.00 PKD
ROOT
HETATM    1  N   UNL     1      -5.936  16.513  70.245  1.00  0.00    -0.129 NA 
HETATM    2  H1  UNL     1      -5.907  17.484  70.558  1.00  0.00     0.000 HD 
HETATM    3  C   UNL     1      -6.809  16.121  69.227  1.00  0.00    -0.206 A  
HETATM    4  H2  UNL     1      -4.992  16.235  69.981  1.00  0.00     0.000 HD 
HETATM    5  C   UNL     1      -6.848  14.796  68.801  1.00  0.00    -0.099 A  
HETATM    6  C   UNL     1      -7.610  14.428  67.683  1.00  0.00    -0.179 A  
HETATM    7 CL   UNL     1      -7.630  12.748  67.249  1.00  0.00    -0.143 Cl 
HETATM    8  C   UNL     1      -8.323  15.377  66.922  1.00  0.00    -0.255 A  
HETATM    9  C   UNL     1      -8.216  16.719  67.331  1.00  0.00    -0.177 A  
HETATM   10  C   UNL     1      -7.458  17.082  68.455  1.00  0.00    -0.221 A  
HETATM   11 CL   UNL     1      -8.887  18.029  66.414  1.00  0.00    -0.276 Cl 
ENDROOT
BRANCH   8  12
HETATM   12  N   UNL     1      -9.102  14.943  65.831  1.00  0.00    -0.477 NA 
HETATM   13  H   UNL     1      -8.604  14.914  64.941  1.00  0.00     0.000 HD 
BRANCH  12  14
HETATM   14  C   UNL     1     -10.397  14.558  65.760  1.00  0.00    -0.331 A  
HETATM   15  N   UNL     1     -11.075  14.589  64.645  1.00  0.00    -0.550 NA 
HETATM   16  H   UNL     1     -10.747  14.875  63.724  1.00  0.00     0.000 HD 
HETATM   17  C   UNL     1     -12.434  14.113  65.020  1.00  0.00    -0.419 A  
HETATM   18  C   UNL     1     -12.386  13.742  66.502  1.00  0.00    -0.386 A  
HETATM   19  N   UNL     1     -11.011  14.020  66.848  1.00  0.00    -0.294 NA 
ENDBRANCH  12  14
ENDBRANCH   8  12
TORSDOF 2
ENDMDL
MODEL      122
REMARK 921   NORMALIZED FREE ENERGY PREDICTED BY IDOCK:   -3.76 KCAL/MOL
REMARK 922        TOTAL FREE ENERGY PREDICTED BY IDOCK:   -4.39 KCAL/MOL
REMARK 923 INTER-LIGAND FREE ENERGY PREDICTED BY IDOCK:   -4.06 KCAL/MOL
REMARK 924 INTRA-LIGAND FREE ENERGY PREDICTED BY IDOCK:   -0.33 KCAL/MOL
REMARK 927      BINDING AFFINITY PREDICTED BY RF-SCORE:    0.00 PKD
ROOT
HETATM    1  N   UNL     1      -6.496  20.354  68.674  1.00  0.00    -0.304 NA 
HETATM    2  H1  UNL     1      -6.869  21.279  68.460  1.00  0.00     0.000 HD 
HETATM    3  C   UNL     1      -7.348  19.251  68.776  1.00  0.00    -0.346 A  
HETATM    4  H2  UNL     1      -5.772  20.136  67.989  1.00  0.00     0.000 HD 
HETATM    5  C   UNL     1      -6.838  17.989  69.068  1.00  0.00    -0.250 A  
HETATM    6  C   UNL     1      -7.664  16.857  69.023  1.00  0.00    -0.199 A  
HETATM    7 CL   UNL     1      -6.950  15.332  69.440  1.00  0.00    -0.165 Cl 
HETATM    8  C   UNL     1      -9.019  16.939  68.642  1.00  0.00    -0.266 A  
HETATM    9  C   UNL     1      -9.496  18.214  68.287  1.00  0.00    -0.307 A  
HETATM   10  C   UNL     1      -8.667  19.345  68.340  1.00  0.00    -0.397 A  
HETATM   11 CL   UNL     1     -11.084  18.467  67.635  1.00  0.00    -0.146 Cl 
ENDROOT
BRANCH   8  12
HETATM   12  N   UNL     1      -9.811  15.773  68.653  1.00  0.00    -0.204 NA 
HETATM   13  H   UNL     1     -10.142  15.497  69.577  1.00  0.00     0.000 HD 
BRANCH  12  14
HETATM   14  C   UNL     1     -10.207  14.958  67.649  1.00  0.00    -0.236 A  
HETATM   15  N   UNL     1     -11.446  14.899  67.244  1.00  0.00    -0.352 NA 
HETATM   16  H   UNL     1     -12.242  15.434  67.592  1.00  0.00     0.000 HD 
HETATM   17  C   UNL     1     -11.439  13.878  66.162  1.00  0.00    -0.345 A  
HETATM   18  C   UNL     1      -9.989  13.431  65.977  1.00  0.00    -0.293 A  
HETATM   19  N   UNL     1      -9.288  14.236  66.951  1.00  0.00    -0.246 NA 
ENDBRANCH  12  14
ENDBRANCH   8  12
TORSDOF 2
ENDMDL
MODEL      123
REMARK 921   NORMALIZED FREE ENERGY PREDICTED BY IDOCK:   -3.76 KCAL/MOL
REMARK 922        TOTAL FREE ENERGY PREDICTED BY IDOCK:   -4.39 KCAL/MOL
REMARK 923 INTER-LIGAND FREE ENERGY PREDICTED BY IDOCK:   -4.05 KCAL/MOL
REMARK 924 INTRA-LIGAND FREE ENERGY PREDICTED BY IDOCK:   -0.34 KCAL/MOL
REMARK 927      BINDING AFFINITY PREDICTED BY RF-SCORE:    0.00 PKD
ROOT
HETATM    1  N   UNL     1      -9.749  11.969  68.730  1.00  0.00    -0.404 NA 
HETATM    2  H1  UNL     1      -9.995  12.806  69.259  1.00  0.00     0.000 HD 
HETATM    3  C   UNL     1     -10.152  10.706  69.172  1.00  0.00    -0.216 A  
HETATM    4  H2  UNL     1     -10.074  12.091  67.771  1.00  0.00     0.000 HD 
HETATM    5  C   UNL     1      -9.817   9.564  68.450  1.00  0.00    -0.175 A  
HETATM    6  C   UNL     1     -10.343   8.314  68.804  1.00  0.00    -0.205 A  
HETATM    7 CL   UNL     1      -9.839   6.942  67.871  1.00  0.00    -0.145 Cl 
HETATM    8  C   UNL     1     -11.261   8.167  69.866  1.00  0.00    -0.028 A  
HETATM    9  C   UNL     1     -11.637   9.343  70.538  1.00  0.00    -0.235 A  
HETATM   10  C   UNL     1     -11.101  10.591  70.184  1.00  0.00    -0.369 A  
HETATM   11 CL   UNL     1     -12.878   9.366  71.751  1.00  0.00    -0.443 Cl 
ENDROOT
BRANCH   8  12
HETATM   12  N   UNL     1     -11.727   6.880  70.200  1.00  0.00    -0.570 NA 
HETATM   13  H   UNL     1     -12.518   6.559  69.642  1.00  0.00     0.000 HD 
BRANCH  12  14
HETATM   14  C   UNL     1     -11.306   5.997  71.135  1.00  0.00    -0.232 A  
HETATM   15  N   UNL     1     -10.359   5.130  70.900  1.00  0.00    -0.228 NA 
HETATM   16  H   UNL     1      -9.823   5.009  70.041  1.00  0.00     0.000 HD 
HETATM   17  C   UNL     1     -10.235   4.359  72.166  1.00  0.00    -0.177 A  
HETATM   18  C   UNL     1     -11.210   4.980  73.167  1.00  0.00    -0.335 A  
HETATM   19  N   UNL     1     -11.797   6.056  72.402  1.00  0.00    -0.289 NA 
ENDBRANCH  12  14
ENDBRANCH   8  12
TORSDOF 2
ENDMDL
MODEL      124
REMARK 921   NORMALIZED FREE ENERGY PREDICTED BY IDOCK:   -3.75 KCAL/MOL
REMARK 922        TOTAL FREE ENERGY PREDICTED BY IDOCK:   -4.38 KCAL/MOL
REMARK 923 INTER-LIGAND FREE ENERGY PREDICTED BY IDOCK:   -4.07 KCAL/MOL
REMARK 924 INTRA-LIGAND FREE ENERGY PREDICTED BY IDOCK:   -0.30 KCAL/MOL
REMARK 927      BINDING AFFINITY PREDICTED BY RF-SCORE:    0.00 PKD
ROOT
HETATM    1  N   UNL     1     -14.129   8.724  72.980  1.00  0.00    -1.105 NA 
HETATM    2  H1  UNL     1     -14.452   8.061  73.685  1.00  0.00     0.000 HD 
HETATM    3  C   UNL     1     -12.921   8.516  72.311  1.00  0.00    -0.341 A  
HETATM    4  H2  UNL     1     -14.866   8.832  72.283  1.00  0.00     0.000 HD 
HETATM    5  C   UNL     1     -12.480   9.421  71.348  1.00  0.00    -0.435 A  
HETATM    6  C   UNL     1     -11.348   9.141  70.570  1.00  0.00    -0.257 A  
HETATM    7 CL   UNL     1     -10.852  10.345  69.424  1.00  0.00    -0.260 Cl 
HETATM    8  C   UNL     1     -10.642   7.927  70.692  1.00  0.00    -0.219 A  
HETATM    9  C   UNL     1     -11.143   6.999  71.623  1.00  0.00    -0.235 A  
HETATM   10  C   UNL     1     -12.272   7.287  72.406  1.00  0.00    -0.104 A  
HETATM   11 CL   UNL     1     -10.499   5.396  71.781  1.00  0.00    -0.280 Cl 
ENDROOT
BRANCH   8  12
HETATM   12  N   UNL     1      -9.489   7.718  69.910  1.00  0.00    -0.161 NA 
HETATM   13  H   UNL     1      -8.613   7.954  70.377  1.00  0.00     0.000 HD 
BRANCH  12  14
HETATM   14  C   UNL     1      -9.342   7.257  68.647  1.00  0.00    -0.138 A  
HETATM   15  N   UNL     1      -8.572   7.847  67.773  1.00  0.00    -0.128 NA 
HETATM   16  H   UNL     1      -7.996   8.677  67.909  1.00  0.00     0.000 HD 
HETATM   17  C   UNL     1      -8.724   7.038  66.534  1.00  0.00    -0.134 A  
HETATM   18  C   UNL     1      -9.640   5.862  66.875  1.00  0.00    -0.142 A  
HETATM   19  N   UNL     1      -9.925   6.086  68.274  1.00  0.00    -0.138 NA 
ENDBRANCH  12  14
ENDBRANCH   8  12
TORSDOF 2
ENDMDL
MODEL      125
REMARK 921   NORMALIZED FREE ENERGY PREDICTED BY IDOCK:   -3.71 KCAL/MOL
REMARK 922        TOTAL FREE ENERGY PREDICTED BY IDOCK:   -4.34 KCAL/MOL
REMARK 923 INTER-LIGAND FREE ENERGY PREDICTED BY IDOCK:   -4.42 KCAL/MOL
REMARK 924 INTRA-LIGAND FREE ENERGY PREDICTED BY IDOCK:    0.08 KCAL/MOL
REMARK 927      BINDING AFFINITY PREDICTED BY RF-SCORE:    0.00 PKD
ROOT
HETATM    1  N   UNL     1     -12.469  13.662  63.146  1.00  0.00    -1.045 NA 
HETATM    2  H1  UNL     1     -12.522  14.410  62.455  1.00  0.00     0.000 HD 
HETATM    3  C   UNL     1     -11.649  13.791  64.271  1.00  0.00    -0.369 A  
HETATM    4  H2  UNL     1     -13.415  13.451  63.463  1.00  0.00     0.000 HD 
HETATM    5  C   UNL     1     -11.576  12.769  65.214  1.00  0.00    -0.379 A  
HETATM    6  C   UNL     1     -10.876  12.954  66.414  1.00  0.00    -0.274 A  
HETATM    7 CL   UNL     1     -10.806  11.612  67.512  1.00  0.00    -0.266 Cl 
HETATM    8  C   UNL     1     -10.262  14.182  66.737  1.00  0.00    -0.262 A  
HETATM    9  C   UNL     1     -10.405  15.221  65.800  1.00  0.00    -0.344 A  
HETATM   10  C   UNL     1     -11.101  15.029  64.596  1.00  0.00    -0.335 A  
HETATM   11 CL   UNL     1      -9.860  16.838  66.111  1.00  0.00    -0.326 Cl 
ENDROOT
BRANCH   8  12
HETATM   12  N   UNL     1      -9.539  14.297  67.941  1.00  0.00    -0.215 NA 
HETATM   13  H   UNL     1     -10.047  13.987  68.770  1.00  0.00     0.000 HD 
BRANCH  12  14
HETATM   14  C   UNL     1      -8.287  14.746  68.187  1.00  0.00    -0.144 A  
HETATM   15  N   UNL     1      -8.032  16.000  68.443  1.00  0.00    -0.145 NA 
HETATM   16  H   UNL     1      -8.697  16.771  68.504  1.00  0.00     0.000 HD 
HETATM   17  C   UNL     1      -6.557  16.054  68.625  1.00  0.00    -0.123 A  
HETATM   18  C   UNL     1      -6.038  14.620  68.505  1.00  0.00    -0.091 A  
HETATM   19  N   UNL     1      -7.251  13.869  68.279  1.00  0.00    -0.100 NA 
ENDBRANCH  12  14
ENDBRANCH   8  12
TORSDOF 2
ENDMDL
MODEL      126
REMARK 921   NORMALIZED FREE ENERGY PREDICTED BY IDOCK:   -3.70 KCAL/MOL
REMARK 922        TOTAL FREE ENERGY PREDICTED BY IDOCK:   -4.32 KCAL/MOL
REMARK 923 INTER-LIGAND FREE ENERGY PREDICTED BY IDOCK:   -4.09 KCAL/MOL
REMARK 924 INTRA-LIGAND FREE ENERGY PREDICTED BY IDOCK:   -0.23 KCAL/MOL
REMARK 927      BINDING AFFINITY PREDICTED BY RF-SCORE:    0.00 PKD
ROOT
HETATM    1  N   UNL     1      -9.933  20.482  66.041  1.00  0.00    -0.562 NA 
HETATM    2  H1  UNL     1     -10.934  20.660  66.120  1.00  0.00     0.000 HD 
HETATM    3  C   UNL     1      -9.420  19.201  66.257  1.00  0.00    -0.326 A  
HETATM    4  H2  UNL     1      -9.623  20.800  65.123  1.00  0.00     0.000 HD 
HETATM    5  C   UNL     1      -8.052  18.959  66.150  1.00  0.00    -0.241 A  
HETATM    6  C   UNL     1      -7.551  17.652  66.217  1.00  0.00    -0.298 A  
HETATM    7 CL   UNL     1      -5.831  17.452  66.114  1.00  0.00    -0.225 Cl 
HETATM    8  C   UNL     1      -8.400  16.534  66.347  1.00  0.00    -0.322 A  
HETATM    9  C   UNL     1      -9.782  16.796  66.386  1.00  0.00    -0.290 A  
HETATM   10  C   UNL     1     -10.279  18.107  66.326  1.00  0.00    -0.401 A  
HETATM   11 CL   UNL     1     -10.971  15.532  66.373  1.00  0.00    -0.283 Cl 
ENDROOT
BRANCH   8  12
HETATM   12  N   UNL     1      -7.836  15.247  66.448  1.00  0.00    -0.157 NA 
HETATM   13  H   UNL     1      -7.884  14.696  65.590  1.00  0.00     0.000 HD 
BRANCH  12  14
HETATM   14  C   UNL     1      -7.241  14.615  67.486  1.00  0.00    -0.192 A  
HETATM   15  N   UNL     1      -6.521  13.538  67.328  1.00  0.00    -0.456 NA 
HETATM   16  H   UNL     1      -6.305  13.055  66.457  1.00  0.00     0.000 HD 
HETATM   17  C   UNL     1      -6.088  13.172  68.703  1.00  0.00    -0.080 A  
HETATM   18  C   UNL     1      -6.618  14.256  69.643  1.00  0.00    -0.137 A  
HETATM   19  N   UNL     1      -7.293  15.153  68.734  1.00  0.00    -0.123 NA 
ENDBRANCH  12  14
ENDBRANCH   8  12
TORSDOF 2
ENDMDL
MODEL      127
REMARK 921   NORMALIZED FREE ENERGY PREDICTED BY IDOCK:   -3.69 KCAL/MOL
REMARK 922        TOTAL FREE ENERGY PREDICTED BY IDOCK:   -4.31 KCAL/MOL
REMARK 923 INTER-LIGAND FREE ENERGY PREDICTED BY IDOCK:   -4.03 KCAL/MOL
REMARK 924 INTRA-LIGAND FREE ENERGY PREDICTED BY IDOCK:   -0.29 KCAL/MOL
REMARK 927      BINDING AFFINITY PREDICTED BY RF-SCORE:    0.00 PKD
ROOT
HETATM    1  N   UNL     1     -10.219   6.701  66.602  1.00  0.00    -0.379 NA 
HETATM    2  H1  UNL     1     -10.092   5.834  67.124  1.00  0.00     0.000 HD 
HETATM    3  C   UNL     1     -10.353   7.920  67.272  1.00  0.00    -0.307 A  
HETATM    4  H2  UNL     1      -9.453   6.787  65.934  1.00  0.00     0.000 HD 
HETATM    5  C   UNL     1     -10.527   9.103  66.558  1.00  0.00    -0.197 A  
HETATM    6  C   UNL     1     -10.512  10.342  67.215  1.00  0.00    -0.253 A  
HETATM    7 CL   UNL     1     -10.776  11.759  66.251  1.00  0.00    -0.298 Cl 
HETATM    8  C   UNL     1     -10.277  10.447  68.602  1.00  0.00    -0.181 A  
HETATM    9  C   UNL     1     -10.038   9.244  69.291  1.00  0.00    -0.200 A  
HETATM   10  C   UNL     1     -10.061   8.006  68.630  1.00  0.00    -0.212 A  
HETATM   11 CL   UNL     1      -9.567   9.205  70.960  1.00  0.00    -0.342 Cl 
ENDROOT
BRANCH   8  12
HETATM   12  N   UNL     1     -10.312  11.715  69.213  1.00  0.00    -0.431 NA 
HETATM   13  H   UNL     1      -9.441  12.243  69.142  1.00  0.00     0.000 HD 
BRANCH  12  14
HETATM   14  C   UNL     1     -11.301  12.356  69.878  1.00  0.00     0.006 A  
HETATM   15  N   UNL     1     -12.006  11.775  70.811  1.00  0.00    -0.438 NA 
HETATM   16  H   UNL     1     -11.912  10.822  71.161  1.00  0.00     0.000 HD 
HETATM   17  C   UNL     1     -12.977  12.814  71.249  1.00  0.00    -0.220 A  
HETATM   18  C   UNL     1     -12.654  14.087  70.466  1.00  0.00    -0.329 A  
HETATM   19  N   UNL     1     -11.525  13.680  69.661  1.00  0.00    -0.248 NA 
ENDBRANCH  12  14
ENDBRANCH   8  12
TORSDOF 2
ENDMDL
MODEL      128
REMARK 921   NORMALIZED FREE ENERGY PREDICTED BY IDOCK:   -3.69 KCAL/MOL
REMARK 922        TOTAL FREE ENERGY PREDICTED BY IDOCK:   -4.31 KCAL/MOL
REMARK 923 INTER-LIGAND FREE ENERGY PREDICTED BY IDOCK:   -3.98 KCAL/MOL
REMARK 924 INTRA-LIGAND FREE ENERGY PREDICTED BY IDOCK:   -0.33 KCAL/MOL
REMARK 927      BINDING AFFINITY PREDICTED BY RF-SCORE:    0.00 PKD
ROOT
HETATM    1  N   UNL     1     -10.331   5.986  74.438  1.00  0.00    -0.289 NA 
HETATM    2  H1  UNL     1     -11.224   5.644  74.791  1.00  0.00     0.000 HD 
HETATM    3  C   UNL     1     -10.288   6.908  73.389  1.00  0.00    -0.308 A  
HETATM    4  H2  UNL     1      -9.803   6.370  75.222  1.00  0.00     0.000 HD 
HETATM    5  C   UNL     1      -9.068   7.375  72.907  1.00  0.00    -0.192 A  
HETATM    6  C   UNL     1      -9.022   8.408  71.961  1.00  0.00    -0.223 A  
HETATM    7 CL   UNL     1      -7.459   8.897  71.389  1.00  0.00    -0.127 Cl 
HETATM    8  C   UNL     1     -10.192   9.044  71.495  1.00  0.00    -0.344 A  
HETATM    9  C   UNL     1     -11.408   8.602  72.045  1.00  0.00    -0.362 A  
HETATM   10  C   UNL     1     -11.450   7.562  72.987  1.00  0.00    -0.247 A  
HETATM   11 CL   UNL     1     -12.920   9.385  71.712  1.00  0.00    -0.443 Cl 
ENDROOT
BRANCH   8  12
HETATM   12  N   UNL     1     -10.086  10.051  70.515  1.00  0.00    -0.383 NA 
HETATM   13  H   UNL     1      -9.899  10.983  70.885  1.00  0.00     0.000 HD 
BRANCH  12  14
HETATM   14  C   UNL     1     -10.190   9.994  69.167  1.00  0.00    -0.210 A  
HETATM   15  N   UNL     1     -11.300  10.272  68.539  1.00  0.00    -0.473 NA 
HETATM   16  H   UNL     1     -12.189  10.565  68.944  1.00  0.00     0.000 HD 
HETATM   17  C   UNL     1     -10.980  10.064  67.102  1.00  0.00    -0.107 A  
HETATM   18  C   UNL     1      -9.498   9.699  67.021  1.00  0.00    -0.154 A  
HETATM   19  N   UNL     1      -9.091   9.741  68.406  1.00  0.00    -0.123 NA 
ENDBRANCH  12  14
ENDBRANCH   8  12
TORSDOF 2
ENDMDL
MODEL      129
REMARK 921   NORMALIZED FREE ENERGY PREDICTED BY IDOCK:   -3.68 KCAL/MOL
REMARK 922        TOTAL FREE ENERGY PREDICTED BY IDOCK:   -4.30 KCAL/MOL
REMARK 923 INTER-LIGAND FREE ENERGY PREDICTED BY IDOCK:   -4.02 KCAL/MOL
REMARK 924 INTRA-LIGAND FREE ENERGY PREDICTED BY IDOCK:   -0.29 KCAL/MOL
REMARK 927      BINDING AFFINITY PREDICTED BY RF-SCORE:    0.00 PKD
ROOT
HETATM    1  N   UNL     1     -13.531  11.275  72.173  1.00  0.00    -0.528 NA 
HETATM    2  H1  UNL     1     -13.513  12.245  71.861  1.00  0.00     0.000 HD 
HETATM    3  C   UNL     1     -12.719  10.316  71.560  1.00  0.00    -0.452 A  
HETATM    4  H2  UNL     1     -13.342  11.258  73.175  1.00  0.00     0.000 HD 
HETATM    5  C   UNL     1     -12.743   8.991  71.987  1.00  0.00    -0.467 A  
HETATM    6  C   UNL     1     -11.826   8.060  71.479  1.00  0.00    -0.292 A  
HETATM    7 CL   UNL     1     -11.957   6.424  72.040  1.00  0.00    -0.384 Cl 
HETATM    8  C   UNL     1     -10.821   8.430  70.560  1.00  0.00    -0.232 A  
HETATM    9  C   UNL     1     -10.774   9.787  70.194  1.00  0.00    -0.289 A  
HETATM   10  C   UNL     1     -11.699  10.713  70.700  1.00  0.00    -0.454 A  
HETATM   11 CL   UNL     1      -9.504  10.442  69.210  1.00  0.00    -0.220 Cl 
ENDROOT
BRANCH   8  12
HETATM   12  N   UNL     1      -9.952   7.443  70.055  1.00  0.00    -0.183 NA 
HETATM   13  H   UNL     1     -10.295   6.963  69.223  1.00  0.00     0.000 HD 
BRANCH  12  14
HETATM   14  C   UNL     1      -8.740   7.022  70.484  1.00  0.00    -0.153 A  
HETATM   15  N   UNL     1      -7.791   6.671  69.659  1.00  0.00    -0.113 NA 
HETATM   16  H   UNL     1      -7.817   6.676  68.640  1.00  0.00     0.000 HD 
HETATM   17  C   UNL     1      -6.663   6.262  70.539  1.00  0.00    -0.053 A  
HETATM   18  C   UNL     1      -7.106   6.510  71.981  1.00  0.00    -0.081 A  
HETATM   19  N   UNL     1      -8.435   7.049  71.809  1.00  0.00    -0.114 NA 
ENDBRANCH  12  14
ENDBRANCH   8  12
TORSDOF 2
ENDMDL
MODEL      130
REMARK 921   NORMALIZED FREE ENERGY PREDICTED BY IDOCK:   -3.68 KCAL/MOL
REMARK 922        TOTAL FREE ENERGY PREDICTED BY IDOCK:   -4.29 KCAL/MOL
REMARK 923 INTER-LIGAND FREE ENERGY PREDICTED BY IDOCK:   -4.00 KCAL/MOL
REMARK 924 INTRA-LIGAND FREE ENERGY PREDICTED BY IDOCK:   -0.29 KCAL/MOL
REMARK 927      BINDING AFFINITY PREDICTED BY RF-SCORE:    0.00 PKD
ROOT
HETATM    1  N   UNL     1     -12.881  15.805  70.363  1.00  0.00    -0.663 NA 
HETATM    2  H1  UNL     1     -12.881  16.817  70.235  1.00  0.00     0.000 HD 
HETATM    3  C   UNL     1     -12.350  14.965  69.381  1.00  0.00    -0.133 A  
HETATM    4  H2  UNL     1     -12.418  15.595  71.247  1.00  0.00     0.000 HD 
HETATM    5  C   UNL     1     -12.350  13.584  69.556  1.00  0.00    -0.198 A  
HETATM    6  C   UNL     1     -11.686  12.749  68.646  1.00  0.00    -0.324 A  
HETATM    7 CL   UNL     1     -11.773  11.039  68.923  1.00  0.00    -0.380 Cl 
HETATM    8  C   UNL     1     -10.959  13.266  67.553  1.00  0.00    -0.263 A  
HETATM    9  C   UNL     1     -10.917  14.667  67.434  1.00  0.00    -0.308 A  
HETATM   10  C   UNL     1     -11.589  15.498  68.343  1.00  0.00    -0.368 A  
HETATM   11 CL   UNL     1      -9.933  15.472  66.253  1.00  0.00    -0.290 Cl 
ENDROOT
BRANCH   8  12
HETATM   12  N   UNL     1     -10.344  12.376  66.651  1.00  0.00    -0.224 NA 
HETATM   13  H   UNL     1     -10.955  12.042  65.905  1.00  0.00     0.000 HD 
BRANCH  12  14
HETATM   14  C   UNL     1      -9.083  11.888  66.602  1.00  0.00    -0.203 A  
HETATM   15  N   UNL     1      -8.754  10.876  65.846  1.00  0.00    -0.181 NA 
HETATM   16  H   UNL     1      -9.356  10.349  65.214  1.00  0.00     0.000 HD 
HETATM   17  C   UNL     1      -7.307  10.663  66.114  1.00  0.00    -0.138 A  
HETATM   18  C   UNL     1      -6.864  11.761  67.082  1.00  0.00    -0.148 A  
HETATM   19  N   UNL     1      -8.081  12.515  67.275  1.00  0.00    -0.179 NA 
ENDBRANCH  12  14
ENDBRANCH   8  12
TORSDOF 2
ENDMDL
MODEL      131
REMARK 921   NORMALIZED FREE ENERGY PREDICTED BY IDOCK:   -3.68 KCAL/MOL
REMARK 922        TOTAL FREE ENERGY PREDICTED BY IDOCK:   -4.29 KCAL/MOL
REMARK 923 INTER-LIGAND FREE ENERGY PREDICTED BY IDOCK:   -4.05 KCAL/MOL
REMARK 924 INTRA-LIGAND FREE ENERGY PREDICTED BY IDOCK:   -0.25 KCAL/MOL
REMARK 927      BINDING AFFINITY PREDICTED BY RF-SCORE:    0.00 PKD
ROOT
HETATM    1  N   UNL     1      -9.102   8.506  64.972  1.00  0.00    -0.420 NA 
HETATM    2  H1  UNL     1      -8.840   9.377  64.510  1.00  0.00     0.000 HD 
HETATM    3  C   UNL     1      -9.532   8.509  66.302  1.00  0.00    -0.231 A  
HETATM    4  H2  UNL     1      -9.817   8.047  64.407  1.00  0.00     0.000 HD 
HETATM    5  C   UNL     1      -9.890   7.320  66.932  1.00  0.00    -0.279 A  
HETATM    6  C   UNL     1     -10.462   7.333  68.212  1.00  0.00    -0.199 A  
HETATM    7 CL   UNL     1     -10.839   5.802  68.934  1.00  0.00    -0.340 Cl 
HETATM    8  C   UNL     1     -10.739   8.539  68.890  1.00  0.00    -0.073 A  
HETATM    9  C   UNL     1     -10.431   9.729  68.208  1.00  0.00    -0.216 A  
HETATM   10  C   UNL     1      -9.852   9.710  66.930  1.00  0.00    -0.257 A  
HETATM   11 CL   UNL     1     -10.862  11.294  68.822  1.00  0.00    -0.228 Cl 
ENDROOT
BRANCH   8  12
HETATM   12  N   UNL     1     -11.280   8.489  70.191  1.00  0.00    -0.406 NA 
HETATM   13  H   UNL     1     -12.281   8.680  70.240  1.00  0.00     0.000 HD 
BRANCH  12  14
HETATM   14  C   UNL     1     -10.700   8.233  71.386  1.00  0.00    -0.227 A  
HETATM   15  N   UNL     1      -9.498   8.646  71.682  1.00  0.00    -0.244 NA 
HETATM   16  H   UNL     1      -8.867   9.198  71.102  1.00  0.00     0.000 HD 
HETATM   17  C   UNL     1      -9.253   8.132  73.057  1.00  0.00    -0.273 A  
HETATM   18  C   UNL     1     -10.535   7.431  73.508  1.00  0.00    -0.345 A  
HETATM   19  N   UNL     1     -11.406   7.612  72.369  1.00  0.00    -0.305 NA 
ENDBRANCH  12  14
ENDBRANCH   8  12
TORSDOF 2
ENDMDL
MODEL      132
REMARK 921   NORMALIZED FREE ENERGY PREDICTED BY IDOCK:   -3.63 KCAL/MOL
REMARK 922        TOTAL FREE ENERGY PREDICTED BY IDOCK:   -4.24 KCAL/MOL
REMARK 923 INTER-LIGAND FREE ENERGY PREDICTED BY IDOCK:   -3.95 KCAL/MOL
REMARK 924 INTRA-LIGAND FREE ENERGY PREDICTED BY IDOCK:   -0.29 KCAL/MOL
REMARK 927      BINDING AFFINITY PREDICTED BY RF-SCORE:    0.00 PKD
ROOT
HETATM    1  N   UNL     1      -7.479   6.770  64.549  1.00  0.00    -0.091 NA 
HETATM    2  H1  UNL     1      -6.904   6.677  63.712  1.00  0.00     0.000 HD 
HETATM    3  C   UNL     1      -8.176   7.954  64.805  1.00  0.00    -0.108 A  
HETATM    4  H2  UNL     1      -8.145   5.998  64.566  1.00  0.00     0.000 HD 
HETATM    5  C   UNL     1      -8.961   8.080  65.948  1.00  0.00    -0.181 A  
HETATM    6  C   UNL     1      -9.777   9.205  66.133  1.00  0.00    -0.287 A  
HETATM    7 CL   UNL     1     -10.690   9.294  67.605  1.00  0.00    -0.318 Cl 
HETATM    8  C   UNL     1      -9.875  10.223  65.162  1.00  0.00    -0.321 A  
HETATM    9  C   UNL     1      -9.124  10.042  63.986  1.00  0.00    -0.257 A  
HETATM   10  C   UNL     1      -8.302   8.919  63.808  1.00  0.00    -0.164 A  
HETATM   11 CL   UNL     1      -9.257  11.108  62.623  1.00  0.00    -0.366 Cl 
ENDROOT
BRANCH   8  12
HETATM   12  N   UNL     1     -10.682  11.348  65.420  1.00  0.00    -0.272 NA 
HETATM   13  H   UNL     1     -11.656  11.243  65.135  1.00  0.00     0.000 HD 
BRANCH  12  14
HETATM   14  C   UNL     1     -10.389  12.543  65.982  1.00  0.00    -0.256 A  
HETATM   15  N   UNL     1      -9.203  13.082  65.899  1.00  0.00    -0.453 NA 
HETATM   16  H   UNL     1      -8.383  12.713  65.419  1.00  0.00     0.000 HD 
HETATM   17  C   UNL     1      -9.316  14.355  66.660  1.00  0.00    -0.278 A  
HETATM   18  C   UNL     1     -10.770  14.477  67.118  1.00  0.00    -0.286 A  
HETATM   19  N   UNL     1     -11.368  13.280  66.573  1.00  0.00    -0.312 NA 
ENDBRANCH  12  14
ENDBRANCH   8  12
TORSDOF 2
ENDMDL
MODEL      133
REMARK 921   NORMALIZED FREE ENERGY PREDICTED BY IDOCK:   -3.62 KCAL/MOL
REMARK 922        TOTAL FREE ENERGY PREDICTED BY IDOCK:   -4.23 KCAL/MOL
REMARK 923 INTER-LIGAND FREE ENERGY PREDICTED BY IDOCK:   -4.05 KCAL/MOL
REMARK 924 INTRA-LIGAND FREE ENERGY PREDICTED BY IDOCK:   -0.18 KCAL/MOL
REMARK 927      BINDING AFFINITY PREDICTED BY RF-SCORE:    0.00 PKD
ROOT
HETATM    1  N   UNL     1      -9.139   9.279  64.142  1.00  0.00    -0.429 NA 
HETATM    2  H1  UNL     1      -8.817   8.409  64.566  1.00  0.00     0.000 HD 
HETATM    3  C   UNL     1      -9.701  10.287  64.930  1.00  0.00    -0.320 A  
HETATM    4  H2  UNL     1      -8.366   9.682  63.612  1.00  0.00     0.000 HD 
HETATM    5  C   UNL     1     -10.140  11.475  64.351  1.00  0.00    -0.328 A  
HETATM    6  C   UNL     1     -10.565  12.545  65.150  1.00  0.00    -0.293 A  
HETATM    7 CL   UNL     1     -11.133  13.970  64.341  1.00  0.00    -0.344 Cl 
HETATM    8  C   UNL     1     -10.523  12.485  66.559  1.00  0.00    -0.238 A  
HETATM    9  C   UNL     1     -10.013  11.301  67.122  1.00  0.00    -0.192 A  
HETATM   10  C   UNL     1      -9.596  10.230  66.317  1.00  0.00    -0.238 A  
HETATM   11 CL   UNL     1      -9.733  11.124  68.825  1.00  0.00    -0.205 Cl 
ENDROOT
BRANCH   8  12
HETATM   12  N   UNL     1     -10.999  13.577  67.311  1.00  0.00    -0.276 NA 
HETATM   13  H   UNL     1     -11.985  13.518  67.565  1.00  0.00     0.000 HD 
BRANCH  12  14
HETATM   14  C   UNL     1     -10.373  14.692  67.754  1.00  0.00    -0.237 A  
HETATM   15  N   UNL     1     -10.116  14.893  69.018  1.00  0.00    -0.233 NA 
HETATM   16  H   UNL     1     -10.322  14.275  69.802  1.00  0.00     0.000 HD 
HETATM   17  C   UNL     1      -9.455  16.225  69.059  1.00  0.00    -0.258 A  
HETATM   18  C   UNL     1      -9.317  16.701  67.612  1.00  0.00    -0.224 A  
HETATM   19  N   UNL     1      -9.894  15.605  66.868  1.00  0.00    -0.233 NA 
ENDBRANCH  12  14
ENDBRANCH   8  12
TORSDOF 2
ENDMDL
MODEL      134
REMARK 921   NORMALIZED FREE ENERGY PREDICTED BY IDOCK:   -3.60 KCAL/MOL
REMARK 922        TOTAL FREE ENERGY PREDICTED BY IDOCK:   -4.21 KCAL/MOL
REMARK 923 INTER-LIGAND FREE ENERGY PREDICTED BY IDOCK:   -3.90 KCAL/MOL
REMARK 924 INTRA-LIGAND FREE ENERGY PREDICTED BY IDOCK:   -0.32 KCAL/MOL
REMARK 927      BINDING AFFINITY PREDICTED BY RF-SCORE:    0.00 PKD
ROOT
HETATM    1  N   UNL     1      -5.647  15.269  68.508  1.00  0.00    -0.091 NA 
HETATM    2  H1  UNL     1      -5.332  16.222  68.326  1.00  0.00     0.000 HD 
HETATM    3  C   UNL     1      -6.940  14.869  68.161  1.00  0.00    -0.126 A  
HETATM    4  H2  UNL     1      -4.986  14.626  68.073  1.00  0.00     0.000 HD 
HETATM    5  C   UNL     1      -7.369  13.568  68.410  1.00  0.00    -0.115 A  
HETATM    6  C   UNL     1      -8.608  13.121  67.929  1.00  0.00    -0.185 A  
HETATM    7 CL   UNL     1      -9.076  11.497  68.322  1.00  0.00    -0.180 Cl 
HETATM    8  C   UNL     1      -9.443  13.942  67.143  1.00  0.00    -0.246 A  
HETATM    9  C   UNL     1      -8.960  15.229  66.848  1.00  0.00    -0.249 A  
HETATM   10  C   UNL     1      -7.722  15.676  67.338  1.00  0.00    -0.215 A  
HETATM   11 CL   UNL     1      -9.777  16.305  65.759  1.00  0.00    -0.341 Cl 
ENDROOT
BRANCH   8  12
HETATM   12  N   UNL     1     -10.694  13.451  66.721  1.00  0.00    -0.276 NA 
HETATM   13  H   UNL     1     -11.411  13.441  67.446  1.00  0.00     0.000 HD 
BRANCH  12  14
HETATM   14  C   UNL     1     -11.109  12.989  65.519  1.00  0.00    -0.275 A  
HETATM   15  N   UNL     1     -10.796  11.800  65.080  1.00  0.00    -0.292 NA 
HETATM   16  H   UNL     1     -10.242  11.087  65.554  1.00  0.00     0.000 HD 
HETATM   17  C   UNL     1     -11.428  11.718  63.736  1.00  0.00    -0.420 A  
HETATM   18  C   UNL     1     -12.203  13.019  63.525  1.00  0.00    -0.501 A  
HETATM   19  N   UNL     1     -11.965  13.727  64.761  1.00  0.00    -0.384 NA 
ENDBRANCH  12  14
ENDBRANCH   8  12
TORSDOF 2
ENDMDL
MODEL      135
REMARK 921   NORMALIZED FREE ENERGY PREDICTED BY IDOCK:   -3.60 KCAL/MOL
REMARK 922        TOTAL FREE ENERGY PREDICTED BY IDOCK:   -4.21 KCAL/MOL
REMARK 923 INTER-LIGAND FREE ENERGY PREDICTED BY IDOCK:   -3.90 KCAL/MOL
REMARK 924 INTRA-LIGAND FREE ENERGY PREDICTED BY IDOCK:   -0.31 KCAL/MOL
REMARK 927      BINDING AFFINITY PREDICTED BY RF-SCORE:    0.00 PKD
ROOT
HETATM    1  N   UNL     1     -13.612  13.044  72.347  1.00  0.00    -0.584 NA 
HETATM    2  H1  UNL     1     -13.900  14.016  72.457  1.00  0.00     0.000 HD 
HETATM    3  C   UNL     1     -12.897  12.639  71.216  1.00  0.00    -0.250 A  
HETATM    4  H2  UNL     1     -13.081  12.772  73.174  1.00  0.00     0.000 HD 
HETATM    5  C   UNL     1     -12.504  11.311  71.066  1.00  0.00    -0.503 A  
HETATM    6  C   UNL     1     -11.662  10.931  70.012  1.00  0.00    -0.345 A  
HETATM    7 CL   UNL     1     -11.256   9.250  69.882  1.00  0.00    -0.192 Cl 
HETATM    8  C   UNL     1     -11.144  11.871  69.096  1.00  0.00    -0.228 A  
HETATM    9  C   UNL     1     -11.500  13.215  69.306  1.00  0.00    -0.291 A  
HETATM   10  C   UNL     1     -12.350  13.589  70.359  1.00  0.00    -0.397 A  
HETATM   11 CL   UNL     1     -10.821  14.515  68.380  1.00  0.00    -0.240 Cl 
ENDROOT
BRANCH   8  12
HETATM   12  N   UNL     1     -10.333  11.424  68.035  1.00  0.00    -0.179 NA 
HETATM   13  H   UNL     1     -10.833  10.916  67.305  1.00  0.00     0.000 HD 
BRANCH  12  14
HETATM   14  C   UNL     1      -9.004  11.553  67.815  1.00  0.00    -0.160 A  
HETATM   15  N   UNL     1      -8.525  12.176  66.773  1.00  0.00    -0.296 NA 
HETATM   16  H   UNL     1      -9.047  12.638  66.029  1.00  0.00     0.000 HD 
HETATM   17  C   UNL     1      -7.049  12.062  66.913  1.00  0.00    -0.033 A  
HETATM   18  C   UNL     1      -6.778  11.342  68.235  1.00  0.00    -0.059 A  
HETATM   19  N   UNL     1      -8.112  11.117  68.745  1.00  0.00    -0.146 NA 
ENDBRANCH  12  14
ENDBRANCH   8  12
TORSDOF 2
ENDMDL
MODEL      136
REMARK 921   NORMALIZED FREE ENERGY PREDICTED BY IDOCK:   -3.53 KCAL/MOL
REMARK 922        TOTAL FREE ENERGY PREDICTED BY IDOCK:   -4.13 KCAL/MOL
REMARK 923 INTER-LIGAND FREE ENERGY PREDICTED BY IDOCK:   -3.92 KCAL/MOL
REMARK 924 INTRA-LIGAND FREE ENERGY PREDICTED BY IDOCK:   -0.21 KCAL/MOL
REMARK 927      BINDING AFFINITY PREDICTED BY RF-SCORE:    0.00 PKD
ROOT
HETATM    1  N   UNL     1      -8.759  13.375  66.676  1.00  0.00    -0.441 NA 
HETATM    2  H1  UNL     1      -8.882  14.188  67.279  1.00  0.00     0.000 HD 
HETATM    3  C   UNL     1      -9.190  12.111  67.090  1.00  0.00    -0.193 A  
HETATM    4  H2  UNL     1      -9.189  13.579  65.774  1.00  0.00     0.000 HD 
HETATM    5  C   UNL     1      -9.022  11.002  66.265  1.00  0.00    -0.195 A  
HETATM    6  C   UNL     1      -9.585   9.765  66.610  1.00  0.00    -0.187 A  
HETATM    7 CL   UNL     1      -9.290   8.430  65.542  1.00  0.00    -0.074 Cl 
HETATM    8  C   UNL     1     -10.374   9.602  67.767  1.00  0.00    -0.236 A  
HETATM    9  C   UNL     1     -10.586  10.751  68.550  1.00  0.00    -0.195 A  
HETATM   10  C   UNL     1     -10.014  11.986  68.205  1.00  0.00    -0.203 A  
HETATM   11 CL   UNL     1     -11.666  10.768  69.908  1.00  0.00    -0.372 Cl 
ENDROOT
BRANCH   8  12
HETATM   12  N   UNL     1     -10.882   8.326  68.082  1.00  0.00    -0.453 NA 
HETATM   13  H   UNL     1     -11.406   7.882  67.328  1.00  0.00     0.000 HD 
BRANCH  12  14
HETATM   14  C   UNL     1     -10.794   7.588  69.213  1.00  0.00    -0.117 A  
HETATM   15  N   UNL     1     -11.839   7.048  69.778  1.00  0.00    -0.590 NA 
HETATM   16  H   UNL     1     -12.809   7.089  69.464  1.00  0.00     0.000 HD 
HETATM   17  C   UNL     1     -11.301   6.360  70.982  1.00  0.00    -0.328 A  
HETATM   18  C   UNL     1      -9.783   6.539  70.959  1.00  0.00    -0.175 A  
HETATM   19  N   UNL     1      -9.577   7.296  69.746  1.00  0.00    -0.163 NA 
ENDBRANCH  12  14
ENDBRANCH   8  12
TORSDOF 2
ENDMDL
MODEL      137
REMARK 921   NORMALIZED FREE ENERGY PREDICTED BY IDOCK:   -3.52 KCAL/MOL
REMARK 922        TOTAL FREE ENERGY PREDICTED BY IDOCK:   -4.11 KCAL/MOL
REMARK 923 INTER-LIGAND FREE ENERGY PREDICTED BY IDOCK:   -4.07 KCAL/MOL
REMARK 924 INTRA-LIGAND FREE ENERGY PREDICTED BY IDOCK:   -0.04 KCAL/MOL
REMARK 927      BINDING AFFINITY PREDICTED BY RF-SCORE:    0.00 PKD
ROOT
HETATM    1  N   UNL     1      -8.553   9.470  70.954  1.00  0.00    -0.341 NA 
HETATM    2  H1  UNL     1      -8.664   8.540  71.358  1.00  0.00     0.000 HD 
HETATM    3  C   UNL     1      -8.836   9.697  69.605  1.00  0.00    -0.201 A  
HETATM    4  H2  UNL     1      -9.100  10.127  71.510  1.00  0.00     0.000 HD 
HETATM    5  C   UNL     1      -8.684  10.966  69.054  1.00  0.00    -0.108 A  
HETATM    6  C   UNL     1      -9.107  11.232  67.744  1.00  0.00    -0.152 A  
HETATM    7 CL   UNL     1      -8.842  12.832  67.129  1.00  0.00    -0.196 Cl 
HETATM    8  C   UNL     1      -9.741  10.251  66.953  1.00  0.00    -0.186 A  
HETATM    9  C   UNL     1      -9.945   8.996  67.553  1.00  0.00    -0.207 A  
HETATM   10  C   UNL     1      -9.512   8.732  68.862  1.00  0.00    -0.145 A  
HETATM   11 CL   UNL     1     -10.855   7.733  66.786  1.00  0.00    -0.172 Cl 
ENDROOT
BRANCH   8  12
HETATM   12  N   UNL     1     -10.110  10.565  65.630  1.00  0.00    -0.264 NA 
HETATM   13  H   UNL     1      -9.642  10.007  64.916  1.00  0.00     0.000 HD 
BRANCH  12  14
HETATM   14  C   UNL     1     -10.980  11.480  65.143  1.00  0.00    -0.234 A  
HETATM   15  N   UNL     1     -11.949  11.976  65.863  1.00  0.00    -0.519 NA 
HETATM   16  H   UNL     1     -12.169  11.772  66.838  1.00  0.00     0.000 HD 
HETATM   17  C   UNL     1     -12.660  12.906  64.946  1.00  0.00    -0.458 A  
HETATM   18  C   UNL     1     -11.892  12.906  63.623  1.00  0.00    -0.532 A  
HETATM   19  N   UNL     1     -10.805  11.994  63.896  1.00  0.00    -0.357 NA 
ENDBRANCH  12  14
ENDBRANCH   8  12
TORSDOF 2
ENDMDL
MODEL      138
REMARK 921   NORMALIZED FREE ENERGY PREDICTED BY IDOCK:   -3.50 KCAL/MOL
REMARK 922        TOTAL FREE ENERGY PREDICTED BY IDOCK:   -4.10 KCAL/MOL
REMARK 923 INTER-LIGAND FREE ENERGY PREDICTED BY IDOCK:   -3.83 KCAL/MOL
REMARK 924 INTRA-LIGAND FREE ENERGY PREDICTED BY IDOCK:   -0.27 KCAL/MOL
REMARK 927      BINDING AFFINITY PREDICTED BY RF-SCORE:    0.00 PKD
ROOT
HETATM    1  N   UNL     1     -13.397  12.726  72.363  1.00  0.00    -0.480 NA 
HETATM    2  H1  UNL     1     -13.585  13.694  72.101  1.00  0.00     0.000 HD 
HETATM    3  C   UNL     1     -12.918  11.814  71.418  1.00  0.00    -0.306 A  
HETATM    4  H2  UNL     1     -12.757  12.728  73.157  1.00  0.00     0.000 HD 
HETATM    5  C   UNL     1     -12.662  10.493  71.777  1.00  0.00    -0.508 A  
HETATM    6  C   UNL     1     -12.043   9.616  70.876  1.00  0.00    -0.300 A  
HETATM    7 CL   UNL     1     -11.800   7.979  71.395  1.00  0.00    -0.310 Cl 
HETATM    8  C   UNL     1     -11.614  10.039  69.600  1.00  0.00    -0.096 A  
HETATM    9  C   UNL     1     -11.822  11.394  69.285  1.00  0.00    -0.349 A  
HETATM   10  C   UNL     1     -12.450  12.266  70.187  1.00  0.00    -0.095 A  
HETATM   11 CL   UNL     1     -11.207  12.118  67.833  1.00  0.00    -0.302 Cl 
ENDROOT
BRANCH   8  12
HETATM   12  N   UNL     1     -11.032   9.103  68.723  1.00  0.00    -0.445 NA 
HETATM   13  H   UNL     1     -11.696   8.623  68.116  1.00  0.00     0.000 HD 
BRANCH  12  14
HETATM   14  C   UNL     1      -9.743   8.731  68.547  1.00  0.00    -0.162 A  
HETATM   15  N   UNL     1      -9.161   7.845  69.309  1.00  0.00    -0.148 NA 
HETATM   16  H   UNL     1      -9.569   7.328  70.088  1.00  0.00     0.000 HD 
HETATM   17  C   UNL     1      -7.770   7.758  68.788  1.00  0.00    -0.113 A  
HETATM   18  C   UNL     1      -7.689   8.679  67.570  1.00  0.00    -0.098 A  
HETATM   19  N   UNL     1      -9.033   9.202  67.486  1.00  0.00    -0.122 NA 
ENDBRANCH  12  14
ENDBRANCH   8  12
TORSDOF 2
ENDMDL
MODEL      139
REMARK 921   NORMALIZED FREE ENERGY PREDICTED BY IDOCK:   -3.47 KCAL/MOL
REMARK 922        TOTAL FREE ENERGY PREDICTED BY IDOCK:   -4.07 KCAL/MOL
REMARK 923 INTER-LIGAND FREE ENERGY PREDICTED BY IDOCK:   -3.77 KCAL/MOL
REMARK 924 INTRA-LIGAND FREE ENERGY PREDICTED BY IDOCK:   -0.30 KCAL/MOL
REMARK 927      BINDING AFFINITY PREDICTED BY RF-SCORE:    0.00 PKD
ROOT
HETATM    1  N   UNL     1      -8.484  12.407  68.836  1.00  0.00    -0.348 NA 
HETATM    2  H1  UNL     1      -8.333  12.514  69.839  1.00  0.00     0.000 HD 
HETATM    3  C   UNL     1      -8.977  11.208  68.315  1.00  0.00    -0.166 A  
HETATM    4  H2  UNL     1      -9.091  13.165  68.522  1.00  0.00     0.000 HD 
HETATM    5  C   UNL     1      -9.184  11.064  66.945  1.00  0.00    -0.168 A  
HETATM    6  C   UNL     1      -9.816   9.922  66.435  1.00  0.00    -0.227 A  
HETATM    7 CL   UNL     1      -9.995   9.811  64.713  1.00  0.00    -0.162 Cl 
HETATM    8  C   UNL     1     -10.307   8.903  67.278  1.00  0.00    -0.280 A  
HETATM    9  C   UNL     1     -10.147   9.101  68.661  1.00  0.00    -0.194 A  
HETATM   10  C   UNL     1      -9.507  10.242  69.167  1.00  0.00    -0.225 A  
HETATM   11 CL   UNL     1     -10.839   8.034  69.841  1.00  0.00    -0.242 Cl 
ENDROOT
BRANCH   8  12
HETATM   12  N   UNL     1     -10.900   7.760  66.706  1.00  0.00    -0.447 NA 
HETATM   13  H   UNL     1     -11.867   7.889  66.409  1.00  0.00     0.000 HD 
BRANCH  12  14
HETATM   14  C   UNL     1     -10.407   6.520  66.482  1.00  0.00    -0.062 A  
HETATM   15  N   UNL     1     -11.175   5.504  66.195  1.00  0.00    -0.761 NA 
HETATM   16  H   UNL     1     -12.190   5.499  66.091  1.00  0.00     0.000 HD 
HETATM   17  C   UNL     1     -10.241   4.356  66.054  1.00  0.00    -0.219 A  
HETATM   18  C   UNL     1      -8.825   4.905  66.234  1.00  0.00    -0.116 A  
HETATM   19  N   UNL     1      -9.063   6.314  66.448  1.00  0.00    -0.151 NA 
ENDBRANCH  12  14
ENDBRANCH   8  12
TORSDOF 2
ENDMDL
MODEL      140
REMARK 921   NORMALIZED FREE ENERGY PREDICTED BY IDOCK:   -3.47 KCAL/MOL
REMARK 922        TOTAL FREE ENERGY PREDICTED BY IDOCK:   -4.07 KCAL/MOL
REMARK 923 INTER-LIGAND FREE ENERGY PREDICTED BY IDOCK:   -3.79 KCAL/MOL
REMARK 924 INTRA-LIGAND FREE ENERGY PREDICTED BY IDOCK:   -0.28 KCAL/MOL
REMARK 927      BINDING AFFINITY PREDICTED BY RF-SCORE:    0.00 PKD
ROOT
HETATM    1  N   UNL     1      -6.965  10.869  65.091  1.00  0.00    -0.352 NA 
HETATM    2  H1  UNL     1      -6.261  10.494  64.455  1.00  0.00     0.000 HD 
HETATM    3  C   UNL     1      -7.982  10.050  65.589  1.00  0.00    -0.140 A  
HETATM    4  H2  UNL     1      -6.484  11.298  65.882  1.00  0.00     0.000 HD 
HETATM    5  C   UNL     1      -8.942  10.563  66.456  1.00  0.00    -0.171 A  
HETATM    6  C   UNL     1      -9.872   9.716  67.075  1.00  0.00    -0.195 A  
HETATM    7 CL   UNL     1     -11.055  10.449  68.109  1.00  0.00    -0.337 Cl 
HETATM    8  C   UNL     1      -9.847   8.318  66.884  1.00  0.00    -0.247 A  
HETATM    9  C   UNL     1      -8.827   7.815  66.057  1.00  0.00    -0.157 A  
HETATM   10  C   UNL     1      -7.903   8.668  65.434  1.00  0.00    -0.101 A  
HETATM   11 CL   UNL     1      -8.548   6.115  65.851  1.00  0.00    -0.144 Cl 
ENDROOT
BRANCH   8  12
HETATM   12  N   UNL     1     -10.831   7.521  67.502  1.00  0.00    -0.507 NA 
HETATM   13  H   UNL     1     -11.715   7.473  66.995  1.00  0.00     0.000 HD 
BRANCH  12  14
HETATM   14  C   UNL     1     -10.805   6.807  68.651  1.00  0.00    -0.224 A  
HETATM   15  N   UNL     1     -11.332   7.249  69.760  1.00  0.00    -0.480 NA 
HETATM   16  H   UNL     1     -11.819   8.132  69.910  1.00  0.00     0.000 HD 
HETATM   17  C   UNL     1     -11.062   6.178  70.756  1.00  0.00    -0.309 A  
HETATM   18  C   UNL     1     -10.368   5.037  70.011  1.00  0.00    -0.233 A  
HETATM   19  N   UNL     1     -10.311   5.539  68.658  1.00  0.00    -0.192 NA 
ENDBRANCH  12  14
ENDBRANCH   8  12
TORSDOF 2
ENDMDL
MODEL      141
REMARK 921   NORMALIZED FREE ENERGY PREDICTED BY IDOCK:   -3.45 KCAL/MOL
REMARK 922        TOTAL FREE ENERGY PREDICTED BY IDOCK:   -4.04 KCAL/MOL
REMARK 923 INTER-LIGAND FREE ENERGY PREDICTED BY IDOCK:   -3.75 KCAL/MOL
REMARK 924 INTRA-LIGAND FREE ENERGY PREDICTED BY IDOCK:   -0.29 KCAL/MOL
REMARK 927      BINDING AFFINITY PREDICTED BY RF-SCORE:    0.00 PKD
ROOT
HETATM    1  N   UNL     1     -12.268  10.878  68.800  1.00  0.00    -0.793 NA 
HETATM    2  H1  UNL     1     -13.150  11.292  68.496  1.00  0.00     0.000 HD 
HETATM    3  C   UNL     1     -11.179  10.808  67.927  1.00  0.00    -0.318 A  
HETATM    4  H2  UNL     1     -11.967  11.357  69.648  1.00  0.00     0.000 HD 
HETATM    5  C   UNL     1      -9.976  10.244  68.342  1.00  0.00    -0.173 A  
HETATM    6  C   UNL     1      -8.838  10.305  67.525  1.00  0.00    -0.128 A  
HETATM    7 CL   UNL     1      -7.395   9.541  68.108  1.00  0.00    -0.078 Cl 
HETATM    8  C   UNL     1      -8.849  10.973  66.283  1.00  0.00    -0.180 A  
HETATM    9  C   UNL     1     -10.056  11.593  65.914  1.00  0.00    -0.230 A  
HETATM   10  C   UNL     1     -11.195  11.522  66.732  1.00  0.00    -0.350 A  
HETATM   11 CL   UNL     1     -10.196  12.596  64.505  1.00  0.00    -0.340 Cl 
ENDROOT
BRANCH   8  12
HETATM   12  N   UNL     1      -7.687  10.969  65.487  1.00  0.00    -0.363 NA 
HETATM   13  H   UNL     1      -6.933  11.562  65.837  1.00  0.00     0.000 HD 
BRANCH  12  14
HETATM   14  C   UNL     1      -7.396  10.315  64.339  1.00  0.00    -0.075 A  
HETATM   15  N   UNL     1      -6.433  10.694  63.544  1.00  0.00    -0.363 NA 
HETATM   16  H   UNL     1      -5.793  11.477  63.669  1.00  0.00     0.000 HD 
HETATM   17  C   UNL     1      -6.479   9.727  62.414  1.00  0.00    -0.103 A  
HETATM   18  C   UNL     1      -7.570   8.707  62.740  1.00  0.00    -0.112 A  
HETATM   19  N   UNL     1      -8.045   9.161  64.027  1.00  0.00    -0.142 NA 
ENDBRANCH  12  14
ENDBRANCH   8  12
TORSDOF 2
ENDMDL
MODEL      142
REMARK 921   NORMALIZED FREE ENERGY PREDICTED BY IDOCK:   -3.44 KCAL/MOL
REMARK 922        TOTAL FREE ENERGY PREDICTED BY IDOCK:   -4.03 KCAL/MOL
REMARK 923 INTER-LIGAND FREE ENERGY PREDICTED BY IDOCK:   -3.71 KCAL/MOL
REMARK 924 INTRA-LIGAND FREE ENERGY PREDICTED BY IDOCK:   -0.32 KCAL/MOL
REMARK 927      BINDING AFFINITY PREDICTED BY RF-SCORE:    0.00 PKD
ROOT
HETATM    1  N   UNL     1      -9.119   8.920  65.047  1.00  0.00    -0.419 NA 
HETATM    2  H1  UNL     1      -8.248   8.785  64.534  1.00  0.00     0.000 HD 
HETATM    3  C   UNL     1      -9.205   9.880  66.059  1.00  0.00    -0.170 A  
HETATM    4  H2  UNL     1      -9.862   9.099  64.373  1.00  0.00     0.000 HD 
HETATM    5  C   UNL     1     -10.394  10.063  66.760  1.00  0.00    -0.283 A  
HETATM    6  C   UNL     1     -10.532  11.122  67.669  1.00  0.00    -0.196 A  
HETATM    7 CL   UNL     1     -12.035  11.248  68.524  1.00  0.00    -0.353 Cl 
HETATM    8  C   UNL     1      -9.502  12.063  67.877  1.00  0.00    -0.196 A  
HETATM    9  C   UNL     1      -8.335  11.897  67.109  1.00  0.00    -0.174 A  
HETATM   10  C   UNL     1      -8.199  10.831  66.206  1.00  0.00    -0.162 A  
HETATM   11 CL   UNL     1      -7.043  13.055  67.115  1.00  0.00    -0.037 Cl 
ENDROOT
BRANCH   8  12
HETATM   12  N   UNL     1      -9.682  13.083  68.831  1.00  0.00    -0.406 NA 
HETATM   13  H   UNL     1      -9.469  12.808  69.790  1.00  0.00     0.000 HD 
BRANCH  12  14
HETATM   14  C   UNL     1     -10.090  14.366  68.695  1.00  0.00    -0.242 A  
HETATM   15  N   UNL     1     -11.331  14.682  68.442  1.00  0.00    -0.278 NA 
HETATM   16  H   UNL     1     -12.124  14.052  68.330  1.00  0.00     0.000 HD 
HETATM   17  C   UNL     1     -11.329  16.167  68.352  1.00  0.00    -0.345 A  
HETATM   18  C   UNL     1      -9.907  16.633  68.668  1.00  0.00    -0.252 A  
HETATM   19  N   UNL     1      -9.221  15.388  68.925  1.00  0.00    -0.202 NA 
ENDBRANCH  12  14
ENDBRANCH   8  12
TORSDOF 2
ENDMDL
MODEL      143
REMARK 921   NORMALIZED FREE ENERGY PREDICTED BY IDOCK:   -3.44 KCAL/MOL
REMARK 922        TOTAL FREE ENERGY PREDICTED BY IDOCK:   -4.03 KCAL/MOL
REMARK 923 INTER-LIGAND FREE ENERGY PREDICTED BY IDOCK:   -3.76 KCAL/MOL
REMARK 924 INTRA-LIGAND FREE ENERGY PREDICTED BY IDOCK:   -0.28 KCAL/MOL
REMARK 927      BINDING AFFINITY PREDICTED BY RF-SCORE:    0.00 PKD
ROOT
HETATM    1  N   UNL     1      -8.841   9.340  65.161  1.00  0.00    -0.188 NA 
HETATM    2  H1  UNL     1      -8.451   8.570  64.617  1.00  0.00     0.000 HD 
HETATM    3  C   UNL     1      -9.570   9.088  66.327  1.00  0.00    -0.260 A  
HETATM    4  H2  UNL     1      -8.084   9.983  65.391  1.00  0.00     0.000 HD 
HETATM    5  C   UNL     1     -10.101  10.139  67.069  1.00  0.00    -0.277 A  
HETATM    6  C   UNL     1     -10.702   9.902  68.313  1.00  0.00    -0.234 A  
HETATM    7 CL   UNL     1     -11.372  11.266  69.149  1.00  0.00    -0.313 Cl 
HETATM    8  C   UNL     1     -10.753   8.612  68.882  1.00  0.00    -0.082 A  
HETATM    9  C   UNL     1     -10.151   7.576  68.146  1.00  0.00    -0.183 A  
HETATM   10  C   UNL     1      -9.557   7.817  66.897  1.00  0.00    -0.256 A  
HETATM   11 CL   UNL     1      -9.974   5.968  68.772  1.00  0.00    -0.170 Cl 
ENDROOT
BRANCH   8  12
HETATM   12  N   UNL     1     -11.403   8.428  70.118  1.00  0.00    -0.441 NA 
HETATM   13  H   UNL     1     -12.417   8.543  70.084  1.00  0.00     0.000 HD 
BRANCH  12  14
HETATM   14  C   UNL     1     -10.917   8.125  71.344  1.00  0.00    -0.237 A  
HETATM   15  N   UNL     1     -11.604   7.445  72.220  1.00  0.00    -0.285 NA 
HETATM   16  H   UNL     1     -12.541   7.057  72.113  1.00  0.00     0.000 HD 
HETATM   17  C   UNL     1     -10.717   7.364  73.411  1.00  0.00    -0.357 A  
HETATM   18  C   UNL     1      -9.398   8.041  73.035  1.00  0.00    -0.275 A  
HETATM   19  N   UNL     1      -9.632   8.438  71.666  1.00  0.00    -0.197 NA 
ENDBRANCH  12  14
ENDBRANCH   8  12
TORSDOF 2
ENDMDL
MODEL      144
REMARK 921   NORMALIZED FREE ENERGY PREDICTED BY IDOCK:   -3.43 KCAL/MOL
REMARK 922        TOTAL FREE ENERGY PREDICTED BY IDOCK:   -4.01 KCAL/MOL
REMARK 923 INTER-LIGAND FREE ENERGY PREDICTED BY IDOCK:   -3.68 KCAL/MOL
REMARK 924 INTRA-LIGAND FREE ENERGY PREDICTED BY IDOCK:   -0.34 KCAL/MOL
REMARK 927      BINDING AFFINITY PREDICTED BY RF-SCORE:    0.00 PKD
ROOT
HETATM    1  N   UNL     1      -9.211  10.288  65.293  1.00  0.00    -0.183 NA 
HETATM    2  H1  UNL     1      -9.972  10.051  64.657  1.00  0.00     0.000 HD 
HETATM    3  C   UNL     1      -9.276  11.441  66.080  1.00  0.00    -0.214 A  
HETATM    4  H2  UNL     1      -9.049   9.491  65.908  1.00  0.00     0.000 HD 
HETATM    5  C   UNL     1      -8.237  11.765  66.948  1.00  0.00    -0.166 A  
HETATM    6  C   UNL     1      -8.363  12.834  67.845  1.00  0.00    -0.172 A  
HETATM    7 CL   UNL     1      -7.002  13.187  68.861  1.00  0.00    -0.103 Cl 
HETATM    8  C   UNL     1      -9.549  13.591  67.940  1.00  0.00    -0.218 A  
HETATM    9  C   UNL     1     -10.609  13.205  67.101  1.00  0.00    -0.257 A  
HETATM   10  C   UNL     1     -10.476  12.138  66.199  1.00  0.00    -0.281 A  
HETATM   11 CL   UNL     1     -12.189  13.915  67.207  1.00  0.00    -0.394 Cl 
ENDROOT
BRANCH   8  12
HETATM   12  N   UNL     1      -9.604  14.679  68.834  1.00  0.00    -0.276 NA 
HETATM   13  H   UNL     1      -9.818  14.423  69.798  1.00  0.00     0.000 HD 
BRANCH  12  14
HETATM   14  C   UNL     1      -9.421  16.004  68.634  1.00  0.00    -0.224 A  
HETATM   15  N   UNL     1      -8.263  16.508  68.302  1.00  0.00    -0.178 NA 
HETATM   16  H   UNL     1      -7.389  16.009  68.141  1.00  0.00     0.000 HD 
HETATM   17  C   UNL     1      -8.504  17.973  68.210  1.00  0.00    -0.287 A  
HETATM   18  C   UNL     1      -9.994  18.199  68.470  1.00  0.00    -0.395 A  
HETATM   19  N   UNL     1     -10.482  16.855  68.674  1.00  0.00    -0.330 NA 
ENDBRANCH  12  14
ENDBRANCH   8  12
TORSDOF 2
ENDMDL
MODEL      145
REMARK 921   NORMALIZED FREE ENERGY PREDICTED BY IDOCK:   -3.43 KCAL/MOL
REMARK 922        TOTAL FREE ENERGY PREDICTED BY IDOCK:   -4.01 KCAL/MOL
REMARK 923 INTER-LIGAND FREE ENERGY PREDICTED BY IDOCK:   -3.78 KCAL/MOL
REMARK 924 INTRA-LIGAND FREE ENERGY PREDICTED BY IDOCK:   -0.24 KCAL/MOL
REMARK 927      BINDING AFFINITY PREDICTED BY RF-SCORE:    0.00 PKD
ROOT
HETATM    1  N   UNL     1     -11.032   9.267  71.523  1.00  0.00    -0.360 NA 
HETATM    2  H1  UNL     1     -11.841   9.366  72.135  1.00  0.00     0.000 HD 
HETATM    3  C   UNL     1     -10.892  10.079  70.394  1.00  0.00    -0.318 A  
HETATM    4  H2  UNL     1     -10.189   9.360  72.089  1.00  0.00     0.000 HD 
HETATM    5  C   UNL     1      -9.787   9.942  69.557  1.00  0.00    -0.241 A  
HETATM    6  C   UNL     1      -9.566  10.850  68.512  1.00  0.00    -0.187 A  
HETATM    7 CL   UNL     1      -8.186  10.579  67.498  1.00  0.00    -0.114 Cl 
HETATM    8  C   UNL     1     -10.416  11.955  68.293  1.00  0.00    -0.205 A  
HETATM    9  C   UNL     1     -11.487  12.111  69.191  1.00  0.00    -0.296 A  
HETATM   10  C   UNL     1     -11.708  11.195  70.231  1.00  0.00    -0.431 A  
HETATM   11 CL   UNL     1     -12.525  13.501  69.171  1.00  0.00    -0.056 Cl 
ENDROOT
BRANCH   8  12
HETATM   12  N   UNL     1     -10.165  12.812  67.204  1.00  0.00    -0.232 NA 
HETATM   13  H   UNL     1     -10.401  12.418  66.293  1.00  0.00     0.000 HD 
BRANCH  12  14
HETATM   14  C   UNL     1      -9.666  14.069  67.157  1.00  0.00    -0.242 A  
HETATM   15  N   UNL     1      -8.386  14.310  67.079  1.00  0.00    -0.351 NA 
HETATM   16  H   UNL     1      -7.626  13.632  67.030  1.00  0.00     0.000 HD 
HETATM   17  C   UNL     1      -8.283  15.794  67.076  1.00  0.00    -0.228 A  
HETATM   18  C   UNL     1      -9.710  16.342  67.091  1.00  0.00    -0.239 A  
HETATM   19  N   UNL     1     -10.507  15.137  67.086  1.00  0.00    -0.275 NA 
ENDBRANCH  12  14
ENDBRANCH   8  12
TORSDOF 2
ENDMDL
MODEL      146
REMARK 921   NORMALIZED FREE ENERGY PREDICTED BY IDOCK:   -3.43 KCAL/MOL
REMARK 922        TOTAL FREE ENERGY PREDICTED BY IDOCK:   -4.01 KCAL/MOL
REMARK 923 INTER-LIGAND FREE ENERGY PREDICTED BY IDOCK:   -3.70 KCAL/MOL
REMARK 924 INTRA-LIGAND FREE ENERGY PREDICTED BY IDOCK:   -0.32 KCAL/MOL
REMARK 927      BINDING AFFINITY PREDICTED BY RF-SCORE:    0.00 PKD
ROOT
HETATM    1  N   UNL     1      -7.112   7.079  67.336  1.00  0.00    -0.085 NA 
HETATM    2  H1  UNL     1      -6.593   6.492  66.683  1.00  0.00     0.000 HD 
HETATM    3  C   UNL     1      -7.527   8.360  66.963  1.00  0.00    -0.088 A  
HETATM    4  H2  UNL     1      -7.930   6.558  67.652  1.00  0.00     0.000 HD 
HETATM    5  C   UNL     1      -8.236   9.161  67.855  1.00  0.00    -0.112 A  
HETATM    6  C   UNL     1      -8.782  10.383  67.439  1.00  0.00    -0.125 A  
HETATM    7 CL   UNL     1      -9.615  11.331  68.628  1.00  0.00    -0.202 Cl 
HETATM    8  C   UNL     1      -8.679  10.829  66.104  1.00  0.00    -0.180 A  
HETATM    9  C   UNL     1      -8.017   9.973  65.206  1.00  0.00    -0.143 A  
HETATM   10  C   UNL     1      -7.465   8.754  65.629  1.00  0.00    -0.085 A  
HETATM   11 CL   UNL     1      -7.948  10.285  63.500  1.00  0.00    -0.158 Cl 
ENDROOT
BRANCH   8  12
HETATM   12  N   UNL     1      -9.215  12.083  65.752  1.00  0.00    -0.418 NA 
HETATM   13  H   UNL     1      -8.669  12.882  66.077  1.00  0.00     0.000 HD 
BRANCH  12  14
HETATM   14  C   UNL     1     -10.328  12.412  65.058  1.00  0.00    -0.293 A  
HETATM   15  N   UNL     1     -10.280  13.054  63.922  1.00  0.00    -0.713 NA 
HETATM   16  H   UNL     1      -9.451  13.368  63.419  1.00  0.00     0.000 HD 
HETATM   17  C   UNL     1     -11.704  13.225  63.527  1.00  0.00    -0.336 A  
HETATM   18  C   UNL     1     -12.550  12.513  64.583  1.00  0.00    -0.426 A  
HETATM   19  N   UNL     1     -11.549  11.986  65.481  1.00  0.00    -0.331 NA 
ENDBRANCH  12  14
ENDBRANCH   8  12
TORSDOF 2
ENDMDL
MODEL      147
REMARK 921   NORMALIZED FREE ENERGY PREDICTED BY IDOCK:   -3.42 KCAL/MOL
REMARK 922        TOTAL FREE ENERGY PREDICTED BY IDOCK:   -4.01 KCAL/MOL
REMARK 923 INTER-LIGAND FREE ENERGY PREDICTED BY IDOCK:   -3.71 KCAL/MOL
REMARK 924 INTRA-LIGAND FREE ENERGY PREDICTED BY IDOCK:   -0.30 KCAL/MOL
REMARK 927      BINDING AFFINITY PREDICTED BY RF-SCORE:    0.00 PKD
ROOT
HETATM    1  N   UNL     1     -13.129   8.438  72.851  1.00  0.00    -0.646 NA 
HETATM    2  H1  UNL     1     -13.515   9.379  72.779  1.00  0.00     0.000 HD 
HETATM    3  C   UNL     1     -12.241   7.958  71.884  1.00  0.00    -0.314 A  
HETATM    4  H2  UNL     1     -12.687   8.343  73.765  1.00  0.00     0.000 HD 
HETATM    5  C   UNL     1     -11.715   6.673  71.983  1.00  0.00    -0.354 A  
HETATM    6  C   UNL     1     -10.713   6.242  71.102  1.00  0.00    -0.249 A  
HETATM    7 CL   UNL     1     -10.145   4.612  71.276  1.00  0.00    -0.264 Cl 
HETATM    8  C   UNL     1     -10.167   7.095  70.120  1.00  0.00    -0.195 A  
HETATM    9  C   UNL     1     -10.667   8.409  70.082  1.00  0.00    -0.236 A  
HETATM   10  C   UNL     1     -11.676   8.834  70.961  1.00  0.00    -0.329 A  
HETATM   11 CL   UNL     1      -9.992   9.633  69.054  1.00  0.00    -0.178 Cl 
ENDROOT
BRANCH   8  12
HETATM   12  N   UNL     1      -9.189   6.595  69.238  1.00  0.00    -0.141 NA 
HETATM   13  H   UNL     1      -8.239   6.613  69.607  1.00  0.00     0.000 HD 
BRANCH  12  14
HETATM   14  C   UNL     1      -9.294   6.094  67.986  1.00  0.00    -0.114 A  
HETATM   15  N   UNL     1      -8.503   6.466  67.016  1.00  0.00    -0.112 NA 
HETATM   16  H   UNL     1      -7.734   7.133  67.060  1.00  0.00     0.000 HD 
HETATM   17  C   UNL     1      -8.975   5.699  65.832  1.00  0.00    -0.155 A  
HETATM   18  C   UNL     1     -10.105   4.786  66.311  1.00  0.00    -0.264 A  
HETATM   19  N   UNL     1     -10.176   5.093  67.721  1.00  0.00    -0.158 NA 
ENDBRANCH  12  14
ENDBRANCH   8  12
TORSDOF 2
ENDMDL
MODEL      148
REMARK 921   NORMALIZED FREE ENERGY PREDICTED BY IDOCK:   -3.42 KCAL/MOL
REMARK 922        TOTAL FREE ENERGY PREDICTED BY IDOCK:   -4.01 KCAL/MOL
REMARK 923 INTER-LIGAND FREE ENERGY PREDICTED BY IDOCK:   -3.68 KCAL/MOL
REMARK 924 INTRA-LIGAND FREE ENERGY PREDICTED BY IDOCK:   -0.33 KCAL/MOL
REMARK 927      BINDING AFFINITY PREDICTED BY RF-SCORE:    0.00 PKD
ROOT
HETATM    1  N   UNL     1     -10.209   7.806  73.282  1.00  0.00    -0.328 NA 
HETATM    2  H1  UNL     1     -11.140   7.783  73.698  1.00  0.00     0.000 HD 
HETATM    3  C   UNL     1      -9.989   8.458  72.066  1.00  0.00    -0.284 A  
HETATM    4  H2  UNL     1      -9.561   8.189  73.971  1.00  0.00     0.000 HD 
HETATM    5  C   UNL     1      -8.718   8.489  71.499  1.00  0.00    -0.246 A  
HETATM    6  C   UNL     1      -8.462   9.266  70.361  1.00  0.00    -0.206 A  
HETATM    7 CL   UNL     1      -6.858   9.212  69.702  1.00  0.00    -0.052 Cl 
HETATM    8  C   UNL     1      -9.456  10.076  69.773  1.00  0.00    -0.207 A  
HETATM    9  C   UNL     1     -10.715  10.081  70.401  1.00  0.00    -0.307 A  
HETATM   10  C   UNL     1     -10.968   9.296  71.537  1.00  0.00    -0.446 A  
HETATM   11 CL   UNL     1     -11.995  11.145  69.913  1.00  0.00    -0.400 Cl 
ENDROOT
BRANCH   8  12
HETATM   12  N   UNL     1      -9.151  10.805  68.607  1.00  0.00    -0.166 NA 
HETATM   13  H   UNL     1      -8.582  11.637  68.765  1.00  0.00     0.000 HD 
BRANCH  12  14
HETATM   14  C   UNL     1      -9.483  10.593  67.313  1.00  0.00    -0.158 A  
HETATM   15  N   UNL     1     -10.258  11.407  66.647  1.00  0.00    -0.215 NA 
HETATM   16  H   UNL     1     -10.686  12.270  66.979  1.00  0.00     0.000 HD 
HETATM   17  C   UNL     1     -10.376  10.792  65.298  1.00  0.00    -0.258 A  
HETATM   18  C   UNL     1      -9.487   9.548  65.292  1.00  0.00    -0.258 A  
HETATM   19  N   UNL     1      -8.926   9.560  66.624  1.00  0.00    -0.143 NA 
ENDBRANCH  12  14
ENDBRANCH   8  12
TORSDOF 2
ENDMDL
MODEL      149
REMARK 921   NORMALIZED FREE ENERGY PREDICTED BY IDOCK:   -3.36 KCAL/MOL
REMARK 922        TOTAL FREE ENERGY PREDICTED BY IDOCK:   -3.94 KCAL/MOL
REMARK 923 INTER-LIGAND FREE ENERGY PREDICTED BY IDOCK:   -3.70 KCAL/MOL
REMARK 924 INTRA-LIGAND FREE ENERGY PREDICTED BY IDOCK:   -0.25 KCAL/MOL
REMARK 927      BINDING AFFINITY PREDICTED BY RF-SCORE:    0.00 PKD
ROOT
HETATM    1  N   UNL     1     -10.140  10.546  62.359  1.00  0.00    -0.746 NA 
HETATM    2  H1  UNL     1      -9.497  10.064  61.732  1.00  0.00     0.000 HD 
HETATM    3  C   UNL     1      -9.848  10.665  63.721  1.00  0.00    -0.335 A  
HETATM    4  H2  UNL     1     -10.310  11.480  61.987  1.00  0.00     0.000 HD 
HETATM    5  C   UNL     1     -10.727  11.324  64.577  1.00  0.00    -0.390 A  
HETATM    6  C   UNL     1     -10.371  11.577  65.909  1.00  0.00    -0.247 A  
HETATM    7 CL   UNL     1     -11.544  12.368  66.912  1.00  0.00    -0.425 Cl 
HETATM    8  C   UNL     1      -9.106  11.222  66.422  1.00  0.00    -0.192 A  
HETATM    9  C   UNL     1      -8.210  10.618  65.522  1.00  0.00    -0.141 A  
HETATM   10  C   UNL     1      -8.574  10.360  64.191  1.00  0.00    -0.186 A  
HETATM   11 CL   UNL     1      -6.561  10.273  65.938  1.00  0.00    -0.105 Cl 
ENDROOT
BRANCH   8  12
HETATM   12  N   UNL     1      -8.818  11.467  67.779  1.00  0.00    -0.148 NA 
HETATM   13  H   UNL     1      -9.405  10.951  68.436  1.00  0.00     0.000 HD 
BRANCH  12  14
HETATM   14  C   UNL     1      -7.898  12.269  68.363  1.00  0.00    -0.151 A  
HETATM   15  N   UNL     1      -7.264  11.928  69.452  1.00  0.00    -0.335 NA 
HETATM   16  H   UNL     1      -7.353  11.060  69.979  1.00  0.00     0.000 HD 
HETATM   17  C   UNL     1      -6.383  13.089  69.752  1.00  0.00    -0.063 A  
HETATM   18  C   UNL     1      -6.571  14.099  68.620  1.00  0.00    -0.092 A  
HETATM   19  N   UNL     1      -7.526  13.432  67.764  1.00  0.00    -0.143 NA 
ENDBRANCH  12  14
ENDBRANCH   8  12
TORSDOF 2
ENDMDL
MODEL      150
REMARK 921   NORMALIZED FREE ENERGY PREDICTED BY IDOCK:   -3.34 KCAL/MOL
REMARK 922        TOTAL FREE ENERGY PREDICTED BY IDOCK:   -3.91 KCAL/MOL
REMARK 923 INTER-LIGAND FREE ENERGY PREDICTED BY IDOCK:   -3.68 KCAL/MOL
REMARK 924 INTRA-LIGAND FREE ENERGY PREDICTED BY IDOCK:   -0.23 KCAL/MOL
REMARK 927      BINDING AFFINITY PREDICTED BY RF-SCORE:    0.00 PKD
ROOT
HETATM    1  N   UNL     1     -12.764   6.930  71.912  1.00  0.00    -0.497 NA 
HETATM    2  H1  UNL     1     -13.123   7.685  72.496  1.00  0.00     0.000 HD 
HETATM    3  C   UNL     1     -11.892   7.205  70.855  1.00  0.00    -0.339 A  
HETATM    4  H2  UNL     1     -12.323   6.239  72.518  1.00  0.00     0.000 HD 
HETATM    5  C   UNL     1     -11.402   6.174  70.057  1.00  0.00    -0.443 A  
HETATM    6  C   UNL     1     -10.414   6.424  69.094  1.00  0.00    -0.229 A  
HETATM    7 CL   UNL     1      -9.892   5.087  68.120  1.00  0.00    -0.201 Cl 
HETATM    8  C   UNL     1      -9.847   7.704  68.924  1.00  0.00    -0.164 A  
HETATM    9  C   UNL     1     -10.309   8.715  69.786  1.00  0.00    -0.212 A  
HETATM   10  C   UNL     1     -11.303   8.462  70.743  1.00  0.00    -0.290 A  
HETATM   11 CL   UNL     1      -9.602  10.299  69.828  1.00  0.00    -0.198 Cl 
ENDROOT
BRANCH   8  12
HETATM   12  N   UNL     1      -8.885   7.904  67.914  1.00  0.00    -0.124 NA 
HETATM   13  H   UNL     1      -7.963   7.523  68.127  1.00  0.00     0.000 HD 
BRANCH  12  14
HETATM   14  C   UNL     1      -8.973   8.515  66.711  1.00  0.00    -0.146 A  
HETATM   15  N   UNL     1      -8.109   8.304  65.755  1.00  0.00    -0.102 NA 
HETATM   16  H   UNL     1      -7.304   7.679  65.769  1.00  0.00     0.000 HD 
HETATM   17  C   UNL     1      -8.563   9.178  64.640  1.00  0.00    -0.182 A  
HETATM   18  C   UNL     1      -9.856   9.854  65.097  1.00  0.00    -0.278 A  
HETATM   19  N   UNL     1     -10.043   9.304  66.421  1.00  0.00    -0.279 NA 
ENDBRANCH  12  14
ENDBRANCH   8  12
TORSDOF 2
ENDMDL
MODEL      151
REMARK 921   NORMALIZED FREE ENERGY PREDICTED BY IDOCK:   -3.32 KCAL/MOL
REMARK 922        TOTAL FREE ENERGY PREDICTED BY IDOCK:   -3.90 KCAL/MOL
REMARK 923 INTER-LIGAND FREE ENERGY PREDICTED BY IDOCK:   -3.64 KCAL/MOL
REMARK 924 INTRA-LIGAND FREE ENERGY PREDICTED BY IDOCK:   -0.26 KCAL/MOL
REMARK 927      BINDING AFFINITY PREDICTED BY RF-SCORE:    0.00 PKD
ROOT
HETATM    1  N   UNL     1     -11.709  12.237  70.250  1.00  0.00    -0.542 NA 
HETATM    2  H1  UNL     1     -12.052  12.604  71.138  1.00  0.00     0.000 HD 
HETATM    3  C   UNL     1     -11.386  10.884  70.118  1.00  0.00    -0.284 A  
HETATM    4  H2  UNL     1     -12.384  12.477  69.524  1.00  0.00     0.000 HD 
HETATM    5  C   UNL     1     -10.918  10.384  68.906  1.00  0.00    -0.289 A  
HETATM    6  C   UNL     1     -10.736   9.006  68.724  1.00  0.00    -0.108 A  
HETATM    7 CL   UNL     1     -10.111   8.478  67.195  1.00  0.00    -0.300 Cl 
HETATM    8  C   UNL     1     -11.058   8.073  69.732  1.00  0.00    -0.064 A  
HETATM    9  C   UNL     1     -11.592   8.595  70.924  1.00  0.00    -0.269 A  
HETATM   10  C   UNL     1     -11.766   9.976  71.103  1.00  0.00    -0.472 A  
HETATM   11 CL   UNL     1     -12.198   7.583  72.196  1.00  0.00    -0.305 Cl 
ENDROOT
BRANCH   8  12
HETATM   12  N   UNL     1     -10.818   6.703  69.507  1.00  0.00    -0.263 NA 
HETATM   13  H   UNL     1     -11.428   6.276  68.810  1.00  0.00     0.000 HD 
BRANCH  12  14
HETATM   14  C   UNL     1      -9.917   5.856  70.055  1.00  0.00    -0.183 A  
HETATM   15  N   UNL     1      -8.896   6.277  70.751  1.00  0.00    -0.143 NA 
HETATM   16  H   UNL     1      -8.652   7.240  70.980  1.00  0.00     0.000 HD 
HETATM   17  C   UNL     1      -8.168   5.038  71.136  1.00  0.00    -0.114 A  
HETATM   18  C   UNL     1      -8.983   3.857  70.608  1.00  0.00    -0.092 A  
HETATM   19  N   UNL     1     -10.109   4.511  69.982  1.00  0.00    -0.207 NA 
ENDBRANCH  12  14
ENDBRANCH   8  12
TORSDOF 2
ENDMDL
MODEL      152
REMARK 921   NORMALIZED FREE ENERGY PREDICTED BY IDOCK:   -3.31 KCAL/MOL
REMARK 922        TOTAL FREE ENERGY PREDICTED BY IDOCK:   -3.89 KCAL/MOL
REMARK 923 INTER-LIGAND FREE ENERGY PREDICTED BY IDOCK:   -3.60 KCAL/MOL
REMARK 924 INTRA-LIGAND FREE ENERGY PREDICTED BY IDOCK:   -0.28 KCAL/MOL
REMARK 927      BINDING AFFINITY PREDICTED BY RF-SCORE:    0.00 PKD
ROOT
HETATM    1  N   UNL     1      -9.363   9.241  64.396  1.00  0.00    -0.404 NA 
HETATM    2  H1  UNL     1      -9.561  10.167  64.018  1.00  0.00     0.000 HD 
HETATM    3  C   UNL     1      -9.303   9.036  65.778  1.00  0.00    -0.236 A  
HETATM    4  H2  UNL     1     -10.039   8.585  64.006  1.00  0.00     0.000 HD 
HETATM    5  C   UNL     1      -9.033   7.772  66.294  1.00  0.00    -0.209 A  
HETATM    6  C   UNL     1      -9.120   7.529  67.672  1.00  0.00    -0.125 A  
HETATM    7 CL   UNL     1      -8.728   5.934  68.228  1.00  0.00    -0.113 Cl 
HETATM    8  C   UNL     1      -9.525   8.530  68.580  1.00  0.00    -0.143 A  
HETATM    9  C   UNL     1      -9.857   9.781  68.029  1.00  0.00    -0.148 A  
HETATM   10  C   UNL     1      -9.761  10.021  66.649  1.00  0.00    -0.246 A  
HETATM   11 CL   UNL     1     -10.533  11.067  68.977  1.00  0.00    -0.228 Cl 
ENDROOT
BRANCH   8  12
HETATM   12  N   UNL     1      -9.557   8.239  69.958  1.00  0.00    -0.167 NA 
HETATM   13  H   UNL     1      -8.641   8.077  70.377  1.00  0.00     0.000 HD 
BRANCH  12  14
HETATM   14  C   UNL     1     -10.593   8.138  70.822  1.00  0.00    -0.214 A  
HETATM   15  N   UNL     1     -10.727   8.933  71.849  1.00  0.00    -0.352 NA 
HETATM   16  H   UNL     1     -10.119   9.704  72.124  1.00  0.00     0.000 HD 
HETATM   17  C   UNL     1     -11.964   8.463  72.528  1.00  0.00    -0.350 A  
HETATM   18  C   UNL     1     -12.539   7.329  71.678  1.00  0.00    -0.368 A  
HETATM   19  N   UNL     1     -11.598   7.254  70.583  1.00  0.00    -0.300 NA 
ENDBRANCH  12  14
ENDBRANCH   8  12
TORSDOF 2
ENDMDL
MODEL      153
REMARK 921   NORMALIZED FREE ENERGY PREDICTED BY IDOCK:   -3.31 KCAL/MOL
REMARK 922        TOTAL FREE ENERGY PREDICTED BY IDOCK:   -3.89 KCAL/MOL
REMARK 923 INTER-LIGAND FREE ENERGY PREDICTED BY IDOCK:   -3.61 KCAL/MOL
REMARK 924 INTRA-LIGAND FREE ENERGY PREDICTED BY IDOCK:   -0.27 KCAL/MOL
REMARK 927      BINDING AFFINITY PREDICTED BY RF-SCORE:    0.00 PKD
ROOT
HETATM    1  N   UNL     1     -10.468   6.107  68.253  1.00  0.00    -0.205 NA 
HETATM    2  H1  UNL     1     -10.188   5.461  67.515  1.00  0.00     0.000 HD 
HETATM    3  C   UNL     1     -10.340   7.487  68.074  1.00  0.00    -0.204 A  
HETATM    4  H2  UNL     1     -11.435   5.906  68.504  1.00  0.00     0.000 HD 
HETATM    5  C   UNL     1     -10.722   8.369  69.082  1.00  0.00    -0.123 A  
HETATM    6  C   UNL     1     -10.737   9.752  68.853  1.00  0.00    -0.217 A  
HETATM    7 CL   UNL     1     -11.189  10.775  70.179  1.00  0.00    -0.357 Cl 
HETATM    8  C   UNL     1     -10.416  10.302  67.594  1.00  0.00    -0.239 A  
HETATM    9  C   UNL     1     -10.098   9.390  66.573  1.00  0.00    -0.262 A  
HETATM   10  C   UNL     1     -10.077   8.006  66.809  1.00  0.00    -0.357 A  
HETATM   11 CL   UNL     1      -9.844   9.882  64.929  1.00  0.00    -0.356 Cl 
ENDROOT
BRANCH   8  12
HETATM   12  N   UNL     1     -10.411  11.702  67.434  1.00  0.00    -0.204 NA 
HETATM   13  H   UNL     1     -11.304  12.096  67.138  1.00  0.00     0.000 HD 
BRANCH  12  14
HETATM   14  C   UNL     1      -9.427  12.614  67.607  1.00  0.00    -0.189 A  
HETATM   15  N   UNL     1      -8.545  12.518  68.564  1.00  0.00    -0.338 NA 
HETATM   16  H   UNL     1      -8.465  11.783  69.267  1.00  0.00     0.000 HD 
HETATM   17  C   UNL     1      -7.682  13.718  68.401  1.00  0.00    -0.134 A  
HETATM   18  C   UNL     1      -8.176  14.460  67.158  1.00  0.00    -0.178 A  
HETATM   19  N   UNL     1      -9.263  13.621  66.707  1.00  0.00    -0.252 NA 
ENDBRANCH  12  14
ENDBRANCH   8  12
TORSDOF 2
ENDMDL
MODEL      154
REMARK 921   NORMALIZED FREE ENERGY PREDICTED BY IDOCK:   -3.31 KCAL/MOL
REMARK 922        TOTAL FREE ENERGY PREDICTED BY IDOCK:   -3.88 KCAL/MOL
REMARK 923 INTER-LIGAND FREE ENERGY PREDICTED BY IDOCK:   -3.64 KCAL/MOL
REMARK 924 INTRA-LIGAND FREE ENERGY PREDICTED BY IDOCK:   -0.24 KCAL/MOL
REMARK 927      BINDING AFFINITY PREDICTED BY RF-SCORE:    0.00 PKD
ROOT
HETATM    1  N   UNL     1      -9.592  20.588  65.798  1.00  0.00    -0.567 NA 
HETATM    2  H1  UNL     1     -10.526  20.922  66.033  1.00  0.00     0.000 HD 
HETATM    3  C   UNL     1      -9.001  19.556  66.532  1.00  0.00    -0.361 A  
HETATM    4  H2  UNL     1      -9.586  20.322  64.813  1.00  0.00     0.000 HD 
HETATM    5  C   UNL     1      -7.726  19.099  66.211  1.00  0.00    -0.296 A  
HETATM    6  C   UNL     1      -7.191  17.969  66.845  1.00  0.00    -0.198 A  
HETATM    7 CL   UNL     1      -5.580  17.497  66.408  1.00  0.00    -0.227 Cl 
HETATM    8  C   UNL     1      -7.929  17.226  67.790  1.00  0.00    -0.190 A  
HETATM    9  C   UNL     1      -9.239  17.666  68.050  1.00  0.00    -0.271 A  
HETATM   10  C   UNL     1      -9.767  18.803  67.418  1.00  0.00    -0.340 A  
HETATM   11 CL   UNL     1     -10.339  16.776  69.054  1.00  0.00    -0.307 Cl 
ENDROOT
BRANCH   8  12
HETATM   12  N   UNL     1      -7.325  16.122  68.423  1.00  0.00    -0.135 NA 
HETATM   13  H   UNL     1      -7.546  15.220  68.001  1.00  0.00     0.000 HD 
BRANCH  12  14
HETATM   14  C   UNL     1      -6.501  16.051  69.494  1.00  0.00    -0.187 A  
HETATM   15  N   UNL     1      -6.066  14.915  69.967  1.00  0.00    -0.138 NA 
HETATM   16  H   UNL     1      -6.258  13.978  69.613  1.00  0.00     0.000 HD 
HETATM   17  C   UNL     1      -5.227  15.293  71.136  1.00  0.00    -0.116 A  
HETATM   18  C   UNL     1      -5.203  16.820  71.196  1.00  0.00    -0.079 A  
HETATM   19  N   UNL     1      -6.013  17.189  70.057  1.00  0.00    -0.229 NA 
ENDBRANCH  12  14
ENDBRANCH   8  12
TORSDOF 2
ENDMDL
MODEL      155
REMARK 921   NORMALIZED FREE ENERGY PREDICTED BY IDOCK:   -3.30 KCAL/MOL
REMARK 922        TOTAL FREE ENERGY PREDICTED BY IDOCK:   -3.88 KCAL/MOL
REMARK 923 INTER-LIGAND FREE ENERGY PREDICTED BY IDOCK:   -3.68 KCAL/MOL
REMARK 924 INTRA-LIGAND FREE ENERGY PREDICTED BY IDOCK:   -0.20 KCAL/MOL
REMARK 927      BINDING AFFINITY PREDICTED BY RF-SCORE:    0.00 PKD
ROOT
HETATM    1  N   UNL     1      -9.215   8.875  64.385  1.00  0.00    -0.344 NA 
HETATM    2  H1  UNL     1      -9.430   8.962  63.392  1.00  0.00     0.000 HD 
HETATM    3  C   UNL     1      -9.364   9.968  65.243  1.00  0.00    -0.237 A  
HETATM    4  H2  UNL     1      -9.757   8.098  64.762  1.00  0.00     0.000 HD 
HETATM    5  C   UNL     1      -9.071   9.848  66.599  1.00  0.00    -0.171 A  
HETATM    6  C   UNL     1      -9.360  10.893  67.488  1.00  0.00    -0.154 A  
HETATM    7 CL   UNL     1      -8.923  10.670  69.151  1.00  0.00    -0.167 Cl 
HETATM    8  C   UNL     1      -9.996  12.078  67.062  1.00  0.00    -0.204 A  
HETATM    9  C   UNL     1     -10.343  12.150  65.701  1.00  0.00    -0.257 A  
HETATM   10  C   UNL     1     -10.045  11.105  64.814  1.00  0.00    -0.351 A  
HETATM   11 CL   UNL     1     -11.277  13.458  65.046  1.00  0.00    -0.320 Cl 
ENDROOT
BRANCH   8  12
HETATM   12  N   UNL     1     -10.226  13.110  67.993  1.00  0.00    -0.227 NA 
HETATM   13  H   UNL     1     -11.021  12.950  68.612  1.00  0.00     0.000 HD 
BRANCH  12  14
HETATM   14  C   UNL     1      -9.575  14.276  68.209  1.00  0.00    -0.221 A  
HETATM   15  N   UNL     1      -9.011  14.561  69.351  1.00  0.00    -0.388 NA 
HETATM   16  H   UNL     1      -8.969  13.980  70.187  1.00  0.00     0.000 HD 
HETATM   17  C   UNL     1      -8.443  15.923  69.159  1.00  0.00    -0.254 A  
HETATM   18  C   UNL     1      -8.715  16.322  67.708  1.00  0.00    -0.179 A  
HETATM   19  N   UNL     1      -9.398  15.159  67.189  1.00  0.00    -0.206 NA 
ENDBRANCH  12  14
ENDBRANCH   8  12
TORSDOF 2
ENDMDL
MODEL      156
REMARK 921   NORMALIZED FREE ENERGY PREDICTED BY IDOCK:   -3.30 KCAL/MOL
REMARK 922        TOTAL FREE ENERGY PREDICTED BY IDOCK:   -3.87 KCAL/MOL
REMARK 923 INTER-LIGAND FREE ENERGY PREDICTED BY IDOCK:   -3.56 KCAL/MOL
REMARK 924 INTRA-LIGAND FREE ENERGY PREDICTED BY IDOCK:   -0.31 KCAL/MOL
REMARK 927      BINDING AFFINITY PREDICTED BY RF-SCORE:    0.00 PKD
ROOT
HETATM    1  N   UNL     1     -10.865  19.934  66.234  1.00  0.00    -0.333 NA 
HETATM    2  H1  UNL     1     -10.920  20.942  66.379  1.00  0.00     0.000 HD 
HETATM    3  C   UNL     1      -9.694  19.236  66.539  1.00  0.00    -0.367 A  
HETATM    4  H2  UNL     1     -11.637  19.497  66.737  1.00  0.00     0.000 HD 
HETATM    5  C   UNL     1      -9.619  17.859  66.340  1.00  0.00    -0.294 A  
HETATM    6  C   UNL     1      -8.505  17.133  66.782  1.00  0.00    -0.235 A  
HETATM    7 CL   UNL     1      -8.482  15.430  66.457  1.00  0.00    -0.297 Cl 
HETATM    8  C   UNL     1      -7.444  17.749  67.480  1.00  0.00    -0.203 A  
HETATM    9  C   UNL     1      -7.571  19.127  67.728  1.00  0.00    -0.253 A  
HETATM   10  C   UNL     1      -8.686  19.851  67.276  1.00  0.00    -0.399 A  
HETATM   11 CL   UNL     1      -6.445  20.004  68.714  1.00  0.00    -0.336 Cl 
ENDROOT
BRANCH   8  12
HETATM   12  N   UNL     1      -6.332  16.975  67.866  1.00  0.00    -0.134 NA 
HETATM   13  H   UNL     1      -5.637  16.837  67.131  1.00  0.00     0.000 HD 
BRANCH  12  14
HETATM   14  C   UNL     1      -6.025  16.383  69.043  1.00  0.00    -0.143 A  
HETATM   15  N   UNL     1      -5.309  16.977  69.959  1.00  0.00    -0.186 NA 
HETATM   16  H   UNL     1      -4.914  17.916  69.929  1.00  0.00     0.000 HD 
HETATM   17  C   UNL     1      -5.199  15.978  71.055  1.00  0.00    -0.108 A  
HETATM   18  C   UNL     1      -6.027  14.761  70.638  1.00  0.00    -0.137 A  
HETATM   19  N   UNL     1      -6.551  15.167  69.355  1.00  0.00    -0.138 NA 
ENDBRANCH  12  14
ENDBRANCH   8  12
TORSDOF 2
ENDMDL
MODEL      157
REMARK 921   NORMALIZED FREE ENERGY PREDICTED BY IDOCK:   -3.27 KCAL/MOL
REMARK 922        TOTAL FREE ENERGY PREDICTED BY IDOCK:   -3.84 KCAL/MOL
REMARK 923 INTER-LIGAND FREE ENERGY PREDICTED BY IDOCK:   -3.85 KCAL/MOL
REMARK 924 INTRA-LIGAND FREE ENERGY PREDICTED BY IDOCK:    0.01 KCAL/MOL
REMARK 927      BINDING AFFINITY PREDICTED BY RF-SCORE:    0.00 PKD
ROOT
HETATM    1  N   UNL     1     -12.316  14.560  68.997  1.00  0.00    -0.579 NA 
HETATM    2  H1  UNL     1     -11.864  15.243  68.389  1.00  0.00     0.000 HD 
HETATM    3  C   UNL     1     -11.858  13.241  69.047  1.00  0.00    -0.321 A  
HETATM    4  H2  UNL     1     -12.322  14.932  69.946  1.00  0.00     0.000 HD 
HETATM    5  C   UNL     1     -12.475  12.309  69.877  1.00  0.00     0.017 A  
HETATM    6  C   UNL     1     -11.929  11.029  70.044  1.00  0.00    -0.351 A  
HETATM    7 CL   UNL     1     -12.788   9.922  71.067  1.00  0.00    -0.421 Cl 
HETATM    8  C   UNL     1     -10.720  10.648  69.424  1.00  0.00    -0.244 A  
HETATM    9  C   UNL     1     -10.079  11.627  68.644  1.00  0.00    -0.198 A  
HETATM   10  C   UNL     1     -10.634  12.905  68.474  1.00  0.00    -0.270 A  
HETATM   11 CL   UNL     1      -8.507  11.384  67.951  1.00  0.00    -0.134 Cl 
ENDROOT
BRANCH   8  12
HETATM   12  N   UNL     1     -10.240   9.336  69.598  1.00  0.00    -0.198 NA 
HETATM   13  H   UNL     1     -10.073   8.828  68.729  1.00  0.00     0.000 HD 
BRANCH  12  14
HETATM   14  C   UNL     1      -9.960   8.632  70.720  1.00  0.00    -0.197 A  
HETATM   15  N   UNL     1      -9.205   9.107  71.673  1.00  0.00    -0.330 NA 
HETATM   16  H   UNL     1      -8.757  10.022  71.716  1.00  0.00     0.000 HD 
HETATM   17  C   UNL     1      -9.145   8.016  72.682  1.00  0.00    -0.227 A  
HETATM   18  C   UNL     1     -10.044   6.887  72.176  1.00  0.00    -0.181 A  
HETATM   19  N   UNL     1     -10.552   7.427  70.936  1.00  0.00    -0.222 NA 
ENDBRANCH  12  14
ENDBRANCH   8  12
TORSDOF 2
ENDMDL
MODEL      158
REMARK 921   NORMALIZED FREE ENERGY PREDICTED BY IDOCK:   -3.26 KCAL/MOL
REMARK 922        TOTAL FREE ENERGY PREDICTED BY IDOCK:   -3.83 KCAL/MOL
REMARK 923 INTER-LIGAND FREE ENERGY PREDICTED BY IDOCK:   -3.53 KCAL/MOL
REMARK 924 INTRA-LIGAND FREE ENERGY PREDICTED BY IDOCK:   -0.30 KCAL/MOL
REMARK 927      BINDING AFFINITY PREDICTED BY RF-SCORE:    0.00 PKD
ROOT
HETATM    1  N   UNL     1     -10.711  10.887  69.976  1.00  0.00    -0.463 NA 
HETATM    2  H1  UNL     1     -10.800  11.178  69.003  1.00  0.00     0.000 HD 
HETATM    3  C   UNL     1     -10.874   9.546  70.334  1.00  0.00    -0.282 A  
HETATM    4  H2  UNL     1      -9.806  11.203  70.322  1.00  0.00     0.000 HD 
HETATM    5  C   UNL     1     -10.753   9.150  71.664  1.00  0.00    -0.441 A  
HETATM    6  C   UNL     1     -10.766   7.791  72.008  1.00  0.00    -0.231 A  
HETATM    7 CL   UNL     1     -10.649   7.393  73.692  1.00  0.00    -0.390 Cl 
HETATM    8  C   UNL     1     -10.854   6.776  71.032  1.00  0.00    -0.242 A  
HETATM    9  C   UNL     1     -10.907   7.198  69.691  1.00  0.00    -0.234 A  
HETATM   10  C   UNL     1     -10.902   8.560  69.352  1.00  0.00    -0.103 A  
HETATM   11 CL   UNL     1     -10.848   6.085  68.361  1.00  0.00    -0.351 Cl 
ENDROOT
BRANCH   8  12
HETATM   12  N   UNL     1     -10.901   5.429  71.440  1.00  0.00    -0.189 NA 
HETATM   13  H   UNL     1     -11.842   5.066  71.592  1.00  0.00     0.000 HD 
BRANCH  12  14
HETATM   14  C   UNL     1      -9.913   4.533  71.665  1.00  0.00    -0.196 A  
HETATM   15  N   UNL     1     -10.144   3.347  72.159  1.00  0.00    -0.157 NA 
HETATM   16  H   UNL     1     -11.044   2.944  72.418  1.00  0.00     0.000 HD 
HETATM   17  C   UNL     1      -8.801   2.715  72.261  1.00  0.00    -0.074 A  
HETATM   18  C   UNL     1      -7.794   3.706  71.678  1.00  0.00    -0.061 A  
HETATM   19  N   UNL     1      -8.637   4.809  71.280  1.00  0.00    -0.116 NA 
ENDBRANCH  12  14
ENDBRANCH   8  12
TORSDOF 2
ENDMDL
MODEL      159
REMARK 921   NORMALIZED FREE ENERGY PREDICTED BY IDOCK:   -3.26 KCAL/MOL
REMARK 922        TOTAL FREE ENERGY PREDICTED BY IDOCK:   -3.83 KCAL/MOL
REMARK 923 INTER-LIGAND FREE ENERGY PREDICTED BY IDOCK:   -3.51 KCAL/MOL
REMARK 924 INTRA-LIGAND FREE ENERGY PREDICTED BY IDOCK:   -0.32 KCAL/MOL
REMARK 927      BINDING AFFINITY PREDICTED BY RF-SCORE:    0.00 PKD
ROOT
HETATM    1  N   UNL     1     -13.641   9.986  72.232  1.00  0.00    -0.571 NA 
HETATM    2  H1  UNL     1     -14.366   9.604  72.839  1.00  0.00     0.000 HD 
HETATM    3  C   UNL     1     -12.444   9.294  72.031  1.00  0.00    -0.378 A  
HETATM    4  H2  UNL     1     -14.056  10.177  71.320  1.00  0.00     0.000 HD 
HETATM    5  C   UNL     1     -11.455   9.817  71.202  1.00  0.00    -0.472 A  
HETATM    6  C   UNL     1     -10.320   9.061  70.880  1.00  0.00    -0.256 A  
HETATM    7 CL   UNL     1      -9.122   9.809  69.872  1.00  0.00    -0.243 Cl 
HETATM    8  C   UNL     1     -10.153   7.736  71.336  1.00  0.00    -0.182 A  
HETATM    9  C   UNL     1     -11.195   7.205  72.116  1.00  0.00    -0.255 A  
HETATM   10  C   UNL     1     -12.326   7.969  72.443  1.00  0.00    -0.299 A  
HETATM   11 CL   UNL     1     -11.231   5.544  72.617  1.00  0.00    -0.335 Cl 
ENDROOT
BRANCH   8  12
HETATM   12  N   UNL     1      -8.973   7.038  71.011  1.00  0.00    -0.150 NA 
HETATM   13  H   UNL     1      -9.003   6.553  70.114  1.00  0.00     0.000 HD 
BRANCH  12  14
HETATM   14  C   UNL     1      -7.807   6.901  71.683  1.00  0.00    -0.100 A  
HETATM   15  N   UNL     1      -6.933   7.867  71.771  1.00  0.00    -0.063 NA 
HETATM   16  H   UNL     1      -7.003   8.808  71.384  1.00  0.00     0.000 HD 
HETATM   17  C   UNL     1      -5.813   7.289  72.561  1.00  0.00    -0.040 A  
HETATM   18  C   UNL     1      -6.232   5.874  72.963  1.00  0.00    -0.061 A  
HETATM   19  N   UNL     1      -7.552   5.765  72.386  1.00  0.00    -0.100 NA 
ENDBRANCH  12  14
ENDBRANCH   8  12
TORSDOF 2
ENDMDL
MODEL      160
REMARK 921   NORMALIZED FREE ENERGY PREDICTED BY IDOCK:   -3.26 KCAL/MOL
REMARK 922        TOTAL FREE ENERGY PREDICTED BY IDOCK:   -3.83 KCAL/MOL
REMARK 923 INTER-LIGAND FREE ENERGY PREDICTED BY IDOCK:   -3.53 KCAL/MOL
REMARK 924 INTRA-LIGAND FREE ENERGY PREDICTED BY IDOCK:   -0.30 KCAL/MOL
REMARK 927      BINDING AFFINITY PREDICTED BY RF-SCORE:    0.00 PKD
ROOT
HETATM    1  N   UNL     1      -8.468   8.253  62.858  1.00  0.00    -0.403 NA 
HETATM    2  H1  UNL     1      -7.999   7.347  62.865  1.00  0.00     0.000 HD 
HETATM    3  C   UNL     1      -8.866   8.857  64.054  1.00  0.00     0.062 A  
HETATM    4  H2  UNL     1      -7.880   8.913  62.348  1.00  0.00     0.000 HD 
HETATM    5  C   UNL     1      -9.506  10.093  64.043  1.00  0.00    -0.341 A  
HETATM    6  C   UNL     1      -9.772  10.770  65.242  1.00  0.00    -0.255 A  
HETATM    7 CL   UNL     1     -10.607  12.286  65.133  1.00  0.00    -0.308 Cl 
HETATM    8  C   UNL     1      -9.367  10.258  66.492  1.00  0.00    -0.166 A  
HETATM    9  C   UNL     1      -8.663   9.040  66.474  1.00  0.00    -0.129 A  
HETATM   10  C   UNL     1      -8.406   8.362  65.272  1.00  0.00    -0.169 A  
HETATM   11 CL   UNL     1      -7.948   8.355  67.899  1.00  0.00    -0.114 Cl 
ENDROOT
BRANCH   8  12
HETATM   12  N   UNL     1      -9.696  10.963  67.666  1.00  0.00    -0.169 NA 
HETATM   13  H   UNL     1      -9.205  11.851  67.777  1.00  0.00     0.000 HD 
BRANCH  12  14
HETATM   14  C   UNL     1     -10.550  10.668  68.672  1.00  0.00    -0.203 A  
HETATM   15  N   UNL     1     -11.844  10.643  68.505  1.00  0.00    -0.741 NA 
HETATM   16  H   UNL     1     -12.366  10.817  67.647  1.00  0.00     0.000 HD 
HETATM   17  C   UNL     1     -12.389  10.303  69.847  1.00  0.00    -0.023 A  
HETATM   18  C   UNL     1     -11.193  10.070  70.771  1.00  0.00    -0.352 A  
HETATM   19  N   UNL     1     -10.071  10.280  69.885  1.00  0.00    -0.216 NA 
ENDBRANCH  12  14
ENDBRANCH   8  12
TORSDOF 2
ENDMDL
MODEL      161
REMARK 921   NORMALIZED FREE ENERGY PREDICTED BY IDOCK:   -3.24 KCAL/MOL
REMARK 922        TOTAL FREE ENERGY PREDICTED BY IDOCK:   -3.80 KCAL/MOL
REMARK 923 INTER-LIGAND FREE ENERGY PREDICTED BY IDOCK:   -3.47 KCAL/MOL
REMARK 924 INTRA-LIGAND FREE ENERGY PREDICTED BY IDOCK:   -0.33 KCAL/MOL
REMARK 927      BINDING AFFINITY PREDICTED BY RF-SCORE:    0.00 PKD
ROOT
HETATM    1  N   UNL     1      -9.984   4.352  65.738  1.00  0.00    -0.223 NA 
HETATM    2  H1  UNL     1     -10.562   3.535  65.933  1.00  0.00     0.000 HD 
HETATM    3  C   UNL     1     -10.050   5.481  66.560  1.00  0.00    -0.204 A  
HETATM    4  H2  UNL     1      -9.012   4.051  65.687  1.00  0.00     0.000 HD 
HETATM    5  C   UNL     1      -9.260   6.596  66.294  1.00  0.00    -0.158 A  
HETATM    6  C   UNL     1      -9.210   7.668  67.196  1.00  0.00    -0.132 A  
HETATM    7 CL   UNL     1      -8.231   9.032  66.762  1.00  0.00    -0.114 Cl 
HETATM    8  C   UNL     1      -9.912   7.644  68.420  1.00  0.00    -0.176 A  
HETATM    9  C   UNL     1     -10.649   6.480  68.699  1.00  0.00    -0.245 A  
HETATM   10  C   UNL     1     -10.702   5.412  67.789  1.00  0.00    -0.109 A  
HETATM   11 CL   UNL     1     -11.430   6.214  70.225  1.00  0.00    -0.422 Cl 
ENDROOT
BRANCH   8  12
HETATM   12  N   UNL     1      -9.854   8.767  69.269  1.00  0.00    -0.176 NA 
HETATM   13  H   UNL     1      -9.015   8.817  69.847  1.00  0.00     0.000 HD 
BRANCH  12  14
HETATM   14  C   UNL     1     -10.720   9.790  69.451  1.00  0.00    -0.228 A  
HETATM   15  N   UNL     1     -11.095  10.570  68.474  1.00  0.00    -0.259 NA 
HETATM   16  H   UNL     1     -10.820  10.518  67.494  1.00  0.00     0.000 HD 
HETATM   17  C   UNL     1     -12.014  11.552  69.110  1.00  0.00    -0.320 A  
HETATM   18  C   UNL     1     -12.150  11.153  70.580  1.00  0.00    -0.381 A  
HETATM   19  N   UNL     1     -11.316   9.975  70.660  1.00  0.00    -0.323 NA 
ENDBRANCH  12  14
ENDBRANCH   8  12
TORSDOF 2
ENDMDL
MODEL      162
REMARK 921   NORMALIZED FREE ENERGY PREDICTED BY IDOCK:   -3.23 KCAL/MOL
REMARK 922        TOTAL FREE ENERGY PREDICTED BY IDOCK:   -3.79 KCAL/MOL
REMARK 923 INTER-LIGAND FREE ENERGY PREDICTED BY IDOCK:   -3.46 KCAL/MOL
REMARK 924 INTRA-LIGAND FREE ENERGY PREDICTED BY IDOCK:   -0.33 KCAL/MOL
REMARK 927      BINDING AFFINITY PREDICTED BY RF-SCORE:    0.00 PKD
ROOT
HETATM    1  N   UNL     1     -13.633   8.444  71.304  1.00  0.00    -0.555 NA 
HETATM    2  H1  UNL     1     -14.288   8.231  70.553  1.00  0.00     0.000 HD 
HETATM    3  C   UNL     1     -12.467   7.691  71.465  1.00  0.00    -0.336 A  
HETATM    4  H2  UNL     1     -13.370   9.427  71.229  1.00  0.00     0.000 HD 
HETATM    5  C   UNL     1     -11.572   7.982  72.491  1.00  0.00    -0.464 A  
HETATM    6  C   UNL     1     -10.333   7.330  72.565  1.00  0.00    -0.218 A  
HETATM    7 CL   UNL     1      -9.300   7.729  73.900  1.00  0.00    -0.294 Cl 
HETATM    8  C   UNL     1      -9.924   6.395  71.591  1.00  0.00    -0.175 A  
HETATM    9  C   UNL     1     -10.816   6.165  70.528  1.00  0.00    -0.300 A  
HETATM   10  C   UNL     1     -12.058   6.816  70.462  1.00  0.00    -0.332 A  
HETATM   11 CL   UNL     1     -10.402   5.179  69.161  1.00  0.00    -0.265 Cl 
ENDROOT
BRANCH   8  12
HETATM   12  N   UNL     1      -8.685   5.742  71.739  1.00  0.00    -0.135 NA 
HETATM   13  H   UNL     1      -7.897   6.230  71.313  1.00  0.00     0.000 HD 
BRANCH  12  14
HETATM   14  C   UNL     1      -8.359   4.579  72.348  1.00  0.00    -0.110 A  
HETATM   15  N   UNL     1      -8.638   3.415  71.828  1.00  0.00    -0.082 NA 
HETATM   16  H   UNL     1      -9.099   3.224  70.939  1.00  0.00     0.000 HD 
HETATM   17  C   UNL     1      -8.133   2.429  72.821  1.00  0.00    -0.055 A  
HETATM   18  C   UNL     1      -7.463   3.225  73.942  1.00  0.00    -0.060 A  
HETATM   19  N   UNL     1      -7.626   4.590  73.494  1.00  0.00    -0.082 NA 
ENDBRANCH  12  14
ENDBRANCH   8  12
TORSDOF 2
ENDMDL
MODEL      163
REMARK 921   NORMALIZED FREE ENERGY PREDICTED BY IDOCK:   -3.18 KCAL/MOL
REMARK 922        TOTAL FREE ENERGY PREDICTED BY IDOCK:   -3.74 KCAL/MOL
REMARK 923 INTER-LIGAND FREE ENERGY PREDICTED BY IDOCK:   -3.44 KCAL/MOL
REMARK 924 INTRA-LIGAND FREE ENERGY PREDICTED BY IDOCK:   -0.30 KCAL/MOL
REMARK 927      BINDING AFFINITY PREDICTED BY RF-SCORE:    0.00 PKD
ROOT
HETATM    1  N   UNL     1      -6.825   8.691  69.989  1.00  0.00    -0.041 NA 
HETATM    2  H1  UNL     1      -6.929   7.839  70.540  1.00  0.00     0.000 HD 
HETATM    3  C   UNL     1      -7.949   9.425  69.599  1.00  0.00    -0.109 A  
HETATM    4  H2  UNL     1      -6.191   9.317  70.485  1.00  0.00     0.000 HD 
HETATM    5  C   UNL     1      -7.807  10.588  68.847  1.00  0.00    -0.124 A  
HETATM    6  C   UNL     1      -8.914  11.407  68.582  1.00  0.00    -0.131 A  
HETATM    7 CL   UNL     1      -8.650  12.814  67.604  1.00  0.00    -0.169 Cl 
HETATM    8  C   UNL     1     -10.195  11.117  69.098  1.00  0.00    -0.141 A  
HETATM    9  C   UNL     1     -10.301   9.974  69.910  1.00  0.00    -0.272 A  
HETATM   10  C   UNL     1      -9.191   9.154  70.166  1.00  0.00    -0.231 A  
HETATM   11 CL   UNL     1     -11.758   9.567  70.760  1.00  0.00    -0.353 Cl 
ENDROOT
BRANCH   8  12
HETATM   12  N   UNL     1     -11.277  11.955  68.767  1.00  0.00    -0.238 NA 
HETATM   13  H   UNL     1     -11.829  11.638  67.970  1.00  0.00     0.000 HD 
BRANCH  12  14
HETATM   14  C   UNL     1     -11.712  13.109  69.323  1.00  0.00    -0.321 A  
HETATM   15  N   UNL     1     -11.696  14.245  68.680  1.00  0.00    -0.326 NA 
HETATM   16  H   UNL     1     -11.387  14.415  67.723  1.00  0.00     0.000 HD 
HETATM   17  C   UNL     1     -12.228  15.235  69.654  1.00  0.00    -0.271 A  
HETATM   18  C   UNL     1     -12.612  14.461  70.916  1.00  0.00    -0.352 A  
HETATM   19  N   UNL     1     -12.285  13.100  70.557  1.00  0.00    -0.361 NA 
ENDBRANCH  12  14
ENDBRANCH   8  12
TORSDOF 2
ENDMDL
MODEL      164
REMARK 921   NORMALIZED FREE ENERGY PREDICTED BY IDOCK:   -3.17 KCAL/MOL
REMARK 922        TOTAL FREE ENERGY PREDICTED BY IDOCK:   -3.73 KCAL/MOL
REMARK 923 INTER-LIGAND FREE ENERGY PREDICTED BY IDOCK:   -3.43 KCAL/MOL
REMARK 924 INTRA-LIGAND FREE ENERGY PREDICTED BY IDOCK:   -0.30 KCAL/MOL
REMARK 927      BINDING AFFINITY PREDICTED BY RF-SCORE:    0.00 PKD
ROOT
HETATM    1  N   UNL     1      -8.314   4.741  65.418  1.00  0.00    -0.118 NA 
HETATM    2  H1  UNL     1      -7.696   4.330  64.718  1.00  0.00     0.000 HD 
HETATM    3  C   UNL     1      -8.450   6.128  65.518  1.00  0.00    -0.149 A  
HETATM    4  H2  UNL     1      -9.243   4.337  65.300  1.00  0.00     0.000 HD 
HETATM    5  C   UNL     1      -9.294   6.689  66.473  1.00  0.00    -0.191 A  
HETATM    6  C   UNL     1      -9.549   8.067  66.480  1.00  0.00    -0.226 A  
HETATM    7 CL   UNL     1     -10.582   8.681  67.731  1.00  0.00    -0.280 Cl 
HETATM    8  C   UNL     1      -9.006   8.930  65.505  1.00  0.00    -0.197 A  
HETATM    9  C   UNL     1      -8.210   8.333  64.511  1.00  0.00    -0.135 A  
HETATM   10  C   UNL     1      -7.952   6.953  64.513  1.00  0.00    -0.106 A  
HETATM   11 CL   UNL     1      -7.605   9.216  63.146  1.00  0.00    -0.101 Cl 
ENDROOT
BRANCH   8  12
HETATM   12  N   UNL     1      -9.266  10.312  65.585  1.00  0.00    -0.172 NA 
HETATM   13  H   UNL     1      -8.582  10.840  66.127  1.00  0.00     0.000 HD 
BRANCH  12  14
HETATM   14  C   UNL     1     -10.267  11.061  65.067  1.00  0.00    -0.299 A  
HETATM   15  N   UNL     1     -11.035  11.811  65.810  1.00  0.00    -0.303 NA 
HETATM   16  H   UNL     1     -10.987  11.945  66.819  1.00  0.00     0.000 HD 
HETATM   17  C   UNL     1     -11.995  12.427  64.854  1.00  0.00    -0.398 A  
HETATM   18  C   UNL     1     -11.595  11.960  63.454  1.00  0.00    -0.382 A  
HETATM   19  N   UNL     1     -10.440  11.133  63.720  1.00  0.00    -0.374 NA 
ENDBRANCH  12  14
ENDBRANCH   8  12
TORSDOF 2
ENDMDL
MODEL      165
REMARK 921   NORMALIZED FREE ENERGY PREDICTED BY IDOCK:   -3.14 KCAL/MOL
REMARK 922        TOTAL FREE ENERGY PREDICTED BY IDOCK:   -3.69 KCAL/MOL
REMARK 923 INTER-LIGAND FREE ENERGY PREDICTED BY IDOCK:   -3.39 KCAL/MOL
REMARK 924 INTRA-LIGAND FREE ENERGY PREDICTED BY IDOCK:   -0.31 KCAL/MOL
REMARK 927      BINDING AFFINITY PREDICTED BY RF-SCORE:    0.00 PKD
ROOT
HETATM    1  N   UNL     1     -12.792   6.696  72.202  1.00  0.00    -0.554 NA 
HETATM    2  H1  UNL     1     -13.552   6.066  71.945  1.00  0.00     0.000 HD 
HETATM    3  C   UNL     1     -11.720   6.908  71.331  1.00  0.00    -0.316 A  
HETATM    4  H2  UNL     1     -13.195   7.602  72.439  1.00  0.00     0.000 HD 
HETATM    5  C   UNL     1     -10.683   7.767  71.682  1.00  0.00    -0.257 A  
HETATM    6  C   UNL     1      -9.685   8.099  70.756  1.00  0.00    -0.170 A  
HETATM    7 CL   UNL     1      -8.411   9.146  71.295  1.00  0.00    -0.189 Cl 
HETATM    8  C   UNL     1      -9.712   7.620  69.429  1.00  0.00    -0.165 A  
HETATM    9  C   UNL     1     -10.804   6.808  69.077  1.00  0.00    -0.249 A  
HETATM   10  C   UNL     1     -11.797   6.472  70.010  1.00  0.00    -0.284 A  
HETATM   11 CL   UNL     1     -11.082   6.274  67.449  1.00  0.00    -0.433 Cl 
ENDROOT
BRANCH   8  12
HETATM   12  N   UNL     1      -8.661   7.956  68.553  1.00  0.00    -0.128 NA 
HETATM   13  H   UNL     1      -7.859   7.327  68.594  1.00  0.00     0.000 HD 
BRANCH  12  14
HETATM   14  C   UNL     1      -8.532   8.969  67.666  1.00  0.00    -0.117 A  
HETATM   15  N   UNL     1      -7.647   8.950  66.706  1.00  0.00    -0.086 NA 
HETATM   16  H   UNL     1      -6.977   8.212  66.491  1.00  0.00     0.000 HD 
HETATM   17  C   UNL     1      -7.833  10.245  65.999  1.00  0.00    -0.133 A  
HETATM   18  C   UNL     1      -9.009  10.957  66.668  1.00  0.00    -0.164 A  
HETATM   19  N   UNL     1      -9.406  10.012  67.686  1.00  0.00    -0.143 NA 
ENDBRANCH  12  14
ENDBRANCH   8  12
TORSDOF 2
ENDMDL
MODEL      166
REMARK 921   NORMALIZED FREE ENERGY PREDICTED BY IDOCK:   -3.08 KCAL/MOL
REMARK 922        TOTAL FREE ENERGY PREDICTED BY IDOCK:   -3.63 KCAL/MOL
REMARK 923 INTER-LIGAND FREE ENERGY PREDICTED BY IDOCK:   -3.35 KCAL/MOL
REMARK 924 INTRA-LIGAND FREE ENERGY PREDICTED BY IDOCK:   -0.28 KCAL/MOL
REMARK 927      BINDING AFFINITY PREDICTED BY RF-SCORE:    0.00 PKD
ROOT
HETATM    1  N   UNL     1      -9.562   2.497  65.149  1.00  0.00    -0.349 NA 
HETATM    2  H1  UNL     1      -8.955   2.053  64.461  1.00  0.00     0.000 HD 
HETATM    3  C   UNL     1      -9.325   3.809  65.566  1.00  0.00    -0.160 A  
HETATM    4  H2  UNL     1     -10.523   2.438  64.812  1.00  0.00     0.000 HD 
HETATM    5  C   UNL     1     -10.155   4.415  66.505  1.00  0.00    -0.217 A  
HETATM    6  C   UNL     1     -10.013   5.775  66.814  1.00  0.00    -0.175 A  
HETATM    7 CL   UNL     1     -11.066   6.433  68.025  1.00  0.00    -0.396 Cl 
HETATM    8  C   UNL     1      -9.065   6.591  66.161  1.00  0.00    -0.124 A  
HETATM    9  C   UNL     1      -8.283   5.974  65.168  1.00  0.00    -0.142 A  
HETATM   10  C   UNL     1      -8.424   4.611  64.868  1.00  0.00    -0.135 A  
HETATM   11 CL   UNL     1      -7.193   6.865  64.154  1.00  0.00    -0.062 Cl 
ENDROOT
BRANCH   8  12
HETATM   12  N   UNL     1      -8.942   7.942  66.540  1.00  0.00    -0.152 NA 
HETATM   13  H   UNL     1      -8.335   8.102  67.344  1.00  0.00     0.000 HD 
BRANCH  12  14
HETATM   14  C   UNL     1      -9.489   9.065  66.020  1.00  0.00    -0.256 A  
HETATM   15  N   UNL     1      -9.573   9.271  64.734  1.00  0.00    -0.387 NA 
HETATM   16  H   UNL     1      -9.273   8.652  63.983  1.00  0.00     0.000 HD 
HETATM   17  C   UNL     1     -10.206  10.612  64.610  1.00  0.00    -0.334 A  
HETATM   18  C   UNL     1     -10.528  11.089  66.027  1.00  0.00    -0.245 A  
HETATM   19  N   UNL     1     -10.070   9.984  66.838  1.00  0.00    -0.218 NA 
ENDBRANCH  12  14
ENDBRANCH   8  12
TORSDOF 2
ENDMDL
MODEL      167
REMARK 921   NORMALIZED FREE ENERGY PREDICTED BY IDOCK:   -3.04 KCAL/MOL
REMARK 922        TOTAL FREE ENERGY PREDICTED BY IDOCK:   -3.59 KCAL/MOL
REMARK 923 INTER-LIGAND FREE ENERGY PREDICTED BY IDOCK:   -3.33 KCAL/MOL
REMARK 924 INTRA-LIGAND FREE ENERGY PREDICTED BY IDOCK:   -0.25 KCAL/MOL
REMARK 927      BINDING AFFINITY PREDICTED BY RF-SCORE:    0.00 PKD
ROOT
HETATM    1  N   UNL     1      -6.863  10.968  67.349  1.00  0.00    -0.077 NA 
HETATM    2  H1  UNL     1      -6.079  11.402  67.836  1.00  0.00     0.000 HD 
HETATM    3  C   UNL     1      -7.650  10.005  67.987  1.00  0.00    -0.088 A  
HETATM    4  H2  UNL     1      -7.477  11.708  67.009  1.00  0.00     0.000 HD 
HETATM    5  C   UNL     1      -8.720   9.413  67.322  1.00  0.00    -0.133 A  
HETATM    6  C   UNL     1      -9.600   8.561  68.003  1.00  0.00    -0.149 A  
HETATM    7 CL   UNL     1     -10.881   7.837  67.084  1.00  0.00    -0.329 Cl 
HETATM    8  C   UNL     1      -9.471   8.306  69.384  1.00  0.00    -0.159 A  
HETATM    9  C   UNL     1      -8.424   8.968  70.050  1.00  0.00    -0.145 A  
HETATM   10  C   UNL     1      -7.540   9.814  69.362  1.00  0.00    -0.104 A  
HETATM   11 CL   UNL     1      -8.225   8.901  71.772  1.00  0.00    -0.133 Cl 
ENDROOT
BRANCH   8  12
HETATM   12  N   UNL     1     -10.363   7.411  70.007  1.00  0.00    -0.214 NA 
HETATM   13  H   UNL     1     -10.091   6.430  69.942  1.00  0.00     0.000 HD 
BRANCH  12  14
HETATM   14  C   UNL     1     -11.519   7.628  70.676  1.00  0.00    -0.258 A  
HETATM   15  N   UNL     1     -12.524   6.796  70.623  1.00  0.00    -0.511 NA 
HETATM   16  H   UNL     1     -12.576   5.913  70.116  1.00  0.00     0.000 HD 
HETATM   17  C   UNL     1     -13.574   7.423  71.469  1.00  0.00    -0.370 A  
HETATM   18  C   UNL     1     -12.972   8.698  72.061  1.00  0.00    -0.378 A  
HETATM   19  N   UNL     1     -11.632   8.688  71.521  1.00  0.00    -0.282 NA 
ENDBRANCH  12  14
ENDBRANCH   8  12
TORSDOF 2
ENDMDL
MODEL      168
REMARK 921   NORMALIZED FREE ENERGY PREDICTED BY IDOCK:   -3.01 KCAL/MOL
REMARK 922        TOTAL FREE ENERGY PREDICTED BY IDOCK:   -3.55 KCAL/MOL
REMARK 923 INTER-LIGAND FREE ENERGY PREDICTED BY IDOCK:   -3.26 KCAL/MOL
REMARK 924 INTRA-LIGAND FREE ENERGY PREDICTED BY IDOCK:   -0.28 KCAL/MOL
REMARK 927      BINDING AFFINITY PREDICTED BY RF-SCORE:    0.00 PKD
ROOT
HETATM    1  N   UNL     1      -7.229   9.033  72.254  1.00  0.00    -0.325 NA 
HETATM    2  H1  UNL     1      -7.777   8.610  73.003  1.00  0.00     0.000 HD 
HETATM    3  C   UNL     1      -7.801   9.270  71.001  1.00  0.00    -0.067 A  
HETATM    4  H2  UNL     1      -6.841   9.911  72.599  1.00  0.00     0.000 HD 
HETATM    5  C   UNL     1      -7.051   9.847  69.980  1.00  0.00    -0.127 A  
HETATM    6  C   UNL     1      -7.658  10.223  68.773  1.00  0.00    -0.093 A  
HETATM    7 CL   UNL     1      -6.638  10.898  67.544  1.00  0.00    -0.061 Cl 
HETATM    8  C   UNL     1      -9.045  10.078  68.561  1.00  0.00    -0.127 A  
HETATM    9  C   UNL     1      -9.793   9.555  69.631  1.00  0.00    -0.205 A  
HETATM   10  C   UNL     1      -9.180   9.173  70.834  1.00  0.00    -0.326 A  
HETATM   11 CL   UNL     1     -11.526   9.468  69.602  1.00  0.00    -0.064 Cl 
ENDROOT
BRANCH   8  12
HETATM   12  N   UNL     1      -9.593  10.438  67.314  1.00  0.00    -0.154 NA 
HETATM   13  H   UNL     1      -9.476   9.737  66.583  1.00  0.00     0.000 HD 
BRANCH  12  14
HETATM   14  C   UNL     1     -10.248  11.554  66.919  1.00  0.00    -0.217 A  
HETATM   15  N   UNL     1     -11.536  11.699  67.070  1.00  0.00    -0.547 NA 
HETATM   16  H   UNL     1     -12.192  11.043  67.492  1.00  0.00     0.000 HD 
HETATM   17  C   UNL     1     -11.834  13.036  66.489  1.00  0.00    -0.403 A  
HETATM   18  C   UNL     1     -10.499  13.644  66.057  1.00  0.00    -0.300 A  
HETATM   19  N   UNL     1      -9.553  12.620  66.437  1.00  0.00    -0.247 NA 
ENDBRANCH  12  14
ENDBRANCH   8  12
TORSDOF 2
ENDMDL
MODEL      169
REMARK 921   NORMALIZED FREE ENERGY PREDICTED BY IDOCK:   -3.00 KCAL/MOL
REMARK 922        TOTAL FREE ENERGY PREDICTED BY IDOCK:   -3.53 KCAL/MOL
REMARK 923 INTER-LIGAND FREE ENERGY PREDICTED BY IDOCK:   -3.22 KCAL/MOL
REMARK 924 INTRA-LIGAND FREE ENERGY PREDICTED BY IDOCK:   -0.31 KCAL/MOL
REMARK 927      BINDING AFFINITY PREDICTED BY RF-SCORE:    0.00 PKD
ROOT
HETATM    1  N   UNL     1     -11.678   7.237  70.574  1.00  0.00    -0.452 NA 
HETATM    2  H1  UNL     1     -12.049   7.807  71.333  1.00  0.00     0.000 HD 
HETATM    3  C   UNL     1     -11.100   7.839  69.452  1.00  0.00     0.055 A  
HETATM    4  H2  UNL     1     -11.003   6.582  70.967  1.00  0.00     0.000 HD 
HETATM    5  C   UNL     1     -10.593   7.060  68.414  1.00  0.00    -0.240 A  
HETATM    6  C   UNL     1      -9.882   7.650  67.361  1.00  0.00    -0.173 A  
HETATM    7 CL   UNL     1      -9.322   6.607  66.093  1.00  0.00    -0.143 Cl 
HETATM    8  C   UNL     1      -9.611   9.034  67.328  1.00  0.00    -0.159 A  
HETATM    9  C   UNL     1     -10.074   9.791  68.419  1.00  0.00    -0.166 A  
HETATM   10  C   UNL     1     -10.793   9.197  69.468  1.00  0.00    -0.194 A  
HETATM   11 CL   UNL     1      -9.684  11.469  68.622  1.00  0.00    -0.193 Cl 
ENDROOT
BRANCH   8  12
HETATM   12  N   UNL     1      -8.924   9.577  66.224  1.00  0.00    -0.151 NA 
HETATM   13  H   UNL     1      -7.908   9.508  66.283  1.00  0.00     0.000 HD 
BRANCH  12  14
HETATM   14  C   UNL     1      -9.379  10.173  65.098  1.00  0.00    -0.235 A  
HETATM   15  N   UNL     1     -10.082  11.272  65.125  1.00  0.00    -0.259 NA 
HETATM   16  H   UNL     1     -10.361  11.814  65.943  1.00  0.00     0.000 HD 
HETATM   17  C   UNL     1     -10.387  11.558  63.697  1.00  0.00    -0.417 A  
HETATM   18  C   UNL     1      -9.681  10.486  62.866  1.00  0.00    -0.265 A  
HETATM   19  N   UNL     1      -9.024   9.690  63.877  1.00  0.00    -0.233 NA 
ENDBRANCH  12  14
ENDBRANCH   8  12
TORSDOF 2
ENDMDL
MODEL      170
REMARK 921   NORMALIZED FREE ENERGY PREDICTED BY IDOCK:   -2.96 KCAL/MOL
REMARK 922        TOTAL FREE ENERGY PREDICTED BY IDOCK:   -3.50 KCAL/MOL
REMARK 923 INTER-LIGAND FREE ENERGY PREDICTED BY IDOCK:   -3.27 KCAL/MOL
REMARK 924 INTRA-LIGAND FREE ENERGY PREDICTED BY IDOCK:   -0.23 KCAL/MOL
REMARK 927      BINDING AFFINITY PREDICTED BY RF-SCORE:    0.00 PKD
ROOT
HETATM    1  N   UNL     1      -7.473   8.608  65.079  1.00  0.00    -0.086 NA 
HETATM    2  H1  UNL     1      -6.823   9.368  65.279  1.00  0.00     0.000 HD 
HETATM    3  C   UNL     1      -7.988   7.824  66.115  1.00  0.00    -0.105 A  
HETATM    4  H2  UNL     1      -8.256   8.989  64.548  1.00  0.00     0.000 HD 
HETATM    5  C   UNL     1      -8.876   6.787  65.842  1.00  0.00    -0.127 A  
HETATM    6  C   UNL     1      -9.510   6.096  66.884  1.00  0.00    -0.136 A  
HETATM    7 CL   UNL     1     -10.570   4.794  66.450  1.00  0.00    -0.291 Cl 
HETATM    8  C   UNL     1      -9.315   6.447  68.236  1.00  0.00    -0.109 A  
HETATM    9  C   UNL     1      -8.466   7.540  68.486  1.00  0.00    -0.129 A  
HETATM   10  C   UNL     1      -7.828   8.224  67.439  1.00  0.00    -0.106 A  
HETATM   11 CL   UNL     1      -8.250   8.209  70.072  1.00  0.00    -0.118 Cl 
ENDROOT
BRANCH   8  12
HETATM   12  N   UNL     1      -9.949   5.692  69.243  1.00  0.00    -0.172 NA 
HETATM   13  H   UNL     1      -9.683   4.707  69.264  1.00  0.00     0.000 HD 
BRANCH  12  14
HETATM   14  C   UNL     1     -10.850   6.047  70.187  1.00  0.00    -0.339 A  
HETATM   15  N   UNL     1     -11.932   6.721  69.902  1.00  0.00    -0.659 NA 
HETATM   16  H   UNL     1     -12.242   7.044  68.987  1.00  0.00     0.000 HD 
HETATM   17  C   UNL     1     -12.610   6.911  71.213  1.00  0.00    -0.345 A  
HETATM   18  C   UNL     1     -11.775   6.176  72.261  1.00  0.00    -0.302 A  
HETATM   19  N   UNL     1     -10.704   5.617  71.469  1.00  0.00    -0.248 NA 
ENDBRANCH  12  14
ENDBRANCH   8  12
TORSDOF 2
ENDMDL
MODEL      171
REMARK 921   NORMALIZED FREE ENERGY PREDICTED BY IDOCK:   -2.96 KCAL/MOL
REMARK 922        TOTAL FREE ENERGY PREDICTED BY IDOCK:   -3.49 KCAL/MOL
REMARK 923 INTER-LIGAND FREE ENERGY PREDICTED BY IDOCK:   -3.19 KCAL/MOL
REMARK 924 INTRA-LIGAND FREE ENERGY PREDICTED BY IDOCK:   -0.30 KCAL/MOL
REMARK 927      BINDING AFFINITY PREDICTED BY RF-SCORE:    0.00 PKD
ROOT
HETATM    1  N   UNL     1      -9.245  19.663  66.321  1.00  0.00    -0.372 NA 
HETATM    2  H1  UNL     1     -10.200  19.998  66.450  1.00  0.00     0.000 HD 
HETATM    3  C   UNL     1      -8.725  18.665  67.149  1.00  0.00    -0.274 A  
HETATM    4  H2  UNL     1      -9.141  19.361  65.353  1.00  0.00     0.000 HD 
HETATM    5  C   UNL     1      -7.421  18.208  66.973  1.00  0.00    -0.227 A  
HETATM    6  C   UNL     1      -6.946  17.108  67.700  1.00  0.00    -0.142 A  
HETATM    7 CL   UNL     1      -5.297  16.635  67.443  1.00  0.00    -0.154 Cl 
HETATM    8  C   UNL     1      -7.770  16.394  68.595  1.00  0.00    -0.204 A  
HETATM    9  C   UNL     1      -9.102  16.832  68.708  1.00  0.00    -0.259 A  
HETATM   10  C   UNL     1      -9.571  17.939  67.984  1.00  0.00    -0.290 A  
HETATM   11 CL   UNL     1     -10.291  15.970  69.631  1.00  0.00    -0.275 Cl 
ENDROOT
BRANCH   8  12
HETATM   12  N   UNL     1      -7.226  15.320  69.327  1.00  0.00    -0.168 NA 
HETATM   13  H   UNL     1      -6.815  15.584  70.223  1.00  0.00     0.000 HD 
BRANCH  12  14
HETATM   14  C   UNL     1      -7.154  13.999  69.045  1.00  0.00    -0.106 A  
HETATM   15  N   UNL     1      -6.583  13.143  69.850  1.00  0.00    -0.355 NA 
HETATM   16  H   UNL     1      -6.150  13.330  70.753  1.00  0.00     0.000 HD 
HETATM   17  C   UNL     1      -6.707  11.835  69.153  1.00  0.00    -0.110 A  
HETATM   18  C   UNL     1      -7.500  12.082  67.870  1.00  0.00    -0.114 A  
HETATM   19  N   UNL     1      -7.776  13.499  67.944  1.00  0.00    -0.136 NA 
ENDBRANCH  12  14
ENDBRANCH   8  12
TORSDOF 2
ENDMDL
MODEL      172
REMARK 921   NORMALIZED FREE ENERGY PREDICTED BY IDOCK:   -2.91 KCAL/MOL
REMARK 922        TOTAL FREE ENERGY PREDICTED BY IDOCK:   -3.44 KCAL/MOL
REMARK 923 INTER-LIGAND FREE ENERGY PREDICTED BY IDOCK:   -3.17 KCAL/MOL
REMARK 924 INTRA-LIGAND FREE ENERGY PREDICTED BY IDOCK:   -0.27 KCAL/MOL
REMARK 927      BINDING AFFINITY PREDICTED BY RF-SCORE:    0.00 PKD
ROOT
HETATM    1  N   UNL     1      -7.610  11.871  66.540  1.00  0.00    -0.373 NA 
HETATM    2  H1  UNL     1      -7.819  12.867  66.476  1.00  0.00     0.000 HD 
HETATM    3  C   UNL     1      -8.281  11.062  67.460  1.00  0.00    -0.117 A  
HETATM    4  H2  UNL     1      -7.722  11.461  65.613  1.00  0.00     0.000 HD 
HETATM    5  C   UNL     1      -7.995   9.702  67.547  1.00  0.00    -0.106 A  
HETATM    6  C   UNL     1      -8.767   8.860  68.360  1.00  0.00    -0.134 A  
HETATM    7 CL   UNL     1      -8.312   7.188  68.436  1.00  0.00    -0.124 Cl 
HETATM    8  C   UNL     1      -9.882   9.338  69.080  1.00  0.00    -0.166 A  
HETATM    9  C   UNL     1     -10.193  10.700  68.925  1.00  0.00    -0.201 A  
HETATM   10  C   UNL     1      -9.412  11.541  68.116  1.00  0.00    -0.184 A  
HETATM   11 CL   UNL     1     -11.624  11.412  69.600  1.00  0.00    -0.366 Cl 
ENDROOT
BRANCH   8  12
HETATM   12  N   UNL     1     -10.597   8.452  69.910  1.00  0.00    -0.227 NA 
HETATM   13  H   UNL     1     -11.463   8.098  69.503  1.00  0.00     0.000 HD 
BRANCH  12  14
HETATM   14  C   UNL     1     -10.334   7.991  71.154  1.00  0.00    -0.197 A  
HETATM   15  N   UNL     1     -10.156   8.788  72.172  1.00  0.00    -0.320 NA 
HETATM   16  H   UNL     1     -10.200   9.806  72.181  1.00  0.00     0.000 HD 
HETATM   17  C   UNL     1      -9.874   7.879  73.315  1.00  0.00    -0.277 A  
HETATM   18  C   UNL     1      -9.997   6.448  72.791  1.00  0.00    -0.172 A  
HETATM   19  N   UNL     1     -10.349   6.654  71.405  1.00  0.00    -0.200 NA 
ENDBRANCH  12  14
ENDBRANCH   8  12
TORSDOF 2
ENDMDL
MODEL      173
REMARK 921   NORMALIZED FREE ENERGY PREDICTED BY IDOCK:   -2.91 KCAL/MOL
REMARK 922        TOTAL FREE ENERGY PREDICTED BY IDOCK:   -3.44 KCAL/MOL
REMARK 923 INTER-LIGAND FREE ENERGY PREDICTED BY IDOCK:   -3.13 KCAL/MOL
REMARK 924 INTRA-LIGAND FREE ENERGY PREDICTED BY IDOCK:   -0.30 KCAL/MOL
REMARK 927      BINDING AFFINITY PREDICTED BY RF-SCORE:    0.00 PKD
ROOT
HETATM    1  N   UNL     1     -14.055   8.083  71.245  1.00  0.00    -0.627 NA 
HETATM    2  H1  UNL     1     -14.641   7.887  70.433  1.00  0.00     0.000 HD 
HETATM    3  C   UNL     1     -12.831   7.430  71.412  1.00  0.00    -0.365 A  
HETATM    4  H2  UNL     1     -13.888   9.089  71.283  1.00  0.00     0.000 HD 
HETATM    5  C   UNL     1     -12.031   7.698  72.520  1.00  0.00    -0.261 A  
HETATM    6  C   UNL     1     -10.740   7.161  72.616  1.00  0.00    -0.268 A  
HETATM    7 CL   UNL     1      -9.833   7.517  74.050  1.00  0.00    -0.209 Cl 
HETATM    8  C   UNL     1     -10.183   6.373  71.587  1.00  0.00    -0.196 A  
HETATM    9  C   UNL     1     -10.983   6.171  70.448  1.00  0.00    -0.337 A  
HETATM   10  C   UNL     1     -12.278   6.705  70.360  1.00  0.00    -0.133 A  
HETATM   11 CL   UNL     1     -10.393   5.373  69.025  1.00  0.00    -0.292 Cl 
ENDROOT
BRANCH   8  12
HETATM   12  N   UNL     1      -8.895   5.828  71.756  1.00  0.00    -0.136 NA 
HETATM   13  H   UNL     1      -8.881   4.899  72.176  1.00  0.00     0.000 HD 
BRANCH  12  14
HETATM   14  C   UNL     1      -7.673   6.325  71.457  1.00  0.00    -0.100 A  
HETATM   15  N   UNL     1      -6.781   6.585  72.374  1.00  0.00    -0.063 NA 
HETATM   16  H   UNL     1      -6.864   6.449  73.381  1.00  0.00     0.000 HD 
HETATM   17  C   UNL     1      -5.617   7.126  71.622  1.00  0.00    -0.036 A  
HETATM   18  C   UNL     1      -5.971   7.057  70.136  1.00  0.00    -0.024 A  
HETATM   19  N   UNL     1      -7.293   6.474  70.159  1.00  0.00    -0.087 NA 
ENDBRANCH  12  14
ENDBRANCH   8  12
TORSDOF 2
ENDMDL
MODEL      174
REMARK 921   NORMALIZED FREE ENERGY PREDICTED BY IDOCK:   -2.90 KCAL/MOL
REMARK 922        TOTAL FREE ENERGY PREDICTED BY IDOCK:   -3.43 KCAL/MOL
REMARK 923 INTER-LIGAND FREE ENERGY PREDICTED BY IDOCK:   -3.12 KCAL/MOL
REMARK 924 INTRA-LIGAND FREE ENERGY PREDICTED BY IDOCK:   -0.31 KCAL/MOL
REMARK 927      BINDING AFFINITY PREDICTED BY RF-SCORE:    0.00 PKD
ROOT
HETATM    1  N   UNL     1     -12.782   6.743  72.204  1.00  0.00    -0.555 NA 
HETATM    2  H1  UNL     1     -13.587   6.181  71.929  1.00  0.00     0.000 HD 
HETATM    3  C   UNL     1     -11.686   6.880  71.347  1.00  0.00    -0.316 A  
HETATM    4  H2  UNL     1     -13.113   7.675  72.451  1.00  0.00     0.000 HD 
HETATM    5  C   UNL     1     -10.587   7.648  71.722  1.00  0.00    -0.250 A  
HETATM    6  C   UNL     1      -9.555   7.911  70.811  1.00  0.00    -0.165 A  
HETATM    7 CL   UNL     1      -8.207   8.843  71.379  1.00  0.00    -0.197 Cl 
HETATM    8  C   UNL     1      -9.606   7.455  69.476  1.00  0.00    -0.155 A  
HETATM    9  C   UNL     1     -10.756   6.739  69.101  1.00  0.00    -0.253 A  
HETATM   10  C   UNL     1     -11.783   6.472  70.019  1.00  0.00    -0.388 A  
HETATM   11 CL   UNL     1     -11.058   6.254  67.462  1.00  0.00    -0.432 Cl 
ENDROOT
BRANCH   8  12
HETATM   12  N   UNL     1      -8.521   7.718  68.617  1.00  0.00    -0.128 NA 
HETATM   13  H   UNL     1      -8.504   8.664  68.234  1.00  0.00     0.000 HD 
BRANCH  12  14
HETATM   14  C   UNL     1      -7.498   6.932  68.210  1.00  0.00    -0.099 A  
HETATM   15  N   UNL     1      -6.916   6.075  69.005  1.00  0.00    -0.066 NA 
HETATM   16  H   UNL     1      -7.141   5.876  69.979  1.00  0.00     0.000 HD 
HETATM   17  C   UNL     1      -5.851   5.455  68.172  1.00  0.00    -0.017 A  
HETATM   18  C   UNL     1      -5.978   6.047  66.768  1.00  0.00    -0.021 A  
HETATM   19  N   UNL     1      -7.105   6.940  66.907  1.00  0.00    -0.073 NA 
ENDBRANCH  12  14
ENDBRANCH   8  12
TORSDOF 2
ENDMDL
MODEL      175
REMARK 921   NORMALIZED FREE ENERGY PREDICTED BY IDOCK:   -2.88 KCAL/MOL
REMARK 922        TOTAL FREE ENERGY PREDICTED BY IDOCK:   -3.40 KCAL/MOL
REMARK 923 INTER-LIGAND FREE ENERGY PREDICTED BY IDOCK:   -3.31 KCAL/MOL
REMARK 924 INTRA-LIGAND FREE ENERGY PREDICTED BY IDOCK:   -0.09 KCAL/MOL
REMARK 927      BINDING AFFINITY PREDICTED BY RF-SCORE:    0.00 PKD
ROOT
HETATM    1  N   UNL     1      -8.589   7.292  71.865  1.00  0.00    -0.114 NA 
HETATM    2  H1  UNL     1      -8.169   6.571  72.451  1.00  0.00     0.000 HD 
HETATM    3  C   UNL     1      -8.988   7.002  70.557  1.00  0.00    -0.155 A  
HETATM    4  H2  UNL     1      -9.389   7.682  72.363  1.00  0.00     0.000 HD 
HETATM    5  C   UNL     1      -9.562   7.987  69.758  1.00  0.00    -0.171 A  
HETATM    6  C   UNL     1     -10.099   7.666  68.503  1.00  0.00    -0.190 A  
HETATM    7 CL   UNL     1     -10.757   8.964  67.561  1.00  0.00    -0.292 Cl 
HETATM    8  C   UNL     1     -10.124   6.340  68.021  1.00  0.00    -0.152 A  
HETATM    9  C   UNL     1      -9.600   5.352  68.874  1.00  0.00    -0.141 A  
HETATM   10  C   UNL     1      -9.056   5.679  70.126  1.00  0.00    -0.159 A  
HETATM   11 CL   UNL     1      -9.705   3.658  68.512  1.00  0.00    -0.147 Cl 
ENDROOT
BRANCH   8  12
HETATM   12  N   UNL     1     -10.642   6.083  66.737  1.00  0.00    -0.350 NA 
HETATM   13  H   UNL     1     -11.472   6.626  66.500  1.00  0.00     0.000 HD 
BRANCH  12  14
HETATM   14  C   UNL     1     -10.228   5.240  65.763  1.00  0.00     0.019 A  
HETATM   15  N   UNL     1     -11.055   4.481  65.097  1.00  0.00    -0.934 NA 
HETATM   16  H   UNL     1     -12.068   4.426  65.197  1.00  0.00     0.000 HD 
HETATM   17  C   UNL     1     -10.190   3.715  64.160  1.00  0.00    -0.231 A  
HETATM   18  C   UNL     1      -8.759   4.220  64.357  1.00  0.00    -0.139 A  
HETATM   19  N   UNL     1      -8.925   5.235  65.371  1.00  0.00    -0.159 NA 
ENDBRANCH  12  14
ENDBRANCH   8  12
TORSDOF 2
ENDMDL
MODEL      176
REMARK 921   NORMALIZED FREE ENERGY PREDICTED BY IDOCK:   -2.86 KCAL/MOL
REMARK 922        TOTAL FREE ENERGY PREDICTED BY IDOCK:   -3.39 KCAL/MOL
REMARK 923 INTER-LIGAND FREE ENERGY PREDICTED BY IDOCK:   -3.71 KCAL/MOL
REMARK 924 INTRA-LIGAND FREE ENERGY PREDICTED BY IDOCK:    0.32 KCAL/MOL
REMARK 927      BINDING AFFINITY PREDICTED BY RF-SCORE:    0.00 PKD
ROOT
HETATM    1  N   UNL     1      -9.738  15.790  65.912  1.00  0.00    -0.336 NA 
HETATM    2  H1  UNL     1     -10.666  16.025  65.559  1.00  0.00     0.000 HD 
HETATM    3  C   UNL     1      -9.559  14.697  66.765  1.00  0.00    -0.253 A  
HETATM    4  H2  UNL     1      -9.112  15.679  65.115  1.00  0.00     0.000 HD 
HETATM    5  C   UNL     1      -8.292  14.376  67.246  1.00  0.00    -0.228 A  
HETATM    6  C   UNL     1      -8.083  13.198  67.977  1.00  0.00    -0.157 A  
HETATM    7 CL   UNL     1      -6.480  12.901  68.570  1.00  0.00    -0.076 Cl 
HETATM    8  C   UNL     1      -9.122  12.274  68.214  1.00  0.00    -0.187 A  
HETATM    9  C   UNL     1     -10.378  12.586  67.662  1.00  0.00    -0.218 A  
HETATM   10  C   UNL     1     -10.584  13.770  66.937  1.00  0.00    -0.276 A  
HETATM   11 CL   UNL     1     -11.717  11.485  67.712  1.00  0.00    -0.338 Cl 
ENDROOT
BRANCH   8  12
HETATM   12  N   UNL     1      -8.862  11.126  68.988  1.00  0.00    -0.365 NA 
HETATM   13  H   UNL     1      -7.895  11.039  69.302  1.00  0.00     0.000 HD 
BRANCH  12  14
HETATM   14  C   UNL     1      -9.672  10.119  69.386  1.00  0.00    -0.229 A  
HETATM   15  N   UNL     1     -10.495  10.240  70.392  1.00  0.00    -0.430 NA 
HETATM   16  H   UNL     1     -10.648  11.061  70.977  1.00  0.00     0.000 HD 
HETATM   17  C   UNL     1     -11.160   8.914  70.494  1.00  0.00    -0.251 A  
HETATM   18  C   UNL     1     -10.633   8.058  69.342  1.00  0.00    -0.205 A  
HETATM   19  N   UNL     1      -9.727   8.962  68.672  1.00  0.00    -0.158 NA 
ENDBRANCH  12  14
ENDBRANCH   8  12
TORSDOF 2
ENDMDL
MODEL      177
REMARK 921   NORMALIZED FREE ENERGY PREDICTED BY IDOCK:   -2.86 KCAL/MOL
REMARK 922        TOTAL FREE ENERGY PREDICTED BY IDOCK:   -3.39 KCAL/MOL
REMARK 923 INTER-LIGAND FREE ENERGY PREDICTED BY IDOCK:   -3.10 KCAL/MOL
REMARK 924 INTRA-LIGAND FREE ENERGY PREDICTED BY IDOCK:   -0.29 KCAL/MOL
REMARK 927      BINDING AFFINITY PREDICTED BY RF-SCORE:    0.00 PKD
ROOT
HETATM    1  N   UNL     1     -10.956  11.002  70.113  1.00  0.00    -0.467 NA 
HETATM    2  H1  UNL     1     -11.616  10.934  70.888  1.00  0.00     0.000 HD 
HETATM    3  C   UNL     1     -10.366   9.852  69.581  1.00  0.00    -0.241 A  
HETATM    4  H2  UNL     1     -11.408  11.510  69.353  1.00  0.00     0.000 HD 
HETATM    5  C   UNL     1      -9.465   9.945  68.523  1.00  0.00    -0.149 A  
HETATM    6  C   UNL     1      -8.987   8.790  67.889  1.00  0.00    -0.140 A  
HETATM    7 CL   UNL     1      -7.839   9.001  66.606  1.00  0.00    -0.099 Cl 
HETATM    8  C   UNL     1      -9.426   7.501  68.259  1.00  0.00    -0.144 A  
HETATM    9  C   UNL     1     -10.385   7.435  69.285  1.00  0.00    -0.204 A  
HETATM   10  C   UNL     1     -10.856   8.594  69.922  1.00  0.00    -0.210 A  
HETATM   11 CL   UNL     1     -11.155   5.950  69.747  1.00  0.00    -0.459 Cl 
ENDROOT
BRANCH   8  12
HETATM   12  N   UNL     1      -8.881   6.375  67.612  1.00  0.00    -0.113 NA 
HETATM   13  H   UNL     1      -7.934   6.134  67.908  1.00  0.00     0.000 HD 
BRANCH  12  14
HETATM   14  C   UNL     1      -9.396   5.556  66.666  1.00  0.00    -0.141 A  
HETATM   15  N   UNL     1     -10.485   5.847  66.008  1.00  0.00    -0.436 NA 
HETATM   16  H   UNL     1     -11.061   6.684  66.095  1.00  0.00     0.000 HD 
HETATM   17  C   UNL     1     -10.698   4.686  65.104  1.00  0.00    -0.014 A  
HETATM   18  C   UNL     1      -9.517   3.736  65.307  1.00  0.00    -0.168 A  
HETATM   19  N   UNL     1      -8.724   4.434  66.293  1.00  0.00    -0.112 NA 
ENDBRANCH  12  14
ENDBRANCH   8  12
TORSDOF 2
ENDMDL
MODEL      178
REMARK 921   NORMALIZED FREE ENERGY PREDICTED BY IDOCK:   -2.85 KCAL/MOL
REMARK 922        TOTAL FREE ENERGY PREDICTED BY IDOCK:   -3.37 KCAL/MOL
REMARK 923 INTER-LIGAND FREE ENERGY PREDICTED BY IDOCK:   -3.07 KCAL/MOL
REMARK 924 INTRA-LIGAND FREE ENERGY PREDICTED BY IDOCK:   -0.30 KCAL/MOL
REMARK 927      BINDING AFFINITY PREDICTED BY RF-SCORE:    0.00 PKD
ROOT
HETATM    1  N   UNL     1     -11.827   5.848  72.896  1.00  0.00    -0.524 NA 
HETATM    2  H1  UNL     1     -12.510   6.585  73.070  1.00  0.00     0.000 HD 
HETATM    3  C   UNL     1     -11.151   5.780  71.674  1.00  0.00    -0.226 A  
HETATM    4  H2  UNL     1     -11.134   5.871  73.643  1.00  0.00     0.000 HD 
HETATM    5  C   UNL     1     -10.219   4.773  71.437  1.00  0.00    -0.237 A  
HETATM    6  C   UNL     1      -9.432   4.788  70.277  1.00  0.00    -0.174 A  
HETATM    7 CL   UNL     1      -8.326   3.472  70.046  1.00  0.00    -0.073 Cl 
HETATM    8  C   UNL     1      -9.515   5.834  69.333  1.00  0.00    -0.130 A  
HETATM    9  C   UNL     1     -10.415   6.874  69.627  1.00  0.00    -0.218 A  
HETATM   10  C   UNL     1     -11.206   6.851  70.786  1.00  0.00    -0.338 A  
HETATM   11 CL   UNL     1     -10.520   8.314  68.665  1.00  0.00    -0.222 Cl 
ENDROOT
BRANCH   8  12
HETATM   12  N   UNL     1      -8.727   5.775  68.168  1.00  0.00    -0.108 NA 
HETATM   13  H   UNL     1      -7.778   6.131  68.281  1.00  0.00     0.000 HD 
BRANCH  12  14
HETATM   14  C   UNL     1      -9.011   5.328  66.923  1.00  0.00    -0.109 A  
HETATM   15  N   UNL     1      -8.131   5.334  65.960  1.00  0.00    -0.108 NA 
HETATM   16  H   UNL     1      -7.160   5.643  66.004  1.00  0.00     0.000 HD 
HETATM   17  C   UNL     1      -8.859   4.789  64.782  1.00  0.00    -0.153 A  
HETATM   18  C   UNL     1     -10.261   4.410  65.259  1.00  0.00    -0.210 A  
HETATM   19  N   UNL     1     -10.216   4.752  66.662  1.00  0.00    -0.244 NA 
ENDBRANCH  12  14
ENDBRANCH   8  12
TORSDOF 2
ENDMDL
MODEL      179
REMARK 921   NORMALIZED FREE ENERGY PREDICTED BY IDOCK:   -2.85 KCAL/MOL
REMARK 922        TOTAL FREE ENERGY PREDICTED BY IDOCK:   -3.37 KCAL/MOL
REMARK 923 INTER-LIGAND FREE ENERGY PREDICTED BY IDOCK:   -3.19 KCAL/MOL
REMARK 924 INTRA-LIGAND FREE ENERGY PREDICTED BY IDOCK:   -0.17 KCAL/MOL
REMARK 927      BINDING AFFINITY PREDICTED BY RF-SCORE:    0.00 PKD
ROOT
HETATM    1  N   UNL     1      -8.522   2.724  72.947  1.00  0.00    -0.071 NA 
HETATM    2  H1  UNL     1      -9.081   1.984  72.524  1.00  0.00     0.000 HD 
HETATM    3  C   UNL     1      -8.940   4.056  72.885  1.00  0.00    -0.104 A  
HETATM    4  H2  UNL     1      -8.364   2.485  73.926  1.00  0.00     0.000 HD 
HETATM    5  C   UNL     1      -8.176   5.066  73.464  1.00  0.00    -0.107 A  
HETATM    6  C   UNL     1      -8.663   6.378  73.535  1.00  0.00    -0.123 A  
HETATM    7 CL   UNL     1      -7.625   7.577  74.237  1.00  0.00    -0.150 Cl 
HETATM    8  C   UNL     1      -9.951   6.721  73.071  1.00  0.00    -0.178 A  
HETATM    9  C   UNL     1     -10.731   5.673  72.552  1.00  0.00    -0.239 A  
HETATM   10  C   UNL     1     -10.236   4.362  72.476  1.00  0.00    -0.242 A  
HETATM   11 CL   UNL     1     -12.391   5.885  72.096  1.00  0.00    -0.105 Cl 
ENDROOT
BRANCH   8  12
HETATM   12  N   UNL     1     -10.371   8.064  73.134  1.00  0.00    -0.291 NA 
HETATM   13  H   UNL     1     -10.285   8.491  74.056  1.00  0.00     0.000 HD 
BRANCH  12  14
HETATM   14  C   UNL     1     -10.869   8.886  72.182  1.00  0.00    -0.268 A  
HETATM   15  N   UNL     1     -10.168   9.263  71.148  1.00  0.00    -0.311 NA 
HETATM   16  H   UNL     1      -9.211   9.002  70.914  1.00  0.00     0.000 HD 
HETATM   17  C   UNL     1     -11.077  10.161  70.386  1.00  0.00    -0.324 A  
HETATM   18  C   UNL     1     -12.419  10.166  71.118  1.00  0.00    -0.387 A  
HETATM   19  N   UNL     1     -12.175   9.267  72.222  1.00  0.00    -0.294 NA 
ENDBRANCH  12  14
ENDBRANCH   8  12
TORSDOF 2
ENDMDL
MODEL      180
REMARK 921   NORMALIZED FREE ENERGY PREDICTED BY IDOCK:   -2.84 KCAL/MOL
REMARK 922        TOTAL FREE ENERGY PREDICTED BY IDOCK:   -3.36 KCAL/MOL
REMARK 923 INTER-LIGAND FREE ENERGY PREDICTED BY IDOCK:   -3.08 KCAL/MOL
REMARK 924 INTRA-LIGAND FREE ENERGY PREDICTED BY IDOCK:   -0.28 KCAL/MOL
REMARK 927      BINDING AFFINITY PREDICTED BY RF-SCORE:    0.00 PKD
ROOT
HETATM    1  N   UNL     1      -9.181   4.168  64.061  1.00  0.00    -0.146 NA 
HETATM    2  H1  UNL     1      -9.309   3.196  63.781  1.00  0.00     0.000 HD 
HETATM    3  C   UNL     1      -9.376   4.557  65.389  1.00  0.00    -0.163 A  
HETATM    4  H2  UNL     1      -8.247   4.463  63.776  1.00  0.00     0.000 HD 
HETATM    5  C   UNL     1      -9.202   5.885  65.769  1.00  0.00    -0.059 A  
HETATM    6  C   UNL     1      -9.249   6.253  67.121  1.00  0.00    -0.122 A  
HETATM    7 CL   UNL     1      -9.060   7.935  67.498  1.00  0.00    -0.137 Cl 
HETATM    8  C   UNL     1      -9.426   5.300  68.146  1.00  0.00    -0.123 A  
HETATM    9  C   UNL     1      -9.533   3.957  67.743  1.00  0.00    -0.179 A  
HETATM   10  C   UNL     1      -9.493   3.595  66.388  1.00  0.00    -0.184 A  
HETATM   11 CL   UNL     1      -9.585   2.645  68.878  1.00  0.00    -0.150 Cl 
ENDROOT
BRANCH   8  12
HETATM   12  N   UNL     1      -9.503   5.733  69.485  1.00  0.00    -0.133 NA 
HETATM   13  H   UNL     1      -8.605   5.784  69.965  1.00  0.00     0.000 HD 
BRANCH  12  14
HETATM   14  C   UNL     1     -10.564   6.093  70.243  1.00  0.00    -0.258 A  
HETATM   15  N   UNL     1     -11.653   6.596  69.729  1.00  0.00    -0.616 NA 
HETATM   16  H   UNL     1     -11.855   6.768  68.744  1.00  0.00     0.000 HD 
HETATM   17  C   UNL     1     -12.532   6.864  70.899  1.00  0.00    -0.262 A  
HETATM   18  C   UNL     1     -11.792   6.362  72.139  1.00  0.00    -0.314 A  
HETATM   19  N   UNL     1     -10.566   5.840  71.580  1.00  0.00    -0.238 NA 
ENDBRANCH  12  14
ENDBRANCH   8  12
TORSDOF 2
ENDMDL
MODEL      181
REMARK 921   NORMALIZED FREE ENERGY PREDICTED BY IDOCK:   -2.82 KCAL/MOL
REMARK 922        TOTAL FREE ENERGY PREDICTED BY IDOCK:   -3.33 KCAL/MOL
REMARK 923 INTER-LIGAND FREE ENERGY PREDICTED BY IDOCK:   -3.04 KCAL/MOL
REMARK 924 INTRA-LIGAND FREE ENERGY PREDICTED BY IDOCK:   -0.30 KCAL/MOL
REMARK 927      BINDING AFFINITY PREDICTED BY RF-SCORE:    0.00 PKD
ROOT
HETATM    1  N   UNL     1      -9.081  10.395  69.598  1.00  0.00    -0.399 NA 
HETATM    2  H1  UNL     1      -8.763  11.158  70.195  1.00  0.00     0.000 HD 
HETATM    3  C   UNL     1      -9.383   9.144  70.144  1.00  0.00    -0.209 A  
HETATM    4  H2  UNL     1      -9.893  10.718  69.072  1.00  0.00     0.000 HD 
HETATM    5  C   UNL     1      -9.817   8.103  69.328  1.00  0.00    -0.182 A  
HETATM    6  C   UNL     1     -10.262   6.897  69.886  1.00  0.00    -0.199 A  
HETATM    7 CL   UNL     1     -10.747   5.642  68.791  1.00  0.00    -0.300 Cl 
HETATM    8  C   UNL     1     -10.334   6.703  71.282  1.00  0.00    -0.205 A  
HETATM    9  C   UNL     1      -9.954   7.792  72.087  1.00  0.00    -0.193 A  
HETATM   10  C   UNL     1      -9.501   8.995  71.523  1.00  0.00    -0.316 A  
HETATM   11 CL   UNL     1     -10.140   7.785  73.812  1.00  0.00    -0.168 Cl 
ENDROOT
BRANCH   8  12
HETATM   12  N   UNL     1     -10.753   5.456  71.785  1.00  0.00    -0.226 NA 
HETATM   13  H   UNL     1     -11.765   5.321  71.790  1.00  0.00     0.000 HD 
BRANCH  12  14
HETATM   14  C   UNL     1     -10.046   4.406  72.262  1.00  0.00    -0.189 A  
HETATM   15  N   UNL     1      -8.761   4.285  72.074  1.00  0.00    -0.106 NA 
HETATM   16  H   UNL     1      -8.139   4.928  71.583  1.00  0.00     0.000 HD 
HETATM   17  C   UNL     1      -8.404   3.000  72.733  1.00  0.00    -0.075 A  
HETATM   18  C   UNL     1      -9.679   2.461  73.382  1.00  0.00    -0.095 A  
HETATM   19  N   UNL     1     -10.649   3.480  73.056  1.00  0.00    -0.171 NA 
ENDBRANCH  12  14
ENDBRANCH   8  12
TORSDOF 2
ENDMDL
MODEL      182
REMARK 921   NORMALIZED FREE ENERGY PREDICTED BY IDOCK:   -2.69 KCAL/MOL
REMARK 922        TOTAL FREE ENERGY PREDICTED BY IDOCK:   -3.19 KCAL/MOL
REMARK 923 INTER-LIGAND FREE ENERGY PREDICTED BY IDOCK:   -2.85 KCAL/MOL
REMARK 924 INTRA-LIGAND FREE ENERGY PREDICTED BY IDOCK:   -0.34 KCAL/MOL
REMARK 927      BINDING AFFINITY PREDICTED BY RF-SCORE:    0.00 PKD
ROOT
HETATM    1  N   UNL     1      -7.284  11.382  69.951  1.00  0.00    -0.367 NA 
HETATM    2  H1  UNL     1      -6.864  11.544  70.866  1.00  0.00     0.000 HD 
HETATM    3  C   UNL     1      -7.936  10.178  69.671  1.00  0.00    -0.173 A  
HETATM    4  H2  UNL     1      -7.930  12.147  69.756  1.00  0.00     0.000 HD 
HETATM    5  C   UNL     1      -8.510   9.958  68.422  1.00  0.00    -0.111 A  
HETATM    6  C   UNL     1      -9.291   8.819  68.185  1.00  0.00    -0.140 A  
HETATM    7 CL   UNL     1      -9.932   8.609  66.587  1.00  0.00    -0.335 Cl 
HETATM    8  C   UNL     1      -9.567   7.881  69.202  1.00  0.00    -0.153 A  
HETATM    9  C   UNL     1      -9.034   8.158  70.473  1.00  0.00    -0.145 A  
HETATM   10  C   UNL     1      -8.245   9.296  70.703  1.00  0.00    -0.224 A  
HETATM   11 CL   UNL     1      -9.414   7.203  71.871  1.00  0.00    -0.155 Cl 
ENDROOT
BRANCH   8  12
HETATM   12  N   UNL     1     -10.328   6.735  68.895  1.00  0.00    -0.182 NA 
HETATM   13  H   UNL     1     -11.336   6.888  68.883  1.00  0.00     0.000 HD 
BRANCH  12  14
HETATM   14  C   UNL     1      -9.951   5.467  68.614  1.00  0.00    -0.170 A  
HETATM   15  N   UNL     1      -9.890   4.537  69.528  1.00  0.00    -0.215 NA 
HETATM   16  H   UNL     1     -10.116   4.621  70.519  1.00  0.00     0.000 HD 
HETATM   17  C   UNL     1      -9.418   3.327  68.802  1.00  0.00    -0.127 A  
HETATM   18  C   UNL     1      -9.296   3.710  67.326  1.00  0.00    -0.202 A  
HETATM   19  N   UNL     1      -9.719   5.092  67.327  1.00  0.00    -0.151 NA 
ENDBRANCH  12  14
ENDBRANCH   8  12
TORSDOF 2
ENDMDL
MODEL      183
REMARK 921   NORMALIZED FREE ENERGY PREDICTED BY IDOCK:   -2.64 KCAL/MOL
REMARK 922        TOTAL FREE ENERGY PREDICTED BY IDOCK:   -3.13 KCAL/MOL
REMARK 923 INTER-LIGAND FREE ENERGY PREDICTED BY IDOCK:   -2.94 KCAL/MOL
REMARK 924 INTRA-LIGAND FREE ENERGY PREDICTED BY IDOCK:   -0.19 KCAL/MOL
REMARK 927      BINDING AFFINITY PREDICTED BY RF-SCORE:    0.00 PKD
ROOT
HETATM    1  N   UNL     1      -6.979   8.100  74.471  1.00  0.00    -0.147 NA 
HETATM    2  H1  UNL     1      -7.318   7.606  75.296  1.00  0.00     0.000 HD 
HETATM    3  C   UNL     1      -7.796   8.249  73.346  1.00  0.00    -0.144 A  
HETATM    4  H2  UNL     1      -6.662   9.025  74.760  1.00  0.00     0.000 HD 
HETATM    5  C   UNL     1      -7.332   8.923  72.220  1.00  0.00     0.133 A  
HETATM    6  C   UNL     1      -8.194   9.205  71.151  1.00  0.00    -0.087 A  
HETATM    7 CL   UNL     1      -7.519  10.014  69.773  1.00  0.00    -0.134 Cl 
HETATM    8  C   UNL     1      -9.563   8.865  71.189  1.00  0.00    -0.272 A  
HETATM    9  C   UNL     1     -10.024   8.245  72.364  1.00  0.00    -0.309 A  
HETATM   10  C   UNL     1      -9.155   7.957  73.428  1.00  0.00    -0.347 A  
HETATM   11 CL   UNL     1     -11.704   7.913  72.645  1.00  0.00    -0.420 Cl 
ENDROOT
BRANCH   8  12
HETATM   12  N   UNL     1     -10.373   9.140  70.069  1.00  0.00    -0.196 NA 
HETATM   13  H   UNL     1     -11.058   9.881  70.215  1.00  0.00     0.000 HD 
BRANCH  12  14
HETATM   14  C   UNL     1     -10.398   8.590  68.833  1.00  0.00    -0.210 A  
HETATM   15  N   UNL     1     -10.747   9.267  67.774  1.00  0.00    -0.427 NA 
HETATM   16  H   UNL     1     -11.019  10.248  67.723  1.00  0.00     0.000 HD 
HETATM   17  C   UNL     1     -10.658   8.289  66.657  1.00  0.00    -0.015 A  
HETATM   18  C   UNL     1     -10.134   6.980  67.248  1.00  0.00    -0.204 A  
HETATM   19  N   UNL     1      -9.954   7.318  68.641  1.00  0.00    -0.161 NA 
ENDBRANCH  12  14
ENDBRANCH   8  12
TORSDOF 2
ENDMDL
MODEL      184
REMARK 921   NORMALIZED FREE ENERGY PREDICTED BY IDOCK:   -2.61 KCAL/MOL
REMARK 922        TOTAL FREE ENERGY PREDICTED BY IDOCK:   -3.10 KCAL/MOL
REMARK 923 INTER-LIGAND FREE ENERGY PREDICTED BY IDOCK:   -2.76 KCAL/MOL
REMARK 924 INTRA-LIGAND FREE ENERGY PREDICTED BY IDOCK:   -0.33 KCAL/MOL
REMARK 927      BINDING AFFINITY PREDICTED BY RF-SCORE:    0.00 PKD
ROOT
HETATM    1  N   UNL     1     -12.818   7.202  72.023  1.00  0.00    -0.518 NA 
HETATM    2  H1  UNL     1     -13.071   8.093  72.452  1.00  0.00     0.000 HD 
HETATM    3  C   UNL     1     -11.616   7.067  71.323  1.00  0.00    -0.303 A  
HETATM    4  H2  UNL     1     -12.851   6.481  72.743  1.00  0.00     0.000 HD 
HETATM    5  C   UNL     1     -11.272   5.852  70.738  1.00  0.00    -0.281 A  
HETATM    6  C   UNL     1     -10.005   5.668  70.166  1.00  0.00    -0.207 A  
HETATM    7 CL   UNL     1      -9.679   4.134  69.425  1.00  0.00    -0.263 Cl 
HETATM    8  C   UNL     1      -9.020   6.677  70.198  1.00  0.00    -0.152 A  
HETATM    9  C   UNL     1      -9.366   7.872  70.853  1.00  0.00    -0.153 A  
HETATM   10  C   UNL     1     -10.638   8.054  71.417  1.00  0.00    -0.258 A  
HETATM   11 CL   UNL     1      -8.223   9.147  71.131  1.00  0.00    -0.192 Cl 
ENDROOT
BRANCH   8  12
HETATM   12  N   UNL     1      -7.778   6.449  69.572  1.00  0.00    -0.098 NA 
HETATM   13  H   UNL     1      -7.095   5.964  70.154  1.00  0.00     0.000 HD 
BRANCH  12  14
HETATM   14  C   UNL     1      -7.336   6.761  68.333  1.00  0.00    -0.087 A  
HETATM   15  N   UNL     1      -6.931   7.961  68.017  1.00  0.00    -0.071 NA 
HETATM   16  H   UNL     1      -6.878   8.781  68.621  1.00  0.00     0.000 HD 
HETATM   17  C   UNL     1      -6.562   7.866  66.579  1.00  0.00    -0.054 A  
HETATM   18  C   UNL     1      -6.756   6.408  66.162  1.00  0.00    -0.053 A  
HETATM   19  N   UNL     1      -7.202   5.790  67.389  1.00  0.00    -0.074 NA 
ENDBRANCH  12  14
ENDBRANCH   8  12
TORSDOF 2
ENDMDL
MODEL      185
REMARK 921   NORMALIZED FREE ENERGY PREDICTED BY IDOCK:   -2.60 KCAL/MOL
REMARK 922        TOTAL FREE ENERGY PREDICTED BY IDOCK:   -3.09 KCAL/MOL
REMARK 923 INTER-LIGAND FREE ENERGY PREDICTED BY IDOCK:   -2.79 KCAL/MOL
REMARK 924 INTRA-LIGAND FREE ENERGY PREDICTED BY IDOCK:   -0.30 KCAL/MOL
REMARK 927      BINDING AFFINITY PREDICTED BY RF-SCORE:    0.00 PKD
ROOT
HETATM    1  N   UNL     1      -9.200  10.453  70.021  1.00  0.00    -0.339 NA 
HETATM    2  H1  UNL     1      -8.707  10.933  70.774  1.00  0.00     0.000 HD 
HETATM    3  C   UNL     1      -9.349   9.064  70.041  1.00  0.00    -0.183 A  
HETATM    4  H2  UNL     1     -10.125  10.872  69.927  1.00  0.00     0.000 HD 
HETATM    5  C   UNL     1     -10.022   8.409  69.013  1.00  0.00    -0.194 A  
HETATM    6  C   UNL     1     -10.305   7.039  69.103  1.00  0.00    -0.201 A  
HETATM    7 CL   UNL     1     -11.112   6.302  67.756  1.00  0.00    -0.419 Cl 
HETATM    8  C   UNL     1      -9.966   6.282  70.244  1.00  0.00    -0.173 A  
HETATM    9  C   UNL     1      -9.347   6.977  71.298  1.00  0.00    -0.160 A  
HETATM   10  C   UNL     1      -9.060   8.348  71.200  1.00  0.00    -0.217 A  
HETATM   11 CL   UNL     1      -9.018   6.241  72.834  1.00  0.00    -0.125 Cl 
ENDROOT
BRANCH   8  12
HETATM   12  N   UNL     1     -10.241   4.901  70.261  1.00  0.00    -0.252 NA 
HETATM   13  H   UNL     1     -11.199   4.664  70.521  1.00  0.00     0.000 HD 
BRANCH  12  14
HETATM   14  C   UNL     1      -9.454   3.834  69.993  1.00  0.00    -0.193 A  
HETATM   15  N   UNL     1      -9.478   2.748  70.717  1.00  0.00    -0.151 NA 
HETATM   16  H   UNL     1     -10.064   2.552  71.528  1.00  0.00     0.000 HD 
HETATM   17  C   UNL     1      -8.460   1.860  70.094  1.00  0.00    -0.047 A  
HETATM   18  C   UNL     1      -7.918   2.591  68.866  1.00  0.00    -0.052 A  
HETATM   19  N   UNL     1      -8.674   3.822  68.878  1.00  0.00    -0.086 NA 
ENDBRANCH  12  14
ENDBRANCH   8  12
TORSDOF 2
ENDMDL
MODEL      186
REMARK 921   NORMALIZED FREE ENERGY PREDICTED BY IDOCK:   -2.56 KCAL/MOL
REMARK 922        TOTAL FREE ENERGY PREDICTED BY IDOCK:   -3.04 KCAL/MOL
REMARK 923 INTER-LIGAND FREE ENERGY PREDICTED BY IDOCK:   -2.82 KCAL/MOL
REMARK 924 INTRA-LIGAND FREE ENERGY PREDICTED BY IDOCK:   -0.22 KCAL/MOL
REMARK 927      BINDING AFFINITY PREDICTED BY RF-SCORE:    0.00 PKD
ROOT
HETATM    1  N   UNL     1     -10.262   4.178  66.379  1.00  0.00    -0.387 NA 
HETATM    2  H1  UNL     1     -10.574   3.385  66.940  1.00  0.00     0.000 HD 
HETATM    3  C   UNL     1     -10.325   5.477  66.889  1.00  0.00    -0.265 A  
HETATM    4  H2  UNL     1      -9.304   3.999  66.078  1.00  0.00     0.000 HD 
HETATM    5  C   UNL     1      -9.899   6.559  66.123  1.00  0.00     0.066 A  
HETATM    6  C   UNL     1      -9.820   7.842  66.681  1.00  0.00    -0.241 A  
HETATM    7 CL   UNL     1      -9.316   9.135  65.640  1.00  0.00    -0.300 Cl 
HETATM    8  C   UNL     1     -10.118   8.084  68.038  1.00  0.00    -0.194 A  
HETATM    9  C   UNL     1     -10.482   6.966  68.810  1.00  0.00    -0.205 A  
HETATM   10  C   UNL     1     -10.567   5.684  68.244  1.00  0.00    -0.253 A  
HETATM   11 CL   UNL     1     -10.717   7.055  70.527  1.00  0.00    -0.252 Cl 
ENDROOT
BRANCH   8  12
HETATM   12  N   UNL     1     -10.058   9.401  68.534  1.00  0.00    -0.180 NA 
HETATM   13  H   UNL     1     -10.967   9.839  68.684  1.00  0.00     0.000 HD 
BRANCH  12  14
HETATM   14  C   UNL     1      -9.001  10.187  68.845  1.00  0.00    -0.155 A  
HETATM   15  N   UNL     1      -8.068   9.807  69.675  1.00  0.00    -0.137 NA 
HETATM   16  H   UNL     1      -7.996   8.916  70.167  1.00  0.00     0.000 HD 
HETATM   17  C   UNL     1      -7.134  10.962  69.744  1.00  0.00    -0.088 A  
HETATM   18  C   UNL     1      -7.652  12.016  68.765  1.00  0.00    -0.070 A  
HETATM   19  N   UNL     1      -8.823  11.377  68.211  1.00  0.00    -0.162 NA 
ENDBRANCH  12  14
ENDBRANCH   8  12
TORSDOF 2
ENDMDL
MODEL      187
REMARK 921   NORMALIZED FREE ENERGY PREDICTED BY IDOCK:   -2.55 KCAL/MOL
REMARK 922        TOTAL FREE ENERGY PREDICTED BY IDOCK:   -3.04 KCAL/MOL
REMARK 923 INTER-LIGAND FREE ENERGY PREDICTED BY IDOCK:   -2.73 KCAL/MOL
REMARK 924 INTRA-LIGAND FREE ENERGY PREDICTED BY IDOCK:   -0.30 KCAL/MOL
REMARK 927      BINDING AFFINITY PREDICTED BY RF-SCORE:    0.00 PKD
ROOT
HETATM    1  N   UNL     1     -11.606   7.326  69.722  1.00  0.00    -0.510 NA 
HETATM    2  H1  UNL     1     -11.663   6.615  70.452  1.00  0.00     0.000 HD 
HETATM    3  C   UNL     1     -10.580   7.290  68.774  1.00  0.00    -0.181 A  
HETATM    4  H2  UNL     1     -12.498   7.347  69.227  1.00  0.00     0.000 HD 
HETATM    5  C   UNL     1     -10.503   8.260  67.779  1.00  0.00    -0.280 A  
HETATM    6  C   UNL     1      -9.568   8.145  66.740  1.00  0.00    -0.217 A  
HETATM    7 CL   UNL     1      -9.518   9.421  65.567  1.00  0.00    -0.325 Cl 
HETATM    8  C   UNL     1      -8.707   7.032  66.633  1.00  0.00    -0.128 A  
HETATM    9  C   UNL     1      -8.848   6.032  67.612  1.00  0.00    -0.106 A  
HETATM   10  C   UNL     1      -9.781   6.156  68.654  1.00  0.00    -0.145 A  
HETATM   11 CL   UNL     1      -7.992   4.526  67.535  1.00  0.00    -0.099 Cl 
ENDROOT
BRANCH   8  12
HETATM   12  N   UNL     1      -7.762   6.990  65.589  1.00  0.00    -0.096 NA 
HETATM   13  H   UNL     1      -6.910   7.522  65.769  1.00  0.00     0.000 HD 
BRANCH  12  14
HETATM   14  C   UNL     1      -7.789   6.365  64.390  1.00  0.00    -0.115 A  
HETATM   15  N   UNL     1      -8.833   5.703  63.969  1.00  0.00    -0.339 NA 
HETATM   16  H   UNL     1      -9.726   5.580  64.445  1.00  0.00     0.000 HD 
HETATM   17  C   UNL     1      -8.428   5.169  62.642  1.00  0.00    -0.114 A  
HETATM   18  C   UNL     1      -7.022   5.697  62.355  1.00  0.00    -0.036 A  
HETATM   19  N   UNL     1      -6.745   6.496  63.527  1.00  0.00    -0.043 NA 
ENDBRANCH  12  14
ENDBRANCH   8  12
TORSDOF 2
ENDMDL
MODEL      188
REMARK 921   NORMALIZED FREE ENERGY PREDICTED BY IDOCK:   -2.49 KCAL/MOL
REMARK 922        TOTAL FREE ENERGY PREDICTED BY IDOCK:   -2.97 KCAL/MOL
REMARK 923 INTER-LIGAND FREE ENERGY PREDICTED BY IDOCK:   -2.76 KCAL/MOL
REMARK 924 INTRA-LIGAND FREE ENERGY PREDICTED BY IDOCK:   -0.21 KCAL/MOL
REMARK 927      BINDING AFFINITY PREDICTED BY RF-SCORE:    0.00 PKD
ROOT
HETATM    1  N   UNL     1     -12.925  12.733  64.927  1.00  0.00    -0.853 NA 
HETATM    2  H1  UNL     1     -13.122  13.167  64.026  1.00  0.00     0.000 HD 
HETATM    3  C   UNL     1     -11.842  11.861  65.073  1.00  0.00    -0.146 A  
HETATM    4  H2  UNL     1     -12.836  13.472  65.625  1.00  0.00     0.000 HD 
HETATM    5  C   UNL     1     -11.572  11.269  66.304  1.00  0.00     0.250 A  
HETATM    6  C   UNL     1     -10.405  10.515  66.493  1.00  0.00    -0.233 A  
HETATM    7 CL   UNL     1     -10.173   9.782  68.048  1.00  0.00    -0.211 Cl 
HETATM    8  C   UNL     1      -9.443  10.364  65.473  1.00  0.00    -0.215 A  
HETATM    9  C   UNL     1      -9.704  11.026  64.260  1.00  0.00    -0.284 A  
HETATM   10  C   UNL     1     -10.877  11.773  64.073  1.00  0.00    -0.446 A  
HETATM   11 CL   UNL     1      -8.551  11.086  62.965  1.00  0.00    -0.134 Cl 
ENDROOT
BRANCH   8  12
HETATM   12  N   UNL     1      -8.308   9.563  65.709  1.00  0.00    -0.125 NA 
HETATM   13  H   UNL     1      -8.316   8.665  65.225  1.00  0.00     0.000 HD 
BRANCH  12  14
HETATM   14  C   UNL     1      -7.209   9.779  66.468  1.00  0.00    -0.094 A  
HETATM   15  N   UNL     1      -6.503  10.874  66.379  1.00  0.00    -0.121 NA 
HETATM   16  H   UNL     1      -6.673  11.678  65.777  1.00  0.00     0.000 HD 
HETATM   17  C   UNL     1      -5.395  10.685  67.354  1.00  0.00    -0.040 A  
HETATM   18  C   UNL     1      -5.636   9.346  68.053  1.00  0.00    -0.037 A  
HETATM   19  N   UNL     1      -6.860   8.889  67.436  1.00  0.00    -0.070 NA 
ENDBRANCH  12  14
ENDBRANCH   8  12
TORSDOF 2
ENDMDL
MODEL      189
REMARK 921   NORMALIZED FREE ENERGY PREDICTED BY IDOCK:   -2.49 KCAL/MOL
REMARK 922        TOTAL FREE ENERGY PREDICTED BY IDOCK:   -2.97 KCAL/MOL
REMARK 923 INTER-LIGAND FREE ENERGY PREDICTED BY IDOCK:   -2.78 KCAL/MOL
REMARK 924 INTRA-LIGAND FREE ENERGY PREDICTED BY IDOCK:   -0.18 KCAL/MOL
REMARK 927      BINDING AFFINITY PREDICTED BY RF-SCORE:    0.00 PKD
ROOT
HETATM    1  N   UNL     1      -9.374  11.004  69.207  1.00  0.00    -0.409 NA 
HETATM    2  H1  UNL     1     -10.169  11.638  69.289  1.00  0.00     0.000 HD 
HETATM    3  C   UNL     1      -9.303   9.850  69.992  1.00  0.00    -0.190 A  
HETATM    4  H2  UNL     1      -9.282  10.731  68.229  1.00  0.00     0.000 HD 
HETATM    5  C   UNL     1      -8.218   8.985  69.881  1.00  0.00    -0.124 A  
HETATM    6  C   UNL     1      -8.214   7.754  70.553  1.00  0.00    -0.120 A  
HETATM    7 CL   UNL     1      -6.803   6.760  70.386  1.00  0.00    -0.060 Cl 
HETATM    8  C   UNL     1      -9.313   7.323  71.324  1.00  0.00    -0.154 A  
HETATM    9  C   UNL     1     -10.425   8.183  71.369  1.00  0.00    -0.212 A  
HETATM   10  C   UNL     1     -10.422   9.417  70.700  1.00  0.00    -0.354 A  
HETATM   11 CL   UNL     1     -11.920   7.736  72.128  1.00  0.00    -0.344 Cl 
ENDROOT
BRANCH   8  12
HETATM   12  N   UNL     1      -9.236   6.094  72.008  1.00  0.00    -0.146 NA 
HETATM   13  H   UNL     1      -9.058   6.178  73.009  1.00  0.00     0.000 HD 
BRANCH  12  14
HETATM   14  C   UNL     1      -9.358   4.821  71.566  1.00  0.00    -0.147 A  
HETATM   15  N   UNL     1      -9.344   3.796  72.375  1.00  0.00    -0.115 NA 
HETATM   16  H   UNL     1      -9.259   3.805  73.391  1.00  0.00     0.000 HD 
HETATM   17  C   UNL     1      -9.480   2.614  71.483  1.00  0.00    -0.142 A  
HETATM   18  C   UNL     1      -9.645   3.143  70.058  1.00  0.00    -0.092 A  
HETATM   19  N   UNL     1      -9.606   4.574  70.252  1.00  0.00    -0.174 NA 
ENDBRANCH  12  14
ENDBRANCH   8  12
TORSDOF 2
ENDMDL
MODEL      190
REMARK 921   NORMALIZED FREE ENERGY PREDICTED BY IDOCK:   -2.48 KCAL/MOL
REMARK 922        TOTAL FREE ENERGY PREDICTED BY IDOCK:   -2.96 KCAL/MOL
REMARK 923 INTER-LIGAND FREE ENERGY PREDICTED BY IDOCK:   -2.70 KCAL/MOL
REMARK 924 INTRA-LIGAND FREE ENERGY PREDICTED BY IDOCK:   -0.26 KCAL/MOL
REMARK 927      BINDING AFFINITY PREDICTED BY RF-SCORE:    0.00 PKD
ROOT
HETATM    1  N   UNL     1      -9.711   9.420  64.931  1.00  0.00    -0.410 NA 
HETATM    2  H1  UNL     1      -9.090  10.107  64.504  1.00  0.00     0.000 HD 
HETATM    3  C   UNL     1      -9.425   8.893  66.193  1.00  0.00    -0.251 A  
HETATM    4  H2  UNL     1     -10.652   9.812  64.955  1.00  0.00     0.000 HD 
HETATM    5  C   UNL     1     -10.273   7.955  66.776  1.00  0.00    -0.358 A  
HETATM    6  C   UNL     1     -10.073   7.535  68.099  1.00  0.00    -0.183 A  
HETATM    7 CL   UNL     1     -11.155   6.335  68.728  1.00  0.00    -0.428 Cl 
HETATM    8  C   UNL     1      -9.045   8.072  68.903  1.00  0.00    -0.144 A  
HETATM    9  C   UNL     1      -8.243   9.067  68.315  1.00  0.00    -0.116 A  
HETATM   10  C   UNL     1      -8.442   9.477  66.988  1.00  0.00    -0.128 A  
HETATM   11 CL   UNL     1      -7.048   9.950  69.211  1.00  0.00    -0.064 Cl 
ENDROOT
BRANCH   8  12
HETATM   12  N   UNL     1      -8.869   7.585  70.213  1.00  0.00    -0.145 NA 
HETATM   13  H   UNL     1      -9.228   8.198  70.944  1.00  0.00     0.000 HD 
BRANCH  12  14
HETATM   14  C   UNL     1      -8.305   6.442  70.668  1.00  0.00    -0.133 A  
HETATM   15  N   UNL     1      -8.692   5.864  71.772  1.00  0.00    -0.138 NA 
HETATM   16  H   UNL     1      -9.435   6.160  72.404  1.00  0.00     0.000 HD 
HETATM   17  C   UNL     1      -7.806   4.676  71.903  1.00  0.00    -0.098 A  
HETATM   18  C   UNL     1      -6.915   4.642  70.661  1.00  0.00    -0.037 A  
HETATM   19  N   UNL     1      -7.370   5.796  69.920  1.00  0.00    -0.069 NA 
ENDBRANCH  12  14
ENDBRANCH   8  12
TORSDOF 2
ENDMDL
MODEL      191
REMARK 921   NORMALIZED FREE ENERGY PREDICTED BY IDOCK:   -2.47 KCAL/MOL
REMARK 922        TOTAL FREE ENERGY PREDICTED BY IDOCK:   -2.95 KCAL/MOL
REMARK 923 INTER-LIGAND FREE ENERGY PREDICTED BY IDOCK:   -2.64 KCAL/MOL
REMARK 924 INTRA-LIGAND FREE ENERGY PREDICTED BY IDOCK:   -0.30 KCAL/MOL
REMARK 927      BINDING AFFINITY PREDICTED BY RF-SCORE:    0.00 PKD
ROOT
HETATM    1  N   UNL     1     -10.367   3.375  65.204  1.00  0.00    -0.386 NA 
HETATM    2  H1  UNL     1     -10.025   3.285  64.247  1.00  0.00     0.000 HD 
HETATM    3  C   UNL     1      -9.893   4.393  66.035  1.00  0.00    -0.230 A  
HETATM    4  H2  UNL     1     -11.385   3.435  65.174  1.00  0.00     0.000 HD 
HETATM    5  C   UNL     1     -10.361   4.516  67.341  1.00  0.00     0.056 A  
HETATM    6  C   UNL     1     -10.003   5.619  68.127  1.00  0.00    -0.147 A  
HETATM    7 CL   UNL     1     -10.602   5.668  69.754  1.00  0.00    -0.378 Cl 
HETATM    8  C   UNL     1      -9.201   6.665  67.622  1.00  0.00    -0.110 A  
HETATM    9  C   UNL     1      -8.795   6.553  66.281  1.00  0.00    -0.146 A  
HETATM   10  C   UNL     1      -9.150   5.442  65.500  1.00  0.00    -0.126 A  
HETATM   11 CL   UNL     1      -7.952   7.824  65.453  1.00  0.00    -0.117 Cl 
ENDROOT
BRANCH   8  12
HETATM   12  N   UNL     1      -8.843   7.730  68.471  1.00  0.00    -0.131 NA 
HETATM   13  H   UNL     1      -8.036   7.543  69.067  1.00  0.00     0.000 HD 
BRANCH  12  14
HETATM   14  C   UNL     1      -9.383   8.960  68.633  1.00  0.00    -0.140 A  
HETATM   15  N   UNL     1      -8.992   9.992  67.937  1.00  0.00    -0.131 NA 
HETATM   16  H   UNL     1      -8.279  10.019  67.209  1.00  0.00     0.000 HD 
HETATM   17  C   UNL     1      -9.818  11.121  68.444  1.00  0.00    -0.185 A  
HETATM   18  C   UNL     1     -10.782  10.541  69.479  1.00  0.00    -0.255 A  
HETATM   19  N   UNL     1     -10.441   9.137  69.469  1.00  0.00    -0.215 NA 
ENDBRANCH  12  14
ENDBRANCH   8  12
TORSDOF 2
ENDMDL
MODEL      192
REMARK 921   NORMALIZED FREE ENERGY PREDICTED BY IDOCK:   -2.45 KCAL/MOL
REMARK 922        TOTAL FREE ENERGY PREDICTED BY IDOCK:   -2.92 KCAL/MOL
REMARK 923 INTER-LIGAND FREE ENERGY PREDICTED BY IDOCK:   -2.69 KCAL/MOL
REMARK 924 INTRA-LIGAND FREE ENERGY PREDICTED BY IDOCK:   -0.24 KCAL/MOL
REMARK 927      BINDING AFFINITY PREDICTED BY RF-SCORE:    0.00 PKD
ROOT
HETATM    1  N   UNL     1      -8.185   5.593  71.907  1.00  0.00    -0.118 NA 
HETATM    2  H1  UNL     1      -8.513   5.872  72.832  1.00  0.00     0.000 HD 
HETATM    3  C   UNL     1      -8.859   6.015  70.757  1.00  0.00    -0.139 A  
HETATM    4  H2  UNL     1      -7.206   5.864  71.820  1.00  0.00     0.000 HD 
HETATM    5  C   UNL     1      -8.411   5.634  69.495  1.00  0.00    -0.103 A  
HETATM    6  C   UNL     1      -8.990   6.174  68.339  1.00  0.00    -0.115 A  
HETATM    7 CL   UNL     1      -8.394   5.611  66.810  1.00  0.00    -0.108 Cl 
HETATM    8  C   UNL     1     -10.007   7.150  68.401  1.00  0.00    -0.158 A  
HETATM    9  C   UNL     1     -10.397   7.569  69.686  1.00  0.00    -0.225 A  
HETATM   10  C   UNL     1      -9.820   7.020  70.841  1.00  0.00    -0.190 A  
HETATM   11 CL   UNL     1     -11.509   8.876  69.942  1.00  0.00     0.011 Cl 
ENDROOT
BRANCH   8  12
HETATM   12  N   UNL     1     -10.578   7.629  67.205  1.00  0.00    -0.390 NA 
HETATM   13  H   UNL     1     -11.426   7.140  66.917  1.00  0.00     0.000 HD 
BRANCH  12  14
HETATM   14  C   UNL     1     -10.196   8.625  66.374  1.00  0.00    -0.154 A  
HETATM   15  N   UNL     1      -9.431   8.415  65.337  1.00  0.00    -0.385 NA 
HETATM   16  H   UNL     1      -9.047   7.527  65.015  1.00  0.00     0.000 HD 
HETATM   17  C   UNL     1      -9.246   9.760  64.729  1.00  0.00    -0.261 A  
HETATM   18  C   UNL     1     -10.087  10.741  65.547  1.00  0.00    -0.274 A  
HETATM   19  N   UNL     1     -10.691   9.881  66.538  1.00  0.00    -0.078 NA 
ENDBRANCH  12  14
ENDBRANCH   8  12
TORSDOF 2
ENDMDL
MODEL      193
REMARK 921   NORMALIZED FREE ENERGY PREDICTED BY IDOCK:   -2.39 KCAL/MOL
REMARK 922        TOTAL FREE ENERGY PREDICTED BY IDOCK:   -2.86 KCAL/MOL
REMARK 923 INTER-LIGAND FREE ENERGY PREDICTED BY IDOCK:   -2.57 KCAL/MOL
REMARK 924 INTRA-LIGAND FREE ENERGY PREDICTED BY IDOCK:   -0.29 KCAL/MOL
REMARK 927      BINDING AFFINITY PREDICTED BY RF-SCORE:    0.00 PKD
ROOT
HETATM    1  N   UNL     1      -9.388   8.849  65.930  1.00  0.00    -0.257 NA 
HETATM    2  H1  UNL     1      -9.758   9.772  65.701  1.00  0.00     0.000 HD 
HETATM    3  C   UNL     1      -9.344   8.411  67.256  1.00  0.00    -0.146 A  
HETATM    4  H2  UNL     1      -9.898   8.156  65.382  1.00  0.00     0.000 HD 
HETATM    5  C   UNL     1      -8.839   7.151  67.568  1.00  0.00    -0.119 A  
HETATM    6  C   UNL     1      -8.930   6.649  68.874  1.00  0.00    -0.130 A  
HETATM    7 CL   UNL     1      -8.239   5.087  69.177  1.00  0.00    -0.083 Cl 
HETATM    8  C   UNL     1      -9.569   7.367  69.906  1.00  0.00    -0.163 A  
HETATM    9  C   UNL     1     -10.130   8.608  69.553  1.00  0.00    -0.203 A  
HETATM   10  C   UNL     1     -10.030   9.110  68.246  1.00  0.00    -0.199 A  
HETATM   11 CL   UNL     1     -11.095   9.540  70.652  1.00  0.00    -0.334 Cl 
ENDROOT
BRANCH   8  12
HETATM   12  N   UNL     1      -9.596   6.828  71.207  1.00  0.00    -0.169 NA 
HETATM   13  H   UNL     1     -10.331   6.138  71.364  1.00  0.00     0.000 HD 
BRANCH  12  14
HETATM   14  C   UNL     1      -8.815   7.068  72.285  1.00  0.00    -0.132 A  
HETATM   15  N   UNL     1      -7.946   6.200  72.726  1.00  0.00    -0.106 NA 
HETATM   16  H   UNL     1      -7.732   5.281  72.340  1.00  0.00     0.000 HD 
HETATM   17  C   UNL     1      -7.336   6.850  73.917  1.00  0.00    -0.091 A  
HETATM   18  C   UNL     1      -7.949   8.247  74.028  1.00  0.00    -0.210 A  
HETATM   19  N   UNL     1      -8.841   8.286  72.892  1.00  0.00    -0.232 NA 
ENDBRANCH  12  14
ENDBRANCH   8  12
TORSDOF 2
ENDMDL
MODEL      194
REMARK 921   NORMALIZED FREE ENERGY PREDICTED BY IDOCK:   -2.34 KCAL/MOL
REMARK 922        TOTAL FREE ENERGY PREDICTED BY IDOCK:   -2.80 KCAL/MOL
REMARK 923 INTER-LIGAND FREE ENERGY PREDICTED BY IDOCK:   -2.61 KCAL/MOL
REMARK 924 INTRA-LIGAND FREE ENERGY PREDICTED BY IDOCK:   -0.19 KCAL/MOL
REMARK 927      BINDING AFFINITY PREDICTED BY RF-SCORE:    0.00 PKD
ROOT
HETATM    1  N   UNL     1      -9.301  11.112  69.286  1.00  0.00    -0.404 NA 
HETATM    2  H1  UNL     1      -9.794  11.967  69.542  1.00  0.00     0.000 HD 
HETATM    3  C   UNL     1      -9.435   9.955  70.058  1.00  0.00    -0.202 A  
HETATM    4  H2  UNL     1      -9.540  10.882  68.321  1.00  0.00     0.000 HD 
HETATM    5  C   UNL     1      -8.761   8.788  69.707  1.00  0.00    -0.133 A  
HETATM    6  C   UNL     1      -9.009   7.588  70.388  1.00  0.00    -0.152 A  
HETATM    7 CL   UNL     1      -8.094   6.195  69.908  1.00  0.00    -0.117 Cl 
HETATM    8  C   UNL     1      -9.973   7.499  71.414  1.00  0.00    -0.185 A  
HETATM    9  C   UNL     1     -10.689   8.674  71.707  1.00  0.00    -0.321 A  
HETATM   10  C   UNL     1     -10.432   9.875  71.027  1.00  0.00    -0.089 A  
HETATM   11 CL   UNL     1     -12.021   8.701  72.817  1.00  0.00    -0.255 Cl 
ENDROOT
BRANCH   8  12
HETATM   12  N   UNL     1     -10.151   6.276  72.089  1.00  0.00    -0.181 NA 
HETATM   13  H   UNL     1     -10.995   5.767  71.825  1.00  0.00     0.000 HD 
BRANCH  12  14
HETATM   14  C   UNL     1      -9.395   5.659  73.027  1.00  0.00    -0.140 A  
HETATM   15  N   UNL     1      -9.604   4.422  73.389  1.00  0.00    -0.120 NA 
HETATM   16  H   UNL     1     -10.310   3.779  73.034  1.00  0.00     0.000 HD 
HETATM   17  C   UNL     1      -8.581   4.162  74.438  1.00  0.00    -0.095 A  
HETATM   18  C   UNL     1      -7.723   5.422  74.550  1.00  0.00    -0.091 A  
HETATM   19  N   UNL     1      -8.311   6.289  73.555  1.00  0.00    -0.121 NA 
ENDBRANCH  12  14
ENDBRANCH   8  12
TORSDOF 2
ENDMDL
MODEL      195
REMARK 921   NORMALIZED FREE ENERGY PREDICTED BY IDOCK:   -2.29 KCAL/MOL
REMARK 922        TOTAL FREE ENERGY PREDICTED BY IDOCK:   -2.74 KCAL/MOL
REMARK 923 INTER-LIGAND FREE ENERGY PREDICTED BY IDOCK:   -2.42 KCAL/MOL
REMARK 924 INTRA-LIGAND FREE ENERGY PREDICTED BY IDOCK:   -0.33 KCAL/MOL
REMARK 927      BINDING AFFINITY PREDICTED BY RF-SCORE:    0.00 PKD
ROOT
HETATM    1  N   UNL     1     -10.265   3.234  64.508  1.00  0.00    -0.372 NA 
HETATM    2  H1  UNL     1      -9.732   2.869  63.719  1.00  0.00     0.000 HD 
HETATM    3  C   UNL     1      -9.808   4.346  65.220  1.00  0.00    -0.199 A  
HETATM    4  H2  UNL     1     -11.214   3.427  64.189  1.00  0.00     0.000 HD 
HETATM    5  C   UNL     1     -10.537   4.844  66.297  1.00  0.00    -0.307 A  
HETATM    6  C   UNL     1     -10.164   6.044  66.919  1.00  0.00    -0.210 A  
HETATM    7 CL   UNL     1     -11.108   6.566  68.277  1.00  0.00    -0.354 Cl 
HETATM    8  C   UNL     1      -9.075   6.814  66.458  1.00  0.00    -0.151 A  
HETATM    9  C   UNL     1      -8.395   6.326  65.328  1.00  0.00    -0.138 A  
HETATM   10  C   UNL     1      -8.768   5.120  64.714  1.00  0.00    -0.133 A  
HETATM   11 CL   UNL     1      -7.145   7.228  64.531  1.00  0.00    -0.055 Cl 
ENDROOT
BRANCH   8  12
HETATM   12  N   UNL     1      -8.723   7.991  67.147  1.00  0.00    -0.129 NA 
HETATM   13  H   UNL     1      -9.212   8.828  66.829  1.00  0.00     0.000 HD 
BRANCH  12  14
HETATM   14  C   UNL     1      -7.848   8.203  68.156  1.00  0.00    -0.122 A  
HETATM   15  N   UNL     1      -8.235   8.526  69.360  1.00  0.00    -0.112 NA 
HETATM   16  H   UNL     1      -9.190   8.643  69.698  1.00  0.00     0.000 HD 
HETATM   17  C   UNL     1      -6.972   8.683  70.131  1.00  0.00    -0.043 A  
HETATM   18  C   UNL     1      -5.824   8.326  69.186  1.00  0.00    -0.035 A  
HETATM   19  N   UNL     1      -6.519   7.982  67.967  1.00  0.00    -0.054 NA 
ENDBRANCH  12  14
ENDBRANCH   8  12
TORSDOF 2
ENDMDL
MODEL      196
REMARK 921   NORMALIZED FREE ENERGY PREDICTED BY IDOCK:   -1.97 KCAL/MOL
REMARK 922        TOTAL FREE ENERGY PREDICTED BY IDOCK:   -2.39 KCAL/MOL
REMARK 923 INTER-LIGAND FREE ENERGY PREDICTED BY IDOCK:   -2.39 KCAL/MOL
REMARK 924 INTRA-LIGAND FREE ENERGY PREDICTED BY IDOCK:    0.00 KCAL/MOL
REMARK 927      BINDING AFFINITY PREDICTED BY RF-SCORE:    0.00 PKD
ROOT
HETATM    1  N   UNL     1      -8.660   8.859  65.599  1.00  0.00    -0.156 NA 
HETATM    2  H1  UNL     1      -9.087   9.778  65.480  1.00  0.00     0.000 HD 
HETATM    3  C   UNL     1      -8.558   8.282  66.867  1.00  0.00    -0.119 A  
HETATM    4  H2  UNL     1      -9.143   8.201  64.987  1.00  0.00     0.000 HD 
HETATM    5  C   UNL     1      -7.975   7.027  67.029  1.00  0.00    -0.116 A  
HETATM    6  C   UNL     1      -8.005   6.381  68.272  1.00  0.00    -0.106 A  
HETATM    7 CL   UNL     1      -7.220   4.838  68.388  1.00  0.00    -0.061 Cl 
HETATM    8  C   UNL     1      -8.658   6.943  69.389  1.00  0.00    -0.133 A  
HETATM    9  C   UNL     1      -9.297   8.179  69.186  1.00  0.00    -0.151 A  
HETATM   10  C   UNL     1      -9.258   8.827  67.941  1.00  0.00    -0.149 A  
HETATM   11 CL   UNL     1     -10.286   8.928  70.399  1.00  0.00    -0.219 Cl 
ENDROOT
BRANCH   8  12
HETATM   12  N   UNL     1      -8.622   6.265  70.623  1.00  0.00    -0.137 NA 
HETATM   13  H   UNL     1      -7.745   5.780  70.813  1.00  0.00     0.000 HD 
BRANCH  12  14
HETATM   14  C   UNL     1      -9.551   6.145  71.600  1.00  0.00    -0.151 A  
HETATM   15  N   UNL     1      -9.401   6.688  72.777  1.00  0.00    -0.139 NA 
HETATM   16  H   UNL     1      -8.620   7.255  73.107  1.00  0.00     0.000 HD 
HETATM   17  C   UNL     1     -10.621   6.293  73.530  1.00  0.00    -0.269 A  
HETATM   18  C   UNL     1     -11.510   5.508  72.565  1.00  0.00    -0.244 A  
HETATM   19  N   UNL     1     -10.737   5.529  71.344  1.00  0.00    -0.243 NA 
ENDBRANCH  12  14
ENDBRANCH   8  12
TORSDOF 2
ENDMDL
MODEL      197
REMARK 921   NORMALIZED FREE ENERGY PREDICTED BY IDOCK:   -1.76 KCAL/MOL
REMARK 922        TOTAL FREE ENERGY PREDICTED BY IDOCK:   -2.16 KCAL/MOL
REMARK 923 INTER-LIGAND FREE ENERGY PREDICTED BY IDOCK:   -1.86 KCAL/MOL
REMARK 924 INTRA-LIGAND FREE ENERGY PREDICTED BY IDOCK:   -0.29 KCAL/MOL
REMARK 927      BINDING AFFINITY PREDICTED BY RF-SCORE:    0.00 PKD
ROOT
HETATM    1  N   UNL     1     -10.114   9.826  63.050  1.00  0.00    -0.023 NA 
HETATM    2  H1  UNL     1      -9.798   9.793  62.081  1.00  0.00     0.000 HD 
HETATM    3  C   UNL     1      -9.189   9.856  64.098  1.00  0.00    -0.262 A  
HETATM    4  H2  UNL     1     -10.741  10.623  63.155  1.00  0.00     0.000 HD 
HETATM    5  C   UNL     1      -9.621   9.901  65.421  1.00  0.00    -0.350 A  
HETATM    6  C   UNL     1      -8.705  10.082  66.466  1.00  0.00    -0.132 A  
HETATM    7 CL   UNL     1      -9.329  10.086  68.084  1.00  0.00    -0.134 Cl 
HETATM    8  C   UNL     1      -7.328  10.272  66.224  1.00  0.00    -0.118 A  
HETATM    9  C   UNL     1      -6.923  10.289  64.877  1.00  0.00    -0.101 A  
HETATM   10  C   UNL     1      -7.844  10.100  63.835  1.00  0.00    -0.149 A  
HETATM   11 CL   UNL     1      -5.302  10.677  64.396  1.00  0.00    -0.144 Cl 
ENDROOT
BRANCH   8  12
HETATM   12  N   UNL     1      -6.448  10.411  67.316  1.00  0.00    -0.066 NA 
HETATM   13  H   UNL     1      -6.023   9.538  67.630  1.00  0.00     0.000 HD 
BRANCH  12  14
HETATM   14  C   UNL     1      -6.070  11.502  68.020  1.00  0.00    -0.046 A  
HETATM   15  N   UNL     1      -6.328  12.717  67.618  1.00  0.00    -0.132 NA 
HETATM   16  H   UNL     1      -6.829  13.002  66.778  1.00  0.00     0.000 HD 
HETATM   17  C   UNL     1      -5.725  13.592  68.659  1.00  0.00    -0.085 A  
HETATM   18  C   UNL     1      -5.156  12.674  69.742  1.00  0.00    -0.076 A  
HETATM   19  N   UNL     1      -5.490  11.360  69.243  1.00  0.00    -0.047 NA 
ENDBRANCH  12  14
ENDBRANCH   8  12
TORSDOF 2
ENDMDL
MODEL      198
REMARK 921   NORMALIZED FREE ENERGY PREDICTED BY IDOCK:   -1.74 KCAL/MOL
REMARK 922        TOTAL FREE ENERGY PREDICTED BY IDOCK:   -2.13 KCAL/MOL
REMARK 923 INTER-LIGAND FREE ENERGY PREDICTED BY IDOCK:   -1.83 KCAL/MOL
REMARK 924 INTRA-LIGAND FREE ENERGY PREDICTED BY IDOCK:   -0.30 KCAL/MOL
REMARK 927      BINDING AFFINITY PREDICTED BY RF-SCORE:    0.00 PKD
ROOT
HETATM    1  N   UNL     1      -9.535   5.818  65.296  1.00  0.00    -0.342 NA 
HETATM    2  H1  UNL     1     -10.096   6.667  65.226  1.00  0.00     0.000 HD 
HETATM    3  C   UNL     1      -9.227   5.271  66.545  1.00  0.00    -0.139 A  
HETATM    4  H2  UNL     1      -9.980   5.094  64.732  1.00  0.00     0.000 HD 
HETATM    5  C   UNL     1      -8.462   4.112  66.640  1.00  0.00    -0.104 A  
HETATM    6  C   UNL     1      -8.276   3.478  67.876  1.00  0.00    -0.083 A  
HETATM    7 CL   UNL     1      -7.275   2.062  67.904  1.00  0.00    -0.047 Cl 
HETATM    8  C   UNL     1      -8.888   3.953  69.056  1.00  0.00    -0.102 A  
HETATM    9  C   UNL     1      -9.711   5.085  68.925  1.00  0.00    -0.167 A  
HETATM   10  C   UNL     1      -9.887   5.721  67.686  1.00  0.00    -0.142 A  
HETATM   11 CL   UNL     1     -10.668   5.698  70.235  1.00  0.00    -0.372 Cl 
ENDROOT
BRANCH   8  12
HETATM   12  N   UNL     1      -8.634   3.296  70.276  1.00  0.00    -0.057 NA 
HETATM   13  H   UNL     1      -9.007   2.348  70.332  1.00  0.00     0.000 HD 
BRANCH  12  14
HETATM   14  C   UNL     1      -7.981   3.706  71.388  1.00  0.00    -0.061 A  
HETATM   15  N   UNL     1      -8.586   3.878  72.531  1.00  0.00    -0.097 NA 
HETATM   16  H   UNL     1      -9.572   3.726  72.744  1.00  0.00     0.000 HD 
HETATM   17  C   UNL     1      -7.518   4.345  73.455  1.00  0.00    -0.078 A  
HETATM   18  C   UNL     1      -6.208   4.336  72.666  1.00  0.00    -0.017 A  
HETATM   19  N   UNL     1      -6.628   3.854  71.370  1.00  0.00    -0.025 NA 
ENDBRANCH  12  14
ENDBRANCH   8  12
TORSDOF 2
ENDMDL
MODEL      199
REMARK 921   NORMALIZED FREE ENERGY PREDICTED BY IDOCK:   -1.66 KCAL/MOL
REMARK 922        TOTAL FREE ENERGY PREDICTED BY IDOCK:   -2.04 KCAL/MOL
REMARK 923 INTER-LIGAND FREE ENERGY PREDICTED BY IDOCK:   -1.71 KCAL/MOL
REMARK 924 INTRA-LIGAND FREE ENERGY PREDICTED BY IDOCK:   -0.34 KCAL/MOL
REMARK 927      BINDING AFFINITY PREDICTED BY RF-SCORE:    0.00 PKD
ROOT
HETATM    1  N   UNL     1      -7.515   2.998  74.523  1.00  0.00    -0.050 NA 
HETATM    2  H1  UNL     1      -8.217   2.281  74.698  1.00  0.00     0.000 HD 
HETATM    3  C   UNL     1      -7.729   3.979  73.550  1.00  0.00    -0.080 A  
HETATM    4  H2  UNL     1      -7.306   3.465  75.405  1.00  0.00     0.000 HD 
HETATM    5  C   UNL     1      -6.769   4.959  73.311  1.00  0.00    -0.068 A  
HETATM    6  C   UNL     1      -7.041   6.029  72.447  1.00  0.00    -0.084 A  
HETATM    7 CL   UNL     1      -5.772   7.180  72.178  1.00  0.00    -0.037 Cl 
HETATM    8  C   UNL     1      -8.299   6.184  71.826  1.00  0.00    -0.125 A  
HETATM    9  C   UNL     1      -9.274   5.219  72.134  1.00  0.00    -0.139 A  
HETATM   10  C   UNL     1      -8.995   4.146  72.994  1.00  0.00    -0.116 A  
HETATM   11 CL   UNL     1     -10.918   5.351  71.594  1.00  0.00    -0.238 Cl 
ENDROOT
BRANCH   8  12
HETATM   12  N   UNL     1      -8.501   7.258  70.937  1.00  0.00    -0.127 NA 
HETATM   13  H   UNL     1      -8.623   8.164  71.390  1.00  0.00     0.000 HD 
BRANCH  12  14
HETATM   14  C   UNL     1      -8.562   7.295  69.586  1.00  0.00    -0.137 A  
HETATM   15  N   UNL     1      -7.521   7.066  68.833  1.00  0.00    -0.093 NA 
HETATM   16  H   UNL     1      -6.576   6.827  69.132  1.00  0.00     0.000 HD 
HETATM   17  C   UNL     1      -8.021   7.231  67.442  1.00  0.00    -0.112 A  
HETATM   18  C   UNL     1      -9.520   7.515  67.535  1.00  0.00    -0.139 A  
HETATM   19  N   UNL     1      -9.756   7.476  68.960  1.00  0.00    -0.160 NA 
ENDBRANCH  12  14
ENDBRANCH   8  12
TORSDOF 2
ENDMDL
MODEL      200
REMARK 921   NORMALIZED FREE ENERGY PREDICTED BY IDOCK:    0.87 KCAL/MOL
REMARK 922        TOTAL FREE ENERGY PREDICTED BY IDOCK:    0.78 KCAL/MOL
REMARK 923 INTER-LIGAND FREE ENERGY PREDICTED BY IDOCK:    0.85 KCAL/MOL
REMARK 924 INTRA-LIGAND FREE ENERGY PREDICTED BY IDOCK:   -0.07 KCAL/MOL
REMARK 927      BINDING AFFINITY PREDICTED BY RF-SCORE:    0.00 PKD
ROOT
HETATM    1  N   UNL     1     -11.224  15.060  72.566  1.00  0.00    -0.279 NA 
HETATM    2  H1  UNL     1     -12.169  14.840  72.879  1.00  0.00     0.000 HD 
HETATM    3  C   UNL     1     -10.944  15.217  71.206  1.00  0.00    -0.155 A  
HETATM    4  H2  UNL     1     -10.914  15.900  73.055  1.00  0.00     0.000 HD 
HETATM    5  C   UNL     1      -9.653  15.518  70.780  1.00  0.00     1.301 A  
HETATM    6  C   UNL     1      -9.397  15.823  69.436  1.00  0.00    -0.269 A  
HETATM    7 CL   UNL     1      -7.753  16.147  68.990  1.00  0.00    -0.212 Cl 
HETATM    8  C   UNL     1     -10.430  15.884  68.476  1.00  0.00    -0.241 A  
HETATM    9  C   UNL     1     -11.735  15.642  68.942  1.00  0.00    -0.384 A  
HETATM   10  C   UNL     1     -11.984  15.329  70.288  1.00  0.00    -0.367 A  
HETATM   11 CL   UNL     1     -13.135  15.841  67.937  1.00  0.00     2.822 Cl 
ENDROOT
BRANCH   8  12
HETATM   12  N   UNL     1     -10.107  16.158  67.133  1.00  0.00    -0.263 NA 
HETATM   13  H   UNL     1      -9.386  16.868  67.008  1.00  0.00     0.000 HD 
BRANCH  12  14
HETATM   14  C   UNL     1     -10.589  15.640  65.979  1.00  0.00    -0.328 A  
HETATM   15  N   UNL     1     -10.834  16.379  64.931  1.00  0.00    -0.687 NA 
HETATM   16  H   UNL     1     -10.695  17.384  64.830  1.00  0.00     0.000 HD 
HETATM   17  C   UNL     1     -11.362  15.427  63.917  1.00  0.00     0.565 A  
HETATM   18  C   UNL     1     -11.304  14.031  64.539  1.00  0.00    -0.358 A  
HETATM   19  N   UNL     1     -10.738  14.295  65.842  1.00  0.00    -0.296 NA 
ENDBRANCH  12  14
ENDBRANCH   8  12
TORSDOF 2
ENDMDL
MODEL      201
REMARK 921   NORMALIZED FREE ENERGY PREDICTED BY IDOCK:    6.28 KCAL/MOL
REMARK 922        TOTAL FREE ENERGY PREDICTED BY IDOCK:    6.82 KCAL/MOL
REMARK 923 INTER-LIGAND FREE ENERGY PREDICTED BY IDOCK:    5.23 KCAL/MOL
REMARK 924 INTRA-LIGAND FREE ENERGY PREDICTED BY IDOCK:    1.60 KCAL/MOL
REMARK 927      BINDING AFFINITY PREDICTED BY RF-SCORE:    0.00 PKD
ROOT
HETATM    1  N   UNL     1      -9.481  15.077  68.270  1.00  0.00    -0.192 NA 
HETATM    2  H1  UNL     1     -10.145  14.921  67.512  1.00  0.00     0.000 HD 
HETATM    3  C   UNL     1      -8.903  13.996  68.942  1.00  0.00     0.062 A  
HETATM    4  H2  UNL     1      -8.731  15.673  67.919  1.00  0.00     0.000 HD 
HETATM    5  C   UNL     1      -7.996  14.210  69.976  1.00  0.00     1.053 A  
HETATM    6  C   UNL     1      -7.302  13.137  70.551  1.00  0.00     2.612 A  
HETATM    7 CL   UNL     1      -6.222  13.494  71.860  1.00  0.00     0.820 Cl 
HETATM    8  C   UNL     1      -7.455  11.815  70.083  1.00  0.00     1.653 A  
HETATM    9  C   UNL     1      -8.325  11.631  68.994  1.00  0.00     0.143 A  
HETATM   10  C   UNL     1      -9.023  12.709  68.426  1.00  0.00    -0.125 A  
HETATM   11 CL   UNL     1      -8.500  10.105  68.187  1.00  0.00    -0.117 Cl 
ENDROOT
BRANCH   8  12
HETATM   12  N   UNL     1      -6.760  10.771  70.725  1.00  0.00    -0.431 NA 
HETATM   13  H   UNL     1      -6.270  11.050  71.575  1.00  0.00     0.000 HD 
BRANCH  12  14
HETATM   14  C   UNL     1      -6.632   9.462  70.409  1.00  0.00    -0.077 A  
HETATM   15  N   UNL     1      -7.646   8.729  70.039  1.00  0.00    -0.059 NA 
HETATM   16  H   UNL     1      -8.617   9.020  69.927  1.00  0.00     0.000 HD 
HETATM   17  C   UNL     1      -7.071   7.376  69.816  1.00  0.00    -0.068 A  
HETATM   18  C   UNL     1      -5.563   7.486  70.049  1.00  0.00    -0.023 A  
HETATM   19  N   UNL     1      -5.400   8.885  70.369  1.00  0.00    -0.020 NA 
ENDBRANCH  12  14
ENDBRANCH   8  12
TORSDOF 2
ENDMDL
