MODEL        1
REMARK 921   NORMALIZED FREE ENERGY PREDICTED BY IDOCK:   -8.49 KCAL/MOL
REMARK 922        TOTAL FREE ENERGY PREDICTED BY IDOCK:  -13.60 KCAL/MOL
REMARK 923 INTER-LIGAND FREE ENERGY PREDICTED BY IDOCK:  -11.47 KCAL/MOL
REMARK 924 INTRA-LIGAND FREE ENERGY PREDICTED BY IDOCK:   -2.13 KCAL/MOL
REMARK 927      BINDING AFFINITY PREDICTED BY RF-SCORE:    0.00 PKD
ROOT
HETATM    1  C   UNL     1     -12.878  12.435  71.620  1.00  0.00    -0.375 C  
HETATM    2  C   UNL     1     -12.284  12.262  70.215  1.00  0.00    -0.262 C  
ENDROOT
BRANCH   2   3
HETATM    3  C   UNL     1     -11.628  10.888  69.993  1.00  0.00    -0.424 A  
HETATM    4  C   UNL     1     -10.991  10.551  68.783  1.00  0.00    -0.296 A  
HETATM    5  C   UNL     1     -11.666   9.913  71.006  1.00  0.00    -0.466 A  
HETATM    6  F   UNL     1      -8.722   9.836  66.972  1.00  0.00    -0.130 F  
HETATM    7  F   UNL     1      -9.218   7.729  67.178  1.00  0.00    -0.134 F  
HETATM    8  C   UNL     1     -11.089   8.639  70.823  1.00  0.00    -0.295 A  
HETATM    9  C   UNL     1     -11.152   7.584  71.903  1.00  0.00    -0.239 C  
HETATM   10  C   UNL     1     -10.460   8.340  69.602  1.00  0.00    -0.221 A  
HETATM   11  F   UNL     1     -10.609   9.082  66.199  1.00  0.00    -0.268 F  
HETATM   12  F   UNL     1     -11.764   8.004  73.046  1.00  0.00    -0.443 F  
HETATM   13  F   UNL     1     -11.825   6.470  71.504  1.00  0.00    -0.324 F  
HETATM   14  F   UNL     1      -9.915   7.154  72.282  1.00  0.00    -0.176 F  
HETATM   15  C   UNL     1      -9.748   8.983  67.248  1.00  0.00    -0.179 C  
HETATM   16  C   UNL     1     -10.407   9.289  68.574  1.00  0.00    -0.237 A  
ENDBRANCH   2   3
BRANCH   2  17
HETATM   17  O   UNL     1     -11.513  13.412  69.784  1.00  0.00    -0.245 OA 
BRANCH  17  18
HETATM   18  C   UNL     1     -12.227  14.401  69.030  1.00  0.00    -0.198 C  
HETATM   19  C   UNL     1     -10.554  16.742  68.861  1.00  0.00    -0.350 C  
HETATM   20  C   UNL     1     -11.187  16.187  70.132  1.00  0.00    -0.370 C  
HETATM   21  O   UNL     1     -12.445  15.570  69.834  1.00  0.00    -0.336 OA 
HETATM   22  N   UNL     1     -10.293  15.705  67.822  1.00  0.00    -0.260 NA 
HETATM   23  C   UNL     1     -11.557  14.886  67.657  1.00  0.00    -0.339 C  
BRANCH  22  24
HETATM   24  C   UNL     1      -9.962  16.403  66.547  1.00  0.00    -0.282 C  
BRANCH  24  25
HETATM   25  C   UNL     1      -8.483  16.695  66.440  1.00  0.00    -0.313 C  
HETATM   26  N   UNL     1      -8.045  17.833  65.871  1.00  0.00    -0.544 NA 
HETATM   27  N   UNL     1      -7.536  15.912  66.880  1.00  0.00    -0.230 NA 
HETATM   28  O   UNL     1      -5.906  18.670  65.612  1.00  0.00    -0.167 OA 
HETATM   29  C   UNL     1      -6.688  17.809  65.971  1.00  0.00    -0.281 C  
HETATM   30  N   UNL     1      -6.387  16.598  66.582  1.00  0.00    -0.282 NA 
HETATM   31  H   UNL     1      -7.629  15.005  67.337  1.00  0.00     0.000 HD 
ENDBRANCH  24  25
ENDBRANCH  22  24
BRANCH  23  32
HETATM   32  C   UNL     1     -11.458  13.814  66.569  1.00  0.00    -0.364 A  
HETATM   33  C   UNL     1     -11.295  12.060  64.372  1.00  0.00    -0.345 A  
HETATM   34  F   UNL     1     -11.197  11.255  63.309  1.00  0.00    -0.444 F  
HETATM   35  C   UNL     1     -10.288  13.078  66.330  1.00  0.00    -0.291 A  
HETATM   36  C   UNL     1     -12.471  12.756  64.602  1.00  0.00    -0.525 A  
HETATM   37  C   UNL     1     -10.207  12.207  65.233  1.00  0.00    -0.304 A  
HETATM   38  C   UNL     1     -12.554  13.624  65.696  1.00  0.00    -0.531 A  
ENDBRANCH  23  32
ENDBRANCH  17  18
ENDBRANCH   2  17
TORSDOF 6
ENDMDL
MODEL        2
REMARK 921   NORMALIZED FREE ENERGY PREDICTED BY IDOCK:   -8.30 KCAL/MOL
REMARK 922        TOTAL FREE ENERGY PREDICTED BY IDOCK:  -13.35 KCAL/MOL
REMARK 923 INTER-LIGAND FREE ENERGY PREDICTED BY IDOCK:  -12.34 KCAL/MOL
REMARK 924 INTRA-LIGAND FREE ENERGY PREDICTED BY IDOCK:   -1.00 KCAL/MOL
REMARK 927      BINDING AFFINITY PREDICTED BY RF-SCORE:    0.00 PKD
ROOT
HETATM    1  C   UNL     1      -9.670  14.187  65.965  1.00  0.00    -0.297 C  
HETATM    2  C   UNL     1     -10.291  14.897  67.176  1.00  0.00    -0.260 C  
ENDROOT
BRANCH   2   3
HETATM    3  C   UNL     1      -9.553  16.187  67.573  1.00  0.00    -0.229 A  
HETATM    4  C   UNL     1      -8.231  16.172  68.059  1.00  0.00    -0.152 A  
HETATM    5  C   UNL     1     -10.199  17.432  67.475  1.00  0.00    -0.332 A  
HETATM    6  F   UNL     1      -5.291  16.717  68.060  1.00  0.00    -0.100 F  
HETATM    7  F   UNL     1      -5.615  18.478  69.293  1.00  0.00    -0.190 F  
HETATM    8  C   UNL     1      -9.553  18.628  67.850  1.00  0.00    -0.340 A  
HETATM    9  C   UNL     1     -10.257  19.963  67.767  1.00  0.00    -0.429 C  
HETATM   10  C   UNL     1      -8.233  18.574  68.329  1.00  0.00    -0.336 A  
HETATM   11  F   UNL     1      -6.048  16.502  70.086  1.00  0.00    -0.210 F  
HETATM   12  F   UNL     1     -11.521  19.887  67.264  1.00  0.00    -0.364 F  
HETATM   13  F   UNL     1     -10.372  20.567  68.981  1.00  0.00    -0.418 F  
HETATM   14  F   UNL     1      -9.596  20.851  66.972  1.00  0.00    -0.550 F  
HETATM   15  C   UNL     1      -6.148  17.267  68.965  1.00  0.00    -0.199 C  
HETATM   16  C   UNL     1      -7.563  17.350  68.439  1.00  0.00    -0.255 A  
ENDBRANCH   2   3
BRANCH   2  17
HETATM   17  O   UNL     1     -10.609  13.988  68.260  1.00  0.00    -0.236 OA 
BRANCH  17  18
HETATM   18  C   UNL     1     -11.960  13.507  68.301  1.00  0.00    -0.342 C  
HETATM   19  C   UNL     1     -11.880  10.753  69.147  1.00  0.00    -0.275 C  
HETATM   20  C   UNL     1     -11.332  11.300  67.834  1.00  0.00    -0.299 C  
HETATM   21  O   UNL     1     -12.121  12.410  67.389  1.00  0.00    -0.505 OA 
HETATM   22  N   UNL     1     -11.884  11.753  70.254  1.00  0.00    -0.324 NA 
HETATM   23  C   UNL     1     -12.514  13.025  69.726  1.00  0.00     0.059 C  
BRANCH  22  24
HETATM   24  C   UNL     1     -12.702  11.200  71.371  1.00  0.00    -0.418 C  
BRANCH  24  25
HETATM   25  C   UNL     1     -12.561   9.698  71.474  1.00  0.00    -0.391 C  
HETATM   26  N   UNL     1     -11.408   9.140  71.883  1.00  0.00    -0.375 NA 
HETATM   27  N   UNL     1     -13.508   8.843  71.198  1.00  0.00    -0.549 NA 
HETATM   28  O   UNL     1     -10.845   6.930  72.257  1.00  0.00    -0.218 OA 
HETATM   29  C   UNL     1     -11.623   7.796  71.907  1.00  0.00    -0.287 C  
HETATM   30  N   UNL     1     -12.928   7.628  71.457  1.00  0.00    -0.346 NA 
HETATM   31  H   UNL     1     -14.454   9.033  70.867  1.00  0.00     0.000 HD 
ENDBRANCH  24  25
ENDBRANCH  22  24
BRANCH  23  32
HETATM   32  C   UNL     1     -12.644  14.130  70.778  1.00  0.00    -0.432 A  
HETATM   33  C   UNL     1     -12.991  15.954  72.894  1.00  0.00    -0.499 A  
HETATM   34  F   UNL     1     -13.146  16.793  73.925  1.00  0.00    -0.351 F  
HETATM   35  C   UNL     1     -11.536  14.748  71.375  1.00  0.00    -0.305 A  
HETATM   36  C   UNL     1     -14.104  15.377  72.304  1.00  0.00    -0.660 A  
HETATM   37  C   UNL     1     -11.710  15.654  72.431  1.00  0.00    -0.574 A  
HETATM   38  C   UNL     1     -13.933  14.474  71.250  1.00  0.00    -0.356 A  
ENDBRANCH  23  32
ENDBRANCH  17  18
ENDBRANCH   2  17
TORSDOF 6
ENDMDL
MODEL        3
REMARK 921   NORMALIZED FREE ENERGY PREDICTED BY IDOCK:   -8.27 KCAL/MOL
REMARK 922        TOTAL FREE ENERGY PREDICTED BY IDOCK:  -13.30 KCAL/MOL
REMARK 923 INTER-LIGAND FREE ENERGY PREDICTED BY IDOCK:  -11.47 KCAL/MOL
REMARK 924 INTRA-LIGAND FREE ENERGY PREDICTED BY IDOCK:   -1.83 KCAL/MOL
REMARK 927      BINDING AFFINITY PREDICTED BY RF-SCORE:    0.00 PKD
ROOT
HETATM    1  C   UNL     1     -12.915  12.295  71.671  1.00  0.00    -0.416 C  
HETATM    2  C   UNL     1     -12.343  12.085  70.262  1.00  0.00    -0.195 C  
ENDROOT
BRANCH   2   3
HETATM    3  C   UNL     1     -11.679  10.710  70.070  1.00  0.00    -0.405 A  
HETATM    4  C   UNL     1     -11.452   9.834  71.148  1.00  0.00    -0.472 A  
HETATM    5  C   UNL     1     -11.260  10.298  68.792  1.00  0.00    -0.260 A  
HETATM    6  F   UNL     1     -11.764   7.361  72.801  1.00  0.00    -0.305 F  
HETATM    7  F   UNL     1      -9.993   6.512  71.870  1.00  0.00    -0.178 F  
HETATM    8  C   UNL     1     -10.633   9.051  68.591  1.00  0.00    -0.194 A  
HETATM    9  C   UNL     1     -10.161   8.620  67.221  1.00  0.00    -0.268 C  
HETATM   10  C   UNL     1     -10.423   8.202  69.690  1.00  0.00    -0.224 A  
HETATM   11  F   UNL     1      -9.820   8.278  73.124  1.00  0.00    -0.337 F  
HETATM   12  F   UNL     1     -10.444   9.517  66.235  1.00  0.00    -0.318 F  
HETATM   13  F   UNL     1      -8.816   8.420  67.172  1.00  0.00    -0.124 F  
HETATM   14  F   UNL     1     -10.725   7.444  66.824  1.00  0.00    -0.378 F  
HETATM   15  C   UNL     1     -10.600   7.693  72.175  1.00  0.00    -0.232 C  
HETATM   16  C   UNL     1     -10.828   8.585  70.975  1.00  0.00    -0.290 A  
ENDBRANCH   2   3
BRANCH   2  17
HETATM   17  O   UNL     1     -11.587  13.227  69.785  1.00  0.00    -0.276 OA 
BRANCH  17  18
HETATM   18  C   UNL     1     -12.338  14.228  69.084  1.00  0.00    -0.130 C  
HETATM   19  C   UNL     1     -10.757  16.638  69.051  1.00  0.00    -0.343 C  
HETATM   20  C   UNL     1     -11.370  15.989  70.287  1.00  0.00    -0.382 C  
HETATM   21  O   UNL     1     -12.603  15.342  69.950  1.00  0.00    -0.291 OA 
HETATM   22  N   UNL     1     -10.454  15.671  67.958  1.00  0.00    -0.257 NA 
HETATM   23  C   UNL     1     -11.685  14.815  67.743  1.00  0.00    -0.343 C  
BRANCH  22  24
HETATM   24  C   UNL     1     -10.148  16.451  66.725  1.00  0.00    -0.285 C  
BRANCH  24  25
HETATM   25  C   UNL     1      -8.661  16.655  66.549  1.00  0.00    -0.285 C  
HETATM   26  N   UNL     1      -8.183  17.753  65.936  1.00  0.00    -0.537 NA 
HETATM   27  N   UNL     1      -7.742  15.828  66.968  1.00  0.00    -0.222 NA 
HETATM   28  O   UNL     1      -6.014  18.459  65.570  1.00  0.00    -0.195 OA 
HETATM   29  C   UNL     1      -6.827  17.653  65.980  1.00  0.00    -0.273 C  
HETATM   30  N   UNL     1      -6.569  16.440  66.607  1.00  0.00    -0.258 NA 
HETATM   31  H   UNL     1      -7.867  14.937  67.449  1.00  0.00     0.000 HD 
ENDBRANCH  24  25
ENDBRANCH  22  24
BRANCH  23  32
HETATM   32  C   UNL     1     -11.542  13.809  66.597  1.00  0.00    -0.392 A  
HETATM   33  C   UNL     1     -11.304  12.188  64.307  1.00  0.00    -0.360 A  
HETATM   34  F   UNL     1     -11.171  11.447  63.202  1.00  0.00    -0.416 F  
HETATM   35  C   UNL     1     -10.349  13.121  66.332  1.00  0.00    -0.289 A  
HETATM   36  C   UNL     1     -12.502  12.835  64.562  1.00  0.00    -0.501 A  
HETATM   37  C   UNL     1     -10.230  12.318  65.188  1.00  0.00    -0.305 A  
HETATM   38  C   UNL     1     -12.623  13.637  65.701  1.00  0.00    -0.531 A  
ENDBRANCH  23  32
ENDBRANCH  17  18
ENDBRANCH   2  17
TORSDOF 6
ENDMDL
MODEL        4
REMARK 921   NORMALIZED FREE ENERGY PREDICTED BY IDOCK:   -8.16 KCAL/MOL
REMARK 922        TOTAL FREE ENERGY PREDICTED BY IDOCK:  -13.15 KCAL/MOL
REMARK 923 INTER-LIGAND FREE ENERGY PREDICTED BY IDOCK:  -11.10 KCAL/MOL
REMARK 924 INTRA-LIGAND FREE ENERGY PREDICTED BY IDOCK:   -2.05 KCAL/MOL
REMARK 927      BINDING AFFINITY PREDICTED BY RF-SCORE:    0.00 PKD
ROOT
HETATM    1  C   UNL     1      -9.439   5.704  67.922  1.00  0.00    -0.120 C  
HETATM    2  C   UNL     1      -9.488   7.163  68.398  1.00  0.00    -0.138 C  
ENDROOT
BRANCH   2   3
HETATM    3  C   UNL     1     -10.354   7.369  69.652  1.00  0.00    -0.226 A  
HETATM    4  C   UNL     1     -11.045   8.571  69.894  1.00  0.00    -0.114 A  
HETATM    5  C   UNL     1     -10.465   6.346  70.612  1.00  0.00    -0.269 A  
HETATM    6  F   UNL     1     -13.410  10.365  70.257  1.00  0.00    -0.345 F  
HETATM    7  F   UNL     1     -13.252  10.141  72.413  1.00  0.00    -0.500 F  
HETATM    8  C   UNL     1     -11.237   6.514  71.779  1.00  0.00    -0.312 A  
HETATM    9  C   UNL     1     -11.335   5.425  72.822  1.00  0.00    -0.296 C  
HETATM   10  C   UNL     1     -11.913   7.729  71.986  1.00  0.00    -0.350 A  
HETATM   11  F   UNL     1     -11.671  11.140  71.306  1.00  0.00    -0.295 F  
HETATM   12  F   UNL     1     -10.658   4.289  72.494  1.00  0.00    -0.238 F  
HETATM   13  F   UNL     1     -10.850   5.816  74.031  1.00  0.00    -0.270 F  
HETATM   14  F   UNL     1     -12.622   5.035  73.048  1.00  0.00    -0.263 F  
HETATM   15  C   UNL     1     -12.530  10.085  71.259  1.00  0.00    -0.392 C  
HETATM   16  C   UNL     1     -11.822   8.766  71.050  1.00  0.00    -0.315 A  
ENDBRANCH   2   3
BRANCH   2  17
HETATM   17  O   UNL     1      -9.705   8.101  67.314  1.00  0.00    -0.154 OA 
BRANCH  17  18
HETATM   18  C   UNL     1      -8.573   8.893  66.931  1.00  0.00    -0.115 C  
HETATM   19  C   UNL     1      -8.529   9.016  64.051  1.00  0.00    -0.163 C  
HETATM   20  C   UNL     1      -8.303   7.767  64.895  1.00  0.00    -0.063 C  
HETATM   21  O   UNL     1      -7.671   8.110  66.134  1.00  0.00    -0.087 OA 
HETATM   22  N   UNL     1      -9.396  10.034  64.713  1.00  0.00    -0.251 NA 
HETATM   23  C   UNL     1      -8.874  10.242  66.119  1.00  0.00    -0.151 C  
BRANCH  22  24
HETATM   24  C   UNL     1      -9.295  11.301  63.934  1.00  0.00    -0.130 C  
BRANCH  24  25
HETATM   25  C   UNL     1     -10.638  11.982  63.802  1.00  0.00    -0.430 C  
HETATM   26  N   UNL     1     -10.807  13.257  64.198  1.00  0.00    -0.388 NA 
HETATM   27  N   UNL     1     -11.708  11.425  63.304  1.00  0.00    -0.834 NA 
HETATM   28  O   UNL     1     -12.645  14.650  64.072  1.00  0.00    -0.819 OA 
HETATM   29  C   UNL     1     -12.097  13.578  63.908  1.00  0.00    -0.438 C  
HETATM   30  N   UNL     1     -12.649  12.421  63.371  1.00  0.00    -0.728 NA 
HETATM   31  H   UNL     1     -11.819  10.476  62.949  1.00  0.00     0.000 HD 
ENDBRANCH  24  25
ENDBRANCH  22  24
BRANCH  23  32
HETATM   32  C   UNL     1      -9.634  11.315  66.905  1.00  0.00    -0.210 A  
HETATM   33  C   UNL     1     -11.072  13.085  68.556  1.00  0.00    -0.266 A  
HETATM   34  F   UNL     1     -11.740  13.908  69.372  1.00  0.00    -0.271 F  
HETATM   35  C   UNL     1      -9.004  12.433  67.470  1.00  0.00    -0.183 A  
HETATM   36  C   UNL     1     -11.724  12.002  67.987  1.00  0.00    -0.398 A  
HETATM   37  C   UNL     1      -9.721  13.312  68.296  1.00  0.00    -0.225 A  
HETATM   38  C   UNL     1     -11.011  11.126  67.163  1.00  0.00    -0.350 A  
ENDBRANCH  23  32
ENDBRANCH  17  18
ENDBRANCH   2  17
TORSDOF 6
ENDMDL
MODEL        5
REMARK 921   NORMALIZED FREE ENERGY PREDICTED BY IDOCK:   -8.13 KCAL/MOL
REMARK 922        TOTAL FREE ENERGY PREDICTED BY IDOCK:  -13.11 KCAL/MOL
REMARK 923 INTER-LIGAND FREE ENERGY PREDICTED BY IDOCK:  -10.78 KCAL/MOL
REMARK 924 INTRA-LIGAND FREE ENERGY PREDICTED BY IDOCK:   -2.33 KCAL/MOL
REMARK 927      BINDING AFFINITY PREDICTED BY RF-SCORE:    0.00 PKD
ROOT
HETATM    1  C   UNL     1      -6.325  15.144  67.660  1.00  0.00    -0.164 C  
HETATM    2  C   UNL     1      -7.699  14.471  67.786  1.00  0.00    -0.156 C  
ENDROOT
BRANCH   2   3
HETATM    3  C   UNL     1      -8.832  15.452  68.133  1.00  0.00    -0.170 A  
HETATM    4  C   UNL     1      -9.062  16.622  67.384  1.00  0.00    -0.206 A  
HETATM    5  C   UNL     1      -9.668  15.207  69.237  1.00  0.00    -0.225 A  
HETATM    6  F   UNL     1     -10.539  18.487  65.572  1.00  0.00    -0.440 F  
HETATM    7  F   UNL     1     -11.303  19.564  67.299  1.00  0.00    -0.543 F  
HETATM    8  C   UNL     1     -10.702  16.099  69.589  1.00  0.00    -0.325 A  
HETATM    9  C   UNL     1     -11.584  15.847  70.790  1.00  0.00    -0.410 C  
HETATM   10  C   UNL     1     -10.903  17.256  68.818  1.00  0.00    -0.153 A  
HETATM   11  F   UNL     1      -9.173  19.573  66.868  1.00  0.00    -0.319 F  
HETATM   12  F   UNL     1     -11.307  14.681  71.440  1.00  0.00    -0.331 F  
HETATM   13  F   UNL     1     -11.484  16.830  71.725  1.00  0.00    -0.435 F  
HETATM   14  F   UNL     1     -12.905  15.781  70.461  1.00  0.00    -0.464 F  
HETATM   15  C   UNL     1     -10.276  18.774  66.878  1.00  0.00    -0.386 C  
HETATM   16  C   UNL     1     -10.086  17.528  67.713  1.00  0.00    -0.330 A  
ENDBRANCH   2   3
BRANCH   2  17
HETATM   17  O   UNL     1      -7.658  13.248  68.564  1.00  0.00    -0.128 OA 
BRANCH  17  18
HETATM   18  C   UNL     1      -7.681  12.025  67.815  1.00  0.00    -0.139 C  
HETATM   19  C   UNL     1      -8.202   9.879  69.667  1.00  0.00    -0.171 C  
HETATM   20  C   UNL     1      -6.946  10.741  69.631  1.00  0.00    -0.134 C  
HETATM   21  O   UNL     1      -6.654  11.139  68.286  1.00  0.00    -0.057 OA 
HETATM   22  N   UNL     1      -9.416  10.571  69.146  1.00  0.00    -0.201 NA 
HETATM   23  C   UNL     1      -9.056  11.201  67.817  1.00  0.00    -0.149 C  
BRANCH  22  24
HETATM   24  C   UNL     1     -10.485   9.549  68.958  1.00  0.00    -0.213 C  
BRANCH  24  25
HETATM   25  C   UNL     1     -11.477   9.564  70.098  1.00  0.00    -0.162 C  
HETATM   26  N   UNL     1     -11.893  10.725  70.635  1.00  0.00    -0.342 NA 
HETATM   27  N   UNL     1     -12.007   8.499  70.636  1.00  0.00    -0.486 NA 
HETATM   28  O   UNL     1     -13.446  11.157  72.291  1.00  0.00    -0.337 OA 
HETATM   29  C   UNL     1     -12.801  10.397  71.594  1.00  0.00    -0.474 C  
HETATM   30  N   UNL     1     -12.845   9.008  71.595  1.00  0.00    -0.341 NA 
HETATM   31  H   UNL     1     -11.839   7.522  70.399  1.00  0.00     0.000 HD 
ENDBRANCH  24  25
ENDBRANCH  22  24
BRANCH  23  32
HETATM   32  C   UNL     1     -10.231  11.900  67.128  1.00  0.00    -0.230 A  
HETATM   33  C   UNL     1     -12.281  13.437  65.960  1.00  0.00    -0.437 A  
HETATM   34  F   UNL     1     -13.228  14.195  65.398  1.00  0.00    -0.521 F  
HETATM   35  C   UNL     1     -10.368  11.962  65.734  1.00  0.00    -0.285 A  
HETATM   36  C   UNL     1     -12.183  13.369  67.341  1.00  0.00    -0.262 A  
HETATM   37  C   UNL     1     -11.387  12.732  65.153  1.00  0.00    -0.346 A  
HETATM   38  C   UNL     1     -11.168  12.602  67.921  1.00  0.00    -0.310 A  
ENDBRANCH  23  32
ENDBRANCH  17  18
ENDBRANCH   2  17
TORSDOF 6
ENDMDL
MODEL        6
REMARK 921   NORMALIZED FREE ENERGY PREDICTED BY IDOCK:   -8.05 KCAL/MOL
REMARK 922        TOTAL FREE ENERGY PREDICTED BY IDOCK:  -13.00 KCAL/MOL
REMARK 923 INTER-LIGAND FREE ENERGY PREDICTED BY IDOCK:  -11.13 KCAL/MOL
REMARK 924 INTRA-LIGAND FREE ENERGY PREDICTED BY IDOCK:   -1.88 KCAL/MOL
REMARK 927      BINDING AFFINITY PREDICTED BY RF-SCORE:    0.00 PKD
ROOT
HETATM    1  C   UNL     1     -13.027  12.093  71.653  1.00  0.00    -0.427 C  
HETATM    2  C   UNL     1     -12.333  11.988  70.287  1.00  0.00    -0.195 C  
ENDROOT
BRANCH   2   3
HETATM    3  C   UNL     1     -11.563  10.671  70.092  1.00  0.00    -0.414 A  
HETATM    4  C   UNL     1     -10.900  10.364  68.888  1.00  0.00    -0.273 A  
HETATM    5  C   UNL     1     -11.517   9.717  71.125  1.00  0.00    -0.472 A  
HETATM    6  F   UNL     1      -8.581   9.805  67.086  1.00  0.00    -0.125 F  
HETATM    7  F   UNL     1      -8.897   7.669  67.337  1.00  0.00    -0.122 F  
HETATM    8  C   UNL     1     -10.835   8.494  70.967  1.00  0.00    -0.290 A  
HETATM    9  C   UNL     1     -10.808   7.459  72.069  1.00  0.00    -0.227 C  
HETATM   10  C   UNL     1     -10.184   8.223  69.751  1.00  0.00    -0.204 A  
HETATM   11  F   UNL     1     -10.398   8.879  66.333  1.00  0.00    -0.348 F  
HETATM   12  F   UNL     1     -11.451   7.850  73.204  1.00  0.00    -0.450 F  
HETATM   13  F   UNL     1     -11.384   6.285  71.695  1.00  0.00    -0.289 F  
HETATM   14  F   UNL     1      -9.538   7.143  72.453  1.00  0.00    -0.153 F  
HETATM   15  C   UNL     1      -9.531   8.874  67.383  1.00  0.00    -0.145 C  
HETATM   16  C   UNL     1     -10.213   9.151  68.703  1.00  0.00    -0.225 A  
ENDBRANCH   2   3
BRANCH   2  17
HETATM   17  O   UNL     1     -11.623  13.199  69.923  1.00  0.00    -0.264 OA 
BRANCH  17  18
HETATM   18  C   UNL     1     -12.403  14.215  69.277  1.00  0.00    -0.169 C  
HETATM   19  C   UNL     1     -10.902  16.672  69.394  1.00  0.00    -0.295 C  
HETATM   20  C   UNL     1     -11.497  15.933  70.587  1.00  0.00    -0.400 C  
HETATM   21  O   UNL     1     -12.708  15.267  70.206  1.00  0.00    -0.366 OA 
HETATM   22  N   UNL     1     -10.564  15.781  68.247  1.00  0.00    -0.261 NA 
HETATM   23  C   UNL     1     -11.765  14.900  67.976  1.00  0.00    -0.320 C  
BRANCH  22  24
HETATM   24  C   UNL     1     -10.279  16.641  67.064  1.00  0.00    -0.290 C  
BRANCH  24  25
HETATM   25  C   UNL     1      -9.173  17.631  67.347  1.00  0.00    -0.247 C  
HETATM   26  N   UNL     1      -9.305  18.928  67.014  1.00  0.00    -0.295 NA 
HETATM   27  N   UNL     1      -8.040  17.335  67.925  1.00  0.00    -0.205 NA 
HETATM   28  O   UNL     1      -7.903  20.731  67.365  1.00  0.00    -0.339 OA 
HETATM   29  C   UNL     1      -8.169  19.547  67.438  1.00  0.00    -0.286 C  
HETATM   30  N   UNL     1      -7.385  18.538  67.983  1.00  0.00    -0.243 NA 
HETATM   31  H   UNL     1      -7.719  16.424  68.255  1.00  0.00     0.000 HD 
ENDBRANCH  24  25
ENDBRANCH  22  24
BRANCH  23  32
HETATM   32  C   UNL     1     -11.586  13.968  66.774  1.00  0.00    -0.406 A  
HETATM   33  C   UNL     1     -11.265  12.032  64.756  1.00  0.00    -0.318 A  
HETATM   34  F   UNL     1     -11.135  11.087  63.817  1.00  0.00    -0.434 F  
HETATM   35  C   UNL     1     -12.577  13.784  65.799  1.00  0.00    -0.525 A  
HETATM   36  C   UNL     1     -10.259  12.213  65.692  1.00  0.00    -0.285 A  
HETATM   37  C   UNL     1     -12.417  12.816  64.797  1.00  0.00    -0.539 A  
HETATM   38  C   UNL     1     -10.416  13.177  66.692  1.00  0.00    -0.280 A  
ENDBRANCH  23  32
ENDBRANCH  17  18
ENDBRANCH   2  17
TORSDOF 6
ENDMDL
MODEL        7
REMARK 921   NORMALIZED FREE ENERGY PREDICTED BY IDOCK:   -8.00 KCAL/MOL
REMARK 922        TOTAL FREE ENERGY PREDICTED BY IDOCK:  -12.94 KCAL/MOL
REMARK 923 INTER-LIGAND FREE ENERGY PREDICTED BY IDOCK:  -11.93 KCAL/MOL
REMARK 924 INTRA-LIGAND FREE ENERGY PREDICTED BY IDOCK:   -1.01 KCAL/MOL
REMARK 927      BINDING AFFINITY PREDICTED BY RF-SCORE:    0.00 PKD
ROOT
HETATM    1  C   UNL     1      -7.630   9.572  68.786  1.00  0.00    -0.076 C  
HETATM    2  C   UNL     1      -8.898  10.303  69.251  1.00  0.00    -0.177 C  
ENDROOT
BRANCH   2   3
HETATM    3  C   UNL     1      -9.605   9.611  70.429  1.00  0.00    -0.292 A  
HETATM    4  C   UNL     1      -8.891   8.946  71.443  1.00  0.00    -0.283 A  
HETATM    5  C   UNL     1     -11.010   9.612  70.511  1.00  0.00    -0.374 A  
HETATM    6  F   UNL     1      -7.859   8.432  74.203  1.00  0.00    -0.237 F  
HETATM    7  F   UNL     1      -9.466   7.007  74.541  1.00  0.00    -0.246 F  
HETATM    8  C   UNL     1     -11.685   8.970  71.569  1.00  0.00    -0.415 A  
HETATM    9  C   UNL     1     -13.195   8.951  71.643  1.00  0.00    -0.362 C  
HETATM   10  C   UNL     1     -10.939   8.317  72.564  1.00  0.00    -0.424 A  
HETATM   11  F   UNL     1      -7.945   6.595  73.044  1.00  0.00    -0.101 F  
HETATM   12  F   UNL     1     -13.803   9.640  70.636  1.00  0.00    -0.311 F  
HETATM   13  F   UNL     1     -13.703   7.690  71.596  1.00  0.00    -0.366 F  
HETATM   14  F   UNL     1     -13.666   9.497  72.800  1.00  0.00    -0.435 F  
HETATM   15  C   UNL     1      -8.717   7.589  73.563  1.00  0.00    -0.195 C  
HETATM   16  C   UNL     1      -9.539   8.297  72.510  1.00  0.00    -0.365 A  
ENDBRANCH   2   3
BRANCH   2  17
HETATM   17  O   UNL     1      -9.748  10.711  68.150  1.00  0.00    -0.151 OA 
BRANCH  17  18
HETATM   18  C   UNL     1      -9.527  12.033  67.641  1.00  0.00    -0.185 C  
HETATM   19  C   UNL     1     -11.035  12.292  65.199  1.00  0.00    -0.303 C  
HETATM   20  C   UNL     1      -9.837  11.375  65.415  1.00  0.00    -0.236 C  
HETATM   21  O   UNL     1      -8.919  11.966  66.342  1.00  0.00    -0.202 OA 
HETATM   22  N   UNL     1     -11.802  12.575  66.447  1.00  0.00    -0.516 NA 
HETATM   23  C   UNL     1     -10.810  12.985  67.516  1.00  0.00    -0.247 C  
BRANCH  22  24
HETATM   24  C   UNL     1     -12.744  13.695  66.163  1.00  0.00    -0.238 C  
BRANCH  24  25
HETATM   25  C   UNL     1     -12.060  14.831  65.439  1.00  0.00    -0.168 C  
HETATM   26  N   UNL     1     -11.116  15.569  66.050  1.00  0.00    -0.245 NA 
HETATM   27  N   UNL     1     -12.302  15.179  64.204  1.00  0.00    -0.877 NA 
HETATM   28  O   UNL     1      -9.796  17.294  65.260  1.00  0.00    -0.272 OA 
HETATM   29  C   UNL     1     -10.676  16.465  65.125  1.00  0.00    -0.291 C  
HETATM   30  N   UNL     1     -11.439  16.222  63.989  1.00  0.00    -0.984 NA 
HETATM   31  H   UNL     1     -12.974  14.771  63.554  1.00  0.00     0.000 HD 
ENDBRANCH  24  25
ENDBRANCH  22  24
BRANCH  23  32
HETATM   32  C   UNL     1     -11.464  13.371  68.846  1.00  0.00    -0.347 A  
HETATM   33  C   UNL     1     -12.873  14.215  71.132  1.00  0.00    -0.360 A  
HETATM   34  F   UNL     1     -13.576  14.612  72.199  1.00  0.00    -0.367 F  
HETATM   35  C   UNL     1     -12.064  12.434  69.699  1.00  0.00    -0.271 A  
HETATM   36  C   UNL     1     -12.266  15.159  70.319  1.00  0.00    -0.395 A  
HETATM   37  C   UNL     1     -12.770  12.856  70.836  1.00  0.00    -0.291 A  
HETATM   38  C   UNL     1     -11.562  14.740  69.186  1.00  0.00    -0.330 A  
ENDBRANCH  23  32
ENDBRANCH  17  18
ENDBRANCH   2  17
TORSDOF 6
ENDMDL
MODEL        8
REMARK 921   NORMALIZED FREE ENERGY PREDICTED BY IDOCK:   -7.94 KCAL/MOL
REMARK 922        TOTAL FREE ENERGY PREDICTED BY IDOCK:  -12.85 KCAL/MOL
REMARK 923 INTER-LIGAND FREE ENERGY PREDICTED BY IDOCK:  -10.53 KCAL/MOL
REMARK 924 INTRA-LIGAND FREE ENERGY PREDICTED BY IDOCK:   -2.32 KCAL/MOL
REMARK 927      BINDING AFFINITY PREDICTED BY RF-SCORE:    0.00 PKD
ROOT
HETATM    1  C   UNL     1     -13.553   9.303  71.864  1.00  0.00    -0.494 C  
HETATM    2  C   UNL     1     -12.248   9.699  71.160  1.00  0.00    -0.350 C  
ENDROOT
BRANCH   2   3
HETATM    3  C   UNL     1     -12.254  11.142  70.627  1.00  0.00    -0.492 A  
HETATM    4  C   UNL     1     -11.820  11.460  69.325  1.00  0.00    -0.417 A  
HETATM    5  C   UNL     1     -12.685  12.199  71.449  1.00  0.00    -0.368 A  
HETATM    6  F   UNL     1     -12.054  12.406  66.498  1.00  0.00    -0.445 F  
HETATM    7  F   UNL     1     -11.365  14.378  67.099  1.00  0.00    -0.294 F  
HETATM    8  C   UNL     1     -12.683  13.533  70.992  1.00  0.00    -0.399 A  
HETATM    9  C   UNL     1     -13.123  14.671  71.885  1.00  0.00    -0.333 C  
HETATM   10  C   UNL     1     -12.245  13.812  69.687  1.00  0.00    -0.359 A  
HETATM   11  F   UNL     1     -10.030  12.669  67.248  1.00  0.00    -0.205 F  
HETATM   12  F   UNL     1     -13.549  14.270  73.116  1.00  0.00    -0.537 F  
HETATM   13  F   UNL     1     -12.128  15.573  72.107  1.00  0.00    -0.351 F  
HETATM   14  F   UNL     1     -14.156  15.382  71.350  1.00  0.00    -0.507 F  
HETATM   15  C   UNL     1     -11.320  13.060  67.441  1.00  0.00    -0.305 C  
HETATM   16  C   UNL     1     -11.808  12.781  68.845  1.00  0.00    -0.351 A  
ENDBRANCH   2   3
BRANCH   2  17
HETATM   17  O   UNL     1     -11.774   8.683  70.240  1.00  0.00    -0.103 OA 
BRANCH  17  18
HETATM   18  C   UNL     1     -10.430   8.227  70.445  1.00  0.00    -0.215 C  
HETATM   19  C   UNL     1     -10.389   5.388  69.951  1.00  0.00    -0.307 C  
HETATM   20  C   UNL     1     -11.114   6.084  71.098  1.00  0.00    -0.271 C  
HETATM   21  O   UNL     1     -10.396   7.256  71.502  1.00  0.00    -0.202 OA 
HETATM   22  N   UNL     1     -10.233   6.241  68.738  1.00  0.00    -0.163 NA 
HETATM   23  C   UNL     1      -9.684   7.581  69.182  1.00  0.00    -0.166 C  
BRANCH  22  24
HETATM   24  C   UNL     1      -9.268   5.568  67.823  1.00  0.00    -0.107 C  
BRANCH  24  25
HETATM   25  C   UNL     1      -9.952   5.042  66.582  1.00  0.00    -0.221 C  
HETATM   26  N   UNL     1      -9.356   4.120  65.804  1.00  0.00    -0.150 NA 
HETATM   27  N   UNL     1     -11.136   5.409  66.173  1.00  0.00    -0.784 NA 
HETATM   28  O   UNL     1     -10.106   3.020  63.915  1.00  0.00    -0.155 OA 
HETATM   29  C   UNL     1     -10.239   3.833  64.809  1.00  0.00    -0.150 C  
HETATM   30  N   UNL     1     -11.333   4.658  65.043  1.00  0.00     0.035 NA 
HETATM   31  H   UNL     1     -11.766   6.091  66.595  1.00  0.00     0.000 HD 
ENDBRANCH  24  25
ENDBRANCH  22  24
BRANCH  23  32
HETATM   32  C   UNL     1      -9.410   8.547  68.026  1.00  0.00    -0.147 A  
HETATM   33  C   UNL     1      -8.724  10.120  65.795  1.00  0.00    -0.152 A  
HETATM   34  F   UNL     1      -8.395  10.835  64.713  1.00  0.00    -0.171 F  
HETATM   35  C   UNL     1     -10.371   8.864  67.056  1.00  0.00    -0.340 A  
HETATM   36  C   UNL     1      -7.763   9.843  66.754  1.00  0.00    -0.099 A  
HETATM   37  C   UNL     1     -10.027   9.645  65.942  1.00  0.00    -0.351 A  
HETATM   38  C   UNL     1      -8.104   9.066  67.865  1.00  0.00    -0.106 A  
ENDBRANCH  23  32
ENDBRANCH  17  18
ENDBRANCH   2  17
TORSDOF 6
ENDMDL
MODEL        9
REMARK 921   NORMALIZED FREE ENERGY PREDICTED BY IDOCK:   -7.93 KCAL/MOL
REMARK 922        TOTAL FREE ENERGY PREDICTED BY IDOCK:  -12.85 KCAL/MOL
REMARK 923 INTER-LIGAND FREE ENERGY PREDICTED BY IDOCK:  -10.80 KCAL/MOL
REMARK 924 INTRA-LIGAND FREE ENERGY PREDICTED BY IDOCK:   -2.05 KCAL/MOL
REMARK 927      BINDING AFFINITY PREDICTED BY RF-SCORE:    0.00 PKD
ROOT
HETATM    1  C   UNL     1     -12.792  12.017  71.435  1.00  0.00    -0.391 C  
HETATM    2  C   UNL     1     -12.085  11.939  70.075  1.00  0.00    -0.291 C  
ENDROOT
BRANCH   2   3
HETATM    3  C   UNL     1     -11.244  10.663  69.895  1.00  0.00    -0.378 A  
HETATM    4  C   UNL     1     -10.044  10.656  69.159  1.00  0.00    -0.234 A  
HETATM    5  C   UNL     1     -11.673   9.447  70.458  1.00  0.00    -0.254 A  
HETATM    6  F   UNL     1      -7.101  10.408  68.691  1.00  0.00    -0.067 F  
HETATM    7  F   UNL     1      -7.370   8.341  68.075  1.00  0.00    -0.086 F  
HETATM    8  C   UNL     1     -10.932   8.259  70.293  1.00  0.00    -0.233 A  
HETATM    9  C   UNL     1     -11.406   6.948  70.878  1.00  0.00    -0.304 C  
HETATM   10  C   UNL     1      -9.738   8.291  69.553  1.00  0.00    -0.174 A  
HETATM   11  F   UNL     1      -8.222   9.949  66.886  1.00  0.00    -0.116 F  
HETATM   12  F   UNL     1     -12.561   7.052  71.594  1.00  0.00    -0.346 F  
HETATM   13  F   UNL     1     -11.640   6.007  69.923  1.00  0.00    -0.467 F  
HETATM   14  F   UNL     1     -10.493   6.397  71.727  1.00  0.00    -0.221 F  
HETATM   15  C   UNL     1      -8.011   9.540  68.167  1.00  0.00    -0.094 C  
HETATM   16  C   UNL     1      -9.286   9.486  68.979  1.00  0.00    -0.155 A  
ENDBRANCH   2   3
BRANCH   2  17
HETATM   17  O   UNL     1     -11.439  13.183  69.704  1.00  0.00    -0.256 OA 
BRANCH  17  18
HETATM   18  C   UNL     1     -12.281  14.172  69.096  1.00  0.00    -0.255 C  
HETATM   19  C   UNL     1     -10.853  16.675  69.135  1.00  0.00    -0.315 C  
HETATM   20  C   UNL     1     -11.365  15.921  70.357  1.00  0.00    -0.385 C  
HETATM   21  O   UNL     1     -12.572  15.217  70.037  1.00  0.00    -0.299 OA 
HETATM   22  N   UNL     1     -10.545  15.792  67.974  1.00  0.00    -0.270 NA 
HETATM   23  C   UNL     1     -11.730  14.873  67.764  1.00  0.00    -0.317 C  
BRANCH  22  24
HETATM   24  C   UNL     1     -10.346  16.657  66.777  1.00  0.00    -0.295 C  
BRANCH  24  25
HETATM   25  C   UNL     1      -8.885  16.973  66.553  1.00  0.00    -0.264 C  
HETATM   26  N   UNL     1      -7.924  16.142  66.995  1.00  0.00    -0.195 NA 
HETATM   27  N   UNL     1      -8.440  18.030  65.930  1.00  0.00    -0.506 NA 
HETATM   28  O   UNL     1      -5.627  16.227  66.767  1.00  0.00    -0.335 OA 
HETATM   29  C   UNL     1      -6.741  16.685  66.602  1.00  0.00    -0.157 C  
HETATM   30  N   UNL     1      -7.079  17.870  65.958  1.00  0.00    -0.351 NA 
HETATM   31  H   UNL     1      -8.978  18.793  65.519  1.00  0.00     0.000 HD 
ENDBRANCH  24  25
ENDBRANCH  22  24
BRANCH  23  32
HETATM   32  C   UNL     1     -11.582  13.943  66.556  1.00  0.00    -0.385 A  
HETATM   33  C   UNL     1     -11.316  12.011  64.526  1.00  0.00    -0.330 A  
HETATM   34  F   UNL     1     -11.213  11.069  63.582  1.00  0.00    -0.413 F  
HETATM   35  C   UNL     1     -12.592  13.771  65.599  1.00  0.00    -0.551 A  
HETATM   36  C   UNL     1     -10.292  12.179  65.444  1.00  0.00    -0.301 A  
HETATM   37  C   UNL     1     -12.460  12.806  64.591  1.00  0.00    -0.525 A  
HETATM   38  C   UNL     1     -10.421  13.142  66.450  1.00  0.00    -0.287 A  
ENDBRANCH  23  32
ENDBRANCH  17  18
ENDBRANCH   2  17
TORSDOF 6
ENDMDL
MODEL       10
REMARK 921   NORMALIZED FREE ENERGY PREDICTED BY IDOCK:   -7.85 KCAL/MOL
REMARK 922        TOTAL FREE ENERGY PREDICTED BY IDOCK:  -12.73 KCAL/MOL
REMARK 923 INTER-LIGAND FREE ENERGY PREDICTED BY IDOCK:  -11.67 KCAL/MOL
REMARK 924 INTRA-LIGAND FREE ENERGY PREDICTED BY IDOCK:   -1.06 KCAL/MOL
REMARK 927      BINDING AFFINITY PREDICTED BY RF-SCORE:    0.00 PKD
ROOT
HETATM    1  C   UNL     1     -12.931  12.707  71.407  1.00  0.00    -0.353 C  
HETATM    2  C   UNL     1     -12.284  12.386  70.052  1.00  0.00    -0.194 C  
ENDROOT
BRANCH   2   3
HETATM    3  C   UNL     1     -11.692  10.968  69.977  1.00  0.00    -0.437 A  
HETATM    4  C   UNL     1     -11.426  10.208  71.132  1.00  0.00    -0.387 A  
HETATM    5  C   UNL     1     -11.383  10.394  68.731  1.00  0.00    -0.275 A  
HETATM    6  F   UNL     1     -11.721   7.955  73.076  1.00  0.00    -0.413 F  
HETATM    7  F   UNL     1     -10.056   6.921  72.135  1.00  0.00    -0.180 F  
HETATM    8  C   UNL     1     -10.823   9.104  68.634  1.00  0.00    -0.092 A  
HETATM    9  C   UNL     1     -10.467   8.498  67.295  1.00  0.00    -0.296 C  
HETATM   10  C   UNL     1     -10.571   8.375  69.808  1.00  0.00    -0.221 A  
HETATM   11  F   UNL     1      -9.723   8.807  73.162  1.00  0.00    -0.205 F  
HETATM   12  F   UNL     1     -10.783   9.292  66.233  1.00  0.00    -0.219 F  
HETATM   13  F   UNL     1      -9.138   8.229  67.181  1.00  0.00    -0.132 F  
HETATM   14  F   UNL     1     -11.106   7.314  67.074  1.00  0.00    -0.414 F  
HETATM   15  C   UNL     1     -10.592   8.157  72.341  1.00  0.00    -0.323 C  
HETATM   16  C   UNL     1     -10.867   8.919  71.064  1.00  0.00    -0.326 A  
ENDBRANCH   2   3
BRANCH   2  17
HETATM   17  O   UNL     1     -11.434  13.455  69.566  1.00  0.00    -0.271 OA 
BRANCH  17  18
HETATM   18  C   UNL     1     -12.103  14.543  68.913  1.00  0.00    -0.237 C  
HETATM   19  C   UNL     1     -10.294  16.786  68.884  1.00  0.00    -0.317 C  
HETATM   20  C   UNL     1     -10.929  16.169  70.124  1.00  0.00    -0.358 C  
HETATM   21  O   UNL     1     -12.230  15.655  69.814  1.00  0.00    -0.360 OA 
HETATM   22  N   UNL     1     -10.122  15.823  67.758  1.00  0.00    -0.236 NA 
HETATM   23  C   UNL     1     -11.437  15.097  67.565  1.00  0.00    -0.298 C  
BRANCH  22  24
HETATM   24  C   UNL     1      -9.778  16.601  66.534  1.00  0.00    -0.274 C  
BRANCH  24  25
HETATM   25  C   UNL     1      -9.724  18.085  66.814  1.00  0.00    -0.323 C  
HETATM   26  N   UNL     1      -8.549  18.704  67.027  1.00  0.00    -0.269 NA 
HETATM   27  N   UNL     1     -10.765  18.871  66.862  1.00  0.00    -0.413 NA 
HETATM   28  O   UNL     1      -8.055  20.933  67.383  1.00  0.00    -0.279 OA 
HETATM   29  C   UNL     1      -8.840  20.022  67.202  1.00  0.00    -0.344 C  
HETATM   30  N   UNL     1     -10.224  20.105  67.117  1.00  0.00    -0.431 NA 
HETATM   31  H   UNL     1     -11.747  18.625  66.738  1.00  0.00     0.000 HD 
ENDBRANCH  24  25
ENDBRANCH  22  24
BRANCH  23  32
HETATM   32  C   UNL     1     -11.430  14.112  66.393  1.00  0.00    -0.362 A  
HETATM   33  C   UNL     1     -11.400  12.087  64.437  1.00  0.00    -0.345 A  
HETATM   34  F   UNL     1     -11.406  11.102  63.533  1.00  0.00    -0.431 F  
HETATM   35  C   UNL     1     -12.547  13.897  65.573  1.00  0.00    -0.560 A  
HETATM   36  C   UNL     1     -10.273  12.298  65.217  1.00  0.00    -0.305 A  
HETATM   37  C   UNL     1     -12.532  12.885  64.602  1.00  0.00    -0.499 A  
HETATM   38  C   UNL     1     -10.286  13.307  66.185  1.00  0.00    -0.296 A  
ENDBRANCH  23  32
ENDBRANCH  17  18
ENDBRANCH   2  17
TORSDOF 6
ENDMDL
MODEL       11
REMARK 921   NORMALIZED FREE ENERGY PREDICTED BY IDOCK:   -7.81 KCAL/MOL
REMARK 922        TOTAL FREE ENERGY PREDICTED BY IDOCK:  -12.68 KCAL/MOL
REMARK 923 INTER-LIGAND FREE ENERGY PREDICTED BY IDOCK:  -11.66 KCAL/MOL
REMARK 924 INTRA-LIGAND FREE ENERGY PREDICTED BY IDOCK:   -1.02 KCAL/MOL
REMARK 927      BINDING AFFINITY PREDICTED BY RF-SCORE:    0.00 PKD
ROOT
HETATM    1  C   UNL     1      -7.718   9.585  68.935  1.00  0.00    -0.076 C  
HETATM    2  C   UNL     1      -9.055  10.251  69.292  1.00  0.00    -0.194 C  
ENDROOT
BRANCH   2   3
HETATM    3  C   UNL     1      -9.825   9.518  70.404  1.00  0.00    -0.329 A  
HETATM    4  C   UNL     1     -11.172   9.806  70.694  1.00  0.00    -0.402 A  
HETATM    5  C   UNL     1      -9.184   8.537  71.181  1.00  0.00    -0.248 A  
HETATM    6  F   UNL     1     -14.112   9.304  70.912  1.00  0.00    -0.340 F  
HETATM    7  F   UNL     1     -13.873   8.800  73.013  1.00  0.00    -0.382 F  
HETATM    8  C   UNL     1      -9.860   7.863  72.219  1.00  0.00    -0.276 A  
HETATM    9  C   UNL     1      -9.163   6.826  73.070  1.00  0.00    -0.127 C  
HETATM   10  C   UNL     1     -11.205   8.176  72.480  1.00  0.00    -0.459 A  
HETATM   11  F   UNL     1     -13.470  10.823  72.329  1.00  0.00    -0.534 F  
HETATM   12  F   UNL     1      -7.871   6.593  72.703  1.00  0.00    -0.099 F  
HETATM   13  F   UNL     1      -9.123   7.174  74.385  1.00  0.00    -0.215 F  
HETATM   14  F   UNL     1      -9.784   5.614  73.026  1.00  0.00    -0.152 F  
HETATM   15  C   UNL     1     -13.313   9.512  71.996  1.00  0.00    -0.452 C  
HETATM   16  C   UNL     1     -11.870   9.150  71.724  1.00  0.00    -0.453 A  
ENDBRANCH   2   3
BRANCH   2  17
HETATM   17  O   UNL     1      -9.828  10.623  68.123  1.00  0.00    -0.150 OA 
BRANCH  17  18
HETATM   18  C   UNL     1      -9.510  11.893  67.537  1.00  0.00    -0.176 C  
HETATM   19  C   UNL     1     -11.205  12.239  65.232  1.00  0.00    -0.328 C  
HETATM   20  C   UNL     1     -10.100  11.198  65.380  1.00  0.00    -0.264 C  
HETATM   21  O   UNL     1      -9.039  11.712  66.193  1.00  0.00    -0.213 OA 
HETATM   22  N   UNL     1     -11.813  12.651  66.529  1.00  0.00    -0.475 NA 
HETATM   23  C   UNL     1     -10.686  12.981  67.486  1.00  0.00    -0.238 C  
BRANCH  22  24
HETATM   24  C   UNL     1     -12.649  13.861  66.282  1.00  0.00    -0.330 C  
BRANCH  24  25
HETATM   25  C   UNL     1     -11.865  14.945  65.579  1.00  0.00    -0.155 C  
HETATM   26  N   UNL     1     -10.986  15.709  66.253  1.00  0.00    -0.257 NA 
HETATM   27  N   UNL     1     -11.956  15.222  64.306  1.00  0.00    -0.753 NA 
HETATM   28  O   UNL     1      -9.555  17.370  65.524  1.00  0.00    -0.424 OA 
HETATM   29  C   UNL     1     -10.427  16.544  65.335  1.00  0.00    -0.269 C  
HETATM   30  N   UNL     1     -11.057  16.242  64.134  1.00  0.00    -0.664 NA 
HETATM   31  H   UNL     1     -12.555  14.783  63.606  1.00  0.00     0.000 HD 
ENDBRANCH  24  25
ENDBRANCH  22  24
BRANCH  23  32
HETATM   32  C   UNL     1     -11.164  13.485  68.850  1.00  0.00    -0.316 A  
HETATM   33  C   UNL     1     -12.188  14.621  71.214  1.00  0.00    -0.348 A  
HETATM   34  F   UNL     1     -12.707  15.170  72.317  1.00  0.00    -0.329 F  
HETATM   35  C   UNL     1     -12.064  12.769  69.654  1.00  0.00    -0.286 A  
HETATM   36  C   UNL     1     -11.280  15.338  70.451  1.00  0.00    -0.325 A  
HETATM   37  C   UNL     1     -12.576  13.338  70.829  1.00  0.00    -0.357 A  
HETATM   38  C   UNL     1     -10.767  14.772  69.280  1.00  0.00    -0.263 A  
ENDBRANCH  23  32
ENDBRANCH  17  18
ENDBRANCH   2  17
TORSDOF 6
ENDMDL
MODEL       12
REMARK 921   NORMALIZED FREE ENERGY PREDICTED BY IDOCK:   -7.80 KCAL/MOL
REMARK 922        TOTAL FREE ENERGY PREDICTED BY IDOCK:  -12.66 KCAL/MOL
REMARK 923 INTER-LIGAND FREE ENERGY PREDICTED BY IDOCK:  -11.55 KCAL/MOL
REMARK 924 INTRA-LIGAND FREE ENERGY PREDICTED BY IDOCK:   -1.11 KCAL/MOL
REMARK 927      BINDING AFFINITY PREDICTED BY RF-SCORE:    0.00 PKD
ROOT
HETATM    1  C   UNL     1     -10.291  14.245  64.882  1.00  0.00    -0.429 C  
HETATM    2  C   UNL     1     -10.616  14.658  66.325  1.00  0.00    -0.306 C  
ENDROOT
BRANCH   2   3
HETATM    3  C   UNL     1      -9.891  15.939  66.772  1.00  0.00    -0.254 A  
HETATM    4  C   UNL     1     -10.435  17.219  66.557  1.00  0.00    -0.260 A  
HETATM    5  C   UNL     1      -8.637  15.859  67.404  1.00  0.00    -0.189 A  
HETATM    6  F   UNL     1     -11.608  19.872  67.284  1.00  0.00    -0.252 F  
HETATM    7  F   UNL     1      -9.645  20.790  67.113  1.00  0.00    -0.556 F  
HETATM    8  C   UNL     1      -7.942  17.017  67.808  1.00  0.00    -0.192 A  
HETATM    9  C   UNL     1      -6.583  16.931  68.465  1.00  0.00    -0.165 C  
HETATM   10  C   UNL     1      -8.517  18.278  67.577  1.00  0.00    -0.252 A  
HETATM   11  F   UNL     1     -10.612  19.959  65.353  1.00  0.00    -0.547 F  
HETATM   12  F   UNL     1      -6.146  15.655  68.657  1.00  0.00    -0.095 F  
HETATM   13  F   UNL     1      -5.615  17.555  67.740  1.00  0.00    -0.126 F  
HETATM   14  F   UNL     1      -6.562  17.518  69.695  1.00  0.00    -0.247 F  
HETATM   15  C   UNL     1     -10.394  19.738  66.679  1.00  0.00    -0.496 C  
HETATM   16  C   UNL     1      -9.764  18.391  66.949  1.00  0.00    -0.324 A  
ENDBRANCH   2   3
BRANCH   2  17
HETATM   17  O   UNL     1     -10.570  13.544  67.253  1.00  0.00    -0.260 OA 
BRANCH  17  18
HETATM   18  C   UNL     1     -11.834  12.957  67.592  1.00  0.00    -0.346 C  
HETATM   19  C   UNL     1     -11.344  10.223  68.362  1.00  0.00    -0.178 C  
HETATM   20  C   UNL     1     -11.153  10.805  66.966  1.00  0.00    -0.174 C  
HETATM   21  O   UNL     1     -12.108  11.845  66.726  1.00  0.00    -0.593 OA 
HETATM   22  N   UNL     1     -11.177  11.224  69.454  1.00  0.00    -0.262 NA 
HETATM   23  C   UNL     1     -12.009  12.439  69.099  1.00  0.00    -0.240 C  
BRANCH  22  24
HETATM   24  C   UNL     1     -11.673  10.613  70.719  1.00  0.00    -0.335 C  
BRANCH  24  25
HETATM   25  C   UNL     1     -11.015   9.280  70.990  1.00  0.00    -0.320 C  
HETATM   26  N   UNL     1     -11.744   8.151  71.059  1.00  0.00    -0.285 NA 
HETATM   27  N   UNL     1      -9.732   9.106  71.163  1.00  0.00    -0.290 NA 
HETATM   28  O   UNL     1     -11.103   5.951  71.352  1.00  0.00    -0.276 OA 
HETATM   29  C   UNL     1     -10.859   7.139  71.268  1.00  0.00    -0.233 C  
HETATM   30  N   UNL     1      -9.615   7.752  71.351  1.00  0.00    -0.155 NA 
HETATM   31  H   UNL     1      -8.994   9.809  71.160  1.00  0.00     0.000 HD 
ENDBRANCH  24  25
ENDBRANCH  22  24
BRANCH  23  32
HETATM   32  C   UNL     1     -11.986  13.535  70.168  1.00  0.00    -0.399 A  
HETATM   33  C   UNL     1     -12.076  15.723  71.937  1.00  0.00    -0.465 A  
HETATM   34  F   UNL     1     -12.154  16.773  72.762  1.00  0.00    -0.527 F  
HETATM   35  C   UNL     1     -12.760  13.475  71.336  1.00  0.00    -0.423 A  
HETATM   36  C   UNL     1     -11.283  15.796  70.804  1.00  0.00    -0.404 A  
HETATM   37  C   UNL     1     -12.807  14.568  72.214  1.00  0.00    -0.427 A  
HETATM   38  C   UNL     1     -11.234  14.708  69.927  1.00  0.00    -0.271 A  
ENDBRANCH  23  32
ENDBRANCH  17  18
ENDBRANCH   2  17
TORSDOF 6
ENDMDL
MODEL       13
REMARK 921   NORMALIZED FREE ENERGY PREDICTED BY IDOCK:   -7.72 KCAL/MOL
REMARK 922        TOTAL FREE ENERGY PREDICTED BY IDOCK:  -12.57 KCAL/MOL
REMARK 923 INTER-LIGAND FREE ENERGY PREDICTED BY IDOCK:  -11.45 KCAL/MOL
REMARK 924 INTRA-LIGAND FREE ENERGY PREDICTED BY IDOCK:   -1.12 KCAL/MOL
REMARK 927      BINDING AFFINITY PREDICTED BY RF-SCORE:    0.00 PKD
ROOT
HETATM    1  C   UNL     1      -9.482  14.056  65.903  1.00  0.00    -0.106 C  
HETATM    2  C   UNL     1     -10.235  14.827  66.997  1.00  0.00    -0.253 C  
ENDROOT
BRANCH   2   3
HETATM    3  C   UNL     1      -9.594  16.183  67.340  1.00  0.00    -0.229 A  
HETATM    4  C   UNL     1     -10.196  17.405  66.984  1.00  0.00    -0.323 A  
HETATM    5  C   UNL     1      -8.361  16.233  68.016  1.00  0.00    -0.165 A  
HETATM    6  F   UNL     1     -11.530  20.047  67.414  1.00  0.00    -0.268 F  
HETATM    7  F   UNL     1      -9.612  21.051  67.216  1.00  0.00    -0.590 F  
HETATM    8  C   UNL     1      -7.743  17.461  68.327  1.00  0.00    -0.241 A  
HETATM    9  C   UNL     1      -6.406  17.513  69.030  1.00  0.00    -0.218 C  
HETATM   10  C   UNL     1      -8.373  18.661  67.957  1.00  0.00    -0.299 A  
HETATM   11  F   UNL     1     -10.471  20.004  65.516  1.00  0.00    -0.555 F  
HETATM   12  F   UNL     1      -5.910  16.287  69.359  1.00  0.00    -0.122 F  
HETATM   13  F   UNL     1      -5.446  18.118  68.280  1.00  0.00    -0.156 F  
HETATM   14  F   UNL     1      -6.460  18.215  70.198  1.00  0.00    -0.147 F  
HETATM   15  C   UNL     1     -10.290  19.923  66.863  1.00  0.00    -0.468 C  
HETATM   16  C   UNL     1      -9.601  18.644  67.282  1.00  0.00    -0.316 A  
ENDBRANCH   2   3
BRANCH   2  17
HETATM   17  O   UNL     1     -10.599  13.992  68.125  1.00  0.00    -0.238 OA 
BRANCH  17  18
HETATM   18  C   UNL     1     -11.952  13.518  68.145  1.00  0.00    -0.341 C  
HETATM   19  C   UNL     1     -11.888  10.734  68.891  1.00  0.00    -0.216 C  
HETATM   20  C   UNL     1     -11.333  11.325  67.600  1.00  0.00    -0.282 C  
HETATM   21  O   UNL     1     -12.115  12.455  67.193  1.00  0.00    -0.532 OA 
HETATM   22  N   UNL     1     -11.891  11.693  70.033  1.00  0.00    -0.344 NA 
HETATM   23  C   UNL     1     -12.512  12.987  69.549  1.00  0.00     0.157 C  
BRANCH  22  24
HETATM   24  C   UNL     1     -12.714  11.104  71.127  1.00  0.00    -0.408 C  
BRANCH  24  25
HETATM   25  C   UNL     1     -12.256   9.707  71.479  1.00  0.00    -0.399 C  
HETATM   26  N   UNL     1     -10.973   9.463  71.802  1.00  0.00    -0.323 NA 
HETATM   27  N   UNL     1     -13.031   8.657  71.511  1.00  0.00    -0.379 NA 
HETATM   28  O   UNL     1      -9.928   7.518  72.482  1.00  0.00    -0.175 OA 
HETATM   29  C   UNL     1     -10.903   8.138  72.103  1.00  0.00    -0.303 C  
HETATM   30  N   UNL     1     -12.187   7.647  71.896  1.00  0.00    -0.296 NA 
HETATM   31  H   UNL     1     -14.027   8.601  71.300  1.00  0.00     0.000 HD 
ENDBRANCH  24  25
ENDBRANCH  22  24
BRANCH  23  32
HETATM   32  C   UNL     1     -12.641  14.053  70.641  1.00  0.00    -0.414 A  
HETATM   33  C   UNL     1     -12.966  15.798  72.826  1.00  0.00    -0.490 A  
HETATM   34  F   UNL     1     -13.108  16.598  73.889  1.00  0.00    -0.453 F  
HETATM   35  C   UNL     1     -11.534  14.706  71.202  1.00  0.00    -0.195 A  
HETATM   36  C   UNL     1     -14.079  15.186  72.273  1.00  0.00    -0.633 A  
HETATM   37  C   UNL     1     -11.697  15.572  72.293  1.00  0.00    -0.578 A  
HETATM   38  C   UNL     1     -13.919  14.323  71.184  1.00  0.00    -0.148 A  
ENDBRANCH  23  32
ENDBRANCH  17  18
ENDBRANCH   2  17
TORSDOF 6
ENDMDL
MODEL       14
REMARK 921   NORMALIZED FREE ENERGY PREDICTED BY IDOCK:   -7.70 KCAL/MOL
REMARK 922        TOTAL FREE ENERGY PREDICTED BY IDOCK:  -12.54 KCAL/MOL
REMARK 923 INTER-LIGAND FREE ENERGY PREDICTED BY IDOCK:   -9.11 KCAL/MOL
REMARK 924 INTRA-LIGAND FREE ENERGY PREDICTED BY IDOCK:   -3.43 KCAL/MOL
REMARK 927      BINDING AFFINITY PREDICTED BY RF-SCORE:    0.00 PKD
ROOT
HETATM    1  C   UNL     1      -5.167  11.337  66.213  1.00  0.00    -0.126 C  
HETATM    2  C   UNL     1      -6.437  11.526  67.055  1.00  0.00    -0.134 C  
ENDROOT
BRANCH   2   3
HETATM    3  C   UNL     1      -7.664  10.797  66.485  1.00  0.00    -0.145 A  
HETATM    4  C   UNL     1      -8.356   9.813  67.216  1.00  0.00    -0.121 A  
HETATM    5  C   UNL     1      -8.122  11.089  65.187  1.00  0.00     0.201 A  
HETATM    6  F   UNL     1     -10.647   8.577  68.689  1.00  0.00    -0.226 F  
HETATM    7  F   UNL     1     -11.224   7.499  66.891  1.00  0.00    -0.380 F  
HETATM    8  C   UNL     1      -9.234  10.423  64.631  1.00  0.00    -0.282 A  
HETATM    9  C   UNL     1      -9.709  10.720  63.228  1.00  0.00    -0.355 C  
HETATM   10  C   UNL     1      -9.900   9.447  65.392  1.00  0.00    -0.159 A  
HETATM   11  F   UNL     1      -9.333   7.054  67.864  1.00  0.00    -0.126 F  
HETATM   12  F   UNL     1      -8.999  11.701  62.604  1.00  0.00    -0.340 F  
HETATM   13  F   UNL     1      -9.642   9.632  62.414  1.00  0.00    -0.277 F  
HETATM   14  F   UNL     1     -11.010  11.128  63.195  1.00  0.00    -0.393 F  
HETATM   15  C   UNL     1     -10.162   8.077  67.518  1.00  0.00    -0.245 C  
HETATM   16  C   UNL     1      -9.468   9.133  66.687  1.00  0.00    -0.242 A  
ENDBRANCH   2   3
BRANCH   2  17
HETATM   17  O   UNL     1      -6.646  12.904  67.456  1.00  0.00    -0.145 OA 
BRANCH  17  18
HETATM   18  C   UNL     1      -7.499  13.106  68.591  1.00  0.00    -0.092 C  
HETATM   19  C   UNL     1      -7.421  15.911  69.250  1.00  0.00    -0.219 C  
HETATM   20  C   UNL     1      -6.257  14.934  69.368  1.00  0.00    -0.114 C  
HETATM   21  O   UNL     1      -6.737  13.624  69.693  1.00  0.00    -0.086 OA 
HETATM   22  N   UNL     1      -8.409  15.538  68.197  1.00  0.00    -0.143 NA 
HETATM   23  C   UNL     1      -8.758  14.076  68.387  1.00  0.00    -0.179 C  
BRANCH  22  24
HETATM   24  C   UNL     1      -9.622  16.384  68.382  1.00  0.00    -0.219 C  
BRANCH  24  25
HETATM   25  C   UNL     1      -9.587  17.610  67.498  1.00  0.00    -0.267 C  
HETATM   26  N   UNL     1      -9.674  18.844  68.027  1.00  0.00    -0.321 NA 
HETATM   27  N   UNL     1      -9.463  17.586  66.199  1.00  0.00    -0.474 NA 
HETATM   28  O   UNL     1      -9.561  20.927  67.033  1.00  0.00    -0.361 OA 
HETATM   29  C   UNL     1      -9.569  19.712  66.984  1.00  0.00    -0.353 C  
HETATM   30  N   UNL     1      -9.459  18.913  65.852  1.00  0.00    -0.423 NA 
HETATM   31  H   UNL     1      -9.387  16.774  65.587  1.00  0.00     0.000 HD 
ENDBRANCH  24  25
ENDBRANCH  22  24
BRANCH  23  32
HETATM   32  C   UNL     1      -9.818  13.565  67.407  1.00  0.00    -0.227 A  
HETATM   33  C   UNL     1     -11.968  12.745  65.785  1.00  0.00    -0.449 A  
HETATM   34  F   UNL     1     -13.009  12.388  65.024  1.00  0.00    -0.533 F  
HETATM   35  C   UNL     1      -9.972  14.082  66.113  1.00  0.00    -0.325 A  
HETATM   36  C   UNL     1     -11.823  12.198  67.051  1.00  0.00    -0.288 A  
HETATM   37  C   UNL     1     -11.046  13.676  65.308  1.00  0.00    -0.307 A  
HETATM   38  C   UNL     1     -10.752  12.602  67.855  1.00  0.00    -0.237 A  
ENDBRANCH  23  32
ENDBRANCH  17  18
ENDBRANCH   2  17
TORSDOF 6
ENDMDL
MODEL       15
REMARK 921   NORMALIZED FREE ENERGY PREDICTED BY IDOCK:   -7.70 KCAL/MOL
REMARK 922        TOTAL FREE ENERGY PREDICTED BY IDOCK:  -12.53 KCAL/MOL
REMARK 923 INTER-LIGAND FREE ENERGY PREDICTED BY IDOCK:  -11.52 KCAL/MOL
REMARK 924 INTRA-LIGAND FREE ENERGY PREDICTED BY IDOCK:   -1.01 KCAL/MOL
REMARK 927      BINDING AFFINITY PREDICTED BY RF-SCORE:    0.00 PKD
ROOT
HETATM    1  C   UNL     1     -10.165  10.161  66.960  1.00  0.00    -0.290 C  
HETATM    2  C   UNL     1      -9.989  11.022  68.218  1.00  0.00    -0.179 C  
ENDROOT
BRANCH   2   3
HETATM    3  C   UNL     1     -10.314  10.274  69.522  1.00  0.00    -0.267 A  
HETATM    4  C   UNL     1     -11.588  10.331  70.119  1.00  0.00    -0.376 A  
HETATM    5  C   UNL     1      -9.322   9.515  70.170  1.00  0.00    -0.286 A  
HETATM    6  F   UNL     1     -14.229   9.307  71.077  1.00  0.00    -0.361 F  
HETATM    7  F   UNL     1     -13.415   9.073  73.079  1.00  0.00    -0.465 F  
HETATM    8  C   UNL     1      -9.587   8.835  71.376  1.00  0.00    -0.337 A  
HETATM    9  C   UNL     1      -8.513   8.040  72.084  1.00  0.00    -0.146 C  
HETATM   10  C   UNL     1     -10.871   8.914  71.941  1.00  0.00    -0.433 A  
HETATM   11  F   UNL     1     -13.609  11.056  72.210  1.00  0.00    -0.505 F  
HETATM   12  F   UNL     1      -7.321   8.019  71.424  1.00  0.00    -0.058 F  
HETATM   13  F   UNL     1      -8.245   8.521  73.328  1.00  0.00    -0.239 F  
HETATM   14  F   UNL     1      -8.863   6.734  72.258  1.00  0.00    -0.131 F  
HETATM   15  C   UNL     1     -13.264   9.771  71.919  1.00  0.00    -0.449 C  
HETATM   16  C   UNL     1     -11.879   9.662  71.321  1.00  0.00    -0.460 A  
ENDBRANCH   2   3
BRANCH   2  17
HETATM   17  O   UNL     1     -10.571  12.344  68.082  1.00  0.00    -0.203 OA 
BRANCH  17  18
HETATM   18  C   UNL     1      -9.695  13.447  68.351  1.00  0.00    -0.201 C  
HETATM   19  C   UNL     1     -10.006  15.348  66.207  1.00  0.00    -0.288 C  
HETATM   20  C   UNL     1      -9.412  13.950  66.080  1.00  0.00    -0.171 C  
HETATM   21  O   UNL     1      -8.737  13.585  67.290  1.00  0.00    -0.205 OA 
HETATM   22  N   UNL     1     -10.998  15.478  67.313  1.00  0.00    -0.318 NA 
HETATM   23  C   UNL     1     -10.381  14.880  68.560  1.00  0.00    -0.237 C  
BRANCH  22  24
HETATM   24  C   UNL     1     -11.272  16.928  67.518  1.00  0.00     0.109 C  
BRANCH  24  25
HETATM   25  C   UNL     1     -10.014  17.757  67.395  1.00  0.00    -0.323 C  
HETATM   26  N   UNL     1      -9.552  18.134  66.189  1.00  0.00    -0.494 NA 
HETATM   27  N   UNL     1      -9.296  18.173  68.403  1.00  0.00    -0.301 NA 
HETATM   28  O   UNL     1      -7.752  19.460  65.606  1.00  0.00    -0.436 OA 
HETATM   29  C   UNL     1      -8.447  18.892  66.426  1.00  0.00    -0.293 C  
HETATM   30  N   UNL     1      -8.290  18.889  67.807  1.00  0.00    -0.275 NA 
HETATM   31  H   UNL     1      -9.448  18.006  69.398  1.00  0.00     0.000 HD 
ENDBRANCH  24  25
ENDBRANCH  22  24
BRANCH  23  32
HETATM   32  C   UNL     1     -11.267  15.000  69.803  1.00  0.00    -0.301 A  
HETATM   33  C   UNL     1     -12.783  14.963  72.176  1.00  0.00    -0.323 A  
HETATM   34  F   UNL     1     -13.472  14.929  73.321  1.00  0.00    -0.530 F  
HETATM   35  C   UNL     1     -11.060  15.968  70.796  1.00  0.00    -0.321 A  
HETATM   36  C   UNL     1     -13.025  14.011  71.198  1.00  0.00    -0.402 A  
HETATM   37  C   UNL     1     -11.813  15.946  71.979  1.00  0.00    -0.609 A  
HETATM   38  C   UNL     1     -12.276  14.032  70.017  1.00  0.00    -0.414 A  
ENDBRANCH  23  32
ENDBRANCH  17  18
ENDBRANCH   2  17
TORSDOF 6
ENDMDL
MODEL       16
REMARK 921   NORMALIZED FREE ENERGY PREDICTED BY IDOCK:   -7.67 KCAL/MOL
REMARK 922        TOTAL FREE ENERGY PREDICTED BY IDOCK:  -12.50 KCAL/MOL
REMARK 923 INTER-LIGAND FREE ENERGY PREDICTED BY IDOCK:  -10.29 KCAL/MOL
REMARK 924 INTRA-LIGAND FREE ENERGY PREDICTED BY IDOCK:   -2.20 KCAL/MOL
REMARK 927      BINDING AFFINITY PREDICTED BY RF-SCORE:    0.00 PKD
ROOT
HETATM    1  C   UNL     1      -6.271  15.283  67.837  1.00  0.00    -0.170 C  
HETATM    2  C   UNL     1      -7.569  14.535  68.172  1.00  0.00    -0.125 C  
ENDROOT
BRANCH   2   3
HETATM    3  C   UNL     1      -8.691  15.455  68.681  1.00  0.00    -0.191 A  
HETATM    4  C   UNL     1      -9.583  15.056  69.695  1.00  0.00    -0.047 A  
HETATM    5  C   UNL     1      -8.866  16.735  68.123  1.00  0.00    -0.223 A  
HETATM    6  F   UNL     1     -10.895  15.093  72.382  1.00  0.00    -0.397 F  
HETATM    7  F   UNL     1     -12.510  16.306  71.579  1.00  0.00    -0.475 F  
HETATM    8  C   UNL     1      -9.897  17.592  68.557  1.00  0.00    -0.346 A  
HETATM    9  C   UNL     1     -10.099  18.957  67.940  1.00  0.00    -0.371 C  
HETATM   10  C   UNL     1     -10.768  17.160  69.572  1.00  0.00    -0.017 A  
HETATM   11  F   UNL     1     -12.226  14.271  70.872  1.00  0.00    -0.338 F  
HETATM   12  F   UNL     1      -9.177  19.270  66.987  1.00  0.00    -0.292 F  
HETATM   13  F   UNL     1     -11.315  19.083  67.342  1.00  0.00    -0.441 F  
HETATM   14  F   UNL     1     -10.033  19.959  68.861  1.00  0.00    -0.466 F  
HETATM   15  C   UNL     1     -11.555  15.400  71.230  1.00  0.00    -0.386 C  
HETATM   16  C   UNL     1     -10.621  15.891  70.147  1.00  0.00    -0.302 A  
ENDBRANCH   2   3
BRANCH   2  17
HETATM   17  O   UNL     1      -7.339  13.327  68.942  1.00  0.00    -0.094 OA 
BRANCH  17  18
HETATM   18  C   UNL     1      -7.229  12.112  68.187  1.00  0.00    -0.096 C  
HETATM   19  C   UNL     1      -7.793   9.923  69.974  1.00  0.00    -0.180 C  
HETATM   20  C   UNL     1      -6.587  10.852  70.054  1.00  0.00    -0.151 C  
HETATM   21  O   UNL     1      -6.200  11.279  68.742  1.00  0.00    -0.044 OA 
HETATM   22  N   UNL     1      -8.992  10.553  69.352  1.00  0.00    -0.141 NA 
HETATM   23  C   UNL     1      -8.552  11.215  68.063  1.00  0.00    -0.140 C  
BRANCH  22  24
HETATM   24  C   UNL     1      -9.982   9.476  69.065  1.00  0.00    -0.180 C  
BRANCH  24  25
HETATM   25  C   UNL     1     -11.117   9.481  70.064  1.00  0.00    -0.237 C  
HETATM   26  N   UNL     1     -11.547  10.631  70.614  1.00  0.00    -0.342 NA 
HETATM   27  N   UNL     1     -11.762   8.418  70.461  1.00  0.00    -0.466 NA 
HETATM   28  O   UNL     1     -13.285  11.052  72.077  1.00  0.00    -0.499 OA 
HETATM   29  C   UNL     1     -12.589  10.299  71.424  1.00  0.00    -0.434 C  
HETATM   30  N   UNL     1     -12.696   8.916  71.333  1.00  0.00    -0.318 NA 
HETATM   31  H   UNL     1     -11.609   7.448  70.187  1.00  0.00     0.000 HD 
ENDBRANCH  24  25
ENDBRANCH  22  24
BRANCH  23  32
HETATM   32  C   UNL     1      -9.699  11.856  67.277  1.00  0.00    -0.191 A  
HETATM   33  C   UNL     1     -11.891  12.760  65.760  1.00  0.00    -0.434 A  
HETATM   34  F   UNL     1     -12.953  13.158  65.051  1.00  0.00    -0.488 F  
HETATM   35  C   UNL     1     -10.766  12.523  67.895  1.00  0.00    -0.239 A  
HETATM   36  C   UNL     1     -10.837  12.127  65.122  1.00  0.00    -0.343 A  
HETATM   37  C   UNL     1     -11.859  12.970  67.138  1.00  0.00    -0.431 A  
HETATM   38  C   UNL     1      -9.745  11.682  65.874  1.00  0.00    -0.260 A  
ENDBRANCH  23  32
ENDBRANCH  17  18
ENDBRANCH   2  17
TORSDOF 6
ENDMDL
MODEL       17
REMARK 921   NORMALIZED FREE ENERGY PREDICTED BY IDOCK:   -7.65 KCAL/MOL
REMARK 922        TOTAL FREE ENERGY PREDICTED BY IDOCK:  -12.47 KCAL/MOL
REMARK 923 INTER-LIGAND FREE ENERGY PREDICTED BY IDOCK:  -11.41 KCAL/MOL
REMARK 924 INTRA-LIGAND FREE ENERGY PREDICTED BY IDOCK:   -1.06 KCAL/MOL
REMARK 927      BINDING AFFINITY PREDICTED BY RF-SCORE:    0.00 PKD
ROOT
HETATM    1  C   UNL     1      -7.691   9.021  67.308  1.00  0.00    -0.096 C  
HETATM    2  C   UNL     1      -9.018   9.326  68.018  1.00  0.00    -0.128 C  
ENDROOT
BRANCH   2   3
HETATM    3  C   UNL     1      -9.571   8.134  68.817  1.00  0.00    -0.149 A  
HETATM    4  C   UNL     1      -9.199   6.806  68.534  1.00  0.00    -0.128 A  
HETATM    5  C   UNL     1     -10.494   8.347  69.859  1.00  0.00    -0.222 A  
HETATM    6  F   UNL     1      -7.944   4.135  69.016  1.00  0.00    -0.066 F  
HETATM    7  F   UNL     1      -9.863   3.349  69.669  1.00  0.00    -0.240 F  
HETATM    8  C   UNL     1     -11.031   7.272  70.595  1.00  0.00    -0.278 A  
HETATM    9  C   UNL     1     -12.041   7.500  71.697  1.00  0.00    -0.311 C  
HETATM   10  C   UNL     1     -10.635   5.960  70.285  1.00  0.00    -0.354 A  
HETATM   11  F   UNL     1      -9.593   3.983  67.608  1.00  0.00    -0.182 F  
HETATM   12  F   UNL     1     -12.324   8.814  71.920  1.00  0.00    -0.325 F  
HETATM   13  F   UNL     1     -13.234   6.896  71.443  1.00  0.00    -0.392 F  
HETATM   14  F   UNL     1     -11.622   7.004  72.896  1.00  0.00    -0.267 F  
HETATM   15  C   UNL     1      -9.290   4.311  68.894  1.00  0.00    -0.158 C  
HETATM   16  C   UNL     1      -9.719   5.716  69.253  1.00  0.00    -0.205 A  
ENDBRANCH   2   3
BRANCH   2  17
HETATM   17  O   UNL     1      -9.967  10.015  67.165  1.00  0.00    -0.183 OA 
BRANCH  17  18
HETATM   18  C   UNL     1      -9.717  11.410  66.945  1.00  0.00    -0.192 C  
HETATM   19  C   UNL     1     -11.180  12.197  64.590  1.00  0.00    -0.323 C  
HETATM   20  C   UNL     1     -10.000  11.233  64.627  1.00  0.00    -0.281 C  
HETATM   21  O   UNL     1      -9.088  11.602  65.669  1.00  0.00    -0.182 OA 
HETATM   22  N   UNL     1     -11.963  12.230  65.859  1.00  0.00    -0.597 NA 
HETATM   23  C   UNL     1     -10.984  12.390  67.003  1.00  0.00    -0.260 C  
BRANCH  22  24
HETATM   24  C   UNL     1     -12.884  13.401  65.802  1.00  0.00    -0.177 C  
BRANCH  24  25
HETATM   25  C   UNL     1     -12.195  14.624  65.242  1.00  0.00    -0.249 C  
HETATM   26  N   UNL     1     -11.336  15.336  65.994  1.00  0.00    -0.232 NA 
HETATM   27  N   UNL     1     -12.356  15.078  64.029  1.00  0.00    -1.015 NA 
HETATM   28  O   UNL     1     -10.036  17.175  65.475  1.00  0.00    -0.576 OA 
HETATM   29  C   UNL     1     -10.866  16.331  65.193  1.00  0.00    -0.318 C  
HETATM   30  N   UNL     1     -11.526  16.168  63.981  1.00  0.00    -0.856 NA 
HETATM   31  H   UNL     1     -12.956  14.709  63.291  1.00  0.00     0.000 HD 
ENDBRANCH  24  25
ENDBRANCH  22  24
BRANCH  23  32
HETATM   32  C   UNL     1     -11.653  12.504  68.375  1.00  0.00    -0.368 A  
HETATM   33  C   UNL     1     -12.665  12.548  71.002  1.00  0.00    -0.225 A  
HETATM   34  F   UNL     1     -13.109  12.570  72.264  1.00  0.00    -0.517 F  
HETATM   35  C   UNL     1     -11.712  13.706  69.096  1.00  0.00    -0.376 A  
HETATM   36  C   UNL     1     -12.643  11.353  70.301  1.00  0.00    -0.225 A  
HETATM   37  C   UNL     1     -12.213  13.725  70.406  1.00  0.00    -0.433 A  
HETATM   38  C   UNL     1     -12.145  11.331  68.995  1.00  0.00    -0.325 A  
ENDBRANCH  23  32
ENDBRANCH  17  18
ENDBRANCH   2  17
TORSDOF 6
ENDMDL
MODEL       18
REMARK 921   NORMALIZED FREE ENERGY PREDICTED BY IDOCK:   -7.63 KCAL/MOL
REMARK 922        TOTAL FREE ENERGY PREDICTED BY IDOCK:  -12.44 KCAL/MOL
REMARK 923 INTER-LIGAND FREE ENERGY PREDICTED BY IDOCK:  -11.16 KCAL/MOL
REMARK 924 INTRA-LIGAND FREE ENERGY PREDICTED BY IDOCK:   -1.28 KCAL/MOL
REMARK 927      BINDING AFFINITY PREDICTED BY RF-SCORE:    0.00 PKD
ROOT
HETATM    1  C   UNL     1      -9.388   7.448  66.489  1.00  0.00    -0.222 C  
HETATM    2  C   UNL     1      -9.397   8.783  67.249  1.00  0.00    -0.147 C  
ENDROOT
BRANCH   2   3
HETATM    3  C   UNL     1      -9.311   8.617  68.776  1.00  0.00    -0.142 A  
HETATM    4  C   UNL     1      -8.107   8.802  69.481  1.00  0.00    -0.105 A  
HETATM    5  C   UNL     1     -10.452   8.254  69.515  1.00  0.00    -0.228 A  
HETATM    6  F   UNL     1      -6.206  10.092  71.396  1.00  0.00    -0.054 F  
HETATM    7  F   UNL     1      -6.757   8.644  72.922  1.00  0.00    -0.113 F  
HETATM    8  C   UNL     1     -10.398   8.077  70.912  1.00  0.00    -0.221 A  
HETATM    9  C   UNL     1     -11.618   7.662  71.701  1.00  0.00    -0.267 C  
HETATM   10  C   UNL     1      -9.178   8.271  71.582  1.00  0.00    -0.245 A  
HETATM   11  F   UNL     1      -5.733   7.987  71.121  1.00  0.00    -0.033 F  
HETATM   12  F   UNL     1     -12.743   7.531  70.944  1.00  0.00    -0.308 F  
HETATM   13  F   UNL     1     -11.449   6.469  72.333  1.00  0.00    -0.275 F  
HETATM   14  F   UNL     1     -11.934   8.558  72.680  1.00  0.00    -0.439 F  
HETATM   15  C   UNL     1      -6.699   8.834  71.574  1.00  0.00    -0.081 C  
HETATM   16  C   UNL     1      -8.024   8.633  70.875  1.00  0.00    -0.137 A  
ENDBRANCH   2   3
BRANCH   2  17
HETATM   17  O   UNL     1     -10.412   9.699  66.765  1.00  0.00    -0.230 OA 
BRANCH  17  18
HETATM   18  C   UNL     1     -10.005  11.067  66.621  1.00  0.00    -0.209 C  
HETATM   19  C   UNL     1     -11.467  12.180  64.401  1.00  0.00    -0.350 C  
HETATM   20  C   UNL     1     -10.410  11.085  64.314  1.00  0.00    -0.364 C  
HETATM   21  O   UNL     1      -9.415  11.272  65.328  1.00  0.00    -0.219 OA 
HETATM   22  N   UNL     1     -12.183  12.217  65.708  1.00  0.00    -0.603 NA 
HETATM   23  C   UNL     1     -11.141  12.182  66.807  1.00  0.00    -0.300 C  
BRANCH  22  24
HETATM   24  C   UNL     1     -12.957  13.489  65.774  1.00  0.00    -0.102 C  
BRANCH  24  25
HETATM   25  C   UNL     1     -12.177  14.647  65.196  1.00  0.00    -0.282 C  
HETATM   26  N   UNL     1     -11.206  15.249  65.908  1.00  0.00    -0.288 NA 
HETATM   27  N   UNL     1     -12.357  15.143  64.002  1.00  0.00    -0.981 NA 
HETATM   28  O   UNL     1      -9.752  16.954  65.345  1.00  0.00    -0.506 OA 
HETATM   29  C   UNL     1     -10.680  16.208  65.098  1.00  0.00    -0.371 C  
HETATM   30  N   UNL     1     -11.421  16.143  63.925  1.00  0.00    -0.831 NA 
HETATM   31  H   UNL     1     -13.033  14.855  63.294  1.00  0.00     0.000 HD 
ENDBRANCH  24  25
ENDBRANCH  22  24
BRANCH  23  32
HETATM   32  C   UNL     1     -11.730  12.279  68.217  1.00  0.00    -0.392 A  
HETATM   33  C   UNL     1     -12.578  12.309  70.902  1.00  0.00    -0.241 A  
HETATM   34  F   UNL     1     -12.943  12.326  72.189  1.00  0.00    -0.484 F  
HETATM   35  C   UNL     1     -11.826  13.488  68.921  1.00  0.00    -0.384 A  
HETATM   36  C   UNL     1     -12.517  11.104  70.220  1.00  0.00    -0.354 A  
HETATM   37  C   UNL     1     -12.244  13.501  70.260  1.00  0.00    -0.417 A  
HETATM   38  C   UNL     1     -12.101  11.089  68.885  1.00  0.00    -0.239 A  
ENDBRANCH  23  32
ENDBRANCH  17  18
ENDBRANCH   2  17
TORSDOF 6
ENDMDL
MODEL       19
REMARK 921   NORMALIZED FREE ENERGY PREDICTED BY IDOCK:   -7.63 KCAL/MOL
REMARK 922        TOTAL FREE ENERGY PREDICTED BY IDOCK:  -12.44 KCAL/MOL
REMARK 923 INTER-LIGAND FREE ENERGY PREDICTED BY IDOCK:  -11.33 KCAL/MOL
REMARK 924 INTRA-LIGAND FREE ENERGY PREDICTED BY IDOCK:   -1.10 KCAL/MOL
REMARK 927      BINDING AFFINITY PREDICTED BY RF-SCORE:    0.00 PKD
ROOT
HETATM    1  C   UNL     1      -7.674   8.975  67.488  1.00  0.00    -0.096 C  
HETATM    2  C   UNL     1      -9.035   9.280  68.131  1.00  0.00    -0.128 C  
ENDROOT
BRANCH   2   3
HETATM    3  C   UNL     1      -9.628   8.088  68.902  1.00  0.00    -0.152 A  
HETATM    4  C   UNL     1     -10.629   8.253  69.878  1.00  0.00    -0.232 A  
HETATM    5  C   UNL     1      -9.162   6.784  68.658  1.00  0.00    -0.132 A  
HETATM    6  F   UNL     1     -13.338   7.991  71.118  1.00  0.00    -0.286 F  
HETATM    7  F   UNL     1     -12.651   6.273  72.260  1.00  0.00    -0.341 F  
HETATM    8  C   UNL     1      -9.673   5.676  69.364  1.00  0.00    -0.208 A  
HETATM    9  C   UNL     1      -9.154   4.278  69.118  1.00  0.00    -0.126 C  
HETATM   10  C   UNL     1     -10.673   5.879  70.330  1.00  0.00    -0.373 A  
HETATM   11  F   UNL     1     -11.802   8.238  72.637  1.00  0.00    -0.415 F  
HETATM   12  F   UNL     1      -8.207   4.208  68.141  1.00  0.00    -0.089 F  
HETATM   13  F   UNL     1      -8.590   3.729  70.228  1.00  0.00    -0.072 F  
HETATM   14  F   UNL     1     -10.140   3.416  68.739  1.00  0.00    -0.043 F  
HETATM   15  C   UNL     1     -12.222   7.409  71.642  1.00  0.00    -0.330 C  
HETATM   16  C   UNL     1     -11.157   7.166  70.597  1.00  0.00    -0.294 A  
ENDBRANCH   2   3
BRANCH   2  17
HETATM   17  O   UNL     1      -9.941   9.968  67.231  1.00  0.00    -0.179 OA 
BRANCH  17  18
HETATM   18  C   UNL     1      -9.698  11.369  67.044  1.00  0.00    -0.190 C  
HETATM   19  C   UNL     1     -11.140  12.197  64.690  1.00  0.00    -0.317 C  
HETATM   20  C   UNL     1      -9.954  11.240  64.719  1.00  0.00    -0.277 C  
HETATM   21  O   UNL     1      -9.056  11.593  65.779  1.00  0.00    -0.201 OA 
HETATM   22  N   UNL     1     -11.937  12.197  65.951  1.00  0.00    -0.571 NA 
HETATM   23  C   UNL     1     -10.972  12.339  67.108  1.00  0.00    -0.262 C  
BRANCH  22  24
HETATM   24  C   UNL     1     -12.865  13.363  65.908  1.00  0.00    -0.089 C  
BRANCH  24  25
HETATM   25  C   UNL     1     -12.206  14.578  65.296  1.00  0.00    -0.321 C  
HETATM   26  N   UNL     1     -11.336  15.321  66.003  1.00  0.00    -0.232 NA 
HETATM   27  N   UNL     1     -12.404  14.994  64.075  1.00  0.00    -1.015 NA 
HETATM   28  O   UNL     1     -10.073  17.158  65.397  1.00  0.00    -0.571 OA 
HETATM   29  C   UNL     1     -10.899  16.297  65.162  1.00  0.00    -0.318 C  
HETATM   30  N   UNL     1     -11.589  16.092  63.973  1.00  0.00    -0.889 NA 
HETATM   31  H   UNL     1     -13.019  14.597  63.364  1.00  0.00     0.000 HD 
ENDBRANCH  24  25
ENDBRANCH  22  24
BRANCH  23  32
HETATM   32  C   UNL     1     -11.657  12.419  68.475  1.00  0.00    -0.358 A  
HETATM   33  C   UNL     1     -12.690  12.414  71.095  1.00  0.00    -0.240 A  
HETATM   34  F   UNL     1     -13.144  12.415  72.353  1.00  0.00    -0.524 F  
HETATM   35  C   UNL     1     -11.795  13.618  69.189  1.00  0.00    -0.394 A  
HETATM   36  C   UNL     1     -12.589  11.219  70.400  1.00  0.00    -0.292 A  
HETATM   37  C   UNL     1     -12.306  13.614  70.495  1.00  0.00    -0.425 A  
HETATM   38  C   UNL     1     -12.081  11.221  69.098  1.00  0.00    -0.348 A  
ENDBRANCH  23  32
ENDBRANCH  17  18
ENDBRANCH   2  17
TORSDOF 6
ENDMDL
MODEL       20
REMARK 921   NORMALIZED FREE ENERGY PREDICTED BY IDOCK:   -7.60 KCAL/MOL
REMARK 922        TOTAL FREE ENERGY PREDICTED BY IDOCK:  -12.40 KCAL/MOL
REMARK 923 INTER-LIGAND FREE ENERGY PREDICTED BY IDOCK:  -11.64 KCAL/MOL
REMARK 924 INTRA-LIGAND FREE ENERGY PREDICTED BY IDOCK:   -0.76 KCAL/MOL
REMARK 927      BINDING AFFINITY PREDICTED BY RF-SCORE:    0.00 PKD
ROOT
HETATM    1  C   UNL     1      -8.459   8.482  68.399  1.00  0.00    -0.138 C  
HETATM    2  C   UNL     1      -9.073   9.558  69.306  1.00  0.00    -0.161 C  
ENDROOT
BRANCH   2   3
HETATM    3  C   UNL     1      -9.995   8.986  70.396  1.00  0.00    -0.244 A  
HETATM    4  C   UNL     1     -11.247   9.558  70.692  1.00  0.00    -0.364 A  
HETATM    5  C   UNL     1      -9.594   7.866  71.147  1.00  0.00    -0.181 A  
HETATM    6  F   UNL     1     -14.226   9.717  70.891  1.00  0.00    -0.270 F  
HETATM    7  F   UNL     1     -14.122   9.116  72.977  1.00  0.00    -0.414 F  
HETATM    8  C   UNL     1     -10.411   7.332  72.164  1.00  0.00    -0.233 A  
HETATM    9  C   UNL     1      -9.968   6.144  72.987  1.00  0.00    -0.176 C  
HETATM   10  C   UNL     1     -11.654   7.930  72.431  1.00  0.00    -0.436 A  
HETATM   11  F   UNL     1     -13.274  11.016  72.350  1.00  0.00    -0.551 F  
HETATM   12  F   UNL     1      -8.758   5.639  72.616  1.00  0.00    -0.122 F  
HETATM   13  F   UNL     1      -9.862   6.438  74.311  1.00  0.00    -0.188 F  
HETATM   14  F   UNL     1     -10.843   5.101  72.908  1.00  0.00    -0.237 F  
HETATM   15  C   UNL     1     -13.409   9.713  71.981  1.00  0.00    -0.457 C  
HETATM   16  C   UNL     1     -12.081   9.046  71.701  1.00  0.00    -0.422 A  
ENDBRANCH   2   3
BRANCH   2  17
HETATM   17  O   UNL     1      -9.593  10.690  68.563  1.00  0.00    -0.161 OA 
BRANCH  17  18
HETATM   18  C   UNL     1     -10.555  10.385  67.545  1.00  0.00    -0.262 C  
HETATM   19  C   UNL     1     -11.722  12.873  66.676  1.00  0.00    -0.390 C  
HETATM   20  C   UNL     1     -11.885  12.245  68.056  1.00  0.00    -0.305 C  
HETATM   21  O   UNL     1     -11.862  10.815  67.957  1.00  0.00    -0.546 OA 
HETATM   22  N   UNL     1     -10.445  12.506  66.000  1.00  0.00    -0.253 NA 
HETATM   23  C   UNL     1     -10.289  11.003  66.090  1.00  0.00    -0.251 C  
BRANCH  22  24
HETATM   24  C   UNL     1     -10.540  12.930  64.574  1.00  0.00    -0.382 C  
BRANCH  24  25
HETATM   25  C   UNL     1     -11.096  14.329  64.444  1.00  0.00    -0.220 C  
HETATM   26  N   UNL     1     -10.446  15.381  64.974  1.00  0.00    -0.408 NA 
HETATM   27  N   UNL     1     -12.203  14.635  63.823  1.00  0.00    -1.048 NA 
HETATM   28  O   UNL     1     -10.915  17.643  64.903  1.00  0.00    -0.886 OA 
HETATM   29  C   UNL     1     -11.176  16.482  64.648  1.00  0.00    -0.115 C  
HETATM   30  N   UNL     1     -12.276  15.999  63.951  1.00  0.00    -0.803 NA 
HETATM   31  H   UNL     1     -12.857  14.009  63.355  1.00  0.00     0.000 HD 
ENDBRANCH  24  25
ENDBRANCH  22  24
BRANCH  23  32
HETATM   32  C   UNL     1      -9.043  10.469  65.377  1.00  0.00    -0.215 A  
HETATM   33  C   UNL     1      -6.824   9.664  63.842  1.00  0.00    -0.113 A  
HETATM   34  F   UNL     1      -5.768   9.318  63.098  1.00  0.00    -0.080 F  
HETATM   35  C   UNL     1      -7.739  10.766  65.799  1.00  0.00    -0.094 A  
HETATM   36  C   UNL     1      -8.102   9.336  63.417  1.00  0.00    -0.161 A  
HETATM   37  C   UNL     1      -6.635  10.368  65.031  1.00  0.00    -0.075 A  
HETATM   38  C   UNL     1      -9.204   9.731  64.181  1.00  0.00    -0.277 A  
ENDBRANCH  23  32
ENDBRANCH  17  18
ENDBRANCH   2  17
TORSDOF 6
ENDMDL
MODEL       21
REMARK 921   NORMALIZED FREE ENERGY PREDICTED BY IDOCK:   -7.60 KCAL/MOL
REMARK 922        TOTAL FREE ENERGY PREDICTED BY IDOCK:  -12.39 KCAL/MOL
REMARK 923 INTER-LIGAND FREE ENERGY PREDICTED BY IDOCK:   -8.92 KCAL/MOL
REMARK 924 INTRA-LIGAND FREE ENERGY PREDICTED BY IDOCK:   -3.47 KCAL/MOL
REMARK 927      BINDING AFFINITY PREDICTED BY RF-SCORE:    0.00 PKD
ROOT
HETATM    1  C   UNL     1      -5.395  11.950  66.980  1.00  0.00    -0.112 C  
HETATM    2  C   UNL     1      -6.532  12.469  67.871  1.00  0.00    -0.105 C  
ENDROOT
BRANCH   2   3
HETATM    3  C   UNL     1      -7.919  11.945  67.460  1.00  0.00    -0.155 A  
HETATM    4  C   UNL     1      -8.359  11.964  66.123  1.00  0.00     0.167 A  
HETATM    5  C   UNL     1      -8.803  11.441  68.432  1.00  0.00    -0.167 A  
HETATM    6  F   UNL     1      -9.226  10.838  63.492  1.00  0.00    -0.188 F  
HETATM    7  F   UNL     1     -11.307  11.078  64.072  1.00  0.00    -0.372 F  
HETATM    8  C   UNL     1     -10.086  10.972  68.086  1.00  0.00    -0.195 A  
HETATM    9  C   UNL     1     -11.044  10.454  69.135  1.00  0.00    -0.246 C  
HETATM   10  C   UNL     1     -10.490  11.006  66.741  1.00  0.00    -0.300 A  
HETATM   11  F   UNL     1     -10.046  12.827  63.801  1.00  0.00    -0.413 F  
HETATM   12  F   UNL     1     -10.527  10.449  70.395  1.00  0.00    -0.322 F  
HETATM   13  F   UNL     1     -12.189  11.187  69.201  1.00  0.00    -0.370 F  
HETATM   14  F   UNL     1     -11.438   9.172  68.891  1.00  0.00     0.042 F  
HETATM   15  C   UNL     1     -10.053  11.560  64.298  1.00  0.00    -0.291 C  
HETATM   16  C   UNL     1      -9.634  11.502  65.750  1.00  0.00    -0.259 A  
ENDBRANCH   2   3
BRANCH   2  17
HETATM   17  O   UNL     1      -6.441  13.894  68.127  1.00  0.00    -0.096 OA 
BRANCH  17  18
HETATM   18  C   UNL     1      -7.124  14.366  69.297  1.00  0.00    -0.124 C  
HETATM   19  C   UNL     1      -6.598  17.191  69.530  1.00  0.00    -0.181 C  
HETATM   20  C   UNL     1      -5.569  16.076  69.678  1.00  0.00    -0.130 C  
HETATM   21  O   UNL     1      -6.180  14.905  70.234  1.00  0.00    -0.156 OA 
HETATM   22  N   UNL     1      -7.741  16.834  68.641  1.00  0.00    -0.220 NA 
HETATM   23  C   UNL     1      -8.257  15.477  69.073  1.00  0.00    -0.227 C  
BRANCH  22  24
HETATM   24  C   UNL     1      -8.800  17.868  68.815  1.00  0.00    -0.199 C  
BRANCH  24  25
HETATM   25  C   UNL     1      -9.108  18.575  67.515  1.00  0.00    -0.279 C  
HETATM   26  N   UNL     1     -10.371  18.667  67.062  1.00  0.00    -0.384 NA 
HETATM   27  N   UNL     1      -8.217  19.144  66.749  1.00  0.00    -0.269 NA 
HETATM   28  O   UNL     1     -11.240  19.733  65.205  1.00  0.00    -0.329 OA 
HETATM   29  C   UNL     1     -10.311  19.389  65.910  1.00  0.00    -0.451 C  
HETATM   30  N   UNL     1      -8.961  19.660  65.719  1.00  0.00    -0.351 NA 
HETATM   31  H   UNL     1      -7.207  19.195  66.886  1.00  0.00     0.000 HD 
ENDBRANCH  24  25
ENDBRANCH  22  24
BRANCH  23  32
HETATM   32  C   UNL     1      -9.482  15.005  68.284  1.00  0.00    -0.196 A  
HETATM   33  C   UNL     1     -11.879  14.361  66.955  1.00  0.00    -0.410 A  
HETATM   34  F   UNL     1     -13.026  14.094  66.321  1.00  0.00    -0.445 F  
HETATM   35  C   UNL     1      -9.569  15.098  66.887  1.00  0.00    -0.252 A  
HETATM   36  C   UNL     1     -11.809  14.235  68.333  1.00  0.00    -0.373 A  
HETATM   37  C   UNL     1     -10.765  14.781  66.227  1.00  0.00    -0.313 A  
HETATM   38  C   UNL     1     -10.618  14.551  68.993  1.00  0.00    -0.250 A  
ENDBRANCH  23  32
ENDBRANCH  17  18
ENDBRANCH   2  17
TORSDOF 6
ENDMDL
MODEL       22
REMARK 921   NORMALIZED FREE ENERGY PREDICTED BY IDOCK:   -7.55 KCAL/MOL
REMARK 922        TOTAL FREE ENERGY PREDICTED BY IDOCK:  -12.33 KCAL/MOL
REMARK 923 INTER-LIGAND FREE ENERGY PREDICTED BY IDOCK:  -10.17 KCAL/MOL
REMARK 924 INTRA-LIGAND FREE ENERGY PREDICTED BY IDOCK:   -2.16 KCAL/MOL
REMARK 927      BINDING AFFINITY PREDICTED BY RF-SCORE:    0.00 PKD
ROOT
HETATM    1  C   UNL     1     -13.780   9.463  72.097  1.00  0.00    -0.490 C  
HETATM    2  C   UNL     1     -12.365   9.898  71.689  1.00  0.00    -0.406 C  
ENDROOT
BRANCH   2   3
HETATM    3  C   UNL     1     -12.328  11.257  70.968  1.00  0.00    -0.472 A  
HETATM    4  C   UNL     1     -11.825  11.395  69.660  1.00  0.00    -0.431 A  
HETATM    5  C   UNL     1     -12.788  12.416  71.618  1.00  0.00    -0.375 A  
HETATM    6  F   UNL     1     -11.903  11.955  66.723  1.00  0.00    -0.394 F  
HETATM    7  F   UNL     1     -11.223  13.987  67.090  1.00  0.00    -0.285 F  
HETATM    8  C   UNL     1     -12.748  13.677  70.988  1.00  0.00    -0.408 A  
HETATM    9  C   UNL     1     -13.220  14.926  71.696  1.00  0.00    -0.359 C  
HETATM   10  C   UNL     1     -12.240  13.776  69.681  1.00  0.00    -0.359 A  
HETATM   11  F   UNL     1      -9.918  12.307  67.535  1.00  0.00    -0.192 F  
HETATM   12  F   UNL     1     -13.713  14.696  72.946  1.00  0.00    -0.501 F  
HETATM   13  F   UNL     1     -12.228  15.845  71.847  1.00  0.00    -0.382 F  
HETATM   14  F   UNL     1     -14.216  15.564  71.018  1.00  0.00    -0.532 F  
HETATM   15  C   UNL     1     -11.211  12.727  67.608  1.00  0.00    -0.280 C  
HETATM   16  C   UNL     1     -11.774  12.640  69.008  1.00  0.00    -0.367 A  
ENDBRANCH   2   3
BRANCH   2  17
HETATM   17  O   UNL     1     -11.604   8.830  71.071  1.00  0.00    -0.277 OA 
BRANCH  17  18
HETATM   18  C   UNL     1     -10.194   8.831  71.331  1.00  0.00    -0.280 C  
HETATM   19  C   UNL     1      -9.423   6.129  71.973  1.00  0.00    -0.152 C  
HETATM   20  C   UNL     1     -10.329   7.022  72.813  1.00  0.00    -0.222 C  
HETATM   21  O   UNL     1      -9.941   8.395  72.676  1.00  0.00    -0.288 OA 
HETATM   22  N   UNL     1      -9.459   6.446  70.516  1.00  0.00    -0.162 NA 
HETATM   23  C   UNL     1      -9.278   7.942  70.363  1.00  0.00    -0.158 C  
BRANCH  22  24
HETATM   24  C   UNL     1      -8.333   5.722  69.860  1.00  0.00    -0.119 C  
BRANCH  24  25
HETATM   25  C   UNL     1      -8.833   4.671  68.895  1.00  0.00    -0.099 C  
HETATM   26  N   UNL     1      -8.721   4.845  67.566  1.00  0.00    -0.104 NA 
HETATM   27  N   UNL     1      -9.386   3.542  69.247  1.00  0.00    -0.162 NA 
HETATM   28  O   UNL     1      -9.267   3.452  65.805  1.00  0.00    -0.148 OA 
HETATM   29  C   UNL     1      -9.218   3.716  66.991  1.00  0.00    -0.186 C  
HETATM   30  N   UNL     1      -9.646   2.925  68.050  1.00  0.00    -0.148 NA 
HETATM   31  H   UNL     1      -9.578   3.199  70.189  1.00  0.00     0.000 HD 
ENDBRANCH  24  25
ENDBRANCH  22  24
BRANCH  23  32
HETATM   32  C   UNL     1      -9.230   8.410  68.905  1.00  0.00    -0.147 A  
HETATM   33  C   UNL     1      -9.379   9.431  66.286  1.00  0.00    -0.198 A  
HETATM   34  F   UNL     1      -9.464   9.950  65.056  1.00  0.00    -0.247 F  
HETATM   35  C   UNL     1      -8.219   9.244  68.407  1.00  0.00    -0.115 A  
HETATM   36  C   UNL     1     -10.377   8.586  66.746  1.00  0.00    -0.346 A  
HETATM   37  C   UNL     1      -8.297   9.756  67.103  1.00  0.00    -0.121 A  
HETATM   38  C   UNL     1     -10.301   8.075  68.045  1.00  0.00    -0.262 A  
ENDBRANCH  23  32
ENDBRANCH  17  18
ENDBRANCH   2  17
TORSDOF 6
ENDMDL
MODEL       23
REMARK 921   NORMALIZED FREE ENERGY PREDICTED BY IDOCK:   -7.39 KCAL/MOL
REMARK 922        TOTAL FREE ENERGY PREDICTED BY IDOCK:  -12.12 KCAL/MOL
REMARK 923 INTER-LIGAND FREE ENERGY PREDICTED BY IDOCK:   -9.38 KCAL/MOL
REMARK 924 INTRA-LIGAND FREE ENERGY PREDICTED BY IDOCK:   -2.74 KCAL/MOL
REMARK 927      BINDING AFFINITY PREDICTED BY RF-SCORE:    0.00 PKD
ROOT
HETATM    1  C   UNL     1     -12.055  11.750  63.553  1.00  0.00    -0.485 C  
HETATM    2  C   UNL     1     -10.767  12.179  64.272  1.00  0.00    -0.338 C  
ENDROOT
BRANCH   2   3
HETATM    3  C   UNL     1      -9.824  11.006  64.588  1.00  0.00    -0.338 A  
HETATM    4  C   UNL     1      -8.519  10.934  64.063  1.00  0.00     0.111 A  
HETATM    5  C   UNL     1     -10.256   9.951  65.412  1.00  0.00    -0.149 A  
HETATM    6  F   UNL     1      -5.529  10.901  64.107  1.00  0.00    -0.155 F  
HETATM    7  F   UNL     1      -5.550   8.727  64.082  1.00  0.00    -0.060 F  
HETATM    8  C   UNL     1      -9.419   8.854  65.704  1.00  0.00    -0.230 A  
HETATM    9  C   UNL     1      -9.894   7.709  66.568  1.00  0.00    -0.172 C  
HETATM   10  C   UNL     1      -8.123   8.817  65.162  1.00  0.00    -0.133 A  
HETATM   11  F   UNL     1      -6.299   9.841  62.372  1.00  0.00    -0.099 F  
HETATM   12  F   UNL     1     -11.157   7.874  67.053  1.00  0.00    -0.360 F  
HETATM   13  F   UNL     1      -9.899   6.522  65.903  1.00  0.00    -0.071 F  
HETATM   14  F   UNL     1      -9.100   7.519  67.660  1.00  0.00    -0.126 F  
HETATM   15  C   UNL     1      -6.278   9.825  63.733  1.00  0.00    -0.116 C  
HETATM   16  C   UNL     1      -7.664   9.852  64.337  1.00  0.00    -0.142 A  
ENDBRANCH   2   3
BRANCH   2  17
HETATM   17  O   UNL     1     -11.012  13.108  65.358  1.00  0.00    -0.275 OA 
BRANCH  17  18
HETATM   18  C   UNL     1      -9.854  13.748  65.911  1.00  0.00    -0.260 C  
HETATM   19  C   UNL     1     -10.747  16.091  67.332  1.00  0.00    -0.306 C  
HETATM   20  C   UNL     1     -10.823  15.879  65.824  1.00  0.00    -0.254 C  
HETATM   21  O   UNL     1      -9.723  15.075  65.379  1.00  0.00    -0.316 OA 
HETATM   22  N   UNL     1     -10.792  14.823  68.116  1.00  0.00    -0.248 NA 
HETATM   23  C   UNL     1      -9.786  13.867  67.508  1.00  0.00    -0.236 C  
BRANCH  22  24
HETATM   24  C   UNL     1     -10.416  15.138  69.523  1.00  0.00    -0.260 C  
BRANCH  24  25
HETATM   25  C   UNL     1     -11.634  15.371  70.387  1.00  0.00    -0.324 C  
HETATM   26  N   UNL     1     -11.508  15.656  71.696  1.00  0.00    -0.417 NA 
HETATM   27  N   UNL     1     -12.867  15.330  69.960  1.00  0.00    -0.643 NA 
HETATM   28  O   UNL     1     -13.097  16.164  73.295  1.00  0.00    -0.526 OA 
HETATM   29  C   UNL     1     -12.770  15.849  72.166  1.00  0.00    -0.436 C  
HETATM   30  N   UNL     1     -13.604  15.622  71.078  1.00  0.00    -0.545 NA 
HETATM   31  H   UNL     1     -13.202  15.129  69.017  1.00  0.00     0.000 HD 
ENDBRANCH  24  25
ENDBRANCH  22  24
BRANCH  23  32
HETATM   32  C   UNL     1      -9.675  12.535  68.254  1.00  0.00    -0.220 A  
HETATM   33  C   UNL     1      -9.611   9.963  69.398  1.00  0.00    -0.215 A  
HETATM   34  F   UNL     1      -9.576   8.726  69.906  1.00  0.00    -0.165 F  
HETATM   35  C   UNL     1      -8.454  11.874  68.453  1.00  0.00    -0.155 A  
HETATM   36  C   UNL     1     -10.828  10.606  69.236  1.00  0.00    -0.282 A  
HETATM   37  C   UNL     1      -8.424  10.591  69.020  1.00  0.00    -0.159 A  
HETATM   38  C   UNL     1     -10.860  11.885  68.672  1.00  0.00    -0.273 A  
ENDBRANCH  23  32
ENDBRANCH  17  18
ENDBRANCH   2  17
TORSDOF 6
ENDMDL
MODEL       24
REMARK 921   NORMALIZED FREE ENERGY PREDICTED BY IDOCK:   -7.37 KCAL/MOL
REMARK 922        TOTAL FREE ENERGY PREDICTED BY IDOCK:  -12.09 KCAL/MOL
REMARK 923 INTER-LIGAND FREE ENERGY PREDICTED BY IDOCK:  -10.77 KCAL/MOL
REMARK 924 INTRA-LIGAND FREE ENERGY PREDICTED BY IDOCK:   -1.32 KCAL/MOL
REMARK 927      BINDING AFFINITY PREDICTED BY RF-SCORE:    0.00 PKD
ROOT
HETATM    1  C   UNL     1      -6.883  14.377  67.579  1.00  0.00    -0.162 C  
HETATM    2  C   UNL     1      -8.344  13.904  67.541  1.00  0.00    -0.196 C  
ENDROOT
BRANCH   2   3
HETATM    3  C   UNL     1      -9.351  14.996  67.940  1.00  0.00    -0.183 A  
HETATM    4  C   UNL     1      -9.482  16.194  67.212  1.00  0.00    -0.231 A  
HETATM    5  C   UNL     1     -10.167  14.827  69.073  1.00  0.00    -0.237 A  
HETATM    6  F   UNL     1     -10.817  18.229  65.475  1.00  0.00    -0.453 F  
HETATM    7  F   UNL     1     -11.396  19.359  67.239  1.00  0.00    -0.542 F  
HETATM    8  C   UNL     1     -11.086  15.820  69.473  1.00  0.00    -0.306 A  
HETATM    9  C   UNL     1     -11.944  15.648  70.705  1.00  0.00    -0.402 C  
HETATM   10  C   UNL     1     -11.190  17.002  68.720  1.00  0.00     0.043 A  
HETATM   11  F   UNL     1      -9.295  19.146  66.728  1.00  0.00    -0.285 F  
HETATM   12  F   UNL     1     -11.771  14.451  71.333  1.00  0.00    -0.369 F  
HETATM   13  F   UNL     1     -11.705  16.602  71.644  1.00  0.00    -0.475 F  
HETATM   14  F   UNL     1     -13.277  15.728  70.425  1.00  0.00    -0.431 F  
HETATM   15  C   UNL     1     -10.476  18.470  66.772  1.00  0.00    -0.394 C  
HETATM   16  C   UNL     1     -10.390  17.200  67.588  1.00  0.00    -0.344 A  
ENDBRANCH   2   3
BRANCH   2  17
HETATM   17  O   UNL     1      -8.532  12.608  68.164  1.00  0.00    -0.165 OA 
BRANCH  17  18
HETATM   18  C   UNL     1      -8.037  11.480  67.430  1.00  0.00    -0.146 C  
HETATM   19  C   UNL     1      -8.768   9.103  68.887  1.00  0.00    -0.132 C  
HETATM   20  C   UNL     1      -7.782  10.168  69.354  1.00  0.00    -0.138 C  
HETATM   21  O   UNL     1      -7.102  10.742  68.231  1.00  0.00    -0.074 OA 
HETATM   22  N   UNL     1      -9.817   9.624  67.964  1.00  0.00    -0.146 NA 
HETATM   23  C   UNL     1      -9.125  10.435  66.888  1.00  0.00    -0.143 C  
BRANCH  22  24
HETATM   24  C   UNL     1     -10.518   8.457  67.358  1.00  0.00    -0.283 C  
BRANCH  24  25
HETATM   25  C   UNL     1     -10.622   7.303  68.329  1.00  0.00    -0.172 C  
HETATM   26  N   UNL     1      -9.915   6.175  68.137  1.00  0.00    -0.134 NA 
HETATM   27  N   UNL     1     -11.367   7.299  69.401  1.00  0.00    -0.476 NA 
HETATM   28  O   UNL     1      -9.734   4.265  69.426  1.00  0.00    -0.192 OA 
HETATM   29  C   UNL     1     -10.197   5.366  69.194  1.00  0.00    -0.232 C  
HETATM   30  N   UNL     1     -11.117   6.072  69.960  1.00  0.00    -0.377 NA 
HETATM   31  H   UNL     1     -11.986   8.034  69.742  1.00  0.00     0.000 HD 
ENDBRANCH  24  25
ENDBRANCH  22  24
BRANCH  23  32
HETATM   32  C   UNL     1     -10.079  10.986  65.824  1.00  0.00    -0.305 A  
HETATM   33  C   UNL     1     -11.733  12.264  63.939  1.00  0.00    -0.451 A  
HETATM   34  F   UNL     1     -12.491  12.898  63.037  1.00  0.00    -0.553 F  
HETATM   35  C   UNL     1      -9.891  10.773  64.451  1.00  0.00    -0.374 A  
HETATM   36  C   UNL     1     -11.956  12.470  65.291  1.00  0.00    -0.490 A  
HETATM   37  C   UNL     1     -10.714  11.414  63.512  1.00  0.00    -0.453 A  
HETATM   38  C   UNL     1     -11.138  11.832  66.228  1.00  0.00    -0.364 A  
ENDBRANCH  23  32
ENDBRANCH  17  18
ENDBRANCH   2  17
TORSDOF 6
ENDMDL
MODEL       25
REMARK 921   NORMALIZED FREE ENERGY PREDICTED BY IDOCK:   -7.37 KCAL/MOL
REMARK 922        TOTAL FREE ENERGY PREDICTED BY IDOCK:  -12.09 KCAL/MOL
REMARK 923 INTER-LIGAND FREE ENERGY PREDICTED BY IDOCK:  -12.44 KCAL/MOL
REMARK 924 INTRA-LIGAND FREE ENERGY PREDICTED BY IDOCK:    0.36 KCAL/MOL
REMARK 927      BINDING AFFINITY PREDICTED BY RF-SCORE:    0.00 PKD
ROOT
HETATM    1  C   UNL     1     -10.549  10.837  67.251  1.00  0.00    -0.304 C  
HETATM    2  C   UNL     1     -10.167  11.560  68.551  1.00  0.00    -0.213 C  
ENDROOT
BRANCH   2   3
HETATM    3  C   UNL     1     -11.186  11.358  69.686  1.00  0.00    -0.301 A  
HETATM    4  C   UNL     1     -11.890  12.434  70.258  1.00  0.00    -0.315 A  
HETATM    5  C   UNL     1     -11.429  10.070  70.198  1.00  0.00    -0.344 A  
HETATM    6  F   UNL     1     -14.266  14.110  70.958  1.00  0.00    -0.267 F  
HETATM    7  F   UNL     1     -14.388  13.133  72.896  1.00  0.00    -0.414 F  
HETATM    8  C   UNL     1     -12.343   9.858  71.250  1.00  0.00    -0.478 A  
HETATM    9  C   UNL     1     -12.584   8.478  71.817  1.00  0.00    -0.346 C  
HETATM   10  C   UNL     1     -13.029  10.956  71.796  1.00  0.00    -0.557 A  
HETATM   11  F   UNL     1     -12.669  14.370  72.410  1.00  0.00    -0.366 F  
HETATM   12  F   UNL     1     -11.881   7.495  71.187  1.00  0.00    -0.286 F  
HETATM   13  F   UNL     1     -12.255   8.391  73.134  1.00  0.00    -0.328 F  
HETATM   14  F   UNL     1     -13.893   8.105  71.737  1.00  0.00    -0.355 F  
HETATM   15  C   UNL     1     -13.525  13.448  71.890  1.00  0.00    -0.441 C  
HETATM   16  C   UNL     1     -12.808  12.250  71.308  1.00  0.00    -0.337 A  
ENDBRANCH   2   3
BRANCH   2  17
HETATM   17  O   UNL     1      -9.727  12.924  68.328  1.00  0.00    -0.219 OA 
BRANCH  17  18
HETATM   18  C   UNL     1     -10.751  13.928  68.359  1.00  0.00    -0.257 C  
HETATM   19  C   UNL     1      -9.474  16.486  67.994  1.00  0.00    -0.222 C  
HETATM   20  C   UNL     1      -9.306  15.568  69.200  1.00  0.00    -0.250 C  
HETATM   21  O   UNL     1     -10.515  14.839  69.443  1.00  0.00    -0.237 OA 
HETATM   22  N   UNL     1      -9.804  15.761  66.734  1.00  0.00    -0.238 NA 
HETATM   23  C   UNL     1     -10.942  14.807  67.032  1.00  0.00    -0.324 C  
BRANCH  22  24
HETATM   24  C   UNL     1     -10.230  16.768  65.721  1.00  0.00    -0.291 C  
BRANCH  24  25
HETATM   25  C   UNL     1      -9.756  18.157  66.083  1.00  0.00    -0.210 C  
HETATM   26  N   UNL     1      -8.449  18.475  66.031  1.00  0.00    -0.501 NA 
HETATM   27  N   UNL     1     -10.536  19.136  66.452  1.00  0.00    -0.439 NA 
HETATM   28  O   UNL     1      -7.364  20.481  66.407  1.00  0.00    -0.249 OA 
HETATM   29  C   UNL     1      -8.365  19.791  66.369  1.00  0.00    -0.350 C  
HETATM   30  N   UNL     1      -9.670  20.181  66.648  1.00  0.00    -0.425 NA 
HETATM   31  H   UNL     1     -11.550  19.126  66.568  1.00  0.00     0.000 HD 
ENDBRANCH  24  25
ENDBRANCH  22  24
BRANCH  23  32
HETATM   32  C   UNL     1     -11.434  14.033  65.806  1.00  0.00    -0.318 A  
HETATM   33  C   UNL     1     -12.186  12.381  63.654  1.00  0.00    -0.557 A  
HETATM   34  F   UNL     1     -12.544  11.566  62.656  1.00  0.00    -0.318 F  
HETATM   35  C   UNL     1     -12.774  13.657  65.631  1.00  0.00    -0.505 A  
HETATM   36  C   UNL     1     -10.860  12.761  63.790  1.00  0.00    -0.416 A  
HETATM   37  C   UNL     1     -13.146  12.830  64.561  1.00  0.00    -0.048 A  
HETATM   38  C   UNL     1     -10.487  13.586  64.856  1.00  0.00    -0.417 A  
ENDBRANCH  23  32
ENDBRANCH  17  18
ENDBRANCH   2  17
TORSDOF 6
ENDMDL
MODEL       26
REMARK 921   NORMALIZED FREE ENERGY PREDICTED BY IDOCK:   -7.37 KCAL/MOL
REMARK 922        TOTAL FREE ENERGY PREDICTED BY IDOCK:  -12.08 KCAL/MOL
REMARK 923 INTER-LIGAND FREE ENERGY PREDICTED BY IDOCK:  -11.23 KCAL/MOL
REMARK 924 INTRA-LIGAND FREE ENERGY PREDICTED BY IDOCK:   -0.86 KCAL/MOL
REMARK 927      BINDING AFFINITY PREDICTED BY RF-SCORE:    0.00 PKD
ROOT
HETATM    1  C   UNL     1     -11.563  14.630  65.729  1.00  0.00    -0.328 C  
HETATM    2  C   UNL     1     -11.148  14.826  67.194  1.00  0.00    -0.333 C  
ENDROOT
BRANCH   2   3
HETATM    3  C   UNL     1     -10.132  15.963  67.396  1.00  0.00    -0.252 A  
HETATM    4  C   UNL     1      -8.883  15.749  68.009  1.00  0.00    -0.176 A  
HETATM    5  C   UNL     1     -10.441  17.271  66.979  1.00  0.00    -0.287 A  
HETATM    6  F   UNL     1      -5.904  15.580  68.207  1.00  0.00    -0.090 F  
HETATM    7  F   UNL     1      -5.840  17.597  69.015  1.00  0.00    -0.167 F  
HETATM    8  C   UNL     1      -9.536  18.336  67.168  1.00  0.00    -0.281 A  
HETATM    9  C   UNL     1      -9.879  19.745  66.743  1.00  0.00    -0.411 C  
HETATM   10  C   UNL     1      -8.298  18.084  67.784  1.00  0.00    -0.249 A  
HETATM   11  F   UNL     1      -6.794  16.004  70.144  1.00  0.00    -0.126 F  
HETATM   12  F   UNL     1     -11.094  19.855  66.137  1.00  0.00    -0.493 F  
HETATM   13  F   UNL     1      -9.901  20.614  67.790  1.00  0.00    -0.529 F  
HETATM   14  F   UNL     1      -8.976  20.255  65.857  1.00  0.00    -0.338 F  
HETATM   15  C   UNL     1      -6.641  16.502  68.886  1.00  0.00    -0.173 C  
HETATM   16  C   UNL     1      -7.962  16.793  68.210  1.00  0.00    -0.200 A  
ENDBRANCH   2   3
BRANCH   2  17
HETATM   17  O   UNL     1     -10.846  13.577  67.866  1.00  0.00    -0.239 OA 
BRANCH  17  18
HETATM   18  C   UNL     1     -11.952  12.687  68.066  1.00  0.00    -0.245 C  
HETATM   19  C   UNL     1     -10.876  10.086  68.687  1.00  0.00    -0.229 C  
HETATM   20  C   UNL     1     -10.745  10.810  67.352  1.00  0.00    -0.268 C  
HETATM   21  O   UNL     1     -11.904  11.618  67.108  1.00  0.00    -0.608 OA 
HETATM   22  N   UNL     1     -11.017  11.005  69.853  1.00  0.00    -0.205 NA 
HETATM   23  C   UNL     1     -12.090  12.019  69.516  1.00  0.00    -0.212 C  
BRANCH  22  24
HETATM   24  C   UNL     1     -11.429  10.192  71.033  1.00  0.00    -0.354 C  
BRANCH  24  25
HETATM   25  C   UNL     1     -10.309   9.298  71.513  1.00  0.00    -0.294 C  
HETATM   26  N   UNL     1     -10.570   8.190  72.229  1.00  0.00    -0.283 NA 
HETATM   27  N   UNL     1      -9.042   9.504  71.278  1.00  0.00    -0.326 NA 
HETATM   28  O   UNL     1      -9.163   6.548  73.044  1.00  0.00    -0.133 OA 
HETATM   29  C   UNL     1      -9.368   7.596  72.462  1.00  0.00    -0.163 C  
HETATM   30  N   UNL     1      -8.426   8.437  71.882  1.00  0.00    -0.163 NA 
HETATM   31  H   UNL     1      -8.611  10.274  70.767  1.00  0.00     0.000 HD 
ENDBRANCH  24  25
ENDBRANCH  22  24
BRANCH  23  32
HETATM   32  C   UNL     1     -12.391  12.998  70.655  1.00  0.00    -0.391 A  
HETATM   33  C   UNL     1     -13.044  14.982  72.542  1.00  0.00    -0.388 A  
HETATM   34  F   UNL     1     -13.385  15.935  73.417  1.00  0.00    -0.557 F  
HETATM   35  C   UNL     1     -13.398  12.774  71.605  1.00  0.00    -0.345 A  
HETATM   36  C   UNL     1     -12.027  15.218  71.631  1.00  0.00    -0.437 A  
HETATM   37  C   UNL     1     -13.724  13.765  72.542  1.00  0.00    -0.667 A  
HETATM   38  C   UNL     1     -11.699  14.231  70.696  1.00  0.00    -0.287 A  
ENDBRANCH  23  32
ENDBRANCH  17  18
ENDBRANCH   2  17
TORSDOF 6
ENDMDL
MODEL       27
REMARK 921   NORMALIZED FREE ENERGY PREDICTED BY IDOCK:   -7.34 KCAL/MOL
REMARK 922        TOTAL FREE ENERGY PREDICTED BY IDOCK:  -12.05 KCAL/MOL
REMARK 923 INTER-LIGAND FREE ENERGY PREDICTED BY IDOCK:  -11.43 KCAL/MOL
REMARK 924 INTRA-LIGAND FREE ENERGY PREDICTED BY IDOCK:   -0.62 KCAL/MOL
REMARK 927      BINDING AFFINITY PREDICTED BY RF-SCORE:    0.00 PKD
ROOT
HETATM    1  C   UNL     1      -7.187  12.447  68.135  1.00  0.00    -0.100 C  
HETATM    2  C   UNL     1      -8.622  12.024  67.788  1.00  0.00    -0.157 C  
ENDROOT
BRANCH   2   3
HETATM    3  C   UNL     1      -9.441  13.135  67.110  1.00  0.00    -0.239 A  
HETATM    4  C   UNL     1     -10.335  12.868  66.056  1.00  0.00    -0.294 A  
HETATM    5  C   UNL     1      -9.300  14.472  67.524  1.00  0.00    -0.193 A  
HETATM    6  F   UNL     1     -12.976  12.662  64.669  1.00  0.00    -0.505 F  
HETATM    7  F   UNL     1     -12.658  14.614  63.767  1.00  0.00    -0.423 F  
HETATM    8  C   UNL     1     -10.023  15.514  66.908  1.00  0.00    -0.251 A  
HETATM    9  C   UNL     1      -9.852  16.953  67.338  1.00  0.00    -0.261 C  
HETATM   10  C   UNL     1     -10.907  15.208  65.859  1.00  0.00    -0.342 A  
HETATM   11  F   UNL     1     -11.362  12.951  63.241  1.00  0.00    -0.499 F  
HETATM   12  F   UNL     1      -8.988  17.116  68.379  1.00  0.00    -0.225 F  
HETATM   13  F   UNL     1      -9.384  17.743  66.334  1.00  0.00    -0.261 F  
HETATM   14  F   UNL     1     -11.026  17.519  67.739  1.00  0.00    -0.369 F  
HETATM   15  C   UNL     1     -12.004  13.538  64.288  1.00  0.00    -0.432 C  
HETATM   16  C   UNL     1     -11.069  13.887  65.424  1.00  0.00    -0.310 A  
ENDBRANCH   2   3
BRANCH   2  17
HETATM   17  O   UNL     1      -9.280  11.322  68.874  1.00  0.00    -0.158 OA 
BRANCH  17  18
HETATM   18  C   UNL     1     -10.507  10.659  68.541  1.00  0.00    -0.191 C  
HETATM   19  C   UNL     1     -10.453   8.055  69.776  1.00  0.00    -0.227 C  
HETATM   20  C   UNL     1      -9.541   8.528  68.649  1.00  0.00    -0.149 C  
HETATM   21  O   UNL     1     -10.233   9.456  67.806  1.00  0.00    -0.194 OA 
HETATM   22  N   UNL     1     -10.938   9.159  70.654  1.00  0.00    -0.246 NA 
HETATM   23  C   UNL     1     -11.468  10.261  69.760  1.00  0.00    -0.256 C  
BRANCH  22  24
HETATM   24  C   UNL     1     -12.032   8.620  71.510  1.00  0.00    -0.306 C  
BRANCH  24  25
HETATM   25  C   UNL     1     -11.542   7.504  72.404  1.00  0.00    -0.309 C  
HETATM   26  N   UNL     1     -11.802   6.218  72.108  1.00  0.00    -0.331 NA 
HETATM   27  N   UNL     1     -10.842   7.677  73.492  1.00  0.00    -0.416 NA 
HETATM   28  O   UNL     1     -11.153   4.263  73.154  1.00  0.00    -0.223 OA 
HETATM   29  C   UNL     1     -11.194   5.475  73.073  1.00  0.00    -0.293 C  
HETATM   30  N   UNL     1     -10.619   6.399  73.937  1.00  0.00    -0.275 NA 
HETATM   31  H   UNL     1     -10.533   8.554  73.912  1.00  0.00     0.000 HD 
ENDBRANCH  24  25
ENDBRANCH  22  24
BRANCH  23  32
HETATM   32  C   UNL     1     -12.063  11.444  70.529  1.00  0.00    -0.487 A  
HETATM   33  C   UNL     1     -13.314  13.678  71.702  1.00  0.00    -0.346 A  
HETATM   34  F   UNL     1     -13.941  14.730  72.239  1.00  0.00    -0.426 F  
HETATM   35  C   UNL     1     -12.931  11.284  71.619  1.00  0.00    -0.537 A  
HETATM   36  C   UNL     1     -12.440  13.864  70.643  1.00  0.00    -0.436 A  
HETATM   37  C   UNL     1     -13.557  12.398  72.200  1.00  0.00    -0.405 A  
HETATM   38  C   UNL     1     -11.815  12.756  70.063  1.00  0.00    -0.352 A  
ENDBRANCH  23  32
ENDBRANCH  17  18
ENDBRANCH   2  17
TORSDOF 6
ENDMDL
MODEL       28
REMARK 921   NORMALIZED FREE ENERGY PREDICTED BY IDOCK:   -7.30 KCAL/MOL
REMARK 922        TOTAL FREE ENERGY PREDICTED BY IDOCK:  -11.99 KCAL/MOL
REMARK 923 INTER-LIGAND FREE ENERGY PREDICTED BY IDOCK:   -9.93 KCAL/MOL
REMARK 924 INTRA-LIGAND FREE ENERGY PREDICTED BY IDOCK:   -2.06 KCAL/MOL
REMARK 927      BINDING AFFINITY PREDICTED BY RF-SCORE:    0.00 PKD
ROOT
HETATM    1  C   UNL     1     -11.894  15.093  64.250  1.00  0.00    -0.263 C  
HETATM    2  C   UNL     1     -11.227  14.839  65.610  1.00  0.00    -0.343 C  
ENDROOT
BRANCH   2   3
HETATM    3  C   UNL     1     -10.285  15.972  66.050  1.00  0.00    -0.360 A  
HETATM    4  C   UNL     1     -10.710  17.313  66.122  1.00  0.00    -0.095 A  
HETATM    5  C   UNL     1      -8.946  15.693  66.381  1.00  0.00    -0.362 A  
HETATM    6  F   UNL     1     -11.400  19.918  67.418  1.00  0.00    -0.426 F  
HETATM    7  F   UNL     1      -9.419  20.680  66.946  1.00  0.00    -0.499 F  
HETATM    8  C   UNL     1      -8.056  16.714  66.770  1.00  0.00    -0.281 A  
HETATM    9  C   UNL     1      -6.612  16.416  67.101  1.00  0.00    -0.199 C  
HETATM   10  C   UNL     1      -8.517  18.040  66.831  1.00  0.00    -0.262 A  
HETATM   11  F   UNL     1     -10.811  20.206  65.345  1.00  0.00    -0.543 F  
HETATM   12  F   UNL     1      -6.294  15.093  67.029  1.00  0.00    -0.066 F  
HETATM   13  F   UNL     1      -5.744  17.056  66.270  1.00  0.00    -0.216 F  
HETATM   14  F   UNL     1      -6.275  16.810  68.362  1.00  0.00    -0.125 F  
HETATM   15  C   UNL     1     -10.357  19.773  66.553  1.00  0.00    -0.506 C  
HETATM   16  C   UNL     1      -9.844  18.351  66.507  1.00  0.00    -0.368 A  
ENDBRANCH   2   3
BRANCH   2  17
HETATM   17  O   UNL     1     -10.704  13.492  65.738  1.00  0.00    -0.270 OA 
BRANCH  17  18
HETATM   18  C   UNL     1     -11.581  12.533  66.344  1.00  0.00    -0.391 C  
HETATM   19  C   UNL     1     -10.065  10.120  66.778  1.00  0.00    -0.219 C  
HETATM   20  C   UNL     1     -10.439  10.707  65.422  1.00  0.00    -0.184 C  
HETATM   21  O   UNL     1     -11.703  11.377  65.501  1.00  0.00    -0.082 OA 
HETATM   22  N   UNL     1      -9.947  11.142  67.858  1.00  0.00    -0.170 NA 
HETATM   23  C   UNL     1     -11.185  12.014  67.807  1.00  0.00    -0.271 C  
BRANCH  22  24
HETATM   24  C   UNL     1      -9.876  10.426  69.164  1.00  0.00    -0.223 C  
BRANCH  24  25
HETATM   25  C   UNL     1      -8.464  10.386  69.701  1.00  0.00    -0.049 C  
HETATM   26  N   UNL     1      -7.463  11.013  69.057  1.00  0.00    -0.122 NA 
HETATM   27  N   UNL     1      -8.102   9.774  70.796  1.00  0.00    -0.389 NA 
HETATM   28  O   UNL     1      -5.231  11.260  69.604  1.00  0.00    -0.044 OA 
HETATM   29  C   UNL     1      -6.347  10.822  69.812  1.00  0.00    -0.104 C  
HETATM   30  N   UNL     1      -6.758  10.032  70.879  1.00  0.00    -0.331 NA 
HETATM   31  H   UNL     1      -8.682   9.233  71.438  1.00  0.00     0.000 HD 
ENDBRANCH  24  25
ENDBRANCH  22  24
BRANCH  23  32
HETATM   32  C   UNL     1     -11.234  13.077  68.908  1.00  0.00    -0.326 A  
HETATM   33  C   UNL     1     -11.366  15.229  70.718  1.00  0.00    -0.331 A  
HETATM   34  F   UNL     1     -11.455  16.269  71.554  1.00  0.00    -0.427 F  
HETATM   35  C   UNL     1     -12.284  13.166  69.833  1.00  0.00    -0.293 A  
HETATM   36  C   UNL     1     -10.304  15.149  69.831  1.00  0.00    -0.207 A  
HETATM   37  C   UNL     1     -12.350  14.242  70.732  1.00  0.00    -0.427 A  
HETATM   38  C   UNL     1     -10.235  14.078  68.935  1.00  0.00    -0.159 A  
ENDBRANCH  23  32
ENDBRANCH  17  18
ENDBRANCH   2  17
TORSDOF 6
ENDMDL
MODEL       29
REMARK 921   NORMALIZED FREE ENERGY PREDICTED BY IDOCK:   -7.29 KCAL/MOL
REMARK 922        TOTAL FREE ENERGY PREDICTED BY IDOCK:  -11.97 KCAL/MOL
REMARK 923 INTER-LIGAND FREE ENERGY PREDICTED BY IDOCK:  -11.05 KCAL/MOL
REMARK 924 INTRA-LIGAND FREE ENERGY PREDICTED BY IDOCK:   -0.93 KCAL/MOL
REMARK 927      BINDING AFFINITY PREDICTED BY RF-SCORE:    0.00 PKD
ROOT
HETATM    1  C   UNL     1      -7.079  12.588  68.192  1.00  0.00    -0.103 C  
HETATM    2  C   UNL     1      -8.484  12.134  67.771  1.00  0.00    -0.160 C  
ENDROOT
BRANCH   2   3
HETATM    3  C   UNL     1      -9.391  13.292  67.320  1.00  0.00    -0.226 A  
HETATM    4  C   UNL     1      -9.250  14.595  67.834  1.00  0.00    -0.197 A  
HETATM    5  C   UNL     1     -10.412  13.067  66.379  1.00  0.00    -0.285 A  
HETATM    6  F   UNL     1      -8.656  17.526  67.787  1.00  0.00    -0.217 F  
HETATM    7  F   UNL     1     -10.775  17.954  67.559  1.00  0.00    -0.372 F  
HETATM    8  C   UNL     1     -11.270  14.105  65.962  1.00  0.00    -0.319 A  
HETATM    9  C   UNL     1     -12.383  13.856  64.970  1.00  0.00    -0.430 C  
HETATM   10  C   UNL     1     -11.099  15.393  66.496  1.00  0.00    -0.227 A  
HETATM   11  F   UNL     1     -10.043  17.034  69.387  1.00  0.00    -0.264 F  
HETATM   12  F   UNL     1     -12.430  12.575  64.507  1.00  0.00    -0.466 F  
HETATM   13  F   UNL     1     -13.613  14.112  65.492  1.00  0.00    -0.386 F  
HETATM   14  F   UNL     1     -12.279  14.646  63.863  1.00  0.00    -0.477 F  
HETATM   15  C   UNL     1      -9.899  17.025  68.033  1.00  0.00    -0.275 C  
HETATM   16  C   UNL     1     -10.092  15.649  67.436  1.00  0.00    -0.251 A  
ENDBRANCH   2   3
BRANCH   2  17
HETATM   17  O   UNL     1      -9.073  11.190  68.700  1.00  0.00    -0.170 OA 
BRANCH  17  18
HETATM   18  C   UNL     1     -10.314  10.598  68.293  1.00  0.00    -0.177 C  
HETATM   19  C   UNL     1     -10.408   7.934  69.389  1.00  0.00    -0.220 C  
HETATM   20  C   UNL     1      -9.440   8.425  68.319  1.00  0.00    -0.138 C  
HETATM   21  O   UNL     1     -10.064   9.425  67.504  1.00  0.00    -0.187 OA 
HETATM   22  N   UNL     1     -10.878   9.010  70.307  1.00  0.00    -0.232 NA 
HETATM   23  C   UNL     1     -11.332  10.179  69.457  1.00  0.00    -0.206 C  
BRANCH  22  24
HETATM   24  C   UNL     1     -12.023   8.474  71.098  1.00  0.00    -0.272 C  
BRANCH  24  25
HETATM   25  C   UNL     1     -11.561   7.493  72.151  1.00  0.00    -0.298 C  
HETATM   26  N   UNL     1     -11.947   6.205  72.110  1.00  0.00    -0.315 NA 
HETATM   27  N   UNL     1     -10.773   7.789  73.148  1.00  0.00    -0.385 NA 
HETATM   28  O   UNL     1     -11.386   4.412  73.456  1.00  0.00    -0.296 OA 
HETATM   29  C   UNL     1     -11.333   5.590  73.157  1.00  0.00    -0.225 C  
HETATM   30  N   UNL     1     -10.623   6.594  73.805  1.00  0.00    -0.315 NA 
HETATM   31  H   UNL     1     -10.364   8.693  73.383  1.00  0.00     0.000 HD 
ENDBRANCH  24  25
ENDBRANCH  22  24
BRANCH  23  32
HETATM   32  C   UNL     1     -11.905  11.344  70.269  1.00  0.00    -0.438 A  
HETATM   33  C   UNL     1     -13.135  13.538  71.533  1.00  0.00    -0.344 A  
HETATM   34  F   UNL     1     -13.754  14.571  72.117  1.00  0.00    -0.387 F  
HETATM   35  C   UNL     1     -12.673  11.160  71.428  1.00  0.00    -0.524 A  
HETATM   36  C   UNL     1     -12.358  13.750  70.405  1.00  0.00    -0.423 A  
HETATM   37  C   UNL     1     -13.289  12.254  72.054  1.00  0.00    -0.491 A  
HETATM   38  C   UNL     1     -11.743  12.661  69.780  1.00  0.00    -0.354 A  
ENDBRANCH  23  32
ENDBRANCH  17  18
ENDBRANCH   2  17
TORSDOF 6
ENDMDL
MODEL       30
REMARK 921   NORMALIZED FREE ENERGY PREDICTED BY IDOCK:   -7.25 KCAL/MOL
REMARK 922        TOTAL FREE ENERGY PREDICTED BY IDOCK:  -11.92 KCAL/MOL
REMARK 923 INTER-LIGAND FREE ENERGY PREDICTED BY IDOCK:  -10.27 KCAL/MOL
REMARK 924 INTRA-LIGAND FREE ENERGY PREDICTED BY IDOCK:   -1.65 KCAL/MOL
REMARK 927      BINDING AFFINITY PREDICTED BY RF-SCORE:    0.00 PKD
ROOT
HETATM    1  C   UNL     1      -7.229   9.147  70.236  1.00  0.00    -0.075 C  
HETATM    2  C   UNL     1      -8.651   9.439  69.733  1.00  0.00    -0.175 C  
ENDROOT
BRANCH   2   3
HETATM    3  C   UNL     1      -9.751   8.924  70.677  1.00  0.00    -0.260 A  
HETATM    4  C   UNL     1     -10.986   9.585  70.815  1.00  0.00    -0.389 A  
HETATM    5  C   UNL     1      -9.537   7.769  71.451  1.00  0.00    -0.182 A  
HETATM    6  F   UNL     1     -13.946   9.962  70.615  1.00  0.00    -0.305 F  
HETATM    7  F   UNL     1     -14.168   9.332  72.684  1.00  0.00    -0.467 F  
HETATM    8  C   UNL     1     -10.521   7.286  72.338  1.00  0.00    -0.263 A  
HETATM    9  C   UNL     1     -10.280   6.059  73.188  1.00  0.00    -0.197 C  
HETATM   10  C   UNL     1     -11.742   7.971  72.448  1.00  0.00    -0.444 A  
HETATM   11  F   UNL     1     -13.109  11.171  72.217  1.00  0.00    -0.581 F  
HETATM   12  F   UNL     1      -9.070   5.470  72.971  1.00  0.00    -0.126 F  
HETATM   13  F   UNL     1     -10.333   6.330  74.520  1.00  0.00    -0.296 F  
HETATM   14  F   UNL     1     -11.209   5.085  72.970  1.00  0.00    -0.283 F  
HETATM   15  C   UNL     1     -13.287   9.885  71.805  1.00  0.00    -0.404 C  
HETATM   16  C   UNL     1     -11.985   9.125  71.692  1.00  0.00    -0.437 A  
ENDBRANCH   2   3
BRANCH   2  17
HETATM   17  O   UNL     1      -8.825   9.131  68.327  1.00  0.00    -0.129 OA 
BRANCH  17  18
HETATM   18  C   UNL     1      -7.777   9.573  67.452  1.00  0.00    -0.095 C  
HETATM   19  C   UNL     1      -8.610   9.022  64.748  1.00  0.00    -0.175 C  
HETATM   20  C   UNL     1      -8.289   7.979  65.813  1.00  0.00    -0.138 C  
HETATM   21  O   UNL     1      -7.268   8.465  66.694  1.00  0.00    -0.075 OA 
HETATM   22  N   UNL     1      -9.098  10.315  65.307  1.00  0.00    -0.177 NA 
HETATM   23  C   UNL     1      -8.147  10.732  66.409  1.00  0.00    -0.153 C  
BRANCH  22  24
HETATM   24  C   UNL     1      -9.089  11.324  64.210  1.00  0.00     0.037 C  
BRANCH  24  25
HETATM   25  C   UNL     1     -10.481  11.824  63.900  1.00  0.00    -0.390 C  
HETATM   26  N   UNL     1     -10.818  13.108  64.122  1.00  0.00    -0.400 NA 
HETATM   27  N   UNL     1     -11.440  11.092  63.402  1.00  0.00    -0.633 NA 
HETATM   28  O   UNL     1     -12.778  14.253  63.694  1.00  0.00    -0.783 OA 
HETATM   29  C   UNL     1     -12.106  13.240  63.704  1.00  0.00    -0.485 C  
HETATM   30  N   UNL     1     -12.484  11.972  63.278  1.00  0.00    -0.564 NA 
HETATM   31  H   UNL     1     -11.417  10.101  63.160  1.00  0.00     0.000 HD 
ENDBRANCH  24  25
ENDBRANCH  22  24
BRANCH  23  32
HETATM   32  C   UNL     1      -8.489  12.086  67.038  1.00  0.00    -0.183 A  
HETATM   33  C   UNL     1      -9.170  14.427  68.445  1.00  0.00    -0.195 A  
HETATM   34  F   UNL     1      -9.478  15.525  69.145  1.00  0.00    -0.182 F  
HETATM   35  C   UNL     1      -7.530  13.081  67.272  1.00  0.00    -0.083 A  
HETATM   36  C   UNL     1     -10.143  13.471  68.203  1.00  0.00    -0.250 A  
HETATM   37  C   UNL     1      -7.869  14.245  67.976  1.00  0.00    -0.143 A  
HETATM   38  C   UNL     1      -9.807  12.309  67.501  1.00  0.00    -0.193 A  
ENDBRANCH  23  32
ENDBRANCH  17  18
ENDBRANCH   2  17
TORSDOF 6
ENDMDL
MODEL       31
REMARK 921   NORMALIZED FREE ENERGY PREDICTED BY IDOCK:   -7.22 KCAL/MOL
REMARK 922        TOTAL FREE ENERGY PREDICTED BY IDOCK:  -11.89 KCAL/MOL
REMARK 923 INTER-LIGAND FREE ENERGY PREDICTED BY IDOCK:  -10.18 KCAL/MOL
REMARK 924 INTRA-LIGAND FREE ENERGY PREDICTED BY IDOCK:   -1.71 KCAL/MOL
REMARK 927      BINDING AFFINITY PREDICTED BY RF-SCORE:    0.00 PKD
ROOT
HETATM    1  C   UNL     1     -12.726  11.683  71.603  1.00  0.00    -0.375 C  
HETATM    2  C   UNL     1     -12.064  11.758  70.219  1.00  0.00    -0.342 C  
ENDROOT
BRANCH   2   3
HETATM    3  C   UNL     1     -11.206  10.527  69.884  1.00  0.00    -0.374 A  
HETATM    4  C   UNL     1     -11.557   9.232  70.312  1.00  0.00    -0.151 A  
HETATM    5  C   UNL     1     -10.019  10.671  69.143  1.00  0.00    -0.228 A  
HETATM    6  F   UNL     1     -12.410   6.378  70.042  1.00  0.00    -0.368 F  
HETATM    7  F   UNL     1     -10.334   5.744  70.164  1.00  0.00    -0.236 F  
HETATM    8  C   UNL     1      -9.204   9.562  68.837  1.00  0.00    -0.145 A  
HETATM    9  C   UNL     1      -7.916   9.721  68.062  1.00  0.00    -0.097 C  
HETATM   10  C   UNL     1      -9.587   8.285  69.280  1.00  0.00    -0.164 A  
HETATM   11  F   UNL     1     -11.284   6.690  71.875  1.00  0.00    -0.255 F  
HETATM   12  F   UNL     1      -7.667  11.002  67.667  1.00  0.00    -0.103 F  
HETATM   13  F   UNL     1      -6.826   9.331  68.777  1.00  0.00    -0.057 F  
HETATM   14  F   UNL     1      -7.899   8.973  66.922  1.00  0.00    -0.097 F  
HETATM   15  C   UNL     1     -11.187   6.746  70.519  1.00  0.00    -0.320 C  
HETATM   16  C   UNL     1     -10.763   8.109  70.021  1.00  0.00    -0.243 A  
ENDBRANCH   2   3
BRANCH   2  17
HETATM   17  O   UNL     1     -11.455  13.048  69.957  1.00  0.00    -0.164 OA 
BRANCH  17  18
HETATM   18  C   UNL     1     -12.320  14.052  69.408  1.00  0.00    -0.205 C  
HETATM   19  C   UNL     1     -10.955  16.583  69.612  1.00  0.00    -0.287 C  
HETATM   20  C   UNL     1     -11.452  15.740  70.781  1.00  0.00    -0.393 C  
HETATM   21  O   UNL     1     -12.639  15.028  70.412  1.00  0.00    -0.347 OA 
HETATM   22  N   UNL     1     -10.621  15.782  68.399  1.00  0.00    -0.254 NA 
HETATM   23  C   UNL     1     -11.782  14.848  68.126  1.00  0.00    -0.318 C  
BRANCH  22  24
HETATM   24  C   UNL     1     -10.440  16.725  67.259  1.00  0.00    -0.310 C  
BRANCH  24  25
HETATM   25  C   UNL     1      -9.404  17.781  67.569  1.00  0.00    -0.245 C  
HETATM   26  N   UNL     1      -8.234  17.451  68.147  1.00  0.00    -0.230 NA 
HETATM   27  N   UNL     1      -9.536  19.053  67.306  1.00  0.00    -0.308 NA 
HETATM   28  O   UNL     1      -6.392  18.741  68.679  1.00  0.00    -0.220 OA 
HETATM   29  C   UNL     1      -7.521  18.606  68.247  1.00  0.00    -0.281 C  
HETATM   30  N   UNL     1      -8.354  19.595  67.739  1.00  0.00    -0.304 NA 
HETATM   31  H   UNL     1     -10.331  19.529  66.879  1.00  0.00     0.000 HD 
ENDBRANCH  24  25
ENDBRANCH  22  24
BRANCH  23  32
HETATM   32  C   UNL     1     -11.606  14.001  66.863  1.00  0.00    -0.407 A  
HETATM   33  C   UNL     1     -11.267  12.209  64.718  1.00  0.00    -0.323 A  
HETATM   34  F   UNL     1     -11.127  11.331  63.719  1.00  0.00    -0.430 F  
HETATM   35  C   UNL     1     -12.633  13.807  65.928  1.00  0.00    -0.494 A  
HETATM   36  C   UNL     1     -10.228  12.404  65.613  1.00  0.00    -0.285 A  
HETATM   37  C   UNL     1     -12.464  12.910  64.862  1.00  0.00    -0.540 A  
HETATM   38  C   UNL     1     -10.394  13.297  66.676  1.00  0.00    -0.274 A  
ENDBRANCH  23  32
ENDBRANCH  17  18
ENDBRANCH   2  17
TORSDOF 6
ENDMDL
MODEL       32
REMARK 921   NORMALIZED FREE ENERGY PREDICTED BY IDOCK:   -7.22 KCAL/MOL
REMARK 922        TOTAL FREE ENERGY PREDICTED BY IDOCK:  -11.88 KCAL/MOL
REMARK 923 INTER-LIGAND FREE ENERGY PREDICTED BY IDOCK:  -10.75 KCAL/MOL
REMARK 924 INTRA-LIGAND FREE ENERGY PREDICTED BY IDOCK:   -1.13 KCAL/MOL
REMARK 927      BINDING AFFINITY PREDICTED BY RF-SCORE:    0.00 PKD
ROOT
HETATM    1  C   UNL     1      -9.371  10.512  65.966  1.00  0.00    -0.215 C  
HETATM    2  C   UNL     1      -9.284  10.219  67.471  1.00  0.00    -0.141 C  
ENDROOT
BRANCH   2   3
HETATM    3  C   UNL     1      -9.728   8.794  67.844  1.00  0.00    -0.188 A  
HETATM    4  C   UNL     1     -10.251   8.482  69.113  1.00  0.00    -0.218 A  
HETATM    5  C   UNL     1      -9.601   7.747  66.913  1.00  0.00    -0.256 A  
HETATM    6  F   UNL     1     -12.305   7.626  71.111  1.00  0.00    -0.319 F  
HETATM    7  F   UNL     1     -11.525   5.598  71.048  1.00  0.00    -0.284 F  
HETATM    8  C   UNL     1      -9.982   6.428  67.234  1.00  0.00    -0.184 A  
HETATM    9  C   UNL     1      -9.823   5.299  66.242  1.00  0.00    -0.182 C  
HETATM   10  C   UNL     1     -10.502   6.155  68.511  1.00  0.00    -0.284 A  
HETATM   11  F   UNL     1     -10.294   7.211  71.827  1.00  0.00    -0.196 F  
HETATM   12  F   UNL     1      -9.333   5.695  65.033  1.00  0.00    -0.049 F  
HETATM   13  F   UNL     1      -8.980   4.328  66.688  1.00  0.00    -0.111 F  
HETATM   14  F   UNL     1     -11.003   4.671  65.974  1.00  0.00    -0.331 F  
HETATM   15  C   UNL     1     -11.183   6.901  70.843  1.00  0.00    -0.289 C  
HETATM   16  C   UNL     1     -10.639   7.175  69.460  1.00  0.00    -0.247 A  
ENDBRANCH   2   3
BRANCH   2  17
HETATM   17  O   UNL     1      -9.832  11.288  68.284  1.00  0.00    -0.182 OA 
BRANCH  17  18
HETATM   18  C   UNL     1     -11.058  11.867  67.818  1.00  0.00    -0.239 C  
HETATM   19  C   UNL     1     -12.503  12.821  70.122  1.00  0.00    -0.056 C  
HETATM   20  C   UNL     1     -12.206  11.362  69.796  1.00  0.00    -0.265 C  
HETATM   21  O   UNL     1     -12.179  11.165  68.377  1.00  0.00    -0.610 OA 
HETATM   22  N   UNL     1     -11.494  13.773  69.572  1.00  0.00    -0.274 NA 
HETATM   23  C   UNL     1     -11.280  13.427  68.113  1.00  0.00    -0.273 C  
BRANCH  22  24
HETATM   24  C   UNL     1     -12.045  15.152  69.699  1.00  0.00    -0.304 C  
BRANCH  24  25
HETATM   25  C   UNL     1     -12.686  15.374  71.050  1.00  0.00    -0.448 C  
HETATM   26  N   UNL     1     -11.945  15.375  72.173  1.00  0.00    -0.388 NA 
HETATM   27  N   UNL     1     -13.959  15.588  71.242  1.00  0.00    -0.707 NA 
HETATM   28  O   UNL     1     -12.532  15.769  74.373  1.00  0.00    -0.607 OA 
HETATM   29  C   UNL     1     -12.804  15.642  73.194  1.00  0.00    -0.509 C  
HETATM   30  N   UNL     1     -14.055  15.751  72.600  1.00  0.00    -0.531 NA 
HETATM   31  H   UNL     1     -14.705  15.626  70.548  1.00  0.00     0.000 HD 
ENDBRANCH  24  25
ENDBRANCH  22  24
BRANCH  23  32
HETATM   32  C   UNL     1     -10.309  14.368  67.394  1.00  0.00    -0.252 A  
HETATM   33  C   UNL     1      -8.694  16.319  66.165  1.00  0.00    -0.318 A  
HETATM   34  F   UNL     1      -7.935  17.270  65.610  1.00  0.00    -0.232 F  
HETATM   35  C   UNL     1      -8.993  14.582  67.830  1.00  0.00    -0.187 A  
HETATM   36  C   UNL     1      -9.982  16.107  65.698  1.00  0.00    -0.330 A  
HETATM   37  C   UNL     1      -8.191  15.557  67.219  1.00  0.00    -0.224 A  
HETATM   38  C   UNL     1     -10.783  15.135  66.305  1.00  0.00    -0.320 A  
ENDBRANCH  23  32
ENDBRANCH  17  18
ENDBRANCH   2  17
TORSDOF 6
ENDMDL
MODEL       33
REMARK 921   NORMALIZED FREE ENERGY PREDICTED BY IDOCK:   -7.19 KCAL/MOL
REMARK 922        TOTAL FREE ENERGY PREDICTED BY IDOCK:  -11.84 KCAL/MOL
REMARK 923 INTER-LIGAND FREE ENERGY PREDICTED BY IDOCK:  -10.49 KCAL/MOL
REMARK 924 INTRA-LIGAND FREE ENERGY PREDICTED BY IDOCK:   -1.36 KCAL/MOL
REMARK 927      BINDING AFFINITY PREDICTED BY RF-SCORE:    0.00 PKD
ROOT
HETATM    1  C   UNL     1     -11.739  12.400  66.188  1.00  0.00    -0.460 C  
HETATM    2  C   UNL     1     -11.476  12.192  67.686  1.00  0.00    -0.331 C  
ENDROOT
BRANCH   2   3
HETATM    3  C   UNL     1     -11.536  13.493  68.504  1.00  0.00    -0.368 A  
HETATM    4  C   UNL     1     -10.961  14.693  68.043  1.00  0.00    -0.274 A  
HETATM    5  C   UNL     1     -12.165  13.511  69.763  1.00  0.00    -0.330 A  
HETATM    6  F   UNL     1     -10.893  17.519  67.067  1.00  0.00    -0.306 F  
HETATM    7  F   UNL     1     -10.466  18.208  69.084  1.00  0.00    -0.349 F  
HETATM    8  C   UNL     1     -12.218  14.684  70.542  1.00  0.00    -0.389 A  
HETATM    9  C   UNL     1     -12.871  14.695  71.905  1.00  0.00    -0.328 C  
HETATM   10  C   UNL     1     -11.634  15.863  70.049  1.00  0.00    -0.346 A  
HETATM   11  F   UNL     1      -9.020  16.977  68.027  1.00  0.00    -0.212 F  
HETATM   12  F   UNL     1     -13.423  13.501  72.259  1.00  0.00    -0.466 F  
HETATM   13  F   UNL     1     -11.999  15.015  72.898  1.00  0.00    -0.415 F  
HETATM   14  F   UNL     1     -13.881  15.608  71.990  1.00  0.00    -0.493 F  
HETATM   15  C   UNL     1     -10.353  17.132  68.256  1.00  0.00    -0.354 C  
HETATM   16  C   UNL     1     -11.000  15.878  68.800  1.00  0.00    -0.301 A  
ENDBRANCH   2   3
BRANCH   2  17
HETATM   17  O   UNL     1     -10.338  11.331  67.944  1.00  0.00    -0.174 OA 
BRANCH  17  18
HETATM   18  C   UNL     1     -10.489   9.957  67.561  1.00  0.00    -0.255 C  
HETATM   19  C   UNL     1      -7.898   8.710  67.752  1.00  0.00    -0.103 C  
HETATM   20  C   UNL     1      -8.293   9.798  66.761  1.00  0.00    -0.124 C  
HETATM   21  O   UNL     1      -9.677   9.674  66.411  1.00  0.00    -0.190 OA 
HETATM   22  N   UNL     1      -8.673   8.752  69.026  1.00  0.00    -0.132 NA 
HETATM   23  C   UNL     1     -10.142   8.855  68.671  1.00  0.00    -0.188 C  
BRANCH  22  24
HETATM   24  C   UNL     1      -8.410   7.486  69.767  1.00  0.00    -0.134 C  
BRANCH  24  25
HETATM   25  C   UNL     1      -8.242   7.732  71.249  1.00  0.00    -0.103 C  
HETATM   26  N   UNL     1      -8.511   6.764  72.144  1.00  0.00    -0.111 NA 
HETATM   27  N   UNL     1      -7.829   8.854  71.774  1.00  0.00    -0.335 NA 
HETATM   28  O   UNL     1      -8.288   6.725  74.444  1.00  0.00    -0.129 OA 
HETATM   29  C   UNL     1      -8.221   7.286  73.367  1.00  0.00    -0.112 C  
HETATM   30  N   UNL     1      -7.818   8.593  73.120  1.00  0.00    -0.399 NA 
HETATM   31  H   UNL     1      -7.575   9.719  71.296  1.00  0.00     0.000 HD 
ENDBRANCH  24  25
ENDBRANCH  22  24
BRANCH  23  32
HETATM   32  C   UNL     1     -11.071   8.844  69.888  1.00  0.00    -0.146 A  
HETATM   33  C   UNL     1     -12.964   8.988  71.967  1.00  0.00    -0.407 A  
HETATM   34  F   UNL     1     -13.892   9.056  72.928  1.00  0.00    -0.473 F  
HETATM   35  C   UNL     1     -11.734   7.690  70.329  1.00  0.00    -0.005 A  
HETATM   36  C   UNL     1     -12.302  10.138  71.567  1.00  0.00    -0.505 A  
HETATM   37  C   UNL     1     -12.680   7.764  71.362  1.00  0.00    -0.333 A  
HETATM   38  C   UNL     1     -11.358  10.067  70.538  1.00  0.00    -0.409 A  
ENDBRANCH  23  32
ENDBRANCH  17  18
ENDBRANCH   2  17
TORSDOF 6
ENDMDL
MODEL       34
REMARK 921   NORMALIZED FREE ENERGY PREDICTED BY IDOCK:   -7.18 KCAL/MOL
REMARK 922        TOTAL FREE ENERGY PREDICTED BY IDOCK:  -11.84 KCAL/MOL
REMARK 923 INTER-LIGAND FREE ENERGY PREDICTED BY IDOCK:   -9.63 KCAL/MOL
REMARK 924 INTRA-LIGAND FREE ENERGY PREDICTED BY IDOCK:   -2.21 KCAL/MOL
REMARK 927      BINDING AFFINITY PREDICTED BY RF-SCORE:    0.00 PKD
ROOT
HETATM    1  C   UNL     1     -13.763   9.688  71.844  1.00  0.00    -0.376 C  
HETATM    2  C   UNL     1     -12.341   9.960  71.334  1.00  0.00    -0.404 C  
ENDROOT
BRANCH   2   3
HETATM    3  C   UNL     1     -12.208  11.290  70.572  1.00  0.00    -0.474 A  
HETATM    4  C   UNL     1     -12.394  12.535  71.203  1.00  0.00    -0.241 A  
HETATM    5  C   UNL     1     -11.908  11.292  69.198  1.00  0.00    -0.423 A  
HETATM    6  F   UNL     1     -11.638  15.227  72.262  1.00  0.00    -0.424 F  
HETATM    7  F   UNL     1     -12.381  16.154  70.441  1.00  0.00    -0.345 F  
HETATM    8  C   UNL     1     -11.798  12.495  68.471  1.00  0.00    -0.341 A  
HETATM    9  C   UNL     1     -11.501  12.495  66.989  1.00  0.00    -0.356 C  
HETATM   10  C   UNL     1     -11.990  13.718  69.135  1.00  0.00    -0.403 A  
HETATM   11  F   UNL     1     -13.757  15.141  71.783  1.00  0.00    -0.388 F  
HETATM   12  F   UNL     1     -11.310  11.250  66.467  1.00  0.00    -0.346 F  
HETATM   13  F   UNL     1     -12.499  13.060  66.257  1.00  0.00    -0.442 F  
HETATM   14  F   UNL     1     -10.373  13.199  66.685  1.00  0.00    -0.252 F  
HETATM   15  C   UNL     1     -12.515  15.054  71.233  1.00  0.00    -0.334 C  
HETATM   16  C   UNL     1     -12.291  13.749  70.502  1.00  0.00    -0.429 A  
ENDBRANCH   2   3
BRANCH   2  17
HETATM   17  O   UNL     1     -11.738   8.803  70.702  1.00  0.00    -0.260 OA 
BRANCH  17  18
HETATM   18  C   UNL     1     -10.497   8.355  71.264  1.00  0.00    -0.216 C  
HETATM   19  C   UNL     1     -10.194   5.567  70.596  1.00  0.00    -0.240 C  
HETATM   20  C   UNL     1     -11.254   6.153  71.522  1.00  0.00    -0.288 C  
HETATM   21  O   UNL     1     -10.736   7.300  72.208  1.00  0.00    -0.215 OA 
HETATM   22  N   UNL     1      -9.722   6.521  69.551  1.00  0.00    -0.151 NA 
HETATM   23  C   UNL     1      -9.385   7.829  70.236  1.00  0.00    -0.156 C  
BRANCH  22  24
HETATM   24  C   UNL     1      -8.503   5.944  68.917  1.00  0.00    -0.105 C  
BRANCH  24  25
HETATM   25  C   UNL     1      -8.821   5.285  67.594  1.00  0.00    -0.105 C  
HETATM   26  N   UNL     1     -10.080   5.261  67.121  1.00  0.00    -0.183 NA 
HETATM   27  N   UNL     1      -7.941   4.714  66.818  1.00  0.00    -0.102 NA 
HETATM   28  O   UNL     1     -10.934   4.453  65.132  1.00  0.00    -0.251 OA 
HETATM   29  C   UNL     1     -10.019   4.644  65.910  1.00  0.00    -0.239 C  
HETATM   30  N   UNL     1      -8.685   4.292  65.746  1.00  0.00    -0.117 NA 
HETATM   31  H   UNL     1      -6.938   4.607  66.971  1.00  0.00     0.000 HD 
ENDBRANCH  24  25
ENDBRANCH  22  24
BRANCH  23  32
HETATM   32  C   UNL     1      -8.822   8.893  69.290  1.00  0.00    -0.139 A  
HETATM   33  C   UNL     1      -8.066  10.928  67.497  1.00  0.00    -0.116 A  
HETATM   34  F   UNL     1      -7.737  11.917  66.658  1.00  0.00    -0.150 F  
HETATM   35  C   UNL     1      -8.097  10.005  69.740  1.00  0.00    -0.188 A  
HETATM   36  C   UNL     1      -8.759   9.826  67.023  1.00  0.00    -0.141 A  
HETATM   37  C   UNL     1      -7.724  11.021  68.846  1.00  0.00    -0.140 A  
HETATM   38  C   UNL     1      -9.131   8.812  67.912  1.00  0.00    -0.145 A  
ENDBRANCH  23  32
ENDBRANCH  17  18
ENDBRANCH   2  17
TORSDOF 6
ENDMDL
MODEL       35
REMARK 921   NORMALIZED FREE ENERGY PREDICTED BY IDOCK:   -7.17 KCAL/MOL
REMARK 922        TOTAL FREE ENERGY PREDICTED BY IDOCK:  -11.82 KCAL/MOL
REMARK 923 INTER-LIGAND FREE ENERGY PREDICTED BY IDOCK:  -10.64 KCAL/MOL
REMARK 924 INTRA-LIGAND FREE ENERGY PREDICTED BY IDOCK:   -1.17 KCAL/MOL
REMARK 927      BINDING AFFINITY PREDICTED BY RF-SCORE:    0.00 PKD
ROOT
HETATM    1  C   UNL     1     -11.543  11.221  69.891  1.00  0.00    -0.413 C  
HETATM    2  C   UNL     1     -11.626  11.657  68.421  1.00  0.00    -0.312 C  
ENDROOT
BRANCH   2   3
HETATM    3  C   UNL     1     -10.987  10.652  67.447  1.00  0.00    -0.361 A  
HETATM    4  C   UNL     1     -10.847   9.288  67.767  1.00  0.00    -0.192 A  
HETATM    5  C   UNL     1     -10.503  11.084  66.199  1.00  0.00    -0.301 A  
HETATM    6  F   UNL     1     -11.320   6.343  67.545  1.00  0.00    -0.404 F  
HETATM    7  F   UNL     1      -9.519   6.142  66.345  1.00  0.00    -0.157 F  
HETATM    8  C   UNL     1      -9.897  10.188  65.295  1.00  0.00    -0.388 A  
HETATM    9  C   UNL     1      -9.355  10.658  63.965  1.00  0.00    -0.266 C  
HETATM   10  C   UNL     1      -9.775   8.833  65.649  1.00  0.00    -0.016 A  
HETATM   11  F   UNL     1      -9.376   6.760  68.424  1.00  0.00    -0.128 F  
HETATM   12  F   UNL     1      -9.556  11.985  63.728  1.00  0.00    -0.258 F  
HETATM   13  F   UNL     1      -8.015  10.454  63.846  1.00  0.00    -0.154 F  
HETATM   14  F   UNL     1      -9.924  10.004  62.912  1.00  0.00    -0.230 F  
HETATM   15  C   UNL     1     -10.113   6.922  67.291  1.00  0.00    -0.198 C  
HETATM   16  C   UNL     1     -10.246   8.373  66.885  1.00  0.00    -0.383 A  
ENDBRANCH   2   3
BRANCH   2  17
HETATM   17  O   UNL     1     -11.265  13.048  68.225  1.00  0.00    -0.244 OA 
BRANCH  17  18
HETATM   18  C   UNL     1     -10.165  13.529  69.011  1.00  0.00     0.042 C  
HETATM   19  C   UNL     1      -9.054  15.813  67.648  1.00  0.00    -0.192 C  
HETATM   20  C   UNL     1      -9.027  14.374  67.146  1.00  0.00    -0.232 C  
HETATM   21  O   UNL     1      -8.950  13.463  68.249  1.00  0.00    -0.184 OA 
HETATM   22  N   UNL     1     -10.212  16.112  68.540  1.00  0.00    -0.233 NA 
HETATM   23  C   UNL     1     -10.285  15.020  69.586  1.00  0.00    -0.157 C  
BRANCH  22  24
HETATM   24  C   UNL     1      -9.965  17.431  69.189  1.00  0.00    -0.200 C  
BRANCH  24  25
HETATM   25  C   UNL     1     -10.133  18.573  68.213  1.00  0.00    -0.390 C  
HETATM   26  N   UNL     1     -10.644  18.362  66.986  1.00  0.00    -0.391 NA 
HETATM   27  N   UNL     1      -9.823  19.816  68.463  1.00  0.00    -0.406 NA 
HETATM   28  O   UNL     1     -11.139  19.838  65.279  1.00  0.00    -0.395 OA 
HETATM   29  C   UNL     1     -10.702  19.581  66.384  1.00  0.00    -0.427 C  
HETATM   30  N   UNL     1     -10.169  20.471  67.309  1.00  0.00    -0.302 NA 
HETATM   31  H   UNL     1      -9.420  20.207  69.314  1.00  0.00     0.000 HD 
ENDBRANCH  24  25
ENDBRANCH  22  24
BRANCH  23  32
HETATM   32  C   UNL     1     -11.396  15.229  70.618  1.00  0.00    -0.345 A  
HETATM   33  C   UNL     1     -13.339  15.890  72.546  1.00  0.00    -0.427 A  
HETATM   34  F   UNL     1     -14.263  16.240  73.448  1.00  0.00    -0.569 F  
HETATM   35  C   UNL     1     -12.755  15.269  70.276  1.00  0.00    -0.353 A  
HETATM   36  C   UNL     1     -12.004  15.831  72.916  1.00  0.00    -0.599 A  
HETATM   37  C   UNL     1     -13.722  15.602  71.236  1.00  0.00    -0.327 A  
HETATM   38  C   UNL     1     -11.040  15.499  71.960  1.00  0.00    -0.152 A  
ENDBRANCH  23  32
ENDBRANCH  17  18
ENDBRANCH   2  17
TORSDOF 6
ENDMDL
MODEL       36
REMARK 921   NORMALIZED FREE ENERGY PREDICTED BY IDOCK:   -7.17 KCAL/MOL
REMARK 922        TOTAL FREE ENERGY PREDICTED BY IDOCK:  -11.81 KCAL/MOL
REMARK 923 INTER-LIGAND FREE ENERGY PREDICTED BY IDOCK:   -8.45 KCAL/MOL
REMARK 924 INTRA-LIGAND FREE ENERGY PREDICTED BY IDOCK:   -3.36 KCAL/MOL
REMARK 927      BINDING AFFINITY PREDICTED BY RF-SCORE:    0.00 PKD
ROOT
HETATM    1  C   UNL     1      -5.636  11.789  68.088  1.00  0.00    -0.044 C  
HETATM    2  C   UNL     1      -6.815  12.587  68.666  1.00  0.00    -0.088 C  
ENDROOT
BRANCH   2   3
HETATM    3  C   UNL     1      -8.189  12.055  68.224  1.00  0.00    -0.161 A  
HETATM    4  C   UNL     1      -9.232  11.827  69.142  1.00  0.00     0.372 A  
HETATM    5  C   UNL     1      -8.433  11.761  66.870  1.00  0.00    -0.174 A  
HETATM    6  F   UNL     1     -11.897  12.229  70.439  1.00  0.00    -0.394 F  
HETATM    7  F   UNL     1     -12.721  10.604  69.254  1.00  0.00    -0.254 F  
HETATM    8  C   UNL     1      -9.677  11.255  66.440  1.00  0.00    -0.238 A  
HETATM    9  C   UNL     1      -9.929  10.917  64.989  1.00  0.00    -0.298 C  
HETATM   10  C   UNL     1     -10.695  11.042  67.385  1.00  0.00    -0.303 A  
HETATM   11  F   UNL     1     -11.181  10.198  70.733  1.00  0.00    -0.336 F  
HETATM   12  F   UNL     1      -8.876  11.192  64.169  1.00  0.00    -0.147 F  
HETATM   13  F   UNL     1     -10.216   9.600  64.803  1.00  0.00    -0.258 F  
HETATM   14  F   UNL     1     -10.988  11.603  64.472  1.00  0.00    -0.333 F  
HETATM   15  C   UNL     1     -11.559  11.088  69.775  1.00  0.00    -0.325 C  
HETATM   16  C   UNL     1     -10.482  11.323  68.740  1.00  0.00    -0.232 A  
ENDBRANCH   2   3
BRANCH   2  17
HETATM   17  O   UNL     1      -6.626  14.021  68.566  1.00  0.00    -0.084 OA 
BRANCH  17  18
HETATM   18  C   UNL     1      -7.354  14.818  69.511  1.00  0.00    -0.148 C  
HETATM   19  C   UNL     1      -6.413  17.532  69.267  1.00  0.00    -0.243 C  
HETATM   20  C   UNL     1      -5.599  16.347  69.775  1.00  0.00    -0.167 C  
HETATM   21  O   UNL     1      -6.448  15.413  70.453  1.00  0.00    -0.058 OA 
HETATM   22  N   UNL     1      -7.489  17.149  68.308  1.00  0.00    -0.208 NA 
HETATM   23  C   UNL     1      -8.262  15.997  68.915  1.00  0.00    -0.223 C  
BRANCH  22  24
HETATM   24  C   UNL     1      -8.383  18.328  68.124  1.00  0.00    -0.284 C  
BRANCH  24  25
HETATM   25  C   UNL     1      -7.674  19.460  67.418  1.00  0.00    -0.252 C  
HETATM   26  N   UNL     1      -7.595  19.493  66.075  1.00  0.00    -0.308 NA 
HETATM   27  N   UNL     1      -7.106  20.471  68.017  1.00  0.00    -0.271 NA 
HETATM   28  O   UNL     1      -6.697  21.076  64.650  1.00  0.00    -0.169 OA 
HETATM   29  C   UNL     1      -6.942  20.645  65.761  1.00  0.00    -0.110 C  
HETATM   30  N   UNL     1      -6.627  21.231  66.981  1.00  0.00    -0.497 NA 
HETATM   31  H   UNL     1      -7.037  20.653  69.019  1.00  0.00     0.000 HD 
ENDBRANCH  24  25
ENDBRANCH  22  24
BRANCH  23  32
HETATM   32  C   UNL     1      -9.448  15.535  68.064  1.00  0.00    -0.194 A  
HETATM   33  C   UNL     1     -11.474  14.441  66.443  1.00  0.00    -0.360 A  
HETATM   34  F   UNL     1     -12.427  13.886  65.686  1.00  0.00    -0.400 F  
HETATM   35  C   UNL     1     -10.690  15.186  68.613  1.00  0.00    -0.239 A  
HETATM   36  C   UNL     1     -10.264  14.802  65.871  1.00  0.00    -0.331 A  
HETATM   37  C   UNL     1     -11.697  14.638  67.806  1.00  0.00    -0.386 A  
HETATM   38  C   UNL     1      -9.259  15.350  66.674  1.00  0.00    -0.303 A  
ENDBRANCH  23  32
ENDBRANCH  17  18
ENDBRANCH   2  17
TORSDOF 6
ENDMDL
MODEL       37
REMARK 921   NORMALIZED FREE ENERGY PREDICTED BY IDOCK:   -7.15 KCAL/MOL
REMARK 922        TOTAL FREE ENERGY PREDICTED BY IDOCK:  -11.79 KCAL/MOL
REMARK 923 INTER-LIGAND FREE ENERGY PREDICTED BY IDOCK:  -10.70 KCAL/MOL
REMARK 924 INTRA-LIGAND FREE ENERGY PREDICTED BY IDOCK:   -1.10 KCAL/MOL
REMARK 927      BINDING AFFINITY PREDICTED BY RF-SCORE:    0.00 PKD
ROOT
HETATM    1  C   UNL     1     -11.317  12.854  66.390  1.00  0.00    -0.361 C  
HETATM    2  C   UNL     1     -12.139  12.794  67.686  1.00  0.00    -0.140 C  
ENDROOT
BRANCH   2   3
HETATM    3  C   UNL     1     -11.920  14.007  68.606  1.00  0.00    -0.389 A  
HETATM    4  C   UNL     1     -11.265  15.172  68.163  1.00  0.00    -0.326 A  
HETATM    5  C   UNL     1     -12.363  13.973  69.940  1.00  0.00    -0.367 A  
HETATM    6  F   UNL     1     -10.971  18.053  67.417  1.00  0.00    -0.378 F  
HETATM    7  F   UNL     1     -10.187  18.488  69.398  1.00  0.00    -0.359 F  
HETATM    8  C   UNL     1     -12.159  15.064  70.811  1.00  0.00    -0.377 A  
HETATM    9  C   UNL     1     -12.612  15.016  72.252  1.00  0.00    -0.340 C  
HETATM   10  C   UNL     1     -11.501  16.210  70.333  1.00  0.00    -0.344 A  
HETATM   11  F   UNL     1      -9.068  17.209  68.044  1.00  0.00    -0.221 F  
HETATM   12  F   UNL     1     -13.258  13.864  72.587  1.00  0.00    -0.481 F  
HETATM   13  F   UNL     1     -11.578  15.135  73.128  1.00  0.00    -0.494 F  
HETATM   14  F   UNL     1     -13.476  16.026  72.559  1.00  0.00    -0.514 F  
HETATM   15  C   UNL     1     -10.327  17.492  68.479  1.00  0.00    -0.380 C  
HETATM   16  C   UNL     1     -11.048  16.274  69.010  1.00  0.00    -0.331 A  
ENDBRANCH   2   3
BRANCH   2  17
HETATM   17  O   UNL     1     -12.087  11.494  68.326  1.00  0.00    -0.580 OA 
BRANCH  17  18
HETATM   18  C   UNL     1     -10.935  11.241  69.142  1.00  0.00    -0.240 C  
HETATM   19  C   UNL     1     -11.340   8.709  70.458  1.00  0.00    -0.218 C  
HETATM   20  C   UNL     1     -12.149   9.978  70.698  1.00  0.00    -0.292 C  
HETATM   21  O   UNL     1     -11.323  11.136  70.521  1.00  0.00    -0.205 OA 
HETATM   22  N   UNL     1     -10.759   8.621  69.087  1.00  0.00    -0.170 NA 
HETATM   23  C   UNL     1     -10.072   9.937  68.791  1.00  0.00    -0.174 C  
BRANCH  22  24
HETATM   24  C   UNL     1      -9.768   7.508  69.077  1.00  0.00    -0.162 C  
BRANCH  24  25
HETATM   25  C   UNL     1     -10.080   6.493  68.003  1.00  0.00    -0.150 C  
HETATM   26  N   UNL     1      -9.199   5.525  67.691  1.00  0.00    -0.110 NA 
HETATM   27  N   UNL     1     -11.189   6.455  67.315  1.00  0.00    -0.689 NA 
HETATM   28  O   UNL     1      -9.349   3.763  66.204  1.00  0.00    -0.159 OA 
HETATM   29  C   UNL     1      -9.793   4.764  66.732  1.00  0.00    -0.208 C  
HETATM   30  N   UNL     1     -11.022   5.369  66.495  1.00  0.00    -0.158 NA 
HETATM   31  H   UNL     1     -11.990   7.084  67.374  1.00  0.00     0.000 HD 
ENDBRANCH  24  25
ENDBRANCH  22  24
BRANCH  23  32
HETATM   32  C   UNL     1      -9.369   9.972  67.431  1.00  0.00    -0.167 A  
HETATM   33  C   UNL     1      -8.268  10.246  64.854  1.00  0.00    -0.157 A  
HETATM   34  F   UNL     1      -7.753  10.415  63.631  1.00  0.00    -0.150 F  
HETATM   35  C   UNL     1      -8.061  10.447  67.262  1.00  0.00    -0.114 A  
HETATM   36  C   UNL     1      -9.554   9.749  64.996  1.00  0.00    -0.333 A  
HETATM   37  C   UNL     1      -7.515  10.587  65.977  1.00  0.00    -0.137 A  
HETATM   38  C   UNL     1     -10.100   9.608  66.276  1.00  0.00    -0.322 A  
ENDBRANCH  23  32
ENDBRANCH  17  18
ENDBRANCH   2  17
TORSDOF 6
ENDMDL
MODEL       38
REMARK 921   NORMALIZED FREE ENERGY PREDICTED BY IDOCK:   -7.10 KCAL/MOL
REMARK 922        TOTAL FREE ENERGY PREDICTED BY IDOCK:  -11.73 KCAL/MOL
REMARK 923 INTER-LIGAND FREE ENERGY PREDICTED BY IDOCK:  -10.18 KCAL/MOL
REMARK 924 INTRA-LIGAND FREE ENERGY PREDICTED BY IDOCK:   -1.54 KCAL/MOL
REMARK 927      BINDING AFFINITY PREDICTED BY RF-SCORE:    0.00 PKD
ROOT
HETATM    1  C   UNL     1     -11.998  11.464  68.952  1.00  0.00    -0.371 C  
HETATM    2  C   UNL     1     -10.982  12.551  68.571  1.00  0.00    -0.249 C  
ENDROOT
BRANCH   2   3
HETATM    3  C   UNL     1     -11.195  13.876  69.322  1.00  0.00    -0.296 A  
HETATM    4  C   UNL     1     -10.670  15.095  68.851  1.00  0.00    -0.240 A  
HETATM    5  C   UNL     1     -11.918  13.899  70.528  1.00  0.00    -0.384 A  
HETATM    6  F   UNL     1     -10.721  17.876  67.753  1.00  0.00    -0.371 F  
HETATM    7  F   UNL     1     -10.499  18.675  69.762  1.00  0.00    -0.038 F  
HETATM    8  C   UNL     1     -12.112  15.097  71.247  1.00  0.00    -0.399 A  
HETATM    9  C   UNL     1     -12.867  15.116  72.556  1.00  0.00    -0.360 C  
HETATM   10  C   UNL     1     -11.574  16.294  70.745  1.00  0.00    -0.282 A  
HETATM   11  F   UNL     1      -8.895  17.510  68.873  1.00  0.00    -0.273 F  
HETATM   12  F   UNL     1     -13.361  13.900  72.923  1.00  0.00    -0.554 F  
HETATM   13  F   UNL     1     -12.098  15.538  73.595  1.00  0.00    -0.484 F  
HETATM   14  F   UNL     1     -13.941  15.956  72.524  1.00  0.00    -0.582 F  
HETATM   15  C   UNL     1     -10.249  17.577  68.996  1.00  0.00    -0.314 C  
HETATM   16  C   UNL     1     -10.848  16.303  69.547  1.00  0.00    -0.342 A  
ENDBRANCH   2   3
BRANCH   2  17
HETATM   17  O   UNL     1     -10.782  12.656  67.139  1.00  0.00    -0.237 OA 
BRANCH  17  18
HETATM   18  C   UNL     1     -11.507  11.718  66.332  1.00  0.00    -0.239 C  
HETATM   19  C   UNL     1     -10.694  12.112  63.595  1.00  0.00    -0.467 C  
HETATM   20  C   UNL     1     -11.473  13.108  64.447  1.00  0.00    -0.366 C  
HETATM   21  O   UNL     1     -12.318  12.415  65.374  1.00  0.00    -0.596 OA 
HETATM   22  N   UNL     1      -9.815  11.207  64.390  1.00  0.00    -0.263 NA 
HETATM   23  C   UNL     1     -10.641  10.638  65.524  1.00  0.00    -0.110 C  
BRANCH  22  24
HETATM   24  C   UNL     1      -9.350  10.111  63.492  1.00  0.00    -0.290 C  
BRANCH  24  25
HETATM   25  C   UNL     1      -7.858   9.893  63.605  1.00  0.00    -0.145 C  
HETATM   26  N   UNL     1      -7.352   8.656  63.760  1.00  0.00    -0.097 NA 
HETATM   27  N   UNL     1      -6.962  10.841  63.556  1.00  0.00    -0.333 NA 
HETATM   28  O   UNL     1      -5.165   7.918  63.870  1.00  0.00    -0.039 OA 
HETATM   29  C   UNL     1      -5.999   8.799  63.784  1.00  0.00    -0.072 C  
HETATM   30  N   UNL     1      -5.774  10.167  63.677  1.00  0.00    -0.123 NA 
HETATM   31  H   UNL     1      -7.111  11.845  63.451  1.00  0.00     0.000 HD 
ENDBRANCH  24  25
ENDBRANCH  22  24
BRANCH  23  32
HETATM   32  C   UNL     1      -9.881   9.633  66.395  1.00  0.00    -0.309 A  
HETATM   33  C   UNL     1      -8.546   7.961  68.225  1.00  0.00    -0.124 A  
HETATM   34  F   UNL     1      -7.939   7.176  69.121  1.00  0.00    -0.109 F  
HETATM   35  C   UNL     1     -10.357   8.340  66.657  1.00  0.00    -0.293 A  
HETATM   36  C   UNL     1      -8.041   9.225  67.963  1.00  0.00    -0.104 A  
HETATM   37  C   UNL     1      -9.693   7.510  67.572  1.00  0.00    -0.190 A  
HETATM   38  C   UNL     1      -8.701  10.054  67.051  1.00  0.00    -0.137 A  
ENDBRANCH  23  32
ENDBRANCH  17  18
ENDBRANCH   2  17
TORSDOF 6
ENDMDL
MODEL       39
REMARK 921   NORMALIZED FREE ENERGY PREDICTED BY IDOCK:   -7.10 KCAL/MOL
REMARK 922        TOTAL FREE ENERGY PREDICTED BY IDOCK:  -11.73 KCAL/MOL
REMARK 923 INTER-LIGAND FREE ENERGY PREDICTED BY IDOCK:   -9.15 KCAL/MOL
REMARK 924 INTRA-LIGAND FREE ENERGY PREDICTED BY IDOCK:   -2.57 KCAL/MOL
REMARK 927      BINDING AFFINITY PREDICTED BY RF-SCORE:    0.00 PKD
ROOT
HETATM    1  C   UNL     1      -6.460   8.881  70.426  1.00  0.00    -0.043 C  
HETATM    2  C   UNL     1      -7.845   9.524  70.268  1.00  0.00    -0.168 C  
ENDROOT
BRANCH   2   3
HETATM    3  C   UNL     1      -9.006   8.541  70.499  1.00  0.00    -0.171 A  
HETATM    4  C   UNL     1     -10.274   8.970  70.936  1.00  0.00    -0.324 A  
HETATM    5  C   UNL     1      -8.818   7.162  70.291  1.00  0.00    -0.148 A  
HETATM    6  F   UNL     1     -13.216   9.481  70.774  1.00  0.00    -0.296 F  
HETATM    7  F   UNL     1     -13.600   7.616  71.823  1.00  0.00    -0.348 F  
HETATM    8  C   UNL     1      -9.859   6.236  70.513  1.00  0.00    -0.207 A  
HETATM    9  C   UNL     1      -9.648   4.753  70.314  1.00  0.00    -0.199 C  
HETATM   10  C   UNL     1     -11.111   6.702  70.948  1.00  0.00    -0.335 A  
HETATM   11  F   UNL     1     -12.574   9.242  72.837  1.00  0.00    -0.313 F  
HETATM   12  F   UNL     1      -8.402   4.430  69.867  1.00  0.00    -0.062 F  
HETATM   13  F   UNL     1      -9.832   4.042  71.460  1.00  0.00    -0.219 F  
HETATM   14  F   UNL     1     -10.516   4.222  69.406  1.00  0.00    -0.099 F  
HETATM   15  C   UNL     1     -12.664   8.590  71.645  1.00  0.00    -0.332 C  
HETATM   16  C   UNL     1     -11.329   8.069  71.165  1.00  0.00    -0.292 A  
ENDBRANCH   2   3
BRANCH   2  17
HETATM   17  O   UNL     1      -7.947  10.360  69.087  1.00  0.00    -0.118 OA 
BRANCH  17  18
HETATM   18  C   UNL     1      -9.276  10.664  68.644  1.00  0.00    -0.181 C  
HETATM   19  C   UNL     1      -9.056  12.417  66.368  1.00  0.00    -0.149 C  
HETATM   20  C   UNL     1      -8.660  12.760  67.799  1.00  0.00    -0.184 C  
HETATM   21  O   UNL     1      -9.512  12.078  68.728  1.00  0.00    -0.102 OA 
HETATM   22  N   UNL     1      -8.962  10.962  66.054  1.00  0.00    -0.180 NA 
HETATM   23  C   UNL     1      -9.667  10.204  67.160  1.00  0.00    -0.173 C  
BRANCH  22  24
HETATM   24  C   UNL     1      -9.647  10.726  64.751  1.00  0.00    -0.262 C  
BRANCH  24  25
HETATM   25  C   UNL     1     -10.848  11.628  64.581  1.00  0.00    -0.314 C  
HETATM   26  N   UNL     1     -10.927  12.483  63.545  1.00  0.00    -0.454 NA 
HETATM   27  N   UNL     1     -11.878  11.652  65.382  1.00  0.00    -0.168 NA 
HETATM   28  O   UNL     1     -12.613  13.926  62.900  1.00  0.00    -0.580 OA 
HETATM   29  C   UNL     1     -12.132  13.105  63.658  1.00  0.00    -0.513 C  
HETATM   30  N   UNL     1     -12.702  12.592  64.817  1.00  0.00    -0.748 NA 
HETATM   31  H   UNL     1     -12.034  11.102  66.227  1.00  0.00     0.000 HD 
ENDBRANCH  24  25
ENDBRANCH  22  24
BRANCH  23  32
HETATM   32  C   UNL     1      -9.706   8.689  66.939  1.00  0.00    -0.278 A  
HETATM   33  C   UNL     1      -9.610   5.880  66.773  1.00  0.00    -0.148 A  
HETATM   34  F   UNL     1      -9.565   4.544  66.733  1.00  0.00    -0.140 F  
HETATM   35  C   UNL     1     -10.870   7.925  67.106  1.00  0.00    -0.187 A  
HETATM   36  C   UNL     1      -8.451   6.614  66.577  1.00  0.00    -0.121 A  
HETATM   37  C   UNL     1     -10.820   6.526  67.027  1.00  0.00    -0.465 A  
HETATM   38  C   UNL     1      -8.499   8.009  66.655  1.00  0.00    -0.133 A  
ENDBRANCH  23  32
ENDBRANCH  17  18
ENDBRANCH   2  17
TORSDOF 6
ENDMDL
MODEL       40
REMARK 921   NORMALIZED FREE ENERGY PREDICTED BY IDOCK:   -7.08 KCAL/MOL
REMARK 922        TOTAL FREE ENERGY PREDICTED BY IDOCK:  -11.70 KCAL/MOL
REMARK 923 INTER-LIGAND FREE ENERGY PREDICTED BY IDOCK:  -10.22 KCAL/MOL
REMARK 924 INTRA-LIGAND FREE ENERGY PREDICTED BY IDOCK:   -1.48 KCAL/MOL
REMARK 927      BINDING AFFINITY PREDICTED BY RF-SCORE:    0.00 PKD
ROOT
HETATM    1  C   UNL     1      -9.672   9.376  70.108  1.00  0.00    -0.274 C  
HETATM    2  C   UNL     1     -10.401   8.329  69.254  1.00  0.00    -0.218 C  
ENDROOT
BRANCH   2   3
HETATM    3  C   UNL     1     -10.216   6.889  69.763  1.00  0.00    -0.210 A  
HETATM    4  C   UNL     1     -10.537   6.515  71.081  1.00  0.00    -0.271 A  
HETATM    5  C   UNL     1      -9.696   5.898  68.910  1.00  0.00    -0.168 A  
HETATM    6  F   UNL     1     -12.015   5.099  73.262  1.00  0.00    -0.343 F  
HETATM    7  F   UNL     1     -10.478   3.562  73.308  1.00  0.00    -0.194 F  
HETATM    8  C   UNL     1      -9.499   4.575  69.355  1.00  0.00    -0.244 A  
HETATM    9  C   UNL     1      -8.917   3.517  68.446  1.00  0.00    -0.132 C  
HETATM   10  C   UNL     1      -9.832   4.238  70.678  1.00  0.00    -0.265 A  
HETATM   11  F   UNL     1      -9.993   5.601  73.884  1.00  0.00    -0.153 F  
HETATM   12  F   UNL     1      -8.661   3.959  67.182  1.00  0.00    -0.100 F  
HETATM   13  F   UNL     1      -7.742   3.016  68.914  1.00  0.00    -0.048 F  
HETATM   14  F   UNL     1      -9.746   2.443  68.300  1.00  0.00    -0.264 F  
HETATM   15  C   UNL     1     -10.702   4.866  72.983  1.00  0.00    -0.244 C  
HETATM   16  C   UNL     1     -10.350   5.203  71.551  1.00  0.00    -0.278 A  
ENDBRANCH   2   3
BRANCH   2  17
HETATM   17  O   UNL     1     -10.208   8.530  67.831  1.00  0.00    -0.197 OA 
BRANCH  17  18
HETATM   18  C   UNL     1      -9.019   9.236  67.451  1.00  0.00    -0.124 C  
HETATM   19  C   UNL     1      -8.768   9.041  64.586  1.00  0.00    -0.135 C  
HETATM   20  C   UNL     1      -8.655   7.884  65.573  1.00  0.00    -0.116 C  
HETATM   21  O   UNL     1      -8.097   8.339  66.812  1.00  0.00    -0.100 OA 
HETATM   22  N   UNL     1      -9.635  10.154  65.069  1.00  0.00    -0.277 NA 
HETATM   23  C   UNL     1      -9.205  10.497  66.480  1.00  0.00    -0.161 C  
BRANCH  22  24
HETATM   24  C   UNL     1      -9.427  11.323  64.168  1.00  0.00    -0.177 C  
BRANCH  24  25
HETATM   25  C   UNL     1     -10.724  12.041  63.877  1.00  0.00    -0.397 C  
HETATM   26  N   UNL     1     -10.885  13.336  64.205  1.00  0.00    -0.400 NA 
HETATM   27  N   UNL     1     -11.760  11.498  63.297  1.00  0.00    -0.867 NA 
HETATM   28  O   UNL     1     -12.651  14.781  63.842  1.00  0.00    -0.834 OA 
HETATM   29  C   UNL     1     -12.128  13.685  63.775  1.00  0.00    -0.382 C  
HETATM   30  N   UNL     1     -12.667  12.525  63.232  1.00  0.00    -0.659 NA 
HETATM   31  H   UNL     1     -11.869  10.538  62.969  1.00  0.00     0.000 HD 
ENDBRANCH  24  25
ENDBRANCH  22  24
BRANCH  23  32
HETATM   32  C   UNL     1      -9.972  11.675  67.087  1.00  0.00    -0.219 A  
HETATM   33  C   UNL     1     -11.308  13.994  67.963  1.00  0.00    -0.293 A  
HETATM   34  F   UNL     1     -11.952  15.103  68.342  1.00  0.00    -0.341 F  
HETATM   35  C   UNL     1     -11.367  11.682  67.233  1.00  0.00    -0.372 A  
HETATM   36  C   UNL     1      -9.926  14.004  67.852  1.00  0.00    -0.237 A  
HETATM   37  C   UNL     1     -12.031  12.839  67.666  1.00  0.00    -0.331 A  
HETATM   38  C   UNL     1      -9.262  12.852  67.422  1.00  0.00    -0.197 A  
ENDBRANCH  23  32
ENDBRANCH  17  18
ENDBRANCH   2  17
TORSDOF 6
ENDMDL
MODEL       41
REMARK 921   NORMALIZED FREE ENERGY PREDICTED BY IDOCK:   -7.07 KCAL/MOL
REMARK 922        TOTAL FREE ENERGY PREDICTED BY IDOCK:  -11.69 KCAL/MOL
REMARK 923 INTER-LIGAND FREE ENERGY PREDICTED BY IDOCK:  -10.99 KCAL/MOL
REMARK 924 INTRA-LIGAND FREE ENERGY PREDICTED BY IDOCK:   -0.70 KCAL/MOL
REMARK 927      BINDING AFFINITY PREDICTED BY RF-SCORE:    0.00 PKD
ROOT
HETATM    1  C   UNL     1     -10.629  11.775  67.520  1.00  0.00    -0.247 C  
HETATM    2  C   UNL     1     -11.885  12.035  68.365  1.00  0.00    -0.300 C  
ENDROOT
BRANCH   2   3
HETATM    3  C   UNL     1     -11.854  13.380  69.110  1.00  0.00    -0.383 A  
HETATM    4  C   UNL     1     -11.194  14.509  68.588  1.00  0.00    -0.281 A  
HETATM    5  C   UNL     1     -12.481  13.510  70.363  1.00  0.00    -0.345 A  
HETATM    6  F   UNL     1     -10.924  17.265  67.460  1.00  0.00    -0.332 F  
HETATM    7  F   UNL     1     -10.452  18.031  69.439  1.00  0.00    -0.331 F  
HETATM    8  C   UNL     1     -12.453  14.725  71.077  1.00  0.00    -0.400 A  
HETATM    9  C   UNL     1     -13.106  14.857  72.433  1.00  0.00    -0.366 C  
HETATM   10  C   UNL     1     -11.785  15.831  70.524  1.00  0.00    -0.400 A  
HETATM   11  F   UNL     1      -9.095  16.645  68.459  1.00  0.00    -0.202 F  
HETATM   12  F   UNL     1     -13.742  13.725  72.849  1.00  0.00    -0.580 F  
HETATM   13  F   UNL     1     -12.214  15.168  73.413  1.00  0.00    -0.440 F  
HETATM   14  F   UNL     1     -14.048  15.842  72.463  1.00  0.00    -0.592 F  
HETATM   15  C   UNL     1     -10.414  16.906  68.672  1.00  0.00    -0.352 C  
HETATM   16  C   UNL     1     -11.150  15.733  69.279  1.00  0.00    -0.297 A  
ENDBRANCH   2   3
BRANCH   2  17
HETATM   17  O   UNL     1     -12.283  10.882  69.149  1.00  0.00    -0.421 OA 
BRANCH  17  18
HETATM   18  C   UNL     1     -11.368  10.473  70.175  1.00  0.00    -0.323 C  
HETATM   19  C   UNL     1     -12.653   8.403  71.714  1.00  0.00    -0.342 C  
HETATM   20  C   UNL     1     -13.083   9.864  71.650  1.00  0.00    -0.437 C  
HETATM   21  O   UNL     1     -11.941  10.711  71.470  1.00  0.00    -0.257 OA 
HETATM   22  N   UNL     1     -11.954   7.931  70.484  1.00  0.00    -0.047 NA 
HETATM   23  C   UNL     1     -10.882   8.946  70.143  1.00  0.00    -0.231 C  
BRANCH  22  24
HETATM   24  C   UNL     1     -11.335   6.609  70.784  1.00  0.00    -0.336 C  
BRANCH  24  25
HETATM   25  C   UNL     1     -10.740   6.574  72.172  1.00  0.00    -0.221 C  
HETATM   26  N   UNL     1      -9.568   7.181  72.436  1.00  0.00    -0.145 NA 
HETATM   27  N   UNL     1     -11.288   5.988  73.202  1.00  0.00    -0.477 NA 
HETATM   28  O   UNL     1      -8.404   7.429  74.416  1.00  0.00    -0.176 OA 
HETATM   29  C   UNL     1      -9.338   7.003  73.765  1.00  0.00    -0.209 C  
HETATM   30  N   UNL     1     -10.407   6.241  74.222  1.00  0.00    -0.318 NA 
HETATM   31  H   UNL     1     -12.163   5.466  73.238  1.00  0.00     0.000 HD 
ENDBRANCH  24  25
ENDBRANCH  22  24
BRANCH  23  32
HETATM   32  C   UNL     1     -10.034   8.560  68.929  1.00  0.00    -0.197 A  
HETATM   33  C   UNL     1      -8.392   7.612  66.847  1.00  0.00    -0.124 A  
HETATM   34  F   UNL     1      -7.622   7.125  65.868  1.00  0.00    -0.081 F  
HETATM   35  C   UNL     1     -10.592   8.165  67.704  1.00  0.00    -0.258 A  
HETATM   36  C   UNL     1      -7.813   8.022  68.038  1.00  0.00    -0.126 A  
HETATM   37  C   UNL     1      -9.773   7.689  66.670  1.00  0.00    -0.283 A  
HETATM   38  C   UNL     1      -8.628   8.497  69.070  1.00  0.00    -0.130 A  
ENDBRANCH  23  32
ENDBRANCH  17  18
ENDBRANCH   2  17
TORSDOF 6
ENDMDL
MODEL       42
REMARK 921   NORMALIZED FREE ENERGY PREDICTED BY IDOCK:   -7.04 KCAL/MOL
REMARK 922        TOTAL FREE ENERGY PREDICTED BY IDOCK:  -11.65 KCAL/MOL
REMARK 923 INTER-LIGAND FREE ENERGY PREDICTED BY IDOCK:   -9.85 KCAL/MOL
REMARK 924 INTRA-LIGAND FREE ENERGY PREDICTED BY IDOCK:   -1.80 KCAL/MOL
REMARK 927      BINDING AFFINITY PREDICTED BY RF-SCORE:    0.00 PKD
ROOT
HETATM    1  C   UNL     1     -12.184  10.057  70.853  1.00  0.00    -0.441 C  
HETATM    2  C   UNL     1     -11.154  10.251  69.730  1.00  0.00    -0.287 C  
ENDROOT
BRANCH   2   3
HETATM    3  C   UNL     1     -11.389  11.523  68.898  1.00  0.00    -0.331 A  
HETATM    4  C   UNL     1     -11.540  12.789  69.494  1.00  0.00    -0.342 A  
HETATM    5  C   UNL     1     -11.478  11.446  67.496  1.00  0.00    -0.336 A  
HETATM    6  F   UNL     1     -10.842  15.618  70.167  1.00  0.00    -0.247 F  
HETATM    7  F   UNL     1     -12.154  16.322  68.584  1.00  0.00    -0.307 F  
HETATM    8  C   UNL     1     -11.711  12.593  66.709  1.00  0.00    -0.460 A  
HETATM    9  C   UNL     1     -11.831  12.505  65.205  1.00  0.00    -0.413 C  
HETATM   10  C   UNL     1     -11.855  13.840  67.340  1.00  0.00    -0.431 A  
HETATM   11  F   UNL     1     -12.986  15.287  70.304  1.00  0.00    -0.381 F  
HETATM   12  F   UNL     1     -11.647  11.248  64.712  1.00  0.00    -0.226 F  
HETATM   13  F   UNL     1     -13.049  12.910  64.755  1.00  0.00    -0.444 F  
HETATM   14  F   UNL     1     -10.919  13.290  64.564  1.00  0.00    -0.312 F  
HETATM   15  C   UNL     1     -11.939  15.279  69.434  1.00  0.00    -0.315 C  
HETATM   16  C   UNL     1     -11.774  13.949  68.734  1.00  0.00    -0.392 A  
ENDBRANCH   2   3
BRANCH   2  17
HETATM   17  O   UNL     1     -10.907   9.036  68.978  1.00  0.00    -0.179 OA 
BRANCH  17  18
HETATM   18  C   UNL     1      -9.674   8.360  69.264  1.00  0.00    -0.177 C  
HETATM   19  C   UNL     1     -10.183   5.527  69.129  1.00  0.00    -0.239 C  
HETATM   20  C   UNL     1     -10.754   6.487  70.165  1.00  0.00    -0.252 C  
HETATM   21  O   UNL     1      -9.822   7.542  70.434  1.00  0.00    -0.183 OA 
HETATM   22  N   UNL     1      -9.873   6.174  67.822  1.00  0.00    -0.119 NA 
HETATM   23  C   UNL     1      -9.074   7.429  68.105  1.00  0.00    -0.131 C  
BRANCH  22  24
HETATM   24  C   UNL     1      -9.061   5.219  67.015  1.00  0.00    -0.112 C  
BRANCH  24  25
HETATM   25  C   UNL     1      -9.830   4.705  65.820  1.00  0.00    -0.215 C  
HETATM   26  N   UNL     1      -9.196   4.092  64.804  1.00  0.00    -0.142 NA 
HETATM   27  N   UNL     1     -11.124   4.796  65.673  1.00  0.00    -0.926 NA 
HETATM   28  O   UNL     1     -10.018   3.101  62.885  1.00  0.00    -0.093 OA 
HETATM   29  C   UNL     1     -10.164   3.719  63.922  1.00  0.00    -0.221 C  
HETATM   30  N   UNL     1     -11.354   4.183  64.468  1.00  0.00    -0.140 NA 
HETATM   31  H   UNL     1     -11.803   5.221  66.305  1.00  0.00     0.000 HD 
ENDBRANCH  24  25
ENDBRANCH  22  24
BRANCH  23  32
HETATM   32  C   UNL     1      -8.626   8.172  66.843  1.00  0.00    -0.126 A  
HETATM   33  C   UNL     1      -7.729   9.275  64.413  1.00  0.00    -0.118 A  
HETATM   34  F   UNL     1      -7.316   9.767  63.240  1.00  0.00    -0.108 F  
HETATM   35  C   UNL     1      -9.526   8.804  65.972  1.00  0.00    -0.302 A  
HETATM   36  C   UNL     1      -6.816   8.680  65.269  1.00  0.00    -0.071 A  
HETATM   37  C   UNL     1      -9.078   9.349  64.760  1.00  0.00    -0.248 A  
HETATM   38  C   UNL     1      -7.260   8.136  66.478  1.00  0.00    -0.080 A  
ENDBRANCH  23  32
ENDBRANCH  17  18
ENDBRANCH   2  17
TORSDOF 6
ENDMDL
MODEL       43
REMARK 921   NORMALIZED FREE ENERGY PREDICTED BY IDOCK:   -7.02 KCAL/MOL
REMARK 922        TOTAL FREE ENERGY PREDICTED BY IDOCK:  -11.61 KCAL/MOL
REMARK 923 INTER-LIGAND FREE ENERGY PREDICTED BY IDOCK:   -9.72 KCAL/MOL
REMARK 924 INTRA-LIGAND FREE ENERGY PREDICTED BY IDOCK:   -1.90 KCAL/MOL
REMARK 927      BINDING AFFINITY PREDICTED BY RF-SCORE:    0.00 PKD
ROOT
HETATM    1  C   UNL     1      -6.442  14.828  67.868  1.00  0.00    -0.176 C  
HETATM    2  C   UNL     1      -7.829  14.178  67.762  1.00  0.00    -0.170 C  
ENDROOT
BRANCH   2   3
HETATM    3  C   UNL     1      -8.971  15.093  68.236  1.00  0.00    -0.175 A  
HETATM    4  C   UNL     1     -10.036  14.613  69.021  1.00  0.00    -0.211 A  
HETATM    5  C   UNL     1      -8.986  16.452  67.874  1.00  0.00    -0.196 A  
HETATM    6  F   UNL     1     -11.766  14.339  71.445  1.00  0.00    -0.371 F  
HETATM    7  F   UNL     1     -13.164  15.781  70.613  1.00  0.00    -0.511 F  
HETATM    8  C   UNL     1     -10.029  17.310  68.279  1.00  0.00    -0.313 A  
HETATM    9  C   UNL     1     -10.057  18.764  67.869  1.00  0.00    -0.366 C  
HETATM   10  C   UNL     1     -11.075  16.795  69.064  1.00  0.00    -0.171 A  
HETATM   11  F   UNL     1     -12.872  13.862  69.635  1.00  0.00    -0.271 F  
HETATM   12  F   UNL     1      -8.976  19.148  67.133  1.00  0.00    -0.282 F  
HETATM   13  F   UNL     1     -11.150  19.073  67.121  1.00  0.00    -0.508 F  
HETATM   14  F   UNL     1     -10.092  19.606  68.941  1.00  0.00    -0.467 F  
HETATM   15  C   UNL     1     -12.212  14.868  70.271  1.00  0.00    -0.335 C  
HETATM   16  C   UNL     1     -11.090  15.446  69.439  1.00  0.00    -0.283 A  
ENDBRANCH   2   3
BRANCH   2  17
HETATM   17  O   UNL     1      -7.854  12.818  68.265  1.00  0.00    -0.129 OA 
BRANCH  17  18
HETATM   18  C   UNL     1      -7.475  11.796  67.333  1.00  0.00    -0.143 C  
HETATM   19  C   UNL     1      -7.912   9.249  68.609  1.00  0.00    -0.100 C  
HETATM   20  C   UNL     1      -6.877  10.288  69.023  1.00  0.00    -0.058 C  
HETATM   21  O   UNL     1      -6.406  11.006  67.876  1.00  0.00    -0.056 OA 
HETATM   22  N   UNL     1      -9.111   9.833  67.942  1.00  0.00    -0.121 NA 
HETATM   23  C   UNL     1      -8.625  10.782  66.866  1.00  0.00    -0.132 C  
BRANCH  22  24
HETATM   24  C   UNL     1      -9.888   8.717  67.331  1.00  0.00    -0.194 C  
BRANCH  24  25
HETATM   25  C   UNL     1     -10.417   7.767  68.381  1.00  0.00    -0.166 C  
HETATM   26  N   UNL     1     -10.989   8.231  69.506  1.00  0.00    -0.114 NA 
HETATM   27  N   UNL     1     -10.379   6.465  68.292  1.00  0.00    -0.171 NA 
HETATM   28  O   UNL     1     -11.987   7.117  71.268  1.00  0.00    -0.301 OA 
HETATM   29  C   UNL     1     -11.390   7.137  70.208  1.00  0.00    -0.269 C  
HETATM   30  N   UNL     1     -10.984   6.046  69.448  1.00  0.00    -0.367 NA 
HETATM   31  H   UNL     1      -9.991   5.895  67.540  1.00  0.00     0.000 HD 
ENDBRANCH  24  25
ENDBRANCH  22  24
BRANCH  23  32
HETATM   32  C   UNL     1      -9.754  11.414  66.047  1.00  0.00    -0.253 A  
HETATM   33  C   UNL     1     -11.917  12.303  64.480  1.00  0.00    -0.383 A  
HETATM   34  F   UNL     1     -12.967  12.694  63.749  1.00  0.00    -0.355 F  
HETATM   35  C   UNL     1     -10.812  12.124  66.631  1.00  0.00    -0.307 A  
HETATM   36  C   UNL     1     -10.870  11.627  63.874  1.00  0.00    -0.471 A  
HETATM   37  C   UNL     1     -11.892  12.563  65.850  1.00  0.00    -0.489 A  
HETATM   38  C   UNL     1      -9.793  11.189  64.651  1.00  0.00    -0.330 A  
ENDBRANCH  23  32
ENDBRANCH  17  18
ENDBRANCH   2  17
TORSDOF 6
ENDMDL
MODEL       44
REMARK 921   NORMALIZED FREE ENERGY PREDICTED BY IDOCK:   -7.01 KCAL/MOL
REMARK 922        TOTAL FREE ENERGY PREDICTED BY IDOCK:  -11.60 KCAL/MOL
REMARK 923 INTER-LIGAND FREE ENERGY PREDICTED BY IDOCK:   -9.54 KCAL/MOL
REMARK 924 INTRA-LIGAND FREE ENERGY PREDICTED BY IDOCK:   -2.06 KCAL/MOL
REMARK 927      BINDING AFFINITY PREDICTED BY RF-SCORE:    0.00 PKD
ROOT
HETATM    1  C   UNL     1     -13.034   9.770  71.942  1.00  0.00    -0.535 C  
HETATM    2  C   UNL     1     -11.877  10.219  71.039  1.00  0.00    -0.377 C  
ENDROOT
BRANCH   2   3
HETATM    3  C   UNL     1     -12.076  11.622  70.441  1.00  0.00    -0.462 A  
HETATM    4  C   UNL     1     -11.759  11.915  69.101  1.00  0.00    -0.380 A  
HETATM    5  C   UNL     1     -12.573  12.668  71.239  1.00  0.00    -0.339 A  
HETATM    6  F   UNL     1     -12.265  12.678  66.254  1.00  0.00    -0.466 F  
HETATM    7  F   UNL     1     -11.766  14.743  66.716  1.00  0.00    -0.362 F  
HETATM    8  C   UNL     1     -12.748  13.968  70.722  1.00  0.00    -0.396 A  
HETATM    9  C   UNL     1     -13.259  15.097  71.588  1.00  0.00    -0.409 C  
HETATM   10  C   UNL     1     -12.422  14.223  69.379  1.00  0.00    -0.112 A  
HETATM   11  F   UNL     1     -10.242  13.200  66.857  1.00  0.00    -0.235 F  
HETATM   12  F   UNL     1     -13.564  14.719  72.861  1.00  0.00    -0.477 F  
HETATM   13  F   UNL     1     -12.360  16.112  71.703  1.00  0.00    -0.455 F  
HETATM   14  F   UNL     1     -14.395  15.663  71.088  1.00  0.00    -0.521 F  
HETATM   15  C   UNL     1     -11.554  13.458  67.116  1.00  0.00    -0.358 C  
HETATM   16  C   UNL     1     -11.924  13.203  68.560  1.00  0.00    -0.324 A  
ENDBRANCH   2   3
BRANCH   2  17
HETATM   17  O   UNL     1     -11.454   9.187  70.112  1.00  0.00    -0.208 OA 
BRANCH  17  18
HETATM   18  C   UNL     1     -10.325   8.402  70.517  1.00  0.00    -0.199 C  
HETATM   19  C   UNL     1      -9.918   6.364  68.520  1.00  0.00    -0.142 C  
HETATM   20  C   UNL     1     -11.117   6.469  69.456  1.00  0.00    -0.365 C  
HETATM   21  O   UNL     1     -10.720   7.035  70.711  1.00  0.00    -0.220 OA 
HETATM   22  N   UNL     1      -9.277   7.677  68.221  1.00  0.00    -0.139 NA 
HETATM   23  C   UNL     1      -9.058   8.395  69.536  1.00  0.00    -0.153 C  
BRANCH  22  24
HETATM   24  C   UNL     1      -7.970   7.410  67.556  1.00  0.00    -0.113 C  
BRANCH  24  25
HETATM   25  C   UNL     1      -7.969   7.882  66.120  1.00  0.00    -0.104 C  
HETATM   26  N   UNL     1      -8.904   8.741  65.675  1.00  0.00    -0.190 NA 
HETATM   27  N   UNL     1      -7.094   7.523  65.220  1.00  0.00    -0.062 NA 
HETATM   28  O   UNL     1      -9.173   9.751  63.615  1.00  0.00    -0.259 OA 
HETATM   29  C   UNL     1      -8.599   8.994  64.373  1.00  0.00    -0.150 C  
HETATM   30  N   UNL     1      -7.483   8.213  64.101  1.00  0.00    -0.099 NA 
HETATM   31  H   UNL     1      -6.307   6.883  65.325  1.00  0.00     0.000 HD 
ENDBRANCH  24  25
ENDBRANCH  22  24
BRANCH  23  32
HETATM   32  C   UNL     1      -8.344   9.742  69.390  1.00  0.00    -0.153 A  
HETATM   33  C   UNL     1      -6.801  12.067  69.015  1.00  0.00    -0.105 A  
HETATM   34  F   UNL     1      -6.053  13.156  68.805  1.00  0.00    -0.068 F  
HETATM   35  C   UNL     1      -8.734  10.713  68.456  1.00  0.00    -0.141 A  
HETATM   36  C   UNL     1      -6.409  11.135  69.963  1.00  0.00    -0.147 A  
HETATM   37  C   UNL     1      -7.962  11.869  68.268  1.00  0.00    -0.148 A  
HETATM   38  C   UNL     1      -7.178   9.982  70.153  1.00  0.00    -0.167 A  
ENDBRANCH  23  32
ENDBRANCH  17  18
ENDBRANCH   2  17
TORSDOF 6
ENDMDL
MODEL       45
REMARK 921   NORMALIZED FREE ENERGY PREDICTED BY IDOCK:   -7.00 KCAL/MOL
REMARK 922        TOTAL FREE ENERGY PREDICTED BY IDOCK:  -11.59 KCAL/MOL
REMARK 923 INTER-LIGAND FREE ENERGY PREDICTED BY IDOCK:  -10.14 KCAL/MOL
REMARK 924 INTRA-LIGAND FREE ENERGY PREDICTED BY IDOCK:   -1.46 KCAL/MOL
REMARK 927      BINDING AFFINITY PREDICTED BY RF-SCORE:    0.00 PKD
ROOT
HETATM    1  C   UNL     1     -12.212  11.306  68.140  1.00  0.00     0.256 C  
HETATM    2  C   UNL     1     -10.842  11.553  68.788  1.00  0.00    -0.216 C  
ENDROOT
BRANCH   2   3
HETATM    3  C   UNL     1     -10.417  10.441  69.763  1.00  0.00    -0.284 A  
HETATM    4  C   UNL     1     -11.354   9.717  70.525  1.00  0.00    -0.382 A  
HETATM    5  C   UNL     1      -9.056  10.128  69.930  1.00  0.00    -0.110 A  
HETATM    6  F   UNL     1     -12.913   7.333  71.433  1.00  0.00    -0.362 F  
HETATM    7  F   UNL     1     -11.506   7.031  73.063  1.00  0.00    -0.272 F  
HETATM    8  C   UNL     1      -8.637   9.126  70.830  1.00  0.00    -0.265 A  
HETATM    9  C   UNL     1      -7.172   8.808  71.027  1.00  0.00    -0.088 C  
HETATM   10  C   UNL     1      -9.601   8.424  71.573  1.00  0.00    -0.273 A  
HETATM   11  F   UNL     1     -12.750   8.812  73.018  1.00  0.00    -0.405 F  
HETATM   12  F   UNL     1      -6.340   9.537  70.232  1.00  0.00    -0.042 F  
HETATM   13  F   UNL     1      -6.759   9.028  72.305  1.00  0.00    -0.077 F  
HETATM   14  F   UNL     1      -6.884   7.502  70.764  1.00  0.00    -0.045 F  
HETATM   15  C   UNL     1     -12.016   7.980  72.229  1.00  0.00    -0.358 C  
HETATM   16  C   UNL     1     -10.963   8.714  71.430  1.00  0.00    -0.341 A  
ENDBRANCH   2   3
BRANCH   2  17
HETATM   17  O   UNL     1     -10.682  12.912  69.266  1.00  0.00    -0.086 OA 
BRANCH  17  18
HETATM   18  C   UNL     1     -11.800  13.787  69.060  1.00  0.00    -0.357 C  
HETATM   19  C   UNL     1     -10.901  16.481  69.553  1.00  0.00    -0.315 C  
HETATM   20  C   UNL     1     -11.015  15.373  70.595  1.00  0.00    -0.319 C  
HETATM   21  O   UNL     1     -12.101  14.496  70.271  1.00  0.00    -0.283 OA 
HETATM   22  N   UNL     1     -10.656  15.978  68.171  1.00  0.00    -0.275 NA 
HETATM   23  C   UNL     1     -11.659  14.878  67.894  1.00  0.00    -0.344 C  
BRANCH  22  24
HETATM   24  C   UNL     1     -10.860  17.111  67.225  1.00  0.00    -0.118 C  
BRANCH  24  25
HETATM   25  C   UNL     1      -9.545  17.671  66.734  1.00  0.00    -0.294 C  
HETATM   26  N   UNL     1      -9.111  18.876  67.148  1.00  0.00    -0.283 NA 
HETATM   27  N   UNL     1      -8.739  17.062  65.907  1.00  0.00    -0.533 NA 
HETATM   28  O   UNL     1      -7.146  20.009  66.707  1.00  0.00    -0.219 OA 
HETATM   29  C   UNL     1      -7.896  19.063  66.564  1.00  0.00    -0.268 C  
HETATM   30  N   UNL     1      -7.689  17.934  65.780  1.00  0.00    -0.551 NA 
HETATM   31  H   UNL     1      -8.862  16.152  65.463  1.00  0.00     0.000 HD 
ENDBRANCH  24  25
ENDBRANCH  22  24
BRANCH  23  32
HETATM   32  C   UNL     1     -11.568  14.304  66.477  1.00  0.00    -0.390 A  
HETATM   33  C   UNL     1     -11.304  13.001  63.995  1.00  0.00    -0.410 A  
HETATM   34  F   UNL     1     -11.190  12.349  62.833  1.00  0.00    -0.391 F  
HETATM   35  C   UNL     1     -12.697  14.032  65.692  1.00  0.00    -0.515 A  
HETATM   36  C   UNL     1     -10.170  13.284  64.740  1.00  0.00    -0.323 A  
HETATM   37  C   UNL     1     -12.565  13.379  64.457  1.00  0.00    -0.286 A  
HETATM   38  C   UNL     1     -10.300  13.935  65.970  1.00  0.00    -0.310 A  
ENDBRANCH  23  32
ENDBRANCH  17  18
ENDBRANCH   2  17
TORSDOF 6
ENDMDL
MODEL       46
REMARK 921   NORMALIZED FREE ENERGY PREDICTED BY IDOCK:   -6.98 KCAL/MOL
REMARK 922        TOTAL FREE ENERGY PREDICTED BY IDOCK:  -11.56 KCAL/MOL
REMARK 923 INTER-LIGAND FREE ENERGY PREDICTED BY IDOCK:  -10.33 KCAL/MOL
REMARK 924 INTRA-LIGAND FREE ENERGY PREDICTED BY IDOCK:   -1.23 KCAL/MOL
REMARK 927      BINDING AFFINITY PREDICTED BY RF-SCORE:    0.00 PKD
ROOT
HETATM    1  C   UNL     1     -10.056  10.151  67.057  1.00  0.00    -0.277 C  
HETATM    2  C   UNL     1      -9.861   9.898  68.559  1.00  0.00    -0.156 C  
ENDROOT
BRANCH   2   3
HETATM    3  C   UNL     1     -10.132   8.442  68.975  1.00  0.00    -0.209 A  
HETATM    4  C   UNL     1      -9.922   7.363  68.096  1.00  0.00    -0.190 A  
HETATM    5  C   UNL     1     -10.620   8.152  70.262  1.00  0.00    -0.228 A  
HETATM    6  F   UNL     1      -8.658   4.858  67.061  1.00  0.00    -0.107 F  
HETATM    7  F   UNL     1     -10.245   3.680  67.966  1.00  0.00    -0.027 F  
HETATM    8  C   UNL     1     -10.894   6.829  70.664  1.00  0.00    -0.292 A  
HETATM    9  C   UNL     1     -11.443   6.521  72.038  1.00  0.00    -0.300 C  
HETATM   10  C   UNL     1     -10.672   5.777  69.759  1.00  0.00    -0.418 A  
HETATM   11  F   UNL     1     -10.703   5.056  66.347  1.00  0.00    -0.297 F  
HETATM   12  F   UNL     1     -11.589   7.620  72.830  1.00  0.00    -0.343 F  
HETATM   13  F   UNL     1     -12.665   5.927  71.990  1.00  0.00    -0.231 F  
HETATM   14  F   UNL     1     -10.642   5.667  72.737  1.00  0.00    -0.211 F  
HETATM   15  C   UNL     1      -9.955   4.918  67.477  1.00  0.00    -0.156 C  
HETATM   16  C   UNL     1     -10.188   6.033  68.470  1.00  0.00    -0.227 A  
ENDBRANCH   2   3
BRANCH   2  17
HETATM   17  O   UNL     1     -10.474  10.920  69.386  1.00  0.00    -0.219 OA 
BRANCH  17  18
HETATM   18  C   UNL     1     -11.768  11.374  68.966  1.00  0.00    -0.343 C  
HETATM   19  C   UNL     1     -13.038  12.605  71.242  1.00  0.00    -0.145 C  
HETATM   20  C   UNL     1     -12.696  11.126  71.103  1.00  0.00    -0.408 C  
HETATM   21  O   UNL     1     -12.792  10.720  69.732  1.00  0.00    -0.174 OA 
HETATM   22  N   UNL     1     -12.139  13.502  70.461  1.00  0.00    -0.352 NA 
HETATM   23  C   UNL     1     -12.044  12.951  69.054  1.00  0.00    -0.154 C  
BRANCH  22  24
HETATM   24  C   UNL     1     -12.748  14.862  70.442  1.00  0.00    -0.321 C  
BRANCH  24  25
HETATM   25  C   UNL     1     -12.925  15.414  71.837  1.00  0.00    -0.414 C  
HETATM   26  N   UNL     1     -11.923  16.068  72.452  1.00  0.00    -0.504 NA 
HETATM   27  N   UNL     1     -14.021  15.320  72.541  1.00  0.00    -0.515 NA 
HETATM   28  O   UNL     1     -11.840  17.123  74.507  1.00  0.00    -0.302 OA 
HETATM   29  C   UNL     1     -12.413  16.467  73.658  1.00  0.00    -0.480 C  
HETATM   30  N   UNL     1     -13.712  15.976  73.705  1.00  0.00    -0.303 NA 
HETATM   31  H   UNL     1     -14.898  14.868  72.284  1.00  0.00     0.000 HD 
ENDBRANCH  24  25
ENDBRANCH  22  24
BRANCH  23  32
HETATM   32  C   UNL     1     -11.197  13.811  68.112  1.00  0.00    -0.298 A  
HETATM   33  C   UNL     1      -9.826  15.611  66.436  1.00  0.00    -0.274 A  
HETATM   34  F   UNL     1      -9.184  16.496  65.665  1.00  0.00    -0.298 F  
HETATM   35  C   UNL     1      -9.893  14.222  68.423  1.00  0.00    -0.233 A  
HETATM   36  C   UNL     1     -11.105  15.199  66.093  1.00  0.00    -0.311 A  
HETATM   37  C   UNL     1      -9.213  15.122  67.589  1.00  0.00    -0.181 A  
HETATM   38  C   UNL     1     -11.784  14.302  66.922  1.00  0.00    -0.430 A  
ENDBRANCH  23  32
ENDBRANCH  17  18
ENDBRANCH   2  17
TORSDOF 6
ENDMDL
MODEL       47
REMARK 921   NORMALIZED FREE ENERGY PREDICTED BY IDOCK:   -6.97 KCAL/MOL
REMARK 922        TOTAL FREE ENERGY PREDICTED BY IDOCK:  -11.55 KCAL/MOL
REMARK 923 INTER-LIGAND FREE ENERGY PREDICTED BY IDOCK:   -9.64 KCAL/MOL
REMARK 924 INTRA-LIGAND FREE ENERGY PREDICTED BY IDOCK:   -1.90 KCAL/MOL
REMARK 927      BINDING AFFINITY PREDICTED BY RF-SCORE:    0.00 PKD
ROOT
HETATM    1  C   UNL     1     -10.192  13.625  67.841  1.00  0.00    -0.250 C  
HETATM    2  C   UNL     1     -10.916  12.287  68.052  1.00  0.00    -0.225 C  
ENDROOT
BRANCH   2   3
HETATM    3  C   UNL     1     -11.654  12.197  69.398  1.00  0.00    -0.381 A  
HETATM    4  C   UNL     1     -12.036  10.963  69.960  1.00  0.00    -0.433 A  
HETATM    5  C   UNL     1     -11.985  13.367  70.105  1.00  0.00    -0.396 A  
HETATM    6  F   UNL     1     -12.044   8.722  71.940  1.00  0.00    -0.330 F  
HETATM    7  F   UNL     1     -13.780   9.590  72.919  1.00  0.00    -0.386 F  
HETATM    8  C   UNL     1     -12.678  13.315  71.332  1.00  0.00    -0.401 A  
HETATM    9  C   UNL     1     -13.055  14.575  72.077  1.00  0.00    -0.344 C  
HETATM   10  C   UNL     1     -13.042  12.066  71.862  1.00  0.00    -0.475 A  
HETATM   11  F   UNL     1     -13.941   8.842  70.885  1.00  0.00    -0.233 F  
HETATM   12  F   UNL     1     -12.624  15.719  71.475  1.00  0.00    -0.389 F  
HETATM   13  F   UNL     1     -14.401  14.711  72.223  1.00  0.00    -0.492 F  
HETATM   14  F   UNL     1     -12.541  14.605  73.340  1.00  0.00    -0.499 F  
HETATM   15  C   UNL     1     -13.122   9.529  71.728  1.00  0.00    -0.418 C  
HETATM   16  C   UNL     1     -12.728  10.882  71.182  1.00  0.00    -0.530 A  
ENDBRANCH   2   3
BRANCH   2  17
HETATM   17  O   UNL     1     -10.099  11.143  67.697  1.00  0.00    -0.175 OA 
BRANCH  17  18
HETATM   18  C   UNL     1     -10.659  10.248  66.726  1.00  0.00    -0.185 C  
HETATM   19  C   UNL     1      -8.550   9.509  64.905  1.00  0.00    -0.172 C  
HETATM   20  C   UNL     1      -9.151  10.902  65.056  1.00  0.00    -0.190 C  
HETATM   21  O   UNL     1     -10.537  10.810  65.410  1.00  0.00    -0.242 OA 
HETATM   22  N   UNL     1      -8.627   8.688  66.148  1.00  0.00    -0.134 NA 
HETATM   23  C   UNL     1     -10.046   8.768  66.668  1.00  0.00    -0.288 C  
BRANCH  22  24
HETATM   24  C   UNL     1      -8.288   7.281  65.791  1.00  0.00    -0.139 C  
BRANCH  24  25
HETATM   25  C   UNL     1      -7.454   6.619  66.864  1.00  0.00    -0.087 C  
HETATM   26  N   UNL     1      -7.733   5.371  67.283  1.00  0.00    -0.095 NA 
HETATM   27  N   UNL     1      -6.426   7.169  67.451  1.00  0.00    -0.055 NA 
HETATM   28  O   UNL     1      -6.652   4.009  68.804  1.00  0.00    -0.042 OA 
HETATM   29  C   UNL     1      -6.784   5.060  68.208  1.00  0.00    -0.054 C  
HETATM   30  N   UNL     1      -5.992   6.197  68.316  1.00  0.00    -0.015 NA 
HETATM   31  H   UNL     1      -6.037   8.100  67.302  1.00  0.00     0.000 HD 
ENDBRANCH  24  25
ENDBRANCH  22  24
BRANCH  23  32
HETATM   32  C   UNL     1     -10.293   7.915  67.916  1.00  0.00    -0.281 A  
HETATM   33  C   UNL     1     -10.596   6.134  70.075  1.00  0.00    -0.261 A  
HETATM   34  F   UNL     1     -10.704   5.273  71.093  1.00  0.00    -0.295 F  
HETATM   35  C   UNL     1      -9.699   8.191  69.156  1.00  0.00    -0.163 A  
HETATM   36  C   UNL     1     -11.215   5.852  68.868  1.00  0.00    -0.124 A  
HETATM   37  C   UNL     1      -9.848   7.300  70.230  1.00  0.00    -0.179 A  
HETATM   38  C   UNL     1     -11.069   6.738  67.796  1.00  0.00    -0.285 A  
ENDBRANCH  23  32
ENDBRANCH  17  18
ENDBRANCH   2  17
TORSDOF 6
ENDMDL
MODEL       48
REMARK 921   NORMALIZED FREE ENERGY PREDICTED BY IDOCK:   -6.95 KCAL/MOL
REMARK 922        TOTAL FREE ENERGY PREDICTED BY IDOCK:  -11.52 KCAL/MOL
REMARK 923 INTER-LIGAND FREE ENERGY PREDICTED BY IDOCK:   -9.71 KCAL/MOL
REMARK 924 INTRA-LIGAND FREE ENERGY PREDICTED BY IDOCK:   -1.81 KCAL/MOL
REMARK 927      BINDING AFFINITY PREDICTED BY RF-SCORE:    0.00 PKD
ROOT
HETATM    1  C   UNL     1      -6.204   9.397  70.124  1.00  0.00    -0.055 C  
HETATM    2  C   UNL     1      -7.630   9.962  70.053  1.00  0.00    -0.172 C  
ENDROOT
BRANCH   2   3
HETATM    3  C   UNL     1      -8.711   8.944  70.454  1.00  0.00    -0.200 A  
HETATM    4  C   UNL     1      -8.509   7.555  70.342  1.00  0.00    -0.141 A  
HETATM    5  C   UNL     1      -9.957   9.386  70.935  1.00  0.00    -0.353 A  
HETATM    6  F   UNL     1      -8.166   4.736  71.279  1.00  0.00    -0.092 F  
HETATM    7  F   UNL     1     -10.275   4.356  70.913  1.00  0.00    -0.269 F  
HETATM    8  C   UNL     1     -10.973   8.477  71.292  1.00  0.00    -0.316 A  
HETATM    9  C   UNL     1     -12.320   8.954  71.786  1.00  0.00    -0.357 C  
HETATM   10  C   UNL     1     -10.734   7.097  71.167  1.00  0.00    -0.252 A  
HETATM   11  F   UNL     1      -8.946   4.798  69.251  1.00  0.00    -0.098 F  
HETATM   12  F   UNL     1     -12.418  10.309  71.887  1.00  0.00    -0.455 F  
HETATM   13  F   UNL     1     -13.340   8.562  70.975  1.00  0.00    -0.224 F  
HETATM   14  F   UNL     1     -12.622   8.467  73.023  1.00  0.00    -0.381 F  
HETATM   15  C   UNL     1      -9.232   5.147  70.536  1.00  0.00    -0.146 C  
HETATM   16  C   UNL     1      -9.505   6.626  70.690  1.00  0.00    -0.174 A  
ENDBRANCH   2   3
BRANCH   2  17
HETATM   17  O   UNL     1      -7.880  10.708  68.835  1.00  0.00    -0.110 OA 
BRANCH  17  18
HETATM   18  C   UNL     1      -9.257  10.967  68.528  1.00  0.00    -0.177 C  
HETATM   19  C   UNL     1      -9.330  12.529  66.107  1.00  0.00    -0.134 C  
HETATM   20  C   UNL     1      -8.775  12.990  67.450  1.00  0.00    -0.205 C  
HETATM   21  O   UNL     1      -9.502  12.382  68.524  1.00  0.00    -0.184 OA 
HETATM   22  N   UNL     1      -9.251  11.054  65.903  1.00  0.00    -0.193 NA 
HETATM   23  C   UNL     1      -9.811  10.385  67.142  1.00  0.00    -0.181 C  
BRANCH  22  24
HETATM   24  C   UNL     1     -10.079  10.708  64.713  1.00  0.00    -0.344 C  
BRANCH  24  25
HETATM   25  C   UNL     1     -11.131  11.759  64.441  1.00  0.00    -0.334 C  
HETATM   26  N   UNL     1     -11.930  12.206  65.427  1.00  0.00    -0.444 NA 
HETATM   27  N   UNL     1     -11.345  12.313  63.279  1.00  0.00    -0.697 NA 
HETATM   28  O   UNL     1     -13.559  13.845  65.428  1.00  0.00    -0.571 OA 
HETATM   29  C   UNL     1     -12.722  13.162  64.870  1.00  0.00    -0.356 C  
HETATM   30  N   UNL     1     -12.359  13.201  63.529  1.00  0.00    -0.744 NA 
HETATM   31  H   UNL     1     -10.871  12.129  62.395  1.00  0.00     0.000 HD 
ENDBRANCH  24  25
ENDBRANCH  22  24
BRANCH  23  32
HETATM   32  C   UNL     1      -9.853   8.857  67.051  1.00  0.00    -0.277 A  
HETATM   33  C   UNL     1     -10.153   6.081  66.694  1.00  0.00    -0.174 A  
HETATM   34  F   UNL     1     -10.305   4.768  66.487  1.00  0.00    -0.221 F  
HETATM   35  C   UNL     1      -8.837   8.103  66.446  1.00  0.00    -0.182 A  
HETATM   36  C   UNL     1     -11.159   6.800  67.319  1.00  0.00    -0.394 A  
HETATM   37  C   UNL     1      -8.990   6.720  66.265  1.00  0.00    -0.170 A  
HETATM   38  C   UNL     1     -11.009   8.178  67.501  1.00  0.00     0.064 A  
ENDBRANCH  23  32
ENDBRANCH  17  18
ENDBRANCH   2  17
TORSDOF 6
ENDMDL
MODEL       49
REMARK 921   NORMALIZED FREE ENERGY PREDICTED BY IDOCK:   -6.94 KCAL/MOL
REMARK 922        TOTAL FREE ENERGY PREDICTED BY IDOCK:  -11.51 KCAL/MOL
REMARK 923 INTER-LIGAND FREE ENERGY PREDICTED BY IDOCK:   -9.73 KCAL/MOL
REMARK 924 INTRA-LIGAND FREE ENERGY PREDICTED BY IDOCK:   -1.78 KCAL/MOL
REMARK 927      BINDING AFFINITY PREDICTED BY RF-SCORE:    0.00 PKD
ROOT
HETATM    1  C   UNL     1     -13.626   9.737  72.000  1.00  0.00    -0.436 C  
HETATM    2  C   UNL     1     -12.296  10.178  71.371  1.00  0.00    -0.416 C  
ENDROOT
BRANCH   2   3
HETATM    3  C   UNL     1     -12.335  11.604  70.795  1.00  0.00    -0.454 A  
HETATM    4  C   UNL     1     -11.899  11.894  69.488  1.00  0.00    -0.395 A  
HETATM    5  C   UNL     1     -12.801  12.673  71.581  1.00  0.00    -0.367 A  
HETATM    6  F   UNL     1     -12.133  12.749  66.632  1.00  0.00    -0.435 F  
HETATM    7  F   UNL     1     -11.500  14.756  67.178  1.00  0.00    -0.328 F  
HETATM    8  C   UNL     1     -12.830  13.993  71.085  1.00  0.00    -0.427 A  
HETATM    9  C   UNL     1     -13.307  15.145  71.940  1.00  0.00    -0.399 C  
HETATM   10  C   UNL     1     -12.387  14.244  69.775  1.00  0.00    -0.342 A  
HETATM   11  F   UNL     1     -10.123  13.088  67.389  1.00  0.00    -0.221 F  
HETATM   12  F   UNL     1     -13.733  14.770  73.178  1.00  0.00    -0.503 F  
HETATM   13  F   UNL     1     -12.338  16.078  72.142  1.00  0.00    -0.426 F  
HETATM   14  F   UNL     1     -14.353  15.813  71.375  1.00  0.00    -0.482 F  
HETATM   15  C   UNL     1     -11.424  13.450  67.561  1.00  0.00    -0.323 C  
HETATM   16  C   UNL     1     -11.917  13.200  68.968  1.00  0.00    -0.329 A  
ENDBRANCH   2   3
BRANCH   2  17
HETATM   17  O   UNL     1     -11.714   9.162  70.515  1.00  0.00    -0.247 OA 
BRANCH  17  18
HETATM   18  C   UNL     1     -10.652   8.389  71.091  1.00  0.00    -0.215 C  
HETATM   19  C   UNL     1     -10.610   5.837  69.751  1.00  0.00    -0.318 C  
HETATM   20  C   UNL     1     -11.722   6.350  70.658  1.00  0.00    -0.311 C  
HETATM   21  O   UNL     1     -11.180   7.192  71.683  1.00  0.00    -0.237 OA 
HETATM   22  N   UNL     1      -9.851   6.922  69.065  1.00  0.00    -0.150 NA 
HETATM   23  C   UNL     1      -9.464   7.948  70.109  1.00  0.00    -0.160 C  
BRANCH  22  24
HETATM   24  C   UNL     1      -8.630   6.319  68.460  1.00  0.00    -0.114 C  
BRANCH  24  25
HETATM   25  C   UNL     1      -8.959   5.516  67.222  1.00  0.00    -0.111 C  
HETATM   26  N   UNL     1      -8.522   4.251  67.084  1.00  0.00    -0.100 NA 
HETATM   27  N   UNL     1      -9.675   5.952  66.222  1.00  0.00    -0.279 NA 
HETATM   28  O   UNL     1      -8.892   2.695  65.416  1.00  0.00    -0.119 OA 
HETATM   29  C   UNL     1      -9.020   3.804  65.899  1.00  0.00    -0.135 C  
HETATM   30  N   UNL     1      -9.717   4.881  65.366  1.00  0.00    -0.118 NA 
HETATM   31  H   UNL     1     -10.102   6.871  66.105  1.00  0.00     0.000 HD 
ENDBRANCH  24  25
ENDBRANCH  22  24
BRANCH  23  32
HETATM   32  C   UNL     1      -8.619   9.100  69.557  1.00  0.00    -0.138 A  
HETATM   33  C   UNL     1      -7.306  11.381  68.559  1.00  0.00    -0.105 A  
HETATM   34  F   UNL     1      -6.705  12.488  68.108  1.00  0.00    -0.060 F  
HETATM   35  C   UNL     1      -7.591   9.709  70.291  1.00  0.00    -0.175 A  
HETATM   36  C   UNL     1      -8.301  10.782  67.802  1.00  0.00    -0.113 A  
HETATM   37  C   UNL     1      -6.941  10.848  69.794  1.00  0.00    -0.121 A  
HETATM   38  C   UNL     1      -8.949   9.646  68.295  1.00  0.00    -0.123 A  
ENDBRANCH  23  32
ENDBRANCH  17  18
ENDBRANCH   2  17
TORSDOF 6
ENDMDL
MODEL       50
REMARK 921   NORMALIZED FREE ENERGY PREDICTED BY IDOCK:   -6.92 KCAL/MOL
REMARK 922        TOTAL FREE ENERGY PREDICTED BY IDOCK:  -11.47 KCAL/MOL
REMARK 923 INTER-LIGAND FREE ENERGY PREDICTED BY IDOCK:   -9.36 KCAL/MOL
REMARK 924 INTRA-LIGAND FREE ENERGY PREDICTED BY IDOCK:   -2.12 KCAL/MOL
REMARK 927      BINDING AFFINITY PREDICTED BY RF-SCORE:    0.00 PKD
ROOT
HETATM    1  C   UNL     1     -12.204  12.154  69.806  1.00  0.00    -0.212 C  
HETATM    2  C   UNL     1     -11.056  11.795  68.852  1.00  0.00    -0.243 C  
ENDROOT
BRANCH   2   3
HETATM    3  C   UNL     1     -11.059  12.620  67.553  1.00  0.00    -0.313 A  
HETATM    4  C   UNL     1     -11.583  12.115  66.348  1.00  0.00    -0.429 A  
HETATM    5  C   UNL     1     -10.513  13.917  67.536  1.00  0.00    -0.248 A  
HETATM    6  F   UNL     1     -13.450  11.928  64.020  1.00  0.00    -0.453 F  
HETATM    7  F   UNL     1     -12.064  13.089  62.812  1.00  0.00    -0.480 F  
HETATM    8  C   UNL     1     -10.486  14.688  66.357  1.00  0.00    -0.296 A  
HETATM    9  C   UNL     1      -9.876  16.071  66.334  1.00  0.00    -0.288 C  
HETATM   10  C   UNL     1     -11.018  14.151  65.173  1.00  0.00    -0.361 A  
HETATM   11  F   UNL     1     -11.496  11.116  63.523  1.00  0.00    -0.421 F  
HETATM   12  F   UNL     1      -9.417  16.489  67.547  1.00  0.00    -0.218 F  
HETATM   13  F   UNL     1      -8.819  16.160  65.482  1.00  0.00    -0.247 F  
HETATM   14  F   UNL     1     -10.762  17.023  65.926  1.00  0.00    -0.326 F  
HETATM   15  C   UNL     1     -12.135  12.260  63.891  1.00  0.00    -0.506 C  
HETATM   16  C   UNL     1     -11.568  12.863  65.157  1.00  0.00    -0.367 A  
ENDBRANCH   2   3
BRANCH   2  17
HETATM   17  O   UNL     1     -10.881  10.364  68.695  1.00  0.00    -0.205 OA 
BRANCH  17  18
HETATM   18  C   UNL     1      -9.602   9.842  69.079  1.00  0.00    -0.177 C  
HETATM   19  C   UNL     1      -9.885   6.991  69.396  1.00  0.00    -0.160 C  
HETATM   20  C   UNL     1     -10.539   8.056  70.270  1.00  0.00    -0.231 C  
HETATM   21  O   UNL     1      -9.694   9.209  70.364  1.00  0.00    -0.188 OA 
HETATM   22  N   UNL     1      -9.616   7.447  68.002  1.00  0.00    -0.140 NA 
HETATM   23  C   UNL     1      -8.921   8.790  68.080  1.00  0.00    -0.140 C  
BRANCH  22  24
HETATM   24  C   UNL     1      -8.724   6.443  67.353  1.00  0.00    -0.106 C  
BRANCH  24  25
HETATM   25  C   UNL     1      -9.502   5.499  66.465  1.00  0.00    -0.151 C  
HETATM   26  N   UNL     1      -8.880   4.506  65.804  1.00  0.00    -0.121 NA 
HETATM   27  N   UNL     1     -10.792   5.550  66.274  1.00  0.00    -0.701 NA 
HETATM   28  O   UNL     1      -9.720   2.829  64.453  1.00  0.00    -0.152 OA 
HETATM   29  C   UNL     1      -9.853   3.824  65.140  1.00  0.00    -0.161 C  
HETATM   30  N   UNL     1     -11.034   4.499  65.428  1.00  0.00    -0.139 NA 
HETATM   31  H   UNL     1     -11.461   6.214  66.663  1.00  0.00     0.000 HD 
ENDBRANCH  24  25
ENDBRANCH  22  24
BRANCH  23  32
HETATM   32  C   UNL     1      -8.522   9.357  66.714  1.00  0.00    -0.129 A  
HETATM   33  C   UNL     1      -7.583  10.190  64.194  1.00  0.00    -0.125 A  
HETATM   34  F   UNL     1      -7.129  10.548  62.988  1.00  0.00    -0.138 F  
HETATM   35  C   UNL     1      -9.340   9.255  65.580  1.00  0.00    -0.303 A  
HETATM   36  C   UNL     1      -6.765  10.325  65.305  1.00  0.00    -0.126 A  
HETATM   37  C   UNL     1      -8.869   9.667  64.324  1.00  0.00    -0.260 A  
HETATM   38  C   UNL     1      -7.232   9.916  66.557  1.00  0.00    -0.095 A  
ENDBRANCH  23  32
ENDBRANCH  17  18
ENDBRANCH   2  17
TORSDOF 6
ENDMDL
MODEL       51
REMARK 921   NORMALIZED FREE ENERGY PREDICTED BY IDOCK:   -6.90 KCAL/MOL
REMARK 922        TOTAL FREE ENERGY PREDICTED BY IDOCK:  -11.46 KCAL/MOL
REMARK 923 INTER-LIGAND FREE ENERGY PREDICTED BY IDOCK:   -8.78 KCAL/MOL
REMARK 924 INTRA-LIGAND FREE ENERGY PREDICTED BY IDOCK:   -2.68 KCAL/MOL
REMARK 927      BINDING AFFINITY PREDICTED BY RF-SCORE:    0.00 PKD
ROOT
HETATM    1  C   UNL     1     -12.392  14.211  65.592  1.00  0.00    -0.473 C  
HETATM    2  C   UNL     1     -11.942  13.751  66.986  1.00  0.00    -0.413 C  
ENDROOT
BRANCH   2   3
HETATM    3  C   UNL     1     -11.616  14.915  67.938  1.00  0.00    -0.364 A  
HETATM    4  C   UNL     1     -11.925  14.866  69.311  1.00  0.00    -0.326 A  
HETATM    5  C   UNL     1     -11.005  16.083  67.447  1.00  0.00    -0.237 A  
HETATM    6  F   UNL     1     -11.394  14.781  72.253  1.00  0.00    -0.378 F  
HETATM    7  F   UNL     1     -11.680  16.933  72.369  1.00  0.00    -0.555 F  
HETATM    8  C   UNL     1     -10.712  17.172  68.293  1.00  0.00    -0.363 A  
HETATM    9  C   UNL     1     -10.079  18.436  67.758  1.00  0.00    -0.356 C  
HETATM   10  C   UNL     1     -11.034  17.087  69.658  1.00  0.00     0.125 A  
HETATM   11  F   UNL     1     -13.345  15.643  71.834  1.00  0.00    -0.433 F  
HETATM   12  F   UNL     1      -9.792  18.386  66.427  1.00  0.00    -0.306 F  
HETATM   13  F   UNL     1     -10.872  19.528  67.931  1.00  0.00    -0.506 F  
HETATM   14  F   UNL     1      -8.902  18.731  68.379  1.00  0.00    -0.317 F  
HETATM   15  C   UNL     1     -12.010  15.830  71.641  1.00  0.00    -0.454 C  
HETATM   16  C   UNL     1     -11.643  15.938  70.178  1.00  0.00    -0.357 A  
ENDBRANCH   2   3
BRANCH   2  17
HETATM   17  O   UNL     1     -10.968  12.678  66.938  1.00  0.00    -0.249 OA 
BRANCH  17  18
HETATM   18  C   UNL     1     -10.369  12.315  68.190  1.00  0.00    -0.216 C  
HETATM   19  C   UNL     1      -8.594  10.099  67.696  1.00  0.00    -0.118 C  
HETATM   20  C   UNL     1     -10.113  10.071  67.570  1.00  0.00    -0.198 C  
HETATM   21  O   UNL     1     -10.708  10.960  68.523  1.00  0.00    -0.178 OA 
HETATM   22  N   UNL     1      -8.000  11.447  67.460  1.00  0.00    -0.121 NA 
HETATM   23  C   UNL     1      -8.775  12.446  68.294  1.00  0.00    -0.175 C  
BRANCH  22  24
HETATM   24  C   UNL     1      -6.576  11.406  67.898  1.00  0.00    -0.059 C  
BRANCH  24  25
HETATM   25  C   UNL     1      -6.408  10.616  69.176  1.00  0.00    -0.053 C  
HETATM   26  N   UNL     1      -5.972   9.344  69.148  1.00  0.00    -0.041 NA 
HETATM   27  N   UNL     1      -6.650  11.078  70.373  1.00  0.00    -0.466 NA 
HETATM   28  O   UNL     1      -5.502   7.867  70.861  1.00  0.00    -0.029 OA 
HETATM   29  C   UNL     1      -5.891   8.941  70.445  1.00  0.00    -0.030 C  
HETATM   30  N   UNL     1      -6.336  10.025  71.193  1.00  0.00    -0.312 NA 
HETATM   31  H   UNL     1      -6.991  12.003  70.636  1.00  0.00     0.000 HD 
ENDBRANCH  24  25
ENDBRANCH  22  24
BRANCH  23  32
HETATM   32  C   UNL     1      -8.235  13.876  68.202  1.00  0.00    -0.158 A  
HETATM   33  C   UNL     1      -6.998  16.405  68.165  1.00  0.00    -0.132 A  
HETATM   34  F   UNL     1      -6.375  17.588  68.143  1.00  0.00    -0.159 F  
HETATM   35  C   UNL     1      -7.884  14.480  66.986  1.00  0.00    -0.015 A  
HETATM   36  C   UNL     1      -7.359  15.841  69.379  1.00  0.00    -0.217 A  
HETATM   37  C   UNL     1      -7.264  15.738  66.969  1.00  0.00    -0.208 A  
HETATM   38  C   UNL     1      -7.978  14.587  69.397  1.00  0.00     0.067 A  
ENDBRANCH  23  32
ENDBRANCH  17  18
ENDBRANCH   2  17
TORSDOF 6
ENDMDL
MODEL       52
REMARK 921   NORMALIZED FREE ENERGY PREDICTED BY IDOCK:   -6.90 KCAL/MOL
REMARK 922        TOTAL FREE ENERGY PREDICTED BY IDOCK:  -11.46 KCAL/MOL
REMARK 923 INTER-LIGAND FREE ENERGY PREDICTED BY IDOCK:   -8.78 KCAL/MOL
REMARK 924 INTRA-LIGAND FREE ENERGY PREDICTED BY IDOCK:   -2.68 KCAL/MOL
REMARK 927      BINDING AFFINITY PREDICTED BY RF-SCORE:    0.00 PKD
ROOT
HETATM    1  C   UNL     1     -12.072  11.606  63.546  1.00  0.00    -0.355 C  
HETATM    2  C   UNL     1     -10.863  12.054  64.379  1.00  0.00    -0.329 C  
ENDROOT
BRANCH   2   3
HETATM    3  C   UNL     1     -10.004  10.884  64.889  1.00  0.00    -0.361 A  
HETATM    4  C   UNL     1     -10.542   9.851  65.679  1.00  0.00     0.206 A  
HETATM    5  C   UNL     1      -8.632  10.828  64.585  1.00  0.00    -0.064 A  
HETATM    6  F   UNL     1     -11.394   7.068  66.369  1.00  0.00    -0.053 F  
HETATM    7  F   UNL     1      -9.513   6.748  67.411  1.00  0.00    -0.129 F  
HETATM    8  C   UNL     1      -7.816   9.778  65.054  1.00  0.00    -0.128 A  
HETATM    9  C   UNL     1      -6.337   9.732  64.747  1.00  0.00    -0.097 C  
HETATM   10  C   UNL     1      -8.389   8.763  65.840  1.00  0.00    -0.131 A  
HETATM   11  F   UNL     1     -10.934   8.213  68.159  1.00  0.00    -0.172 F  
HETATM   12  F   UNL     1      -5.908  10.756  63.957  1.00  0.00    -0.133 F  
HETATM   13  F   UNL     1      -5.571   9.778  65.870  1.00  0.00    -0.044 F  
HETATM   14  F   UNL     1      -5.976   8.588  64.099  1.00  0.00    -0.062 F  
HETATM   15  C   UNL     1     -10.385   7.717  67.016  1.00  0.00    -0.334 C  
HETATM   16  C   UNL     1      -9.752   8.791  66.161  1.00  0.00    -0.320 A  
ENDBRANCH   2   3
BRANCH   2  17
HETATM   17  O   UNL     1     -11.200  13.069  65.359  1.00  0.00    -0.285 OA 
BRANCH  17  18
HETATM   18  C   UNL     1     -10.092  13.745  65.969  1.00  0.00    -0.311 C  
HETATM   19  C   UNL     1     -11.142  16.014  67.404  1.00  0.00    -0.167 C  
HETATM   20  C   UNL     1     -11.152  15.833  65.891  1.00  0.00    -0.103 C  
HETATM   21  O   UNL     1     -10.001  15.089  65.471  1.00  0.00    -0.338 OA 
HETATM   22  N   UNL     1     -11.159  14.728  68.159  1.00  0.00    -0.268 NA 
HETATM   23  C   UNL     1     -10.090  13.831  67.570  1.00  0.00    -0.241 C  
BRANCH  22  24
HETATM   24  C   UNL     1     -10.849  15.027  69.586  1.00  0.00    -0.271 C  
BRANCH  24  25
HETATM   25  C   UNL     1     -12.084  14.939  70.454  1.00  0.00    -0.330 C  
HETATM   26  N   UNL     1     -12.392  13.801  71.101  1.00  0.00    -0.363 NA 
HETATM   27  N   UNL     1     -12.922  15.919  70.656  1.00  0.00    -0.686 NA 
HETATM   28  O   UNL     1     -14.107  13.312  72.571  1.00  0.00    -0.709 OA 
HETATM   29  C   UNL     1     -13.519  14.064  71.817  1.00  0.00    -0.392 C  
HETATM   30  N   UNL     1     -13.847  15.379  71.512  1.00  0.00    -0.505 NA 
HETATM   31  H   UNL     1     -12.895  16.863  70.269  1.00  0.00     0.000 HD 
ENDBRANCH  24  25
ENDBRANCH  22  24
BRANCH  23  32
HETATM   32  C   UNL     1      -9.947  12.488  68.291  1.00  0.00    -0.229 A  
HETATM   33  C   UNL     1      -9.551  10.167  69.834  1.00  0.00    -0.128 A  
HETATM   34  F   UNL     1      -9.368   9.085  70.600  1.00  0.00    -0.183 F  
HETATM   35  C   UNL     1     -11.041  11.783  68.810  1.00  0.00    -0.293 A  
HETATM   36  C   UNL     1      -8.454  10.831  69.309  1.00  0.00    -0.058 A  
HETATM   37  C   UNL     1     -10.843  10.628  69.582  1.00  0.00    -0.318 A  
HETATM   38  C   UNL     1      -8.650  11.981  68.539  1.00  0.00    -0.093 A  
ENDBRANCH  23  32
ENDBRANCH  17  18
ENDBRANCH   2  17
TORSDOF 6
ENDMDL
MODEL       53
REMARK 921   NORMALIZED FREE ENERGY PREDICTED BY IDOCK:   -6.90 KCAL/MOL
REMARK 922        TOTAL FREE ENERGY PREDICTED BY IDOCK:  -11.45 KCAL/MOL
REMARK 923 INTER-LIGAND FREE ENERGY PREDICTED BY IDOCK:   -9.54 KCAL/MOL
REMARK 924 INTRA-LIGAND FREE ENERGY PREDICTED BY IDOCK:   -1.90 KCAL/MOL
REMARK 927      BINDING AFFINITY PREDICTED BY RF-SCORE:    0.00 PKD
ROOT
HETATM    1  C   UNL     1      -7.771   8.913  71.108  1.00  0.00    -0.158 C  
HETATM    2  C   UNL     1      -8.141   9.395  69.698  1.00  0.00    -0.123 C  
ENDROOT
BRANCH   2   3
HETATM    3  C   UNL     1      -9.514  10.085  69.629  1.00  0.00    -0.247 A  
HETATM    4  C   UNL     1      -9.823  11.037  68.638  1.00  0.00    -0.197 A  
HETATM    5  C   UNL     1     -10.506   9.788  70.581  1.00  0.00    -0.358 A  
HETATM    6  F   UNL     1     -11.223  12.178  66.255  1.00  0.00    -0.307 F  
HETATM    7  F   UNL     1     -12.586  13.250  67.565  1.00  0.00    -0.221 F  
HETATM    8  C   UNL     1     -11.766  10.419  70.553  1.00  0.00    -0.434 A  
HETATM    9  C   UNL     1     -12.821  10.117  71.592  1.00  0.00    -0.454 C  
HETATM   10  C   UNL     1     -12.038  11.364  69.549  1.00  0.00    -0.370 A  
HETATM   11  F   UNL     1     -10.472  13.754  67.551  1.00  0.00    -0.238 F  
HETATM   12  F   UNL     1     -12.447   9.167  72.495  1.00  0.00    -0.416 F  
HETATM   13  F   UNL     1     -13.163  11.214  72.321  1.00  0.00    -0.595 F  
HETATM   14  F   UNL     1     -13.982   9.663  71.038  1.00  0.00    -0.384 F  
HETATM   15  C   UNL     1     -11.339  12.705  67.506  1.00  0.00    -0.308 C  
HETATM   16  C   UNL     1     -11.072  11.682  68.587  1.00  0.00    -0.287 A  
ENDBRANCH   2   3
BRANCH   2  17
HETATM   17  O   UNL     1      -7.878   8.400  68.676  1.00  0.00    -0.111 OA 
BRANCH  17  18
HETATM   18  C   UNL     1      -8.990   8.047  67.842  1.00  0.00    -0.129 C  
HETATM   19  C   UNL     1      -8.149   5.873  66.146  1.00  0.00    -0.109 C  
HETATM   20  C   UNL     1      -7.616   7.301  66.097  1.00  0.00    -0.088 C  
HETATM   21  O   UNL     1      -8.646   8.229  66.460  1.00  0.00    -0.122 OA 
HETATM   22  N   UNL     1      -8.644   5.467  67.492  1.00  0.00    -0.109 NA 
HETATM   23  C   UNL     1      -9.565   6.559  67.996  1.00  0.00    -0.119 C  
BRANCH  22  24
HETATM   24  C   UNL     1      -9.397   4.189  67.340  1.00  0.00    -0.175 C  
BRANCH  24  25
HETATM   25  C   UNL     1      -9.977   4.046  65.952  1.00  0.00    -0.134 C  
HETATM   26  N   UNL     1      -9.336   3.337  65.005  1.00  0.00    -0.148 NA 
HETATM   27  N   UNL     1     -11.110   4.565  65.562  1.00  0.00    -0.888 NA 
HETATM   28  O   UNL     1      -9.937   2.816  62.836  1.00  0.00    -0.095 OA 
HETATM   29  C   UNL     1     -10.132   3.368  63.902  1.00  0.00    -0.196 C  
HETATM   30  N   UNL     1     -11.221   4.153  64.259  1.00  0.00    -0.170 NA 
HETATM   31  H   UNL     1     -11.758   5.141  66.100  1.00  0.00     0.000 HD 
ENDBRANCH  24  25
ENDBRANCH  22  24
BRANCH  23  32
HETATM   32  C   UNL     1     -10.204   6.248  69.352  1.00  0.00    -0.238 A  
HETATM   33  C   UNL     1     -11.202   5.880  71.959  1.00  0.00    -0.273 A  
HETATM   34  F   UNL     1     -11.671   5.744  73.204  1.00  0.00    -0.248 F  
HETATM   35  C   UNL     1     -11.535   6.566  69.657  1.00  0.00    -0.417 A  
HETATM   36  C   UNL     1      -9.890   5.532  71.676  1.00  0.00    -0.221 A  
HETATM   37  C   UNL     1     -12.030   6.387  70.958  1.00  0.00    -0.265 A  
HETATM   38  C   UNL     1      -9.396   5.710  70.381  1.00  0.00    -0.193 A  
ENDBRANCH  23  32
ENDBRANCH  17  18
ENDBRANCH   2  17
TORSDOF 6
ENDMDL
MODEL       54
REMARK 921   NORMALIZED FREE ENERGY PREDICTED BY IDOCK:   -6.89 KCAL/MOL
REMARK 922        TOTAL FREE ENERGY PREDICTED BY IDOCK:  -11.44 KCAL/MOL
REMARK 923 INTER-LIGAND FREE ENERGY PREDICTED BY IDOCK:  -10.09 KCAL/MOL
REMARK 924 INTRA-LIGAND FREE ENERGY PREDICTED BY IDOCK:   -1.35 KCAL/MOL
REMARK 927      BINDING AFFINITY PREDICTED BY RF-SCORE:    0.00 PKD
ROOT
HETATM    1  C   UNL     1     -11.675  12.750  66.362  1.00  0.00    -0.464 C  
HETATM    2  C   UNL     1     -12.277  12.805  67.774  1.00  0.00     0.070 C  
ENDROOT
BRANCH   2   3
HETATM    3  C   UNL     1     -11.814  14.024  68.589  1.00  0.00    -0.396 A  
HETATM    4  C   UNL     1     -12.278  14.270  69.896  1.00  0.00    -0.407 A  
HETATM    5  C   UNL     1     -10.913  14.949  68.031  1.00  0.00    -0.282 A  
HETATM    6  F   UNL     1     -12.111  14.578  72.865  1.00  0.00    -0.316 F  
HETATM    7  F   UNL     1     -11.934  16.732  72.634  1.00  0.00    -0.558 F  
HETATM    8  C   UNL     1     -10.487  16.086  68.748  1.00  0.00    -0.248 A  
HETATM    9  C   UNL     1      -9.539  17.092  68.138  1.00  0.00    -0.270 C  
HETATM   10  C   UNL     1     -10.971  16.297  70.050  1.00  0.00    -0.356 A  
HETATM   11  F   UNL     1     -13.769  15.725  72.051  1.00  0.00    -0.507 F  
HETATM   12  F   UNL     1      -9.122  16.763  66.883  1.00  0.00    -0.209 F  
HETATM   13  F   UNL     1     -10.089  18.332  68.037  1.00  0.00    -0.298 F  
HETATM   14  F   UNL     1      -8.402  17.249  68.875  1.00  0.00    -0.260 F  
HETATM   15  C   UNL     1     -12.412  15.610  72.028  1.00  0.00    -0.426 C  
HETATM   16  C   UNL     1     -11.869  15.395  70.633  1.00  0.00    -0.388 A  
ENDBRANCH   2   3
BRANCH   2  17
HETATM   17  O   UNL     1     -12.225  11.527  68.457  1.00  0.00    -0.524 OA 
BRANCH  17  18
HETATM   18  C   UNL     1     -11.061  11.292  69.262  1.00  0.00    -0.255 C  
HETATM   19  C   UNL     1     -11.415   8.754  70.583  1.00  0.00    -0.231 C  
HETATM   20  C   UNL     1     -12.240  10.012  70.831  1.00  0.00    -0.346 C  
HETATM   21  O   UNL     1     -11.433  11.181  70.645  1.00  0.00    -0.223 OA 
HETATM   22  N   UNL     1     -10.847   8.675  69.206  1.00  0.00    -0.131 NA 
HETATM   23  C   UNL     1     -10.182  10.001  68.903  1.00  0.00    -0.193 C  
BRANCH  22  24
HETATM   24  C   UNL     1      -9.838   7.577  69.187  1.00  0.00    -0.170 C  
BRANCH  24  25
HETATM   25  C   UNL     1     -10.049   6.647  68.014  1.00  0.00    -0.154 C  
HETATM   26  N   UNL     1      -9.002   6.134  67.343  1.00  0.00    -0.113 NA 
HETATM   27  N   UNL     1     -11.215   6.263  67.570  1.00  0.00    -0.614 NA 
HETATM   28  O   UNL     1      -8.917   4.629  65.592  1.00  0.00    -0.128 OA 
HETATM   29  C   UNL     1      -9.525   5.316  66.390  1.00  0.00    -0.153 C  
HETATM   30  N   UNL     1     -10.903   5.424  66.531  1.00  0.00    -0.245 NA 
HETATM   31  H   UNL     1     -12.139   6.525  67.915  1.00  0.00     0.000 HD 
ENDBRANCH  24  25
ENDBRANCH  22  24
BRANCH  23  32
HETATM   32  C   UNL     1      -9.493  10.046  67.536  1.00  0.00    -0.169 A  
HETATM   33  C   UNL     1      -8.045   9.922  65.124  1.00  0.00    -0.138 A  
HETATM   34  F   UNL     1      -7.352   9.824  63.985  1.00  0.00    -0.108 F  
HETATM   35  C   UNL     1     -10.104   9.585  66.361  1.00  0.00    -0.328 A  
HETATM   36  C   UNL     1      -7.427  10.406  66.266  1.00  0.00    -0.127 A  
HETATM   37  C   UNL     1      -9.380   9.520  65.161  1.00  0.00    -0.316 A  
HETATM   38  C   UNL     1      -8.147  10.473  67.463  1.00  0.00    -0.107 A  
ENDBRANCH  23  32
ENDBRANCH  17  18
ENDBRANCH   2  17
TORSDOF 6
ENDMDL
MODEL       55
REMARK 921   NORMALIZED FREE ENERGY PREDICTED BY IDOCK:   -6.89 KCAL/MOL
REMARK 922        TOTAL FREE ENERGY PREDICTED BY IDOCK:  -11.44 KCAL/MOL
REMARK 923 INTER-LIGAND FREE ENERGY PREDICTED BY IDOCK:  -10.00 KCAL/MOL
REMARK 924 INTRA-LIGAND FREE ENERGY PREDICTED BY IDOCK:   -1.45 KCAL/MOL
REMARK 927      BINDING AFFINITY PREDICTED BY RF-SCORE:    0.00 PKD
ROOT
HETATM    1  C   UNL     1     -10.002   9.407  70.486  1.00  0.00    -0.328 C  
HETATM    2  C   UNL     1     -10.665   8.351  69.591  1.00  0.00    -0.198 C  
ENDROOT
BRANCH   2   3
HETATM    3  C   UNL     1     -10.372   6.906  70.031  1.00  0.00    -0.219 A  
HETATM    4  C   UNL     1      -9.901   5.932  69.130  1.00  0.00    -0.199 A  
HETATM    5  C   UNL     1     -10.588   6.513  71.364  1.00  0.00    -0.266 A  
HETATM    6  F   UNL     1      -7.972   3.975  67.949  1.00  0.00    -0.085 F  
HETATM    7  F   UNL     1      -8.949   2.359  69.025  1.00  0.00    -0.108 F  
HETATM    8  C   UNL     1     -10.346   5.191  71.790  1.00  0.00    -0.274 A  
HETATM    9  C   UNL     1     -10.602   4.764  73.217  1.00  0.00    -0.226 C  
HETATM   10  C   UNL     1      -9.875   4.246  70.862  1.00  0.00    -0.259 A  
HETATM   11  F   UNL     1     -10.024   3.436  67.474  1.00  0.00    -0.196 F  
HETATM   12  F   UNL     1     -11.032   5.774  74.024  1.00  0.00    -0.251 F  
HETATM   13  F   UNL     1     -11.544   3.786  73.306  1.00  0.00    -0.291 F  
HETATM   14  F   UNL     1      -9.486   4.260  73.817  1.00  0.00    -0.108 F  
HETATM   15  C   UNL     1      -9.157   3.603  68.510  1.00  0.00    -0.147 C  
HETATM   16  C   UNL     1      -9.651   4.606  69.527  1.00  0.00    -0.258 A  
ENDBRANCH   2   3
BRANCH   2  17
HETATM   17  O   UNL     1     -10.505   8.630  68.178  1.00  0.00    -0.218 OA 
BRANCH  17  18
HETATM   18  C   UNL     1      -9.258   9.223  67.791  1.00  0.00    -0.129 C  
HETATM   19  C   UNL     1      -9.004   8.935  64.935  1.00  0.00    -0.076 C  
HETATM   20  C   UNL     1      -8.996   7.798  65.951  1.00  0.00    -0.113 C  
HETATM   21  O   UNL     1      -8.411   8.236  67.183  1.00  0.00    -0.120 OA 
HETATM   22  N   UNL     1      -9.777  10.129  65.382  1.00  0.00    -0.270 NA 
HETATM   23  C   UNL     1      -9.330  10.470  66.788  1.00  0.00    -0.157 C  
BRANCH  22  24
HETATM   24  C   UNL     1      -9.464  11.254  64.455  1.00  0.00    -0.180 C  
BRANCH  24  25
HETATM   25  C   UNL     1     -10.710  12.010  64.055  1.00  0.00    -0.375 C  
HETATM   26  N   UNL     1     -10.866  13.305  64.385  1.00  0.00    -0.388 NA 
HETATM   27  N   UNL     1     -11.701  11.503  63.374  1.00  0.00    -0.807 NA 
HETATM   28  O   UNL     1     -12.553  14.802  63.882  1.00  0.00    -0.834 OA 
HETATM   29  C   UNL     1     -12.054  13.693  63.848  1.00  0.00    -0.411 C  
HETATM   30  N   UNL     1     -12.570  12.555  63.240  1.00  0.00    -0.666 NA 
HETATM   31  H   UNL     1     -11.805  10.550  63.024  1.00  0.00     0.000 HD 
ENDBRANCH  24  25
ENDBRANCH  22  24
BRANCH  23  32
HETATM   32  C   UNL     1      -9.998  11.724  67.358  1.00  0.00    -0.198 A  
HETATM   33  C   UNL     1     -11.287  13.870  68.647  1.00  0.00    -0.278 A  
HETATM   34  F   UNL     1     -11.886  14.877  69.294  1.00  0.00    -0.292 F  
HETATM   35  C   UNL     1      -9.278  12.868  67.731  1.00  0.00    -0.200 A  
HETATM   36  C   UNL     1     -12.027  12.762  68.264  1.00  0.00    -0.276 A  
HETATM   37  C   UNL     1      -9.921  13.935  68.377  1.00  0.00    -0.233 A  
HETATM   38  C   UNL     1     -11.388  11.698  67.620  1.00  0.00    -0.362 A  
ENDBRANCH  23  32
ENDBRANCH  17  18
ENDBRANCH   2  17
TORSDOF 6
ENDMDL
MODEL       56
REMARK 921   NORMALIZED FREE ENERGY PREDICTED BY IDOCK:   -6.88 KCAL/MOL
REMARK 922        TOTAL FREE ENERGY PREDICTED BY IDOCK:  -11.42 KCAL/MOL
REMARK 923 INTER-LIGAND FREE ENERGY PREDICTED BY IDOCK:   -8.71 KCAL/MOL
REMARK 924 INTRA-LIGAND FREE ENERGY PREDICTED BY IDOCK:   -2.72 KCAL/MOL
REMARK 927      BINDING AFFINITY PREDICTED BY RF-SCORE:    0.00 PKD
ROOT
HETATM    1  C   UNL     1      -8.082  11.402  68.900  1.00  0.00    -0.067 C  
HETATM    2  C   UNL     1      -9.068  10.246  68.680  1.00  0.00    -0.152 C  
ENDROOT
BRANCH   2   3
HETATM    3  C   UNL     1      -9.664   9.694  69.987  1.00  0.00    -0.280 A  
HETATM    4  C   UNL     1     -11.027   9.840  70.308  1.00  0.00    -0.352 A  
HETATM    5  C   UNL     1      -8.841   9.031  70.916  1.00  0.00    -0.294 A  
HETATM    6  F   UNL     1     -13.836   8.975  70.862  1.00  0.00    -0.271 F  
HETATM    7  F   UNL     1     -13.433   9.027  72.997  1.00  0.00    -0.465 F  
HETATM    8  C   UNL     1      -9.357   8.532  72.130  1.00  0.00    -0.353 A  
HETATM    9  C   UNL     1      -8.467   7.842  73.138  1.00  0.00    -0.186 C  
HETATM   10  C   UNL     1     -10.723   8.696  72.415  1.00  0.00    -0.311 A  
HETATM   11  F   UNL     1     -13.391  10.866  71.839  1.00  0.00    -0.506 F  
HETATM   12  F   UNL     1      -7.170   7.722  72.735  1.00  0.00    -0.066 F  
HETATM   13  F   UNL     1      -8.430   8.495  74.332  1.00  0.00    -0.279 F  
HETATM   14  F   UNL     1      -8.885   6.576  73.421  1.00  0.00    -0.124 F  
HETATM   15  C   UNL     1     -13.037   9.552  71.804  1.00  0.00    -0.418 C  
HETATM   16  C   UNL     1     -11.567   9.352  71.511  1.00  0.00    -0.467 A  
ENDBRANCH   2   3
BRANCH   2  17
HETATM   17  O   UNL     1      -8.578   9.259  67.738  1.00  0.00    -0.117 OA 
BRANCH  17  18
HETATM   18  C   UNL     1      -9.577   8.476  67.071  1.00  0.00    -0.188 C  
HETATM   19  C   UNL     1      -8.249   6.909  65.049  1.00  0.00    -0.096 C  
HETATM   20  C   UNL     1      -8.385   8.427  65.055  1.00  0.00    -0.158 C  
HETATM   21  O   UNL     1      -9.617   8.814  65.676  1.00  0.00    -0.184 OA 
HETATM   22  N   UNL     1      -8.257   6.303  66.412  1.00  0.00    -0.111 NA 
HETATM   23  C   UNL     1      -9.434   6.883  67.169  1.00  0.00    -0.140 C  
BRANCH  22  24
HETATM   24  C   UNL     1      -8.418   4.829  66.261  1.00  0.00    -0.111 C  
BRANCH  24  25
HETATM   25  C   UNL     1      -9.585   4.485  65.364  1.00  0.00    -0.179 C  
HETATM   26  N   UNL     1      -9.387   3.906  64.166  1.00  0.00    -0.143 NA 
HETATM   27  N   UNL     1     -10.838   4.699  65.660  1.00  0.00    -0.795 NA 
HETATM   28  O   UNL     1     -10.891   3.153  62.582  1.00  0.00    -0.175 OA 
HETATM   29  C   UNL     1     -10.623   3.692  63.638  1.00  0.00    -0.272 C  
HETATM   30  N   UNL     1     -11.513   4.210  64.571  1.00  0.00    -0.005 NA 
HETATM   31  H   UNL     1     -11.224   5.128  66.501  1.00  0.00     0.000 HD 
ENDBRANCH  24  25
ENDBRANCH  22  24
BRANCH  23  32
HETATM   32  C   UNL     1      -9.607   6.302  68.575  1.00  0.00    -0.128 A  
HETATM   33  C   UNL     1     -10.094   5.025  71.037  1.00  0.00    -0.227 A  
HETATM   34  F   UNL     1     -10.325   4.384  72.188  1.00  0.00    -0.238 F  
HETATM   35  C   UNL     1      -8.560   5.696  69.283  1.00  0.00    -0.106 A  
HETATM   36  C   UNL     1     -11.142   5.640  70.370  1.00  0.00    -0.195 A  
HETATM   37  C   UNL     1      -8.804   5.057  70.508  1.00  0.00    -0.148 A  
HETATM   38  C   UNL     1     -10.900   6.278  69.149  1.00  0.00    -0.403 A  
ENDBRANCH  23  32
ENDBRANCH  17  18
ENDBRANCH   2  17
TORSDOF 6
ENDMDL
MODEL       57
REMARK 921   NORMALIZED FREE ENERGY PREDICTED BY IDOCK:   -6.86 KCAL/MOL
REMARK 922        TOTAL FREE ENERGY PREDICTED BY IDOCK:  -11.40 KCAL/MOL
REMARK 923 INTER-LIGAND FREE ENERGY PREDICTED BY IDOCK:  -10.41 KCAL/MOL
REMARK 924 INTRA-LIGAND FREE ENERGY PREDICTED BY IDOCK:   -0.99 KCAL/MOL
REMARK 927      BINDING AFFINITY PREDICTED BY RF-SCORE:    0.00 PKD
ROOT
HETATM    1  C   UNL     1     -10.605  11.326  65.262  1.00  0.00    -0.323 C  
HETATM    2  C   UNL     1     -10.276  11.593  66.738  1.00  0.00    -0.217 C  
ENDROOT
BRANCH   2   3
HETATM    3  C   UNL     1     -10.570  10.395  67.656  1.00  0.00    -0.304 A  
HETATM    4  C   UNL     1     -10.406   9.065  67.225  1.00  0.00    -0.342 A  
HETATM    5  C   UNL     1     -11.035  10.605  68.968  1.00  0.00    -0.295 A  
HETATM    6  F   UNL     1      -9.223   6.319  67.151  1.00  0.00    -0.120 F  
HETATM    7  F   UNL     1     -10.815   5.596  68.443  1.00  0.00    -0.280 F  
HETATM    8  C   UNL     1     -11.329   9.525  69.825  1.00  0.00    -0.117 A  
HETATM    9  C   UNL     1     -11.852   9.752  71.225  1.00  0.00    -0.399 C  
HETATM   10  C   UNL     1     -11.152   8.211  69.360  1.00  0.00     0.089 A  
HETATM   11  F   UNL     1     -11.279   6.306  66.442  1.00  0.00    -0.326 F  
HETATM   12  F   UNL     1     -11.956  11.067  71.566  1.00  0.00    -0.330 F  
HETATM   13  F   UNL     1     -13.089   9.216  71.412  1.00  0.00    -0.333 F  
HETATM   14  F   UNL     1     -11.055   9.185  72.175  1.00  0.00    -0.421 F  
HETATM   15  C   UNL     1     -10.508   6.564  67.534  1.00  0.00    -0.240 C  
HETATM   16  C   UNL     1     -10.693   7.970  68.059  1.00  0.00    -0.112 A  
ENDBRANCH   2   3
BRANCH   2  17
HETATM   17  O   UNL     1     -10.760  12.881  67.198  1.00  0.00    -0.249 OA 
BRANCH  17  18
HETATM   18  C   UNL     1      -9.773  13.762  67.750  1.00  0.00    -0.230 C  
HETATM   19  C   UNL     1      -9.881  16.230  66.265  1.00  0.00    -0.313 C  
HETATM   20  C   UNL     1      -9.438  14.878  65.718  1.00  0.00    -0.202 C  
HETATM   21  O   UNL     1      -8.805  14.108  66.747  1.00  0.00    -0.228 OA 
HETATM   22  N   UNL     1     -10.854  16.129  67.390  1.00  0.00    -0.302 NA 
HETATM   23  C   UNL     1     -10.304  15.133  68.389  1.00  0.00    -0.229 C  
BRANCH  22  24
HETATM   24  C   UNL     1     -10.974  17.475  68.018  1.00  0.00    -0.134 C  
BRANCH  24  25
HETATM   25  C   UNL     1      -9.662  18.224  67.987  1.00  0.00    -0.312 C  
HETATM   26  N   UNL     1      -9.537  19.369  67.292  1.00  0.00    -0.318 NA 
HETATM   27  N   UNL     1      -8.578  17.851  68.611  1.00  0.00    -0.293 NA 
HETATM   28  O   UNL     1      -7.757  20.827  67.084  1.00  0.00    -0.329 OA 
HETATM   29  C   UNL     1      -8.265  19.805  67.502  1.00  0.00    -0.312 C  
HETATM   30  N   UNL     1      -7.676  18.838  68.308  1.00  0.00    -0.288 NA 
HETATM   31  H   UNL     1      -8.436  17.022  69.189  1.00  0.00     0.000 HD 
ENDBRANCH  24  25
ENDBRANCH  22  24
BRANCH  23  32
HETATM   32  C   UNL     1     -11.174  14.971  69.640  1.00  0.00    -0.296 A  
HETATM   33  C   UNL     1     -12.685  14.394  71.944  1.00  0.00    -0.349 A  
HETATM   34  F   UNL     1     -13.375  14.095  73.050  1.00  0.00    -0.555 F  
HETATM   35  C   UNL     1     -10.867  15.581  70.864  1.00  0.00    -0.248 A  
HETATM   36  C   UNL     1     -13.025  13.798  70.739  1.00  0.00    -0.238 A  
HETATM   37  C   UNL     1     -11.618  15.290  72.012  1.00  0.00    -0.529 A  
HETATM   38  C   UNL     1     -12.278  14.088  69.594  1.00  0.00    -0.383 A  
ENDBRANCH  23  32
ENDBRANCH  17  18
ENDBRANCH   2  17
TORSDOF 6
ENDMDL
MODEL       58
REMARK 921   NORMALIZED FREE ENERGY PREDICTED BY IDOCK:   -6.86 KCAL/MOL
REMARK 922        TOTAL FREE ENERGY PREDICTED BY IDOCK:  -11.39 KCAL/MOL
REMARK 923 INTER-LIGAND FREE ENERGY PREDICTED BY IDOCK:  -10.70 KCAL/MOL
REMARK 924 INTRA-LIGAND FREE ENERGY PREDICTED BY IDOCK:   -0.69 KCAL/MOL
REMARK 927      BINDING AFFINITY PREDICTED BY RF-SCORE:    0.00 PKD
ROOT
HETATM    1  C   UNL     1     -10.824  11.785  67.240  1.00  0.00    -0.300 C  
HETATM    2  C   UNL     1     -11.984  12.119  68.188  1.00  0.00    -0.178 C  
ENDROOT
BRANCH   2   3
HETATM    3  C   UNL     1     -11.833  13.484  68.882  1.00  0.00    -0.384 A  
HETATM    4  C   UNL     1     -12.435  13.762  70.124  1.00  0.00    -0.332 A  
HETATM    5  C   UNL     1     -11.090  14.511  68.271  1.00  0.00    -0.275 A  
HETATM    6  F   UNL     1     -12.561  14.399  73.043  1.00  0.00    -0.435 F  
HETATM    7  F   UNL     1     -12.790  16.510  72.575  1.00  0.00    -0.393 F  
HETATM    8  C   UNL     1     -10.950  15.777  68.875  1.00  0.00    -0.283 A  
HETATM    9  C   UNL     1     -10.172  16.887  68.206  1.00  0.00    -0.318 C  
HETATM   10  C   UNL     1     -11.565  16.018  70.115  1.00  0.00    -0.324 A  
HETATM   11  F   UNL     1     -14.343  15.097  72.011  1.00  0.00    -0.486 F  
HETATM   12  F   UNL     1      -9.604  16.523  67.022  1.00  0.00    -0.227 F  
HETATM   13  F   UNL     1     -10.945  17.973  67.933  1.00  0.00    -0.391 F  
HETATM   14  F   UNL     1      -9.149  17.346  68.981  1.00  0.00    -0.263 F  
HETATM   15  C   UNL     1     -12.992  15.258  72.077  1.00  0.00    -0.370 C  
HETATM   16  C   UNL     1     -12.312  15.016  70.748  1.00  0.00    -0.400 A  
ENDBRANCH   2   3
BRANCH   2  17
HETATM   17  O   UNL     1     -12.348  11.008  69.046  1.00  0.00    -0.481 OA 
BRANCH  17  18
HETATM   18  C   UNL     1     -11.407  10.673  70.075  1.00  0.00    -0.324 C  
HETATM   19  C   UNL     1     -12.601   8.626  71.715  1.00  0.00    -0.349 C  
HETATM   20  C   UNL     1     -13.081  10.068  71.597  1.00  0.00    -0.445 C  
HETATM   21  O   UNL     1     -11.972  10.945  71.366  1.00  0.00    -0.220 OA 
HETATM   22  N   UNL     1     -11.900   8.128  70.496  1.00  0.00    -0.093 NA 
HETATM   23  C   UNL     1     -10.869   9.164  70.100  1.00  0.00    -0.240 C  
BRANCH  22  24
HETATM   24  C   UNL     1     -11.232   6.842  70.841  1.00  0.00    -0.292 C  
BRANCH  24  25
HETATM   25  C   UNL     1     -10.590   6.896  72.208  1.00  0.00    -0.216 C  
HETATM   26  N   UNL     1      -9.478   7.624  72.419  1.00  0.00    -0.155 NA 
HETATM   27  N   UNL     1     -11.040   6.279  73.266  1.00  0.00    -0.454 NA 
HETATM   28  O   UNL     1      -8.279   8.030  74.352  1.00  0.00    -0.236 OA 
HETATM   29  C   UNL     1      -9.186   7.498  73.742  1.00  0.00    -0.275 C  
HETATM   30  N   UNL     1     -10.156   6.641  74.250  1.00  0.00    -0.352 NA 
HETATM   31  H   UNL     1     -11.856   5.671  73.343  1.00  0.00     0.000 HD 
ENDBRANCH  24  25
ENDBRANCH  22  24
BRANCH  23  32
HETATM   32  C   UNL     1     -10.021   8.757  68.890  1.00  0.00    -0.200 A  
HETATM   33  C   UNL     1      -8.381   7.775  66.824  1.00  0.00    -0.125 A  
HETATM   34  F   UNL     1      -7.611   7.272  65.853  1.00  0.00    -0.079 F  
HETATM   35  C   UNL     1     -10.581   8.333  67.677  1.00  0.00    -0.264 A  
HETATM   36  C   UNL     1      -7.801   8.213  68.004  1.00  0.00    -0.122 A  
HETATM   37  C   UNL     1      -9.763   7.840  66.650  1.00  0.00    -0.292 A  
HETATM   38  C   UNL     1      -8.615   8.706  69.029  1.00  0.00    -0.129 A  
ENDBRANCH  23  32
ENDBRANCH  17  18
ENDBRANCH   2  17
TORSDOF 6
ENDMDL
MODEL       59
REMARK 921   NORMALIZED FREE ENERGY PREDICTED BY IDOCK:   -6.83 KCAL/MOL
REMARK 922        TOTAL FREE ENERGY PREDICTED BY IDOCK:  -11.36 KCAL/MOL
REMARK 923 INTER-LIGAND FREE ENERGY PREDICTED BY IDOCK:  -10.40 KCAL/MOL
REMARK 924 INTRA-LIGAND FREE ENERGY PREDICTED BY IDOCK:   -0.96 KCAL/MOL
REMARK 927      BINDING AFFINITY PREDICTED BY RF-SCORE:    0.00 PKD
ROOT
HETATM    1  C   UNL     1     -11.508  11.277  69.859  1.00  0.00    -0.373 C  
HETATM    2  C   UNL     1     -11.546  11.366  68.327  1.00  0.00    -0.306 C  
ENDROOT
BRANCH   2   3
HETATM    3  C   UNL     1     -10.801  10.216  67.629  1.00  0.00    -0.346 A  
HETATM    4  C   UNL     1      -9.945  10.435  66.533  1.00  0.00    -0.271 A  
HETATM    5  C   UNL     1     -10.975   8.890  68.067  1.00  0.00     0.040 A  
HETATM    6  F   UNL     1      -7.361  10.522  65.030  1.00  0.00    -0.141 F  
HETATM    7  F   UNL     1      -7.793   8.573  64.170  1.00  0.00    -0.112 F  
HETATM    8  C   UNL     1     -10.320   7.814  67.434  1.00  0.00    -0.354 A  
HETATM    9  C   UNL     1     -10.527   6.388  67.890  1.00  0.00    -0.222 C  
HETATM   10  C   UNL     1      -9.471   8.072  66.344  1.00  0.00    -0.268 A  
HETATM   11  F   UNL     1      -9.046  10.279  63.678  1.00  0.00    -0.179 F  
HETATM   12  F   UNL     1     -11.350   6.271  68.970  1.00  0.00    -0.393 F  
HETATM   13  F   UNL     1     -11.068   5.604  66.918  1.00  0.00    -0.313 F  
HETATM   14  F   UNL     1      -9.359   5.782  68.247  1.00  0.00    -0.116 F  
HETATM   15  C   UNL     1      -8.381   9.680  64.704  1.00  0.00    -0.158 C  
HETATM   16  C   UNL     1      -9.279   9.381  65.883  1.00  0.00    -0.269 A  
ENDBRANCH   2   3
BRANCH   2  17
HETATM   17  O   UNL     1     -11.261  12.700  67.833  1.00  0.00    -0.235 OA 
BRANCH  17  18
HETATM   18  C   UNL     1     -10.168  13.383  68.463  1.00  0.00    -0.223 C  
HETATM   19  C   UNL     1      -9.570  15.715  66.878  1.00  0.00    -0.230 C  
HETATM   20  C   UNL     1      -9.381  14.267  66.441  1.00  0.00    -0.245 C  
HETATM   21  O   UNL     1      -9.047  13.447  67.568  1.00  0.00    -0.194 OA 
HETATM   22  N   UNL     1     -10.656  15.898  67.885  1.00  0.00    -0.291 NA 
HETATM   23  C   UNL     1     -10.448  14.873  68.980  1.00  0.00    -0.247 C  
BRANCH  22  24
HETATM   24  C   UNL     1     -10.542  17.276  68.440  1.00  0.00    -0.368 C  
BRANCH  24  25
HETATM   25  C   UNL     1     -10.106  18.268  67.386  1.00  0.00    -0.352 C  
HETATM   26  N   UNL     1      -8.849  18.745  67.365  1.00  0.00    -0.268 NA 
HETATM   27  N   UNL     1     -10.874  18.726  66.434  1.00  0.00    -0.214 NA 
HETATM   28  O   UNL     1      -7.795  20.172  65.884  1.00  0.00    -0.298 OA 
HETATM   29  C   UNL     1      -8.772  19.568  66.284  1.00  0.00    -0.359 C  
HETATM   30  N   UNL     1     -10.046  19.561  65.729  1.00  0.00    -0.456 NA 
HETATM   31  H   UNL     1     -11.855  18.512  66.257  1.00  0.00     0.000 HD 
ENDBRANCH  24  25
ENDBRANCH  22  24
BRANCH  23  32
HETATM   32  C   UNL     1     -11.460  14.983  70.125  1.00  0.00    -0.314 A  
HETATM   33  C   UNL     1     -13.271  15.474  72.224  1.00  0.00    -0.448 A  
HETATM   34  F   UNL     1     -14.141  15.741  73.204  1.00  0.00    -0.587 F  
HETATM   35  C   UNL     1     -12.830  14.737  69.956  1.00  0.00    -0.104 A  
HETATM   36  C   UNL     1     -11.918  15.699  72.425  1.00  0.00    -0.569 A  
HETATM   37  C   UNL     1     -13.731  14.987  71.001  1.00  0.00    -0.417 A  
HETATM   38  C   UNL     1     -11.017  15.451  71.384  1.00  0.00    -0.200 A  
ENDBRANCH  23  32
ENDBRANCH  17  18
ENDBRANCH   2  17
TORSDOF 6
ENDMDL
MODEL       60
REMARK 921   NORMALIZED FREE ENERGY PREDICTED BY IDOCK:   -6.83 KCAL/MOL
REMARK 922        TOTAL FREE ENERGY PREDICTED BY IDOCK:  -11.36 KCAL/MOL
REMARK 923 INTER-LIGAND FREE ENERGY PREDICTED BY IDOCK:   -8.73 KCAL/MOL
REMARK 924 INTRA-LIGAND FREE ENERGY PREDICTED BY IDOCK:   -2.63 KCAL/MOL
REMARK 927      BINDING AFFINITY PREDICTED BY RF-SCORE:    0.00 PKD
ROOT
HETATM    1  C   UNL     1      -6.728  15.230  67.342  1.00  0.00    -0.157 C  
HETATM    2  C   UNL     1      -7.573  13.977  67.614  1.00  0.00    -0.179 C  
ENDROOT
BRANCH   2   3
HETATM    3  C   UNL     1      -9.087  14.244  67.587  1.00  0.00    -0.192 A  
HETATM    4  C   UNL     1      -9.799  14.629  68.739  1.00  0.00    -0.227 A  
HETATM    5  C   UNL     1      -9.813  14.089  66.392  1.00  0.00    -0.306 A  
HETATM    6  F   UNL     1     -11.414  16.418  70.510  1.00  0.00    -0.365 F  
HETATM    7  F   UNL     1     -13.237  15.446  69.833  1.00  0.00    -0.116 F  
HETATM    8  C   UNL     1     -11.204  14.308  66.342  1.00  0.00    -0.337 A  
HETATM    9  C   UNL     1     -11.987  14.116  65.063  1.00  0.00    -0.408 C  
HETATM   10  C   UNL     1     -11.881  14.692  67.512  1.00  0.00    -0.375 A  
HETATM   11  F   UNL     1     -11.769  14.325  70.978  1.00  0.00    -0.354 F  
HETATM   12  F   UNL     1     -11.215  13.769  63.995  1.00  0.00    -0.366 F  
HETATM   13  F   UNL     1     -12.935  13.148  65.173  1.00  0.00    -0.513 F  
HETATM   14  F   UNL     1     -12.652  15.246  64.686  1.00  0.00    -0.284 F  
HETATM   15  C   UNL     1     -11.898  15.254  69.991  1.00  0.00    -0.334 C  
HETATM   16  C   UNL     1     -11.187  14.854  68.718  1.00  0.00    -0.288 A  
ENDBRANCH   2   3
BRANCH   2  17
HETATM   17  O   UNL     1      -7.084  13.202  68.738  1.00  0.00    -0.100 OA 
BRANCH  17  18
HETATM   18  C   UNL     1      -6.353  12.012  68.409  1.00  0.00    -0.053 C  
HETATM   19  C   UNL     1      -6.579  10.207  70.645  1.00  0.00    -0.064 C  
HETATM   20  C   UNL     1      -5.847  11.544  70.648  1.00  0.00    -0.087 C  
HETATM   21  O   UNL     1      -5.291  11.810  69.355  1.00  0.00    -0.055 OA 
HETATM   22  N   UNL     1      -7.704  10.145  69.668  1.00  0.00    -0.149 NA 
HETATM   23  C   UNL     1      -7.189  10.647  68.336  1.00  0.00    -0.084 C  
BRANCH  22  24
HETATM   24  C   UNL     1      -8.135   8.723  69.551  1.00  0.00    -0.105 C  
BRANCH  24  25
HETATM   25  C   UNL     1      -9.422   8.467  70.302  1.00  0.00    -0.164 C  
HETATM   26  N   UNL     1     -10.309   7.558  69.859  1.00  0.00    -0.217 NA 
HETATM   27  N   UNL     1      -9.770   9.068  71.407  1.00  0.00    -0.298 NA 
HETATM   28  O   UNL     1     -12.305   6.826  70.764  1.00  0.00    -0.377 OA 
HETATM   29  C   UNL     1     -11.320   7.539  70.770  1.00  0.00    -0.280 C  
HETATM   30  N   UNL     1     -10.979   8.499  71.715  1.00  0.00    -0.282 NA 
HETATM   31  H   UNL     1      -9.264   9.791  71.919  1.00  0.00     0.000 HD 
ENDBRANCH  24  25
ENDBRANCH  22  24
BRANCH  23  32
HETATM   32  C   UNL     1      -8.226  10.581  67.210  1.00  0.00    -0.119 A  
HETATM   33  C   UNL     1     -10.196  10.740  65.206  1.00  0.00    -0.285 A  
HETATM   34  F   UNL     1     -11.122  10.853  64.247  1.00  0.00    -0.391 F  
HETATM   35  C   UNL     1      -7.874  10.481  65.857  1.00  0.00    -0.151 A  
HETATM   36  C   UNL     1     -10.572  10.815  66.538  1.00  0.00    -0.279 A  
HETATM   37  C   UNL     1      -8.857  10.564  64.859  1.00  0.00    -0.207 A  
HETATM   38  C   UNL     1      -9.594  10.732  67.534  1.00  0.00    -0.176 A  
ENDBRANCH  23  32
ENDBRANCH  17  18
ENDBRANCH   2  17
TORSDOF 6
ENDMDL
MODEL       61
REMARK 921   NORMALIZED FREE ENERGY PREDICTED BY IDOCK:   -6.82 KCAL/MOL
REMARK 922        TOTAL FREE ENERGY PREDICTED BY IDOCK:  -11.34 KCAL/MOL
REMARK 923 INTER-LIGAND FREE ENERGY PREDICTED BY IDOCK:   -9.41 KCAL/MOL
REMARK 924 INTRA-LIGAND FREE ENERGY PREDICTED BY IDOCK:   -1.93 KCAL/MOL
REMARK 927      BINDING AFFINITY PREDICTED BY RF-SCORE:    0.00 PKD
ROOT
HETATM    1  C   UNL     1      -8.068  11.244  68.494  1.00  0.00    -0.148 C  
HETATM    2  C   UNL     1      -8.646  12.388  67.648  1.00  0.00    -0.172 C  
ENDROOT
BRANCH   2   3
HETATM    3  C   UNL     1      -9.316  11.909  66.349  1.00  0.00    -0.233 A  
HETATM    4  C   UNL     1      -8.742  10.916  65.533  1.00  0.00    -0.178 A  
HETATM    5  C   UNL     1     -10.533  12.477  65.929  1.00  0.00    -0.289 A  
HETATM    6  F   UNL     1      -8.508   8.260  64.178  1.00  0.00    -0.160 F  
HETATM    7  F   UNL     1      -9.364   9.106  62.368  1.00  0.00    -0.247 F  
HETATM    8  C   UNL     1     -11.161  12.071  64.733  1.00  0.00    -0.369 A  
HETATM    9  C   UNL     1     -12.455  12.699  64.271  1.00  0.00    -0.411 C  
HETATM   10  C   UNL     1     -10.558  11.075  63.946  1.00  0.00    -0.382 A  
HETATM   11  F   UNL     1      -7.431   9.798  63.081  1.00  0.00    -0.107 F  
HETATM   12  F   UNL     1     -12.952  13.631  65.132  1.00  0.00    -0.451 F  
HETATM   13  F   UNL     1     -12.330  13.326  63.070  1.00  0.00    -0.610 F  
HETATM   14  F   UNL     1     -13.450  11.780  64.108  1.00  0.00    -0.384 F  
HETATM   15  C   UNL     1      -8.674   9.429  63.497  1.00  0.00    -0.204 C  
HETATM   16  C   UNL     1      -9.346  10.492  64.336  1.00  0.00    -0.307 A  
ENDBRANCH   2   3
BRANCH   2  17
HETATM   17  O   UNL     1      -7.734  13.508  67.517  1.00  0.00    -0.160 OA 
BRANCH  17  18
HETATM   18  C   UNL     1      -7.348  14.150  68.740  1.00  0.00    -0.128 C  
HETATM   19  C   UNL     1      -6.316  16.756  68.067  1.00  0.00    -0.143 C  
HETATM   20  C   UNL     1      -5.676  15.421  67.702  1.00  0.00    -0.074 C  
HETATM   21  O   UNL     1      -5.944  14.447  68.719  1.00  0.00    -0.080 OA 
HETATM   22  N   UNL     1      -7.798  16.685  68.221  1.00  0.00    -0.175 NA 
HETATM   23  C   UNL     1      -8.114  15.507  69.117  1.00  0.00    -0.244 C  
BRANCH  22  24
HETATM   24  C   UNL     1      -8.256  17.953  68.856  1.00  0.00    -0.142 C  
BRANCH  24  25
HETATM   25  C   UNL     1      -9.185  18.727  67.950  1.00  0.00    -0.294 C  
HETATM   26  N   UNL     1      -9.483  18.274  66.719  1.00  0.00    -0.289 NA 
HETATM   27  N   UNL     1      -9.768  19.851  68.268  1.00  0.00    -0.378 NA 
HETATM   28  O   UNL     1     -10.913  19.106  65.105  1.00  0.00    -0.464 OA 
HETATM   29  C   UNL     1     -10.365  19.166  66.189  1.00  0.00    -0.484 C  
HETATM   30  N   UNL     1     -10.514  20.151  67.157  1.00  0.00    -0.362 NA 
HETATM   31  H   UNL     1      -9.687  20.381  69.136  1.00  0.00     0.000 HD 
ENDBRANCH  24  25
ENDBRANCH  22  24
BRANCH  23  32
HETATM   32  C   UNL     1      -9.607  15.346  69.419  1.00  0.00    -0.270 A  
HETATM   33  C   UNL     1     -12.343  15.324  70.082  1.00  0.00    -0.353 A  
HETATM   34  F   UNL     1     -13.645  15.351  70.389  1.00  0.00    -0.286 F  
HETATM   35  C   UNL     1     -10.583  15.279  68.414  1.00  0.00    -0.246 A  
HETATM   36  C   UNL     1     -11.397  15.363  71.094  1.00  0.00    -0.427 A  
HETATM   37  C   UNL     1     -11.946  15.272  68.746  1.00  0.00    -0.279 A  
HETATM   38  C   UNL     1     -10.038  15.369  70.765  1.00  0.00     0.522 A  
ENDBRANCH  23  32
ENDBRANCH  17  18
ENDBRANCH   2  17
TORSDOF 6
ENDMDL
MODEL       62
REMARK 921   NORMALIZED FREE ENERGY PREDICTED BY IDOCK:   -6.82 KCAL/MOL
REMARK 922        TOTAL FREE ENERGY PREDICTED BY IDOCK:  -11.34 KCAL/MOL
REMARK 923 INTER-LIGAND FREE ENERGY PREDICTED BY IDOCK:  -10.33 KCAL/MOL
REMARK 924 INTRA-LIGAND FREE ENERGY PREDICTED BY IDOCK:   -1.01 KCAL/MOL
REMARK 927      BINDING AFFINITY PREDICTED BY RF-SCORE:    0.00 PKD
ROOT
HETATM    1  C   UNL     1      -7.035  13.998  67.613  1.00  0.00    -0.198 C  
HETATM    2  C   UNL     1      -8.511  13.757  67.269  1.00  0.00    -0.194 C  
ENDROOT
BRANCH   2   3
HETATM    3  C   UNL     1      -9.444  14.879  67.755  1.00  0.00    -0.203 A  
HETATM    4  C   UNL     1      -9.561  16.103  67.069  1.00  0.00    -0.233 A  
HETATM    5  C   UNL     1     -10.204  14.711  68.927  1.00  0.00    -0.241 A  
HETATM    6  F   UNL     1     -10.895  18.248  65.468  1.00  0.00    -0.453 F  
HETATM    7  F   UNL     1     -11.325  19.347  67.294  1.00  0.00    -0.542 F  
HETATM    8  C   UNL     1     -11.053  15.730  69.405  1.00  0.00    -0.314 A  
HETATM    9  C   UNL     1     -11.850  15.558  70.678  1.00  0.00    -0.365 C  
HETATM   10  C   UNL     1     -11.144  16.938  68.694  1.00  0.00    -0.194 A  
HETATM   11  F   UNL     1      -9.267  19.058  66.659  1.00  0.00    -0.284 F  
HETATM   12  F   UNL     1     -11.696  14.336  71.261  1.00  0.00    -0.364 F  
HETATM   13  F   UNL     1     -11.516  16.472  71.629  1.00  0.00    -0.450 F  
HETATM   14  F   UNL     1     -13.190  15.706  70.477  1.00  0.00    -0.476 F  
HETATM   15  C   UNL     1     -10.473  18.433  66.750  1.00  0.00    -0.385 C  
HETATM   16  C   UNL     1     -10.400  17.136  67.524  1.00  0.00    -0.341 A  
ENDBRANCH   2   3
BRANCH   2  17
HETATM   17  O   UNL     1      -8.942  12.403  67.558  1.00  0.00    -0.168 OA 
BRANCH  17  18
HETATM   18  C   UNL     1     -10.151  11.977  66.914  1.00  0.00    -0.205 C  
HETATM   19  C   UNL     1      -9.544   9.593  65.412  1.00  0.00    -0.291 C  
HETATM   20  C   UNL     1      -9.008  10.990  65.123  1.00  0.00    -0.145 C  
HETATM   21  O   UNL     1      -9.977  11.980  65.488  1.00  0.00    -0.236 OA 
HETATM   22  N   UNL     1      -9.876   9.366  66.848  1.00  0.00    -0.186 NA 
HETATM   23  C   UNL     1     -10.717  10.534  67.319  1.00  0.00    -0.277 C  
BRANCH  22  24
HETATM   24  C   UNL     1     -10.653   8.098  66.947  1.00  0.00    -0.241 C  
BRANCH  24  25
HETATM   25  C   UNL     1      -9.768   6.886  66.767  1.00  0.00    -0.177 C  
HETATM   26  N   UNL     1      -8.538   6.843  67.311  1.00  0.00    -0.120 NA 
HETATM   27  N   UNL     1     -10.104   5.812  66.105  1.00  0.00    -0.388 NA 
HETATM   28  O   UNL     1      -6.955   5.160  67.341  1.00  0.00    -0.062 OA 
HETATM   29  C   UNL     1      -8.030   5.618  67.005  1.00  0.00    -0.102 C  
HETATM   30  N   UNL     1      -9.008   4.998  66.236  1.00  0.00    -0.123 NA 
HETATM   31  H   UNL     1     -10.974   5.624  65.608  1.00  0.00     0.000 HD 
ENDBRANCH  24  25
ENDBRANCH  22  24
BRANCH  23  32
HETATM   32  C   UNL     1     -11.189  10.406  68.771  1.00  0.00    -0.295 A  
HETATM   33  C   UNL     1     -12.329  10.147  71.332  1.00  0.00    -0.416 A  
HETATM   34  F   UNL     1     -12.897   9.999  72.533  1.00  0.00    -0.403 F  
HETATM   35  C   UNL     1     -10.897   9.293  69.571  1.00  0.00    -0.211 A  
HETATM   36  C   UNL     1     -12.613  11.270  70.570  1.00  0.00    -0.331 A  
HETATM   37  C   UNL     1     -11.469   9.163  70.845  1.00  0.00    -0.357 A  
HETATM   38  C   UNL     1     -12.043  11.402  69.300  1.00  0.00    -0.356 A  
ENDBRANCH  23  32
ENDBRANCH  17  18
ENDBRANCH   2  17
TORSDOF 6
ENDMDL
MODEL       63
REMARK 921   NORMALIZED FREE ENERGY PREDICTED BY IDOCK:   -6.81 KCAL/MOL
REMARK 922        TOTAL FREE ENERGY PREDICTED BY IDOCK:  -11.33 KCAL/MOL
REMARK 923 INTER-LIGAND FREE ENERGY PREDICTED BY IDOCK:   -9.12 KCAL/MOL
REMARK 924 INTRA-LIGAND FREE ENERGY PREDICTED BY IDOCK:   -2.21 KCAL/MOL
REMARK 927      BINDING AFFINITY PREDICTED BY RF-SCORE:    0.00 PKD
ROOT
HETATM    1  C   UNL     1     -12.956   9.426  71.572  1.00  0.00    -0.449 C  
HETATM    2  C   UNL     1     -11.784   9.925  70.715  1.00  0.00    -0.341 C  
ENDROOT
BRANCH   2   3
HETATM    3  C   UNL     1     -11.929  11.391  70.273  1.00  0.00    -0.460 A  
HETATM    4  C   UNL     1     -12.349  12.401  71.159  1.00  0.00    -0.243 A  
HETATM    5  C   UNL     1     -11.656  11.760  68.943  1.00  0.00    -0.370 A  
HETATM    6  F   UNL     1     -12.125  14.882  72.813  1.00  0.00    -0.398 F  
HETATM    7  F   UNL     1     -13.065  16.029  71.224  1.00  0.00    -0.529 F  
HETATM    8  C   UNL     1     -11.799  13.093  68.505  1.00  0.00    -0.377 A  
HETATM    9  C   UNL     1     -11.530  13.483  67.070  1.00  0.00    -0.340 C  
HETATM   10  C   UNL     1     -12.219  14.074  69.419  1.00  0.00    -0.336 A  
HETATM   11  F   UNL     1     -14.192  14.490  72.264  1.00  0.00    -0.477 F  
HETATM   12  F   UNL     1     -11.105  12.450  66.290  1.00  0.00    -0.286 F  
HETATM   13  F   UNL     1     -12.632  13.991  66.454  1.00  0.00    -0.471 F  
HETATM   14  F   UNL     1     -10.570  14.446  66.965  1.00  0.00    -0.265 F  
HETATM   15  C   UNL     1     -12.966  14.775  71.746  1.00  0.00    -0.332 C  
HETATM   16  C   UNL     1     -12.499  13.738  70.750  1.00  0.00    -0.441 A  
ENDBRANCH   2   3
BRANCH   2  17
HETATM   17  O   UNL     1     -11.404   8.983  69.679  1.00  0.00    -0.063 OA 
BRANCH  17  18
HETATM   18  C   UNL     1     -10.267   8.158  69.966  1.00  0.00    -0.202 C  
HETATM   19  C   UNL     1      -9.920   6.350  67.748  1.00  0.00    -0.128 C  
HETATM   20  C   UNL     1     -11.093   6.353  68.722  1.00  0.00    -0.326 C  
HETATM   21  O   UNL     1     -10.661   6.778  70.020  1.00  0.00    -0.202 OA 
HETATM   22  N   UNL     1      -9.283   7.688  67.577  1.00  0.00    -0.131 NA 
HETATM   23  C   UNL     1      -9.027   8.258  68.956  1.00  0.00    -0.147 C  
BRANCH  22  24
HETATM   24  C   UNL     1      -7.995   7.495  66.852  1.00  0.00    -0.115 C  
BRANCH  24  25
HETATM   25  C   UNL     1      -8.050   8.073  65.456  1.00  0.00    -0.128 C  
HETATM   26  N   UNL     1      -7.486   9.262  65.179  1.00  0.00    -0.103 NA 
HETATM   27  N   UNL     1      -8.615   7.492  64.432  1.00  0.00    -0.353 NA 
HETATM   28  O   UNL     1      -7.278  10.412  63.185  1.00  0.00    -0.135 OA 
HETATM   29  C   UNL     1      -7.671   9.470  63.847  1.00  0.00    -0.123 C  
HETATM   30  N   UNL     1      -8.392   8.369  63.402  1.00  0.00    -0.117 NA 
HETATM   31  H   UNL     1      -9.105   6.597  64.405  1.00  0.00     0.000 HD 
ENDBRANCH  24  25
ENDBRANCH  22  24
BRANCH  23  32
HETATM   32  C   UNL     1      -8.312   9.613  68.938  1.00  0.00    -0.116 A  
HETATM   33  C   UNL     1      -7.253  12.221  68.994  1.00  0.00    -0.023 A  
HETATM   34  F   UNL     1      -6.773  13.468  69.051  1.00  0.00    -0.092 F  
HETATM   35  C   UNL     1      -7.302   9.952  69.850  1.00  0.00    -0.147 A  
HETATM   36  C   UNL     1      -8.232  11.903  68.066  1.00  0.00    -0.157 A  
HETATM   37  C   UNL     1      -6.778  11.253  69.879  1.00  0.00    -0.067 A  
HETATM   38  C   UNL     1      -8.755  10.606  68.035  1.00  0.00    -0.126 A  
ENDBRANCH  23  32
ENDBRANCH  17  18
ENDBRANCH   2  17
TORSDOF 6
ENDMDL
MODEL       64
REMARK 921   NORMALIZED FREE ENERGY PREDICTED BY IDOCK:   -6.81 KCAL/MOL
REMARK 922        TOTAL FREE ENERGY PREDICTED BY IDOCK:  -11.33 KCAL/MOL
REMARK 923 INTER-LIGAND FREE ENERGY PREDICTED BY IDOCK:   -8.07 KCAL/MOL
REMARK 924 INTRA-LIGAND FREE ENERGY PREDICTED BY IDOCK:   -3.26 KCAL/MOL
REMARK 927      BINDING AFFINITY PREDICTED BY RF-SCORE:    0.00 PKD
ROOT
HETATM    1  C   UNL     1      -9.942   8.207  72.915  1.00  0.00    -0.336 C  
HETATM    2  C   UNL     1     -10.546   8.594  71.557  1.00  0.00    -0.282 C  
ENDROOT
BRANCH   2   3
HETATM    3  C   UNL     1      -9.683   8.162  70.359  1.00  0.00    -0.179 A  
HETATM    4  C   UNL     1      -8.277   8.214  70.394  1.00  0.00    -0.114 A  
HETATM    5  C   UNL     1     -10.292   7.714  69.173  1.00  0.00    -0.217 A  
HETATM    6  F   UNL     1      -5.480   7.155  70.390  1.00  0.00    -0.022 F  
HETATM    7  F   UNL     1      -5.339   7.528  68.253  1.00  0.00    -0.021 F  
HETATM    8  C   UNL     1      -9.526   7.330  68.053  1.00  0.00    -0.139 A  
HETATM    9  C   UNL     1     -10.182   6.872  66.770  1.00  0.00    -0.206 C  
HETATM   10  C   UNL     1      -8.124   7.394  68.125  1.00  0.00    -0.124 A  
HETATM   11  F   UNL     1      -5.547   9.192  69.635  1.00  0.00    -0.033 F  
HETATM   12  F   UNL     1     -11.543   6.829  66.835  1.00  0.00    -0.421 F  
HETATM   13  F   UNL     1      -9.881   7.677  65.715  1.00  0.00    -0.026 F  
HETATM   14  F   UNL     1      -9.790   5.619  66.404  1.00  0.00    -0.158 F  
HETATM   15  C   UNL     1      -5.982   7.927  69.386  1.00  0.00    -0.033 C  
HETATM   16  C   UNL     1      -7.489   7.837  69.291  1.00  0.00    -0.093 A  
ENDBRANCH   2   3
BRANCH   2  17
HETATM   17  O   UNL     1     -11.037   9.958  71.528  1.00  0.00    -0.275 OA 
BRANCH  17  18
HETATM   18  C   UNL     1     -12.105  10.222  70.608  1.00  0.00    -0.338 C  
HETATM   19  C   UNL     1     -13.003  12.922  71.067  1.00  0.00    -0.098 C  
HETATM   20  C   UNL     1     -13.141  11.758  72.042  1.00  0.00    -0.331 C  
HETATM   21  O   UNL     1     -13.310  10.528  71.327  1.00  0.00    -0.328 OA 
HETATM   22  N   UNL     1     -11.839  12.793  70.144  1.00  0.00    -0.296 NA 
HETATM   23  C   UNL     1     -11.872  11.401  69.548  1.00  0.00    -0.357 C  
BRANCH  22  24
HETATM   24  C   UNL     1     -11.987  13.816  69.071  1.00  0.00    -0.360 C  
BRANCH  24  25
HETATM   25  C   UNL     1     -10.887  14.852  69.132  1.00  0.00    -0.250 C  
HETATM   26  N   UNL     1     -11.113  16.121  68.748  1.00  0.00    -0.334 NA 
HETATM   27  N   UNL     1      -9.673  14.622  69.554  1.00  0.00    -0.424 NA 
HETATM   28  O   UNL     1      -9.741  17.980  68.786  1.00  0.00    -0.336 OA 
HETATM   29  C   UNL     1      -9.951  16.796  68.965  1.00  0.00    -0.272 C  
HETATM   30  N   UNL     1      -9.060  15.844  69.447  1.00  0.00    -0.250 NA 
HETATM   31  H   UNL     1      -9.275  13.744  69.886  1.00  0.00     0.000 HD 
ENDBRANCH  24  25
ENDBRANCH  22  24
BRANCH  23  32
HETATM   32  C   UNL     1     -10.763  11.143  68.524  1.00  0.00    -0.235 A  
HETATM   33  C   UNL     1      -8.827  10.902  66.494  1.00  0.00    -0.163 A  
HETATM   34  F   UNL     1      -7.907  10.827  65.527  1.00  0.00    -0.154 F  
HETATM   35  C   UNL     1      -9.404  11.337  68.809  1.00  0.00    -0.136 A  
HETATM   36  C   UNL     1     -10.162  10.679  66.193  1.00  0.00    -0.308 A  
HETATM   37  C   UNL     1      -8.441  11.220  67.796  1.00  0.00    -0.126 A  
HETATM   38  C   UNL     1     -11.123  10.795  67.202  1.00  0.00    -0.297 A  
ENDBRANCH  23  32
ENDBRANCH  17  18
ENDBRANCH   2  17
TORSDOF 6
ENDMDL
MODEL       65
REMARK 921   NORMALIZED FREE ENERGY PREDICTED BY IDOCK:   -6.81 KCAL/MOL
REMARK 922        TOTAL FREE ENERGY PREDICTED BY IDOCK:  -11.33 KCAL/MOL
REMARK 923 INTER-LIGAND FREE ENERGY PREDICTED BY IDOCK:  -10.20 KCAL/MOL
REMARK 924 INTRA-LIGAND FREE ENERGY PREDICTED BY IDOCK:   -1.12 KCAL/MOL
REMARK 927      BINDING AFFINITY PREDICTED BY RF-SCORE:    0.00 PKD
ROOT
HETATM    1  C   UNL     1     -11.780  12.338  66.433  1.00  0.00    -0.431 C  
HETATM    2  C   UNL     1     -11.500  12.251  67.941  1.00  0.00    -0.330 C  
ENDROOT
BRANCH   2   3
HETATM    3  C   UNL     1     -11.507  13.619  68.644  1.00  0.00    -0.342 A  
HETATM    4  C   UNL     1     -12.173  13.828  69.866  1.00  0.00    -0.383 A  
HETATM    5  C   UNL     1     -10.849  14.718  68.062  1.00  0.00    -0.261 A  
HETATM    6  F   UNL     1     -12.457  14.428  72.782  1.00  0.00    -0.382 F  
HETATM    7  F   UNL     1     -12.878  16.509  72.315  1.00  0.00    -0.377 F  
HETATM    8  C   UNL     1     -10.855  15.988  68.675  1.00  0.00    -0.301 A  
HETATM    9  C   UNL     1     -10.169  17.173  68.036  1.00  0.00    -0.332 C  
HETATM   10  C   UNL     1     -11.530  16.157  69.896  1.00  0.00    -0.286 A  
HETATM   11  F   UNL     1     -14.264  14.955  71.695  1.00  0.00    -0.430 F  
HETATM   12  F   UNL     1      -9.529  16.875  66.871  1.00  0.00    -0.227 F  
HETATM   13  F   UNL     1     -11.036  18.180  67.742  1.00  0.00    -0.410 F  
HETATM   14  F   UNL     1      -9.222  17.725  68.847  1.00  0.00    -0.277 F  
HETATM   15  C   UNL     1     -12.939  15.247  71.806  1.00  0.00    -0.394 C  
HETATM   16  C   UNL     1     -12.195  15.083  70.499  1.00  0.00    -0.391 A  
ENDBRANCH   2   3
BRANCH   2  17
HETATM   17  O   UNL     1     -10.385  11.380  68.256  1.00  0.00    -0.180 OA 
BRANCH  17  18
HETATM   18  C   UNL     1     -10.516  10.014  67.838  1.00  0.00    -0.231 C  
HETATM   19  C   UNL     1      -7.927   8.773  68.094  1.00  0.00    -0.106 C  
HETATM   20  C   UNL     1      -8.292   9.882  67.114  1.00  0.00    -0.121 C  
HETATM   21  O   UNL     1      -9.661   9.760  66.712  1.00  0.00    -0.174 OA 
HETATM   22  N   UNL     1      -8.747   8.783  69.339  1.00  0.00    -0.140 NA 
HETATM   23  C   UNL     1     -10.202   8.888  68.934  1.00  0.00    -0.206 C  
BRANCH  22  24
HETATM   24  C   UNL     1      -8.504   7.502  70.061  1.00  0.00    -0.137 C  
BRANCH  24  25
HETATM   25  C   UNL     1      -7.539   7.683  71.210  1.00  0.00    -0.080 C  
HETATM   26  N   UNL     1      -7.169   8.913  71.612  1.00  0.00    -0.260 NA 
HETATM   27  N   UNL     1      -7.006   6.708  71.894  1.00  0.00    -0.070 NA 
HETATM   28  O   UNL     1      -5.816   9.590  73.359  1.00  0.00    -0.314 OA 
HETATM   29  C   UNL     1      -6.340   8.731  72.676  1.00  0.00    -0.017 C  
HETATM   30  N   UNL     1      -6.233   7.353  72.825  1.00  0.00    -0.054 NA 
HETATM   31  H   UNL     1      -7.134   5.704  71.766  1.00  0.00     0.000 HD 
ENDBRANCH  24  25
ENDBRANCH  22  24
BRANCH  23  32
HETATM   32  C   UNL     1     -11.175   8.846  70.117  1.00  0.00    -0.175 A  
HETATM   33  C   UNL     1     -13.154   8.908  72.117  1.00  0.00    -0.421 A  
HETATM   34  F   UNL     1     -14.122   8.933  73.040  1.00  0.00    -0.425 F  
HETATM   35  C   UNL     1     -11.749   7.657  70.588  1.00  0.00    -0.214 A  
HETATM   36  C   UNL     1     -12.583  10.095  71.687  1.00  0.00    -0.533 A  
HETATM   37  C   UNL     1     -12.738   7.690  71.582  1.00  0.00    -0.368 A  
HETATM   38  C   UNL     1     -11.597  10.065  70.697  1.00  0.00    -0.422 A  
ENDBRANCH  23  32
ENDBRANCH  17  18
ENDBRANCH   2  17
TORSDOF 6
ENDMDL
MODEL       66
REMARK 921   NORMALIZED FREE ENERGY PREDICTED BY IDOCK:   -6.79 KCAL/MOL
REMARK 922        TOTAL FREE ENERGY PREDICTED BY IDOCK:  -11.31 KCAL/MOL
REMARK 923 INTER-LIGAND FREE ENERGY PREDICTED BY IDOCK:  -10.49 KCAL/MOL
REMARK 924 INTRA-LIGAND FREE ENERGY PREDICTED BY IDOCK:   -0.82 KCAL/MOL
REMARK 927      BINDING AFFINITY PREDICTED BY RF-SCORE:    0.00 PKD
ROOT
HETATM    1  C   UNL     1     -10.695  13.562  64.659  1.00  0.00    -0.429 C  
HETATM    2  C   UNL     1     -11.186  14.404  65.846  1.00  0.00    -0.324 C  
ENDROOT
BRANCH   2   3
HETATM    3  C   UNL     1     -10.281  15.607  66.158  1.00  0.00    -0.327 A  
HETATM    4  C   UNL     1     -10.763  16.930  66.138  1.00  0.00    -0.109 A  
HETATM    5  C   UNL     1      -8.921  15.412  66.461  1.00  0.00    -0.344 A  
HETATM    6  F   UNL     1     -11.524  19.602  67.244  1.00  0.00    -0.448 F  
HETATM    7  F   UNL     1      -9.596  20.404  66.639  1.00  0.00    -0.482 F  
HETATM    8  C   UNL     1      -8.065  16.498  66.733  1.00  0.00    -0.286 A  
HETATM    9  C   UNL     1      -6.598  16.288  67.033  1.00  0.00    -0.158 C  
HETATM   10  C   UNL     1      -8.582  17.804  66.704  1.00  0.00    -0.280 A  
HETATM   11  F   UNL     1     -11.018  19.743  65.134  1.00  0.00    -0.552 F  
HETATM   12  F   UNL     1      -6.224  14.978  67.057  1.00  0.00     0.011 F  
HETATM   13  F   UNL     1      -5.788  16.893  66.122  1.00  0.00    -0.191 F  
HETATM   14  F   UNL     1      -6.237  16.797  68.245  1.00  0.00    -0.123 F  
HETATM   15  C   UNL     1     -10.505  19.430  66.356  1.00  0.00    -0.488 C  
HETATM   16  C   UNL     1      -9.931  18.032  66.405  1.00  0.00    -0.362 A  
ENDBRANCH   2   3
BRANCH   2  17
HETATM   17  O   UNL     1     -11.583  13.595  66.982  1.00  0.00    -0.323 OA 
BRANCH  17  18
HETATM   18  C   UNL     1     -10.665  13.565  68.084  1.00  0.00    -0.252 C  
HETATM   19  C   UNL     1     -11.998  12.283  70.294  1.00  0.00    -0.290 C  
HETATM   20  C   UNL     1     -12.374  13.629  69.685  1.00  0.00    -0.203 C  
HETATM   21  O   UNL     1     -11.205  14.297  69.195  1.00  0.00    -0.249 OA 
HETATM   22  N   UNL     1     -11.339  11.354  69.331  1.00  0.00    -0.274 NA 
HETATM   23  C   UNL     1     -10.237  12.121  68.630  1.00  0.00    -0.174 C  
BRANCH  22  24
HETATM   24  C   UNL     1     -10.764  10.218  70.106  1.00  0.00    -0.278 C  
BRANCH  24  25
HETATM   25  C   UNL     1     -11.843   9.383  70.755  1.00  0.00    -0.256 C  
HETATM   26  N   UNL     1     -12.598   9.884  71.750  1.00  0.00    -0.403 NA 
HETATM   27  N   UNL     1     -12.138   8.157  70.418  1.00  0.00    -0.436 NA 
HETATM   28  O   UNL     1     -14.377   8.970  72.907  1.00  0.00    -0.550 OA 
HETATM   29  C   UNL     1     -13.489   8.909  72.079  1.00  0.00    -0.433 C  
HETATM   30  N   UNL     1     -13.175   7.834  71.255  1.00  0.00    -0.246 NA 
HETATM   31  H   UNL     1     -11.700   7.576  69.703  1.00  0.00     0.000 HD 
ENDBRANCH  24  25
ENDBRANCH  22  24
BRANCH  23  32
HETATM   32  C   UNL     1      -9.425  11.271  67.648  1.00  0.00    -0.173 A  
HETATM   33  C   UNL     1      -8.048   9.873  65.629  1.00  0.00    -0.128 A  
HETATM   34  F   UNL     1      -7.390   9.243  64.649  1.00  0.00    -0.094 F  
HETATM   35  C   UNL     1      -8.026  11.322  67.574  1.00  0.00    -0.124 A  
HETATM   36  C   UNL     1      -9.429   9.785  65.697  1.00  0.00    -0.307 A  
HETATM   37  C   UNL     1      -7.341  10.628  66.565  1.00  0.00    -0.134 A  
HETATM   38  C   UNL     1     -10.114  10.475  66.703  1.00  0.00    -0.275 A  
ENDBRANCH  23  32
ENDBRANCH  17  18
ENDBRANCH   2  17
TORSDOF 6
ENDMDL
MODEL       67
REMARK 921   NORMALIZED FREE ENERGY PREDICTED BY IDOCK:   -6.78 KCAL/MOL
REMARK 922        TOTAL FREE ENERGY PREDICTED BY IDOCK:  -11.30 KCAL/MOL
REMARK 923 INTER-LIGAND FREE ENERGY PREDICTED BY IDOCK:   -8.62 KCAL/MOL
REMARK 924 INTRA-LIGAND FREE ENERGY PREDICTED BY IDOCK:   -2.68 KCAL/MOL
REMARK 927      BINDING AFFINITY PREDICTED BY RF-SCORE:    0.00 PKD
ROOT
HETATM    1  C   UNL     1      -7.448  11.050  68.748  1.00  0.00    -0.116 C  
HETATM    2  C   UNL     1      -8.567  10.022  68.525  1.00  0.00    -0.119 C  
ENDROOT
BRANCH   2   3
HETATM    3  C   UNL     1      -9.312   9.639  69.815  1.00  0.00    -0.238 A  
HETATM    4  C   UNL     1      -8.669   8.985  70.883  1.00  0.00    -0.280 A  
HETATM    5  C   UNL     1     -10.683   9.924  69.953  1.00  0.00    -0.318 A  
HETATM    6  F   UNL     1      -7.570   8.643  73.643  1.00  0.00    -0.184 F  
HETATM    7  F   UNL     1      -9.389   7.613  74.242  1.00  0.00    -0.287 F  
HETATM    8  C   UNL     1     -11.395   9.568  71.116  1.00  0.00    -0.440 A  
HETATM    9  C   UNL     1     -12.873   9.853  71.253  1.00  0.00    -0.390 C  
HETATM   10  C   UNL     1     -10.719   8.917  72.162  1.00  0.00    -0.323 A  
HETATM   11  F   UNL     1      -8.075   6.722  72.757  1.00  0.00    -0.105 F  
HETATM   12  F   UNL     1     -13.406  10.510  70.185  1.00  0.00    -0.298 F  
HETATM   13  F   UNL     1     -13.609   8.719  71.403  1.00  0.00    -0.357 F  
HETATM   14  F   UNL     1     -13.155  10.625  72.341  1.00  0.00    -0.513 F  
HETATM   15  C   UNL     1      -8.612   7.906  73.162  1.00  0.00    -0.201 C  
HETATM   16  C   UNL     1      -9.355   8.618  72.055  1.00  0.00    -0.362 A  
ENDBRANCH   2   3
BRANCH   2  17
HETATM   17  O   UNL     1      -8.157   8.920  67.676  1.00  0.00    -0.105 OA 
BRANCH  17  18
HETATM   18  C   UNL     1      -9.207   8.256  66.958  1.00  0.00    -0.152 C  
HETATM   19  C   UNL     1      -7.975   6.350  65.181  1.00  0.00    -0.116 C  
HETATM   20  C   UNL     1      -7.859   7.867  65.082  1.00  0.00    -0.114 C  
HETATM   21  O   UNL     1      -9.062   8.490  65.548  1.00  0.00    -0.175 OA 
HETATM   22  N   UNL     1      -8.207   5.859  66.570  1.00  0.00    -0.109 NA 
HETATM   23  C   UNL     1      -9.336   6.672  67.166  1.00  0.00    -0.134 C  
BRANCH  22  24
HETATM   24  C   UNL     1      -8.593   4.421  66.491  1.00  0.00    -0.112 C  
BRANCH  24  25
HETATM   25  C   UNL     1      -9.551   4.163  65.350  1.00  0.00    -0.187 C  
HETATM   26  N   UNL     1      -9.151   3.498  64.251  1.00  0.00    -0.120 NA 
HETATM   27  N   UNL     1     -10.802   4.535  65.331  1.00  0.00    -0.779 NA 
HETATM   28  O   UNL     1     -10.323   2.835  62.374  1.00  0.00    -0.102 OA 
HETATM   29  C   UNL     1     -10.245   3.398  63.448  1.00  0.00    -0.197 C  
HETATM   30  N   UNL     1     -11.258   4.067  64.126  1.00  0.00    -0.196 NA 
HETATM   31  H   UNL     1     -11.318   5.052  66.044  1.00  0.00     0.000 HD 
ENDBRANCH  24  25
ENDBRANCH  22  24
BRANCH  23  32
HETATM   32  C   UNL     1      -9.731   6.234  68.579  1.00  0.00    -0.137 A  
HETATM   33  C   UNL     1     -10.650   5.247  71.050  1.00  0.00    -0.170 A  
HETATM   34  F   UNL     1     -11.092   4.742  72.207  1.00  0.00    -0.235 F  
HETATM   35  C   UNL     1      -8.879   5.497  69.413  1.00  0.00    -0.114 A  
HETATM   36  C   UNL     1     -11.504   5.995  70.255  1.00  0.00    -0.245 A  
HETATM   37  C   UNL     1      -9.339   5.002  70.642  1.00  0.00    -0.216 A  
HETATM   38  C   UNL     1     -11.047   6.490  69.030  1.00  0.00    -0.375 A  
ENDBRANCH  23  32
ENDBRANCH  17  18
ENDBRANCH   2  17
TORSDOF 6
ENDMDL
MODEL       68
REMARK 921   NORMALIZED FREE ENERGY PREDICTED BY IDOCK:   -6.73 KCAL/MOL
REMARK 922        TOTAL FREE ENERGY PREDICTED BY IDOCK:  -11.23 KCAL/MOL
REMARK 923 INTER-LIGAND FREE ENERGY PREDICTED BY IDOCK:   -9.77 KCAL/MOL
REMARK 924 INTRA-LIGAND FREE ENERGY PREDICTED BY IDOCK:   -1.45 KCAL/MOL
REMARK 927      BINDING AFFINITY PREDICTED BY RF-SCORE:    0.00 PKD
ROOT
HETATM    1  C   UNL     1      -9.356  12.776  66.805  1.00  0.00    -0.241 C  
HETATM    2  C   UNL     1     -10.234  11.657  67.382  1.00  0.00    -0.203 C  
ENDROOT
BRANCH   2   3
HETATM    3  C   UNL     1     -11.009  12.076  68.643  1.00  0.00    -0.281 A  
HETATM    4  C   UNL     1     -11.620  11.134  69.492  1.00  0.00    -0.392 A  
HETATM    5  C   UNL     1     -11.141  13.437  68.974  1.00  0.00    -0.293 A  
HETATM    6  F   UNL     1     -12.077   9.580  72.006  1.00  0.00    -0.424 F  
HETATM    7  F   UNL     1     -13.653  10.965  72.578  1.00  0.00    -0.405 F  
HETATM    8  C   UNL     1     -11.861  13.850  70.113  1.00  0.00    -0.368 A  
HETATM    9  C   UNL     1     -12.024  15.314  70.453  1.00  0.00    -0.335 C  
HETATM   10  C   UNL     1     -12.457  12.881  70.938  1.00  0.00    -0.383 A  
HETATM   11  F   UNL     1     -13.896   9.707  70.822  1.00  0.00    -0.358 F  
HETATM   12  F   UNL     1     -11.380  16.153  69.593  1.00  0.00    -0.289 F  
HETATM   13  F   UNL     1     -13.327  15.706  70.456  1.00  0.00    -0.468 F  
HETATM   14  F   UNL     1     -11.544  15.616  71.693  1.00  0.00    -0.346 F  
HETATM   15  C   UNL     1     -12.988  10.460  71.502  1.00  0.00    -0.458 C  
HETATM   16  C   UNL     1     -12.344  11.518  70.635  1.00  0.00    -0.457 A  
ENDBRANCH   2   3
BRANCH   2  17
HETATM   17  O   UNL     1      -9.547  10.382  67.452  1.00  0.00    -0.152 OA 
BRANCH  17  18
HETATM   18  C   UNL     1     -10.144   9.305  66.716  1.00  0.00    -0.261 C  
HETATM   19  C   UNL     1      -8.030   7.922  65.330  1.00  0.00    -0.126 C  
HETATM   20  C   UNL     1      -8.493   9.348  65.055  1.00  0.00    -0.159 C  
HETATM   21  O   UNL     1      -9.897   9.472  65.312  1.00  0.00    -0.282 OA 
HETATM   22  N   UNL     1      -8.253   7.482  66.737  1.00  0.00    -0.121 NA 
HETATM   23  C   UNL     1      -9.683   7.820  67.106  1.00  0.00    -0.186 C  
BRANCH  22  24
HETATM   24  C   UNL     1      -8.041   6.008  66.798  1.00  0.00    -0.105 C  
BRANCH  24  25
HETATM   25  C   UNL     1      -8.615   5.311  65.586  1.00  0.00    -0.143 C  
HETATM   26  N   UNL     1      -9.851   4.782  65.615  1.00  0.00    -0.184 NA 
HETATM   27  N   UNL     1      -7.995   5.173  64.445  1.00  0.00    -0.101 NA 
HETATM   28  O   UNL     1     -11.093   3.744  63.965  1.00  0.00    -0.331 OA 
HETATM   29  C   UNL     1     -10.077   4.276  64.372  1.00  0.00    -0.072 C  
HETATM   30  N   UNL     1      -8.905   4.509  63.664  1.00  0.00    -0.139 NA 
HETATM   31  H   UNL     1      -7.056   5.485  64.195  1.00  0.00     0.000 HD 
ENDBRANCH  24  25
ENDBRANCH  22  24
BRANCH  23  32
HETATM   32  C   UNL     1     -10.079   7.366  68.513  1.00  0.00    -0.187 A  
HETATM   33  C   UNL     1     -10.881   6.811  71.154  1.00  0.00    -0.238 A  
HETATM   34  F   UNL     1     -11.290   6.574  72.406  1.00  0.00    -0.266 F  
HETATM   35  C   UNL     1     -11.183   6.539  68.764  1.00  0.00    -0.319 A  
HETATM   36  C   UNL     1      -9.770   7.609  70.933  1.00  0.00    -0.175 A  
HETATM   37  C   UNL     1     -11.584   6.266  70.080  1.00  0.00    -0.378 A  
HETATM   38  C   UNL     1      -9.368   7.882  69.622  1.00  0.00    -0.153 A  
ENDBRANCH  23  32
ENDBRANCH  17  18
ENDBRANCH   2  17
TORSDOF 6
ENDMDL
MODEL       69
REMARK 921   NORMALIZED FREE ENERGY PREDICTED BY IDOCK:   -6.72 KCAL/MOL
REMARK 922        TOTAL FREE ENERGY PREDICTED BY IDOCK:  -11.21 KCAL/MOL
REMARK 923 INTER-LIGAND FREE ENERGY PREDICTED BY IDOCK:   -9.65 KCAL/MOL
REMARK 924 INTRA-LIGAND FREE ENERGY PREDICTED BY IDOCK:   -1.56 KCAL/MOL
REMARK 927      BINDING AFFINITY PREDICTED BY RF-SCORE:    0.00 PKD
ROOT
HETATM    1  C   UNL     1     -11.600  11.802  68.822  1.00  0.00    -0.367 C  
HETATM    2  C   UNL     1     -10.662  12.860  68.224  1.00  0.00    -0.244 C  
ENDROOT
BRANCH   2   3
HETATM    3  C   UNL     1     -10.767  14.231  68.913  1.00  0.00    -0.268 A  
HETATM    4  C   UNL     1     -11.313  14.379  70.202  1.00  0.00    -0.221 A  
HETATM    5  C   UNL     1     -10.327  15.393  68.252  1.00  0.00    -0.238 A  
HETATM    6  F   UNL     1     -11.343  15.002  73.127  1.00  0.00    -0.448 F  
HETATM    7  F   UNL     1     -12.080  17.001  72.697  1.00  0.00    -0.330 F  
HETATM    8  C   UNL     1     -10.429  16.664  68.853  1.00  0.00    -0.322 A  
HETATM    9  C   UNL     1      -9.979  17.914  68.132  1.00  0.00    -0.350 C  
HETATM   10  C   UNL     1     -10.979  16.773  70.142  1.00  0.00     0.022 A  
HETATM   11  F   UNL     1     -13.314  15.269  72.250  1.00  0.00    -0.365 F  
HETATM   12  F   UNL     1      -9.441  17.675  66.903  1.00  0.00    -0.247 F  
HETATM   13  F   UNL     1     -10.996  18.794  67.932  1.00  0.00    -0.400 F  
HETATM   14  F   UNL     1      -9.026  18.600  68.825  1.00  0.00    -0.334 F  
HETATM   15  C   UNL     1     -12.034  15.731  72.206  1.00  0.00    -0.493 C  
HETATM   16  C   UNL     1     -11.427  15.635  70.825  1.00  0.00    -0.409 A  
ENDBRANCH   2   3
BRANCH   2  17
HETATM   17  O   UNL     1     -10.682  12.875  66.774  1.00  0.00    -0.258 OA 
BRANCH  17  18
HETATM   18  C   UNL     1     -11.461  11.848  66.145  1.00  0.00    -0.288 C  
HETATM   19  C   UNL     1     -11.033  12.046  63.302  1.00  0.00    -0.325 C  
HETATM   20  C   UNL     1     -11.740  13.079  64.172  1.00  0.00    -0.412 C  
HETATM   21  O   UNL     1     -12.422  12.434  65.255  1.00  0.00    -0.611 OA 
HETATM   22  N   UNL     1     -10.015  11.242  64.038  1.00  0.00    -0.283 NA 
HETATM   23  C   UNL     1     -10.658  10.738  65.314  1.00  0.00    -0.160 C  
BRANCH  22  24
HETATM   24  C   UNL     1      -9.621  10.095  63.172  1.00  0.00    -0.173 C  
BRANCH  24  25
HETATM   25  C   UNL     1      -8.122  10.023  62.990  1.00  0.00    -0.150 C  
HETATM   26  N   UNL     1      -7.485   8.838  62.971  1.00  0.00    -0.100 NA 
HETATM   27  N   UNL     1      -7.343  11.058  62.830  1.00  0.00    -0.345 NA 
HETATM   28  O   UNL     1      -5.260   8.321  62.623  1.00  0.00    -0.065 OA 
HETATM   29  C   UNL     1      -6.172   9.116  62.750  1.00  0.00    -0.094 C  
HETATM   30  N   UNL     1      -6.097  10.503  62.685  1.00  0.00    -0.144 NA 
HETATM   31  H   UNL     1      -7.599  12.045  62.816  1.00  0.00     0.000 HD 
ENDBRANCH  24  25
ENDBRANCH  22  24
BRANCH  23  32
HETATM   32  C   UNL     1      -9.744   9.837  66.149  1.00  0.00    -0.309 A  
HETATM   33  C   UNL     1      -8.110   8.365  67.907  1.00  0.00    -0.123 A  
HETATM   34  F   UNL     1      -7.358   7.676  68.772  1.00  0.00    -0.080 F  
HETATM   35  C   UNL     1     -10.105   8.539  66.539  1.00  0.00    -0.328 A  
HETATM   36  C   UNL     1      -7.718   9.635  67.515  1.00  0.00    -0.095 A  
HETATM   37  C   UNL     1      -9.292   7.809  67.418  1.00  0.00    -0.168 A  
HETATM   38  C   UNL     1      -8.527  10.365  66.638  1.00  0.00    -0.126 A  
ENDBRANCH  23  32
ENDBRANCH  17  18
ENDBRANCH   2  17
TORSDOF 6
ENDMDL
MODEL       70
REMARK 921   NORMALIZED FREE ENERGY PREDICTED BY IDOCK:   -6.71 KCAL/MOL
REMARK 922        TOTAL FREE ENERGY PREDICTED BY IDOCK:  -11.20 KCAL/MOL
REMARK 923 INTER-LIGAND FREE ENERGY PREDICTED BY IDOCK:  -10.73 KCAL/MOL
REMARK 924 INTRA-LIGAND FREE ENERGY PREDICTED BY IDOCK:   -0.47 KCAL/MOL
REMARK 927      BINDING AFFINITY PREDICTED BY RF-SCORE:    0.00 PKD
ROOT
HETATM    1  C   UNL     1     -10.547   8.424  72.311  1.00  0.00    -0.412 C  
HETATM    2  C   UNL     1     -11.204   7.827  71.058  1.00  0.00    -0.266 C  
ENDROOT
BRANCH   2   3
HETATM    3  C   UNL     1     -10.642   6.449  70.671  1.00  0.00    -0.288 A  
HETATM    4  C   UNL     1     -10.302   6.126  69.343  1.00  0.00    -0.283 A  
HETATM    5  C   UNL     1     -10.469   5.454  71.650  1.00  0.00    -0.291 A  
HETATM    6  F   UNL     1      -8.516   5.412  67.053  1.00  0.00    -0.108 F  
HETATM    7  F   UNL     1      -8.995   3.310  67.333  1.00  0.00    -0.114 F  
HETATM    8  C   UNL     1      -9.973   4.175  71.321  1.00  0.00    -0.216 A  
HETATM    9  C   UNL     1      -9.811   3.099  72.370  1.00  0.00    -0.157 C  
HETATM   10  C   UNL     1      -9.643   3.891  69.985  1.00  0.00    -0.269 A  
HETATM   11  F   UNL     1     -10.544   4.704  66.716  1.00  0.00    -0.251 F  
HETATM   12  F   UNL     1     -10.139   3.506  73.629  1.00  0.00    -0.138 F  
HETATM   13  F   UNL     1     -10.578   2.005  72.116  1.00  0.00    -0.232 F  
HETATM   14  F   UNL     1      -8.529   2.643  72.452  1.00  0.00    -0.063 F  
HETATM   15  C   UNL     1      -9.469   4.570  67.542  1.00  0.00    -0.161 C  
HETATM   16  C   UNL     1      -9.806   4.859  68.987  1.00  0.00    -0.250 A  
ENDBRANCH   2   3
BRANCH   2  17
HETATM   17  O   UNL     1     -11.333   8.787  69.979  1.00  0.00    -0.173 OA 
BRANCH  17  18
HETATM   18  C   UNL     1     -10.307   9.787  69.902  1.00  0.00    -0.254 C  
HETATM   19  C   UNL     1      -9.949  10.454  67.120  1.00  0.00    -0.195 C  
HETATM   20  C   UNL     1      -9.622   9.112  67.765  1.00  0.00    -0.146 C  
HETATM   21  O   UNL     1      -9.203   9.301  69.123  1.00  0.00    -0.144 OA 
HETATM   22  N   UNL     1     -11.041  11.198  67.812  1.00  0.00    -0.263 NA 
HETATM   23  C   UNL     1     -10.728  11.209  69.293  1.00  0.00    -0.199 C  
BRANCH  22  24
HETATM   24  C   UNL     1     -11.058  12.590  67.279  1.00  0.00    -0.274 C  
BRANCH  24  25
HETATM   25  C   UNL     1     -11.216  12.610  65.776  1.00  0.00    -0.312 C  
HETATM   26  N   UNL     1     -12.392  12.297  65.202  1.00  0.00    -0.532 NA 
HETATM   27  N   UNL     1     -10.272  12.930  64.934  1.00  0.00    -0.423 NA 
HETATM   28  O   UNL     1     -13.044  12.306  62.985  1.00  0.00    -0.476 OA 
HETATM   29  C   UNL     1     -12.214  12.452  63.862  1.00  0.00    -0.513 C  
HETATM   30  N   UNL     1     -10.884  12.826  63.711  1.00  0.00    -0.410 NA 
HETATM   31  H   UNL     1      -9.308  13.194  65.137  1.00  0.00     0.000 HD 
ENDBRANCH  24  25
ENDBRANCH  22  24
BRANCH  23  32
HETATM   32  C   UNL     1     -11.738  11.999  70.130  1.00  0.00    -0.316 A  
HETATM   33  C   UNL     1     -13.442  13.368  71.905  1.00  0.00    -0.441 A  
HETATM   34  F   UNL     1     -14.221  14.026  72.771  1.00  0.00    -0.485 F  
HETATM   35  C   UNL     1     -11.822  13.398  70.101  1.00  0.00    -0.342 A  
HETATM   36  C   UNL     1     -13.397  11.983  71.936  1.00  0.00    -0.408 A  
HETATM   37  C   UNL     1     -12.668  14.079  70.988  1.00  0.00    -0.431 A  
HETATM   38  C   UNL     1     -12.555  11.302  71.051  1.00  0.00    -0.495 A  
ENDBRANCH  23  32
ENDBRANCH  17  18
ENDBRANCH   2  17
TORSDOF 6
ENDMDL
MODEL       71
REMARK 921   NORMALIZED FREE ENERGY PREDICTED BY IDOCK:   -6.71 KCAL/MOL
REMARK 922        TOTAL FREE ENERGY PREDICTED BY IDOCK:  -11.19 KCAL/MOL
REMARK 923 INTER-LIGAND FREE ENERGY PREDICTED BY IDOCK:  -10.74 KCAL/MOL
REMARK 924 INTRA-LIGAND FREE ENERGY PREDICTED BY IDOCK:   -0.45 KCAL/MOL
REMARK 927      BINDING AFFINITY PREDICTED BY RF-SCORE:    0.00 PKD
ROOT
HETATM    1  C   UNL     1     -12.121  12.997  66.145  1.00  0.00    -0.473 C  
HETATM    2  C   UNL     1     -11.690  12.671  67.583  1.00  0.00    -0.361 C  
ENDROOT
BRANCH   2   3
HETATM    3  C   UNL     1     -11.606  13.910  68.491  1.00  0.00    -0.367 A  
HETATM    4  C   UNL     1     -11.014  15.113  68.062  1.00  0.00    -0.295 A  
HETATM    5  C   UNL     1     -12.112  13.862  69.803  1.00  0.00    -0.404 A  
HETATM    6  F   UNL     1     -10.891  17.998  67.283  1.00  0.00    -0.381 F  
HETATM    7  F   UNL     1     -10.242  18.515  69.292  1.00  0.00    -0.385 F  
HETATM    8  C   UNL     1     -12.032  14.975  70.664  1.00  0.00    -0.370 A  
HETATM    9  C   UNL     1     -12.554  14.914  72.081  1.00  0.00    -0.327 C  
HETATM   10  C   UNL     1     -11.435  16.160  70.200  1.00  0.00    -0.309 A  
HETATM   11  F   UNL     1      -8.967  17.302  68.017  1.00  0.00    -0.221 F  
HETATM   12  F   UNL     1     -13.131  13.723  72.403  1.00  0.00    -0.437 F  
HETATM   13  F   UNL     1     -11.577  15.120  73.005  1.00  0.00    -0.490 F  
HETATM   14  F   UNL     1     -13.502  15.863  72.327  1.00  0.00    -0.502 F  
HETATM   15  C   UNL     1     -10.263  17.499  68.385  1.00  0.00    -0.372 C  
HETATM   16  C   UNL     1     -10.921  16.239  68.900  1.00  0.00    -0.334 A  
ENDBRANCH   2   3
BRANCH   2  17
HETATM   17  O   UNL     1     -10.561  11.764  67.639  1.00  0.00    -0.195 OA 
BRANCH  17  18
HETATM   18  C   UNL     1     -10.824  10.408  67.252  1.00  0.00    -0.264 C  
HETATM   19  C   UNL     1      -8.285   9.078  66.955  1.00  0.00    -0.109 C  
HETATM   20  C   UNL     1      -8.807  10.210  66.078  1.00  0.00    -0.143 C  
HETATM   21  O   UNL     1     -10.234  10.138  65.971  1.00  0.00    -0.252 OA 
HETATM   22  N   UNL     1      -8.825   9.102  68.345  1.00  0.00    -0.129 NA 
HETATM   23  C   UNL     1     -10.328   9.260  68.254  1.00  0.00    -0.217 C  
BRANCH  22  24
HETATM   24  C   UNL     1      -8.482   7.805  68.995  1.00  0.00    -0.132 C  
BRANCH  24  25
HETATM   25  C   UNL     1      -8.579   6.652  68.024  1.00  0.00    -0.118 C  
HETATM   26  N   UNL     1      -9.771   6.108  67.715  1.00  0.00    -0.114 NA 
HETATM   27  N   UNL     1      -7.562   6.106  67.414  1.00  0.00    -0.089 NA 
HETATM   28  O   UNL     1     -10.329   4.430  66.228  1.00  0.00    -0.235 OA 
HETATM   29  C   UNL     1      -9.519   5.137  66.796  1.00  0.00    -0.141 C  
HETATM   30  N   UNL     1      -8.138   5.135  66.635  1.00  0.00    -0.108 NA 
HETATM   31  H   UNL     1      -6.574   6.346  67.496  1.00  0.00     0.000 HD 
ENDBRANCH  24  25
ENDBRANCH  22  24
BRANCH  23  32
HETATM   32  C   UNL     1     -11.033   9.237  69.614  1.00  0.00    -0.192 A  
HETATM   33  C   UNL     1     -12.573   9.270  71.971  1.00  0.00    -0.390 A  
HETATM   34  F   UNL     1     -13.335   9.272  73.070  1.00  0.00    -0.424 F  
HETATM   35  C   UNL     1     -11.254   8.056  70.337  1.00  0.00    -0.230 A  
HETATM   36  C   UNL     1     -12.346  10.455  71.288  1.00  0.00    -0.507 A  
HETATM   37  C   UNL     1     -12.025   8.073  71.509  1.00  0.00    -0.331 A  
HETATM   38  C   UNL     1     -11.577  10.440  70.121  1.00  0.00    -0.392 A  
ENDBRANCH  23  32
ENDBRANCH  17  18
ENDBRANCH   2  17
TORSDOF 6
ENDMDL
MODEL       72
REMARK 921   NORMALIZED FREE ENERGY PREDICTED BY IDOCK:   -6.68 KCAL/MOL
REMARK 922        TOTAL FREE ENERGY PREDICTED BY IDOCK:  -11.16 KCAL/MOL
REMARK 923 INTER-LIGAND FREE ENERGY PREDICTED BY IDOCK:  -10.17 KCAL/MOL
REMARK 924 INTRA-LIGAND FREE ENERGY PREDICTED BY IDOCK:   -0.98 KCAL/MOL
REMARK 927      BINDING AFFINITY PREDICTED BY RF-SCORE:    0.00 PKD
ROOT
HETATM    1  C   UNL     1     -12.650  11.317  71.076  1.00  0.00    -0.495 C  
HETATM    2  C   UNL     1     -12.228  10.850  69.676  1.00  0.00    -0.283 C  
ENDROOT
BRANCH   2   3
HETATM    3  C   UNL     1     -11.173   9.731  69.697  1.00  0.00    -0.216 A  
HETATM    4  C   UNL     1     -10.639   9.229  70.899  1.00  0.00    -0.366 A  
HETATM    5  C   UNL     1     -10.694   9.186  68.491  1.00  0.00    -0.160 A  
HETATM    6  F   UNL     1     -10.092   7.215  73.041  1.00  0.00    -0.189 F  
HETATM    7  F   UNL     1      -8.180   6.749  72.118  1.00  0.00    -0.103 F  
HETATM    8  C   UNL     1      -9.714   8.173  68.480  1.00  0.00    -0.170 A  
HETATM    9  C   UNL     1      -9.183   7.606  67.183  1.00  0.00    -0.132 C  
HETATM   10  C   UNL     1      -9.205   7.696  69.700  1.00  0.00    -0.146 A  
HETATM   11  F   UNL     1      -8.526   8.721  72.963  1.00  0.00    -0.226 F  
HETATM   12  F   UNL     1      -9.772   8.130  66.072  1.00  0.00    -0.265 F  
HETATM   13  F   UNL     1      -7.846   7.813  67.033  1.00  0.00    -0.102 F  
HETATM   14  F   UNL     1      -9.361   6.257  67.094  1.00  0.00    -0.119 F  
HETATM   15  C   UNL     1      -9.117   7.730  72.240  1.00  0.00    -0.149 C  
HETATM   16  C   UNL     1      -9.660   8.219  70.917  1.00  0.00    -0.196 A  
ENDBRANCH   2   3
BRANCH   2  17
HETATM   17  O   UNL     1     -11.970  11.951  68.769  1.00  0.00    -0.309 OA 
BRANCH  17  18
HETATM   18  C   UNL     1     -10.809  12.743  69.057  1.00  0.00    -0.148 C  
HETATM   19  C   UNL     1     -10.415  14.547  66.844  1.00  0.00    -0.269 C  
HETATM   20  C   UNL     1     -10.278  13.030  66.793  1.00  0.00    -0.246 C  
HETATM   21  O   UNL     1      -9.807  12.531  68.050  1.00  0.00    -0.201 OA 
HETATM   22  N   UNL     1     -11.369  15.026  67.886  1.00  0.00    -0.323 NA 
HETATM   23  C   UNL     1     -11.026  14.325  69.184  1.00  0.00    -0.261 C  
BRANCH  22  24
HETATM   24  C   UNL     1     -11.190  16.498  68.033  1.00  0.00    -0.202 C  
BRANCH  24  25
HETATM   25  C   UNL     1      -9.794  16.932  67.647  1.00  0.00    -0.259 C  
HETATM   26  N   UNL     1      -9.525  17.358  66.400  1.00  0.00    -0.315 NA 
HETATM   27  N   UNL     1      -8.769  16.942  68.455  1.00  0.00    -0.243 NA 
HETATM   28  O   UNL     1      -7.576  18.180  65.470  1.00  0.00    -0.527 OA 
HETATM   29  C   UNL     1      -8.210  17.708  66.394  1.00  0.00    -0.263 C  
HETATM   30  N   UNL     1      -7.750  17.424  67.675  1.00  0.00    -0.191 NA 
HETATM   31  H   UNL     1      -8.735  16.659  69.435  1.00  0.00     0.000 HD 
ENDBRANCH  24  25
ENDBRANCH  22  24
BRANCH  23  32
HETATM   32  C   UNL     1     -11.889  14.768  70.369  1.00  0.00    -0.352 A  
HETATM   33  C   UNL     1     -13.405  15.858  72.476  1.00  0.00    -0.427 A  
HETATM   34  F   UNL     1     -14.135  16.407  73.454  1.00  0.00    -0.620 F  
HETATM   35  C   UNL     1     -13.284  14.632  70.387  1.00  0.00    -0.049 A  
HETATM   36  C   UNL     1     -12.025  15.983  72.494  1.00  0.00    -0.649 A  
HETATM   37  C   UNL     1     -14.039  15.179  71.435  1.00  0.00    -0.598 A  
HETATM   38  C   UNL     1     -11.271  15.438  71.451  1.00  0.00    -0.402 A  
ENDBRANCH  23  32
ENDBRANCH  17  18
ENDBRANCH   2  17
TORSDOF 6
ENDMDL
MODEL       73
REMARK 921   NORMALIZED FREE ENERGY PREDICTED BY IDOCK:   -6.68 KCAL/MOL
REMARK 922        TOTAL FREE ENERGY PREDICTED BY IDOCK:  -11.15 KCAL/MOL
REMARK 923 INTER-LIGAND FREE ENERGY PREDICTED BY IDOCK:  -10.09 KCAL/MOL
REMARK 924 INTRA-LIGAND FREE ENERGY PREDICTED BY IDOCK:   -1.06 KCAL/MOL
REMARK 927      BINDING AFFINITY PREDICTED BY RF-SCORE:    0.00 PKD
ROOT
HETATM    1  C   UNL     1      -7.196  13.854  67.639  1.00  0.00    -0.187 C  
HETATM    2  C   UNL     1      -8.707  13.615  67.507  1.00  0.00    -0.198 C  
ENDROOT
BRANCH   2   3
HETATM    3  C   UNL     1      -9.560  14.694  68.196  1.00  0.00    -0.213 A  
HETATM    4  C   UNL     1     -10.536  14.373  69.158  1.00  0.00    -0.229 A  
HETATM    5  C   UNL     1      -9.391  16.050  67.862  1.00  0.00    -0.208 A  
HETATM    6  F   UNL     1     -11.826  14.295  71.855  1.00  0.00    -0.335 F  
HETATM    7  F   UNL     1     -13.064  15.998  71.315  1.00  0.00    -0.529 F  
HETATM    8  C   UNL     1     -10.172  17.058  68.465  1.00  0.00    -0.324 A  
HETATM    9  C   UNL     1     -10.007  18.512  68.087  1.00  0.00    -0.361 C  
HETATM   10  C   UNL     1     -11.137  16.700  69.421  1.00  0.00    -0.176 A  
HETATM   11  F   UNL     1     -13.306  14.106  70.273  1.00  0.00    -0.235 F  
HETATM   12  F   UNL     1      -9.024  18.733  67.170  1.00  0.00    -0.267 F  
HETATM   13  F   UNL     1     -11.142  19.044  67.557  1.00  0.00    -0.508 F  
HETATM   14  F   UNL     1      -9.696  19.296  69.159  1.00  0.00    -0.419 F  
HETATM   15  C   UNL     1     -12.370  14.949  70.791  1.00  0.00    -0.329 C  
HETATM   16  C   UNL     1     -11.329  15.358  69.774  1.00  0.00    -0.317 A  
ENDBRANCH   2   3
BRANCH   2  17
HETATM   17  O   UNL     1      -9.085  12.240  67.773  1.00  0.00    -0.176 OA 
BRANCH  17  18
HETATM   18  C   UNL     1     -10.289  11.786  67.141  1.00  0.00    -0.215 C  
HETATM   19  C   UNL     1      -9.624   9.468  65.562  1.00  0.00    -0.279 C  
HETATM   20  C   UNL     1      -9.147  10.892  65.301  1.00  0.00    -0.197 C  
HETATM   21  O   UNL     1     -10.145  11.835  65.713  1.00  0.00    -0.221 OA 
HETATM   22  N   UNL     1      -9.917   9.190  66.998  1.00  0.00    -0.210 NA 
HETATM   23  C   UNL     1     -10.792  10.312  67.517  1.00  0.00    -0.298 C  
BRANCH  22  24
HETATM   24  C   UNL     1     -10.643   7.891  67.077  1.00  0.00    -0.311 C  
BRANCH  24  25
HETATM   25  C   UNL     1      -9.736   6.725  66.760  1.00  0.00    -0.171 C  
HETATM   26  N   UNL     1      -8.575   6.555  67.418  1.00  0.00    -0.118 NA 
HETATM   27  N   UNL     1      -9.989   5.808  65.865  1.00  0.00    -0.386 NA 
HETATM   28  O   UNL     1      -6.993   4.875  67.289  1.00  0.00    -0.059 OA 
HETATM   29  C   UNL     1      -8.027   5.408  66.933  1.00  0.00    -0.101 C  
HETATM   30  N   UNL     1      -8.909   4.967  65.954  1.00  0.00    -0.126 NA 
HETATM   31  H   UNL     1     -10.797   5.735  65.247  1.00  0.00     0.000 HD 
ENDBRANCH  24  25
ENDBRANCH  22  24
BRANCH  23  32
HETATM   32  C   UNL     1     -11.229  10.127  68.973  1.00  0.00    -0.223 A  
HETATM   33  C   UNL     1     -12.304   9.749  71.548  1.00  0.00    -0.405 A  
HETATM   34  F   UNL     1     -12.841   9.544  72.756  1.00  0.00    -0.378 F  
HETATM   35  C   UNL     1     -10.858   9.017  69.745  1.00  0.00    -0.215 A  
HETATM   36  C   UNL     1     -12.667  10.869  70.816  1.00  0.00    -0.431 A  
HETATM   37  C   UNL     1     -11.397   8.827  71.025  1.00  0.00    -0.332 A  
HETATM   38  C   UNL     1     -12.129  11.060  69.539  1.00  0.00    -0.400 A  
ENDBRANCH  23  32
ENDBRANCH  17  18
ENDBRANCH   2  17
TORSDOF 6
ENDMDL
MODEL       74
REMARK 921   NORMALIZED FREE ENERGY PREDICTED BY IDOCK:   -6.65 KCAL/MOL
REMARK 922        TOTAL FREE ENERGY PREDICTED BY IDOCK:  -11.12 KCAL/MOL
REMARK 923 INTER-LIGAND FREE ENERGY PREDICTED BY IDOCK:   -9.00 KCAL/MOL
REMARK 924 INTRA-LIGAND FREE ENERGY PREDICTED BY IDOCK:   -2.12 KCAL/MOL
REMARK 927      BINDING AFFINITY PREDICTED BY RF-SCORE:    0.00 PKD
ROOT
HETATM    1  C   UNL     1      -6.907  13.011  68.253  1.00  0.00    -0.101 C  
HETATM    2  C   UNL     1      -7.915  12.546  67.192  1.00  0.00    -0.140 C  
ENDROOT
BRANCH   2   3
HETATM    3  C   UNL     1      -9.254  13.300  67.249  1.00  0.00    -0.222 A  
HETATM    4  C   UNL     1      -9.729  13.892  68.435  1.00  0.00    -0.226 A  
HETATM    5  C   UNL     1     -10.059  13.402  66.100  1.00  0.00    -0.304 A  
HETATM    6  F   UNL     1     -10.552  16.104  70.272  1.00  0.00    -0.286 F  
HETATM    7  F   UNL     1     -12.631  15.796  69.714  1.00  0.00    -0.360 F  
HETATM    8  C   UNL     1     -11.300  14.071  66.127  1.00  0.00    -0.322 A  
HETATM    9  C   UNL     1     -12.175  14.158  64.898  1.00  0.00    -0.438 C  
HETATM   10  C   UNL     1     -11.740  14.651  67.329  1.00  0.00    -0.406 A  
HETATM   11  F   UNL     1     -11.553  14.244  70.787  1.00  0.00    -0.333 F  
HETATM   12  F   UNL     1     -11.627  13.581  63.792  1.00  0.00    -0.410 F  
HETATM   13  F   UNL     1     -13.383  13.558  65.075  1.00  0.00    -0.281 F  
HETATM   14  F   UNL     1     -12.449  15.447  64.546  1.00  0.00    -0.324 F  
HETATM   15  C   UNL     1     -11.424  15.170  69.798  1.00  0.00    -0.297 C  
HETATM   16  C   UNL     1     -10.963  14.565  68.491  1.00  0.00    -0.261 A  
ENDBRANCH   2   3
BRANCH   2  17
HETATM   17  O   UNL     1      -8.002  11.102  67.094  1.00  0.00    -0.127 OA 
BRANCH  17  18
HETATM   18  C   UNL     1      -9.173  10.585  66.447  1.00  0.00    -0.166 C  
HETATM   19  C   UNL     1      -8.839   7.734  66.189  1.00  0.00    -0.162 C  
HETATM   20  C   UNL     1      -8.011   8.797  65.476  1.00  0.00    -0.102 C  
HETATM   21  O   UNL     1      -8.812   9.955  65.208  1.00  0.00    -0.158 OA 
HETATM   22  N   UNL     1      -9.396   8.188  67.496  1.00  0.00    -0.139 NA 
HETATM   23  C   UNL     1     -10.054   9.534  67.276  1.00  0.00    -0.215 C  
BRANCH  22  24
HETATM   24  C   UNL     1     -10.408   7.187  67.938  1.00  0.00    -0.198 C  
BRANCH  24  25
HETATM   25  C   UNL     1      -9.971   6.470  69.194  1.00  0.00    -0.146 C  
HETATM   26  N   UNL     1     -10.870   6.088  70.119  1.00  0.00    -0.310 NA 
HETATM   27  N   UNL     1      -8.736   6.158  69.481  1.00  0.00    -0.129 NA 
HETATM   28  O   UNL     1     -10.609   4.906  72.087  1.00  0.00    -0.208 OA 
HETATM   29  C   UNL     1     -10.167   5.441  71.088  1.00  0.00    -0.221 C  
HETATM   30  N   UNL     1      -8.839   5.512  70.686  1.00  0.00    -0.132 NA 
HETATM   31  H   UNL     1      -7.894   6.349  68.937  1.00  0.00     0.000 HD 
ENDBRANCH  24  25
ENDBRANCH  22  24
BRANCH  23  32
HETATM   32  C   UNL     1     -10.731  10.100  68.528  1.00  0.00    -0.264 A  
HETATM   33  C   UNL     1     -12.214  10.989  70.749  1.00  0.00    -0.380 A  
HETATM   34  F   UNL     1     -12.937  11.377  71.806  1.00  0.00    -0.507 F  
HETATM   35  C   UNL     1     -10.357   9.732  69.828  1.00  0.00    -0.274 A  
HETATM   36  C   UNL     1     -12.588  11.390  69.476  1.00  0.00     0.064 A  
HETATM   37  C   UNL     1     -11.099  10.172  70.933  1.00  0.00    -0.326 A  
HETATM   38  C   UNL     1     -11.849  10.952  68.373  1.00  0.00    -0.195 A  
ENDBRANCH  23  32
ENDBRANCH  17  18
ENDBRANCH   2  17
TORSDOF 6
ENDMDL
MODEL       75
REMARK 921   NORMALIZED FREE ENERGY PREDICTED BY IDOCK:   -6.63 KCAL/MOL
REMARK 922        TOTAL FREE ENERGY PREDICTED BY IDOCK:  -11.10 KCAL/MOL
REMARK 923 INTER-LIGAND FREE ENERGY PREDICTED BY IDOCK:   -8.29 KCAL/MOL
REMARK 924 INTRA-LIGAND FREE ENERGY PREDICTED BY IDOCK:   -2.80 KCAL/MOL
REMARK 927      BINDING AFFINITY PREDICTED BY RF-SCORE:    0.00 PKD
ROOT
HETATM    1  C   UNL     1     -11.282   9.976  69.695  1.00  0.00    -0.285 C  
HETATM    2  C   UNL     1     -11.035  11.313  68.980  1.00  0.00    -0.236 C  
ENDROOT
BRANCH   2   3
HETATM    3  C   UNL     1      -9.870  11.263  67.977  1.00  0.00    -0.186 A  
HETATM    4  C   UNL     1      -8.540  11.518  68.363  1.00  0.00    -0.159 A  
HETATM    5  C   UNL     1     -10.113  10.974  66.622  1.00  0.00    -0.262 A  
HETATM    6  F   UNL     1      -5.656  10.913  68.876  1.00  0.00    -0.042 F  
HETATM    7  F   UNL     1      -5.137  11.722  66.926  1.00  0.00    -0.077 F  
HETATM    8  C   UNL     1      -9.067  10.941  65.678  1.00  0.00    -0.223 A  
HETATM    9  C   UNL     1      -9.334  10.654  64.218  1.00  0.00    -0.258 C  
HETATM   10  C   UNL     1      -7.752  11.199  66.100  1.00  0.00    -0.053 A  
HETATM   11  F   UNL     1      -5.952  13.027  68.461  1.00  0.00    -0.065 F  
HETATM   12  F   UNL     1     -10.642  10.395  63.939  1.00  0.00    -0.300 F  
HETATM   13  F   UNL     1      -8.975  11.689  63.410  1.00  0.00    -0.116 F  
HETATM   14  F   UNL     1      -8.638   9.572  63.765  1.00  0.00    -0.160 F  
HETATM   15  C   UNL     1      -6.072  11.786  67.915  1.00  0.00    -0.050 C  
HETATM   16  C   UNL     1      -7.478  11.491  67.442  1.00  0.00    -0.127 A  
ENDBRANCH   2   3
BRANCH   2  17
HETATM   17  O   UNL     1     -11.047  12.446  69.885  1.00  0.00     0.031 OA 
BRANCH  17  18
HETATM   18  C   UNL     1     -12.115  13.385  69.702  1.00  0.00    -0.289 C  
HETATM   19  C   UNL     1     -11.168  15.963  70.578  1.00  0.00    -0.377 C  
HETATM   20  C   UNL     1     -11.400  14.747  71.469  1.00  0.00    -0.027 C  
HETATM   21  O   UNL     1     -12.486  13.961  70.965  1.00  0.00    -0.340 OA 
HETATM   22  N   UNL     1     -10.833  15.613  69.167  1.00  0.00    -0.230 NA 
HETATM   23  C   UNL     1     -11.848  14.596  68.688  1.00  0.00    -0.311 C  
BRANCH  22  24
HETATM   24  C   UNL     1     -10.925  16.857  68.350  1.00  0.00    -0.296 C  
BRANCH  24  25
HETATM   25  C   UNL     1      -9.596  17.571  68.269  1.00  0.00    -0.299 C  
HETATM   26  N   UNL     1      -9.536  18.914  68.222  1.00  0.00    -0.330 NA 
HETATM   27  N   UNL     1      -8.433  16.977  68.249  1.00  0.00    -0.225 NA 
HETATM   28  O   UNL     1      -7.724  20.348  68.194  1.00  0.00    -0.189 OA 
HETATM   29  C   UNL     1      -8.213  19.235  68.199  1.00  0.00    -0.318 C  
HETATM   30  N   UNL     1      -7.542  18.018  68.195  1.00  0.00    -0.250 NA 
HETATM   31  H   UNL     1      -8.235  15.976  68.269  1.00  0.00     0.000 HD 
ENDBRANCH  24  25
ENDBRANCH  22  24
BRANCH  23  32
HETATM   32  C   UNL     1     -11.666  14.188  67.223  1.00  0.00    -0.421 A  
HETATM   33  C   UNL     1     -11.548  13.624  64.468  1.00  0.00    -0.390 A  
HETATM   34  F   UNL     1     -11.501  13.394  63.151  1.00  0.00    -0.272 F  
HETATM   35  C   UNL     1     -10.528  14.524  66.475  1.00  0.00    -0.285 A  
HETATM   36  C   UNL     1     -12.673  13.258  65.190  1.00  0.00    -0.464 A  
HETATM   37  C   UNL     1     -10.473  14.246  65.102  1.00  0.00    -0.432 A  
HETATM   38  C   UNL     1     -12.730  13.534  66.560  1.00  0.00     0.020 A  
ENDBRANCH  23  32
ENDBRANCH  17  18
ENDBRANCH   2  17
TORSDOF 6
ENDMDL
MODEL       76
REMARK 921   NORMALIZED FREE ENERGY PREDICTED BY IDOCK:   -6.63 KCAL/MOL
REMARK 922        TOTAL FREE ENERGY PREDICTED BY IDOCK:  -11.08 KCAL/MOL
REMARK 923 INTER-LIGAND FREE ENERGY PREDICTED BY IDOCK:   -7.87 KCAL/MOL
REMARK 924 INTRA-LIGAND FREE ENERGY PREDICTED BY IDOCK:   -3.21 KCAL/MOL
REMARK 927      BINDING AFFINITY PREDICTED BY RF-SCORE:    0.00 PKD
ROOT
HETATM    1  C   UNL     1      -9.942   8.205  72.916  1.00  0.00    -0.336 C  
HETATM    2  C   UNL     1     -10.549   8.568  71.553  1.00  0.00    -0.263 C  
ENDROOT
BRANCH   2   3
HETATM    3  C   UNL     1      -9.683   8.126  70.361  1.00  0.00    -0.179 A  
HETATM    4  C   UNL     1     -10.244   7.580  69.191  1.00  0.00    -0.202 A  
HETATM    5  C   UNL     1      -8.282   8.242  70.421  1.00  0.00    -0.114 A  
HETATM    6  F   UNL     1     -10.982   7.439  66.296  1.00  0.00     0.023 F  
HETATM    7  F   UNL     1      -9.233   6.206  65.909  1.00  0.00    -0.167 F  
HETATM    8  C   UNL     1      -7.463   7.827  69.351  1.00  0.00    -0.088 A  
HETATM    9  C   UNL     1      -5.957   7.930  69.427  1.00  0.00    -0.033 C  
HETATM   10  C   UNL     1      -8.059   7.288  68.199  1.00  0.00    -0.124 A  
HETATM   11  F   UNL     1     -10.838   5.451  67.166  1.00  0.00    -0.283 F  
HETATM   12  F   UNL     1      -5.502   8.491  70.582  1.00  0.00    -0.028 F  
HETATM   13  F   UNL     1      -5.347   6.717  69.333  1.00  0.00    -0.012 F  
HETATM   14  F   UNL     1      -5.436   8.685  68.419  1.00  0.00    -0.035 F  
HETATM   15  C   UNL     1     -10.113   6.569  66.884  1.00  0.00    -0.192 C  
HETATM   16  C   UNL     1      -9.451   7.158  68.109  1.00  0.00    -0.132 A  
ENDBRANCH   2   3
BRANCH   2  17
HETATM   17  O   UNL     1     -11.049   9.928  71.504  1.00  0.00    -0.275 OA 
BRANCH  17  18
HETATM   18  C   UNL     1     -12.122  10.171  70.583  1.00  0.00    -0.319 C  
HETATM   19  C   UNL     1     -13.035  12.872  71.001  1.00  0.00    -0.098 C  
HETATM   20  C   UNL     1     -13.163  11.723  71.994  1.00  0.00    -0.355 C  
HETATM   21  O   UNL     1     -13.326  10.480  71.300  1.00  0.00    -0.328 OA 
HETATM   22  N   UNL     1     -11.872  12.735  70.077  1.00  0.00    -0.314 NA 
HETATM   23  C   UNL     1     -11.899  11.334  69.503  1.00  0.00    -0.357 C  
BRANCH  22  24
HETATM   24  C   UNL     1     -12.029  13.740  68.987  1.00  0.00    -0.360 C  
BRANCH  24  25
HETATM   25  C   UNL     1     -10.939  14.786  69.032  1.00  0.00    -0.248 C  
HETATM   26  N   UNL     1     -11.177  16.048  68.628  1.00  0.00    -0.348 NA 
HETATM   27  N   UNL     1      -9.723  14.575  69.458  1.00  0.00    -0.414 NA 
HETATM   28  O   UNL     1      -9.822  17.920  68.637  1.00  0.00    -0.340 OA 
HETATM   29  C   UNL     1     -10.021  16.736  68.834  1.00  0.00    -0.271 C  
HETATM   30  N   UNL     1      -9.121  15.801  69.331  1.00  0.00    -0.264 NA 
HETATM   31  H   UNL     1      -9.318  13.705  69.803  1.00  0.00     0.000 HD 
ENDBRANCH  24  25
ENDBRANCH  22  24
BRANCH  23  32
HETATM   32  C   UNL     1     -10.791  11.067  68.481  1.00  0.00    -0.254 A  
HETATM   33  C   UNL     1      -8.859  10.804  66.450  1.00  0.00    -0.165 A  
HETATM   34  F   UNL     1      -7.940  10.719  65.481  1.00  0.00    -0.157 F  
HETATM   35  C   UNL     1      -9.432  11.272  68.759  1.00  0.00    -0.147 A  
HETATM   36  C   UNL     1     -10.193  10.569  66.155  1.00  0.00    -0.299 A  
HETATM   37  C   UNL     1      -8.471  11.146  67.745  1.00  0.00    -0.124 A  
HETATM   38  C   UNL     1     -11.152  10.695  67.165  1.00  0.00    -0.267 A  
ENDBRANCH  23  32
ENDBRANCH  17  18
ENDBRANCH   2  17
TORSDOF 6
ENDMDL
MODEL       77
REMARK 921   NORMALIZED FREE ENERGY PREDICTED BY IDOCK:   -6.62 KCAL/MOL
REMARK 922        TOTAL FREE ENERGY PREDICTED BY IDOCK:  -11.08 KCAL/MOL
REMARK 923 INTER-LIGAND FREE ENERGY PREDICTED BY IDOCK:  -10.10 KCAL/MOL
REMARK 924 INTRA-LIGAND FREE ENERGY PREDICTED BY IDOCK:   -0.98 KCAL/MOL
REMARK 927      BINDING AFFINITY PREDICTED BY RF-SCORE:    0.00 PKD
ROOT
HETATM    1  C   UNL     1      -9.928  10.494  66.941  1.00  0.00    -0.246 C  
HETATM    2  C   UNL     1     -11.276  10.945  67.521  1.00  0.00    -0.293 C  
ENDROOT
BRANCH   2   3
HETATM    3  C   UNL     1     -11.359  12.461  67.768  1.00  0.00    -0.356 A  
HETATM    4  C   UNL     1     -10.900  13.399  66.823  1.00  0.00    -0.286 A  
HETATM    5  C   UNL     1     -11.890  12.954  68.974  1.00  0.00    -0.352 A  
HETATM    6  F   UNL     1     -11.091  15.611  64.820  1.00  0.00    -0.387 F  
HETATM    7  F   UNL     1     -10.559  17.052  66.358  1.00  0.00    -0.305 F  
HETATM    8  C   UNL     1     -11.961  14.338  69.235  1.00  0.00    -0.375 A  
HETATM    9  C   UNL     1     -12.509  14.866  70.541  1.00  0.00    -0.363 C  
HETATM   10  C   UNL     1     -11.494  15.244  68.267  1.00  0.00    -0.359 A  
HETATM   11  F   UNL     1      -9.119  15.549  65.733  1.00  0.00    -0.351 F  
HETATM   12  F   UNL     1     -12.953  13.891  71.384  1.00  0.00    -0.372 F  
HETATM   13  F   UNL     1     -11.587  15.578  71.243  1.00  0.00    -0.300 F  
HETATM   14  F   UNL     1     -13.567  15.707  70.359  1.00  0.00    -0.314 F  
HETATM   15  C   UNL     1     -10.438  15.741  66.009  1.00  0.00    -0.338 C  
HETATM   16  C   UNL     1     -10.959  14.784  67.058  1.00  0.00    -0.324 A  
ENDBRANCH   2   3
BRANCH   2  17
HETATM   17  O   UNL     1     -11.734  10.098  68.605  1.00  0.00    -0.074 OA 
BRANCH  17  18
HETATM   18  C   UNL     1     -10.744   9.729  69.575  1.00  0.00    -0.233 C  
HETATM   19  C   UNL     1     -12.108   8.440  71.763  1.00  0.00    -0.328 C  
HETATM   20  C   UNL     1     -12.241   9.906  71.368  1.00  0.00    -0.408 C  
HETATM   21  O   UNL     1     -11.007  10.389  70.823  1.00  0.00    -0.262 OA 
HETATM   22  N   UNL     1     -11.758   7.544  70.623  1.00  0.00    -0.256 NA 
HETATM   23  C   UNL     1     -10.587   8.165  69.889  1.00  0.00    -0.239 C  
BRANCH  22  24
HETATM   24  C   UNL     1     -11.370   6.218  71.181  1.00  0.00    -0.303 C  
BRANCH  24  25
HETATM   25  C   UNL     1     -10.519   6.363  72.422  1.00  0.00    -0.198 C  
HETATM   26  N   UNL     1      -9.176   6.376  72.340  1.00  0.00    -0.138 NA 
HETATM   27  N   UNL     1     -10.987   6.493  73.634  1.00  0.00    -0.471 NA 
HETATM   28  O   UNL     1      -7.563   6.671  73.968  1.00  0.00    -0.093 OA 
HETATM   29  C   UNL     1      -8.720   6.561  73.609  1.00  0.00    -0.124 C  
HETATM   30  N   UNL     1      -9.859   6.611  74.403  1.00  0.00    -0.313 NA 
HETATM   31  H   UNL     1     -11.962   6.505  73.936  1.00  0.00     0.000 HD 
ENDBRANCH  24  25
ENDBRANCH  22  24
BRANCH  23  32
HETATM   32  C   UNL     1     -10.074   7.318  68.722  1.00  0.00    -0.179 A  
HETATM   33  C   UNL     1      -9.232   5.969  66.398  1.00  0.00    -0.151 A  
HETATM   34  F   UNL     1      -8.824   5.364  65.277  1.00  0.00    -0.149 F  
HETATM   35  C   UNL     1      -8.709   7.119  68.468  1.00  0.00    -0.126 A  
HETATM   36  C   UNL     1     -10.587   6.129  66.640  1.00  0.00    -0.296 A  
HETATM   37  C   UNL     1      -8.291   6.451  67.308  1.00  0.00    -0.112 A  
HETATM   38  C   UNL     1     -11.006   6.794  67.796  1.00  0.00    -0.321 A  
ENDBRANCH  23  32
ENDBRANCH  17  18
ENDBRANCH   2  17
TORSDOF 6
ENDMDL
MODEL       78
REMARK 921   NORMALIZED FREE ENERGY PREDICTED BY IDOCK:   -6.61 KCAL/MOL
REMARK 922        TOTAL FREE ENERGY PREDICTED BY IDOCK:  -11.06 KCAL/MOL
REMARK 923 INTER-LIGAND FREE ENERGY PREDICTED BY IDOCK:   -9.53 KCAL/MOL
REMARK 924 INTRA-LIGAND FREE ENERGY PREDICTED BY IDOCK:   -1.53 KCAL/MOL
REMARK 927      BINDING AFFINITY PREDICTED BY RF-SCORE:    0.00 PKD
ROOT
HETATM    1  C   UNL     1      -9.147   9.575  64.371  1.00  0.00    -0.234 C  
HETATM    2  C   UNL     1      -9.591   9.851  65.815  1.00  0.00    -0.250 C  
ENDROOT
BRANCH   2   3
HETATM    3  C   UNL     1      -9.825   8.572  66.637  1.00  0.00    -0.342 A  
HETATM    4  C   UNL     1      -9.639   7.288  66.091  1.00  0.00    -0.019 A  
HETATM    5  C   UNL     1     -10.255   8.658  67.974  1.00  0.00    -0.261 A  
HETATM    6  F   UNL     1      -8.387   4.593  65.753  1.00  0.00    -0.110 F  
HETATM    7  F   UNL     1      -9.920   3.719  67.024  1.00  0.00    -0.240 F  
HETATM    8  C   UNL     1     -10.496   7.503  68.745  1.00  0.00    -0.212 A  
HETATM    9  C   UNL     1     -10.982   7.597  70.174  1.00  0.00    -0.246 C  
HETATM   10  C   UNL     1     -10.298   6.238  68.167  1.00  0.00    -0.236 A  
HETATM   11  F   UNL     1     -10.462   4.580  65.104  1.00  0.00    -0.226 F  
HETATM   12  F   UNL     1     -11.110   8.876  70.627  1.00  0.00    -0.249 F  
HETATM   13  F   UNL     1     -12.198   7.013  70.349  1.00  0.00    -0.337 F  
HETATM   14  F   UNL     1     -10.142   6.976  71.050  1.00  0.00    -0.193 F  
HETATM   15  C   UNL     1      -9.666   4.767  66.192  1.00  0.00    -0.196 C  
HETATM   16  C   UNL     1      -9.872   6.119  66.838  1.00  0.00    -0.194 A  
ENDBRANCH   2   3
BRANCH   2  17
HETATM   17  O   UNL     1     -10.628  10.861  65.901  1.00  0.00    -0.241 OA 
BRANCH  17  18
HETATM   18  C   UNL     1     -10.312  12.137  65.328  1.00  0.00    -0.277 C  
HETATM   19  C   UNL     1     -12.471  13.936  65.963  1.00  0.00    -0.461 C  
HETATM   20  C   UNL     1     -12.563  12.720  65.049  1.00  0.00    -0.468 C  
HETATM   21  O   UNL     1     -11.317  12.510  64.373  1.00  0.00    -0.310 OA 
HETATM   22  N   UNL     1     -11.423  13.814  67.016  1.00  0.00    -0.329 NA 
HETATM   23  C   UNL     1     -10.142  13.364  66.344  1.00  0.00    -0.292 C  
BRANCH  22  24
HETATM   24  C   UNL     1     -11.234  15.155  67.638  1.00  0.00    -0.327 C  
BRANCH  24  25
HETATM   25  C   UNL     1     -11.718  15.180  69.069  1.00  0.00    -0.335 C  
HETATM   26  N   UNL     1     -11.210  16.056  69.954  1.00  0.00    -0.340 NA 
HETATM   27  N   UNL     1     -12.641  14.395  69.556  1.00  0.00    -0.536 NA 
HETATM   28  O   UNL     1     -11.750  16.461  72.164  1.00  0.00    -0.506 OA 
HETATM   29  C   UNL     1     -11.879  15.849  71.121  1.00  0.00    -0.438 C  
HETATM   30  N   UNL     1     -12.751  14.798  70.861  1.00  0.00    -0.322 NA 
HETATM   31  H   UNL     1     -13.158  13.656  69.078  1.00  0.00     0.000 HD 
ENDBRANCH  24  25
ENDBRANCH  22  24
BRANCH  23  32
HETATM   32  C   UNL     1      -8.951  13.255  67.300  1.00  0.00    -0.217 A  
HETATM   33  C   UNL     1      -6.689  12.807  68.916  1.00  0.00    -0.097 A  
HETATM   34  F   UNL     1      -5.596  12.579  69.652  1.00  0.00    -0.071 F  
HETATM   35  C   UNL     1      -7.865  14.141  67.267  1.00  0.00    -0.154 A  
HETATM   36  C   UNL     1      -7.761  11.932  68.987  1.00  0.00     0.066 A  
HETATM   37  C   UNL     1      -6.737  13.915  68.069  1.00  0.00    -0.146 A  
HETATM   38  C   UNL     1      -8.887  12.156  68.188  1.00  0.00    -0.187 A  
ENDBRANCH  23  32
ENDBRANCH  17  18
ENDBRANCH   2  17
TORSDOF 6
ENDMDL
MODEL       79
REMARK 921   NORMALIZED FREE ENERGY PREDICTED BY IDOCK:   -6.61 KCAL/MOL
REMARK 922        TOTAL FREE ENERGY PREDICTED BY IDOCK:  -11.06 KCAL/MOL
REMARK 923 INTER-LIGAND FREE ENERGY PREDICTED BY IDOCK:   -9.34 KCAL/MOL
REMARK 924 INTRA-LIGAND FREE ENERGY PREDICTED BY IDOCK:   -1.71 KCAL/MOL
REMARK 927      BINDING AFFINITY PREDICTED BY RF-SCORE:    0.00 PKD
ROOT
HETATM    1  C   UNL     1     -10.530  13.590  64.496  1.00  0.00    -0.426 C  
HETATM    2  C   UNL     1     -11.031  14.336  65.741  1.00  0.00    -0.305 C  
ENDROOT
BRANCH   2   3
HETATM    3  C   UNL     1     -10.158  15.543  66.123  1.00  0.00    -0.329 A  
HETATM    4  C   UNL     1     -10.655  16.860  66.106  1.00  0.00    -0.195 A  
HETATM    5  C   UNL     1      -8.812  15.357  66.488  1.00  0.00    -0.347 A  
HETATM    6  F   UNL     1     -11.503  19.499  67.230  1.00  0.00    -0.465 F  
HETATM    7  F   UNL     1      -9.558  20.336  66.738  1.00  0.00    -0.461 F  
HETATM    8  C   UNL     1      -7.984  16.447  66.825  1.00  0.00    -0.295 A  
HETATM    9  C   UNL     1      -6.531  16.248  67.192  1.00  0.00    -0.179 C  
HETATM   10  C   UNL     1      -8.516  17.747  66.798  1.00  0.00    -0.269 A  
HETATM   11  F   UNL     1     -10.896  19.691  65.151  1.00  0.00    -0.509 F  
HETATM   12  F   UNL     1      -6.143  14.942  67.207  1.00  0.00    -0.116 F  
HETATM   13  F   UNL     1      -5.686  16.882  66.336  1.00  0.00    -0.209 F  
HETATM   14  F   UNL     1      -6.237  16.735  68.431  1.00  0.00    -0.125 F  
HETATM   15  C   UNL     1     -10.440  19.358  66.389  1.00  0.00    -0.488 C  
HETATM   16  C   UNL     1      -9.851  17.966  66.438  1.00  0.00    -0.339 A  
ENDBRANCH   2   3
BRANCH   2  17
HETATM   17  O   UNL     1     -11.391  13.443  66.825  1.00  0.00    -0.305 OA 
BRANCH  17  18
HETATM   18  C   UNL     1     -10.533  13.473  67.974  1.00  0.00    -0.242 C  
HETATM   19  C   UNL     1     -11.626  11.653  69.924  1.00  0.00    -0.288 C  
HETATM   20  C   UNL     1     -12.272  12.951  69.454  1.00  0.00    -0.091 C  
HETATM   21  O   UNL     1     -11.266  13.918  69.125  1.00  0.00    -0.253 OA 
HETATM   22  N   UNL     1     -10.738  11.025  68.904  1.00  0.00    -0.199 NA 
HETATM   23  C   UNL     1      -9.811  12.099  68.373  1.00  0.00    -0.200 C  
BRANCH  22  24
HETATM   24  C   UNL     1      -9.951   9.952  69.576  1.00  0.00    -0.222 C  
BRANCH  24  25
HETATM   25  C   UNL     1     -10.516   8.581  69.284  1.00  0.00    -0.215 C  
HETATM   26  N   UNL     1     -10.382   8.025  68.067  1.00  0.00    -0.210 NA 
HETATM   27  N   UNL     1     -11.148   7.837  70.151  1.00  0.00    -0.347 NA 
HETATM   28  O   UNL     1     -11.010   5.947  67.274  1.00  0.00    -0.293 OA 
HETATM   29  C   UNL     1     -10.952   6.792  68.147  1.00  0.00    -0.201 C  
HETATM   30  N   UNL     1     -11.442   6.700  69.444  1.00  0.00    -0.273 NA 
HETATM   31  H   UNL     1     -11.370   8.052  71.123  1.00  0.00     0.000 HD 
ENDBRANCH  24  25
ENDBRANCH  22  24
BRANCH  23  32
HETATM   32  C   UNL     1      -8.791  11.582  67.354  1.00  0.00    -0.157 A  
HETATM   33  C   UNL     1      -6.800  10.474  65.700  1.00  0.00    -0.112 A  
HETATM   34  F   UNL     1      -5.857   9.914  64.935  1.00  0.00    -0.067 F  
HETATM   35  C   UNL     1      -9.137  10.730  66.296  1.00  0.00    -0.192 A  
HETATM   36  C   UNL     1      -6.434  11.335  66.724  1.00  0.00    -0.136 A  
HETATM   37  C   UNL     1      -8.144  10.176  65.475  1.00  0.00    -0.147 A  
HETATM   38  C   UNL     1      -7.423  11.889  67.542  1.00  0.00    -0.136 A  
ENDBRANCH  23  32
ENDBRANCH  17  18
ENDBRANCH   2  17
TORSDOF 6
ENDMDL
MODEL       80
REMARK 921   NORMALIZED FREE ENERGY PREDICTED BY IDOCK:   -6.60 KCAL/MOL
REMARK 922        TOTAL FREE ENERGY PREDICTED BY IDOCK:  -11.05 KCAL/MOL
REMARK 923 INTER-LIGAND FREE ENERGY PREDICTED BY IDOCK:  -10.03 KCAL/MOL
REMARK 924 INTRA-LIGAND FREE ENERGY PREDICTED BY IDOCK:   -1.01 KCAL/MOL
REMARK 927      BINDING AFFINITY PREDICTED BY RF-SCORE:    0.00 PKD
ROOT
HETATM    1  C   UNL     1     -12.584  11.258  70.324  1.00  0.00    -0.255 C  
HETATM    2  C   UNL     1     -11.328  11.106  69.454  1.00  0.00    -0.283 C  
ENDROOT
BRANCH   2   3
HETATM    3  C   UNL     1     -10.237  10.235  70.102  1.00  0.00    -0.150 A  
HETATM    4  C   UNL     1      -8.918  10.203  69.611  1.00  0.00    -0.190 A  
HETATM    5  C   UNL     1     -10.543   9.424  71.209  1.00  0.00    -0.400 A  
HETATM    6  F   UNL     1      -5.958  10.629  69.637  1.00  0.00    -0.040 F  
HETATM    7  F   UNL     1      -5.665   8.570  70.270  1.00  0.00    -0.025 F  
HETATM    8  C   UNL     1      -9.568   8.602  71.811  1.00  0.00    -0.360 A  
HETATM    9  C   UNL     1      -9.904   7.712  72.985  1.00  0.00    -0.261 C  
HETATM   10  C   UNL     1      -8.261   8.597  71.295  1.00  0.00    -0.194 A  
HETATM   11  F   UNL     1      -6.502   8.995  68.310  1.00  0.00    -0.052 F  
HETATM   12  F   UNL     1     -11.195   7.826  73.409  1.00  0.00    -0.442 F  
HETATM   13  F   UNL     1      -9.715   6.393  72.710  1.00  0.00    -0.157 F  
HETATM   14  F   UNL     1      -9.132   7.977  74.077  1.00  0.00    -0.317 F  
HETATM   15  C   UNL     1      -6.529   9.392  69.612  1.00  0.00    -0.040 C  
HETATM   16  C   UNL     1      -7.926   9.393  70.192  1.00  0.00    -0.158 A  
ENDBRANCH   2   3
BRANCH   2  17
HETATM   17  O   UNL     1     -10.882  12.362  68.883  1.00  0.00    -0.230 OA 
BRANCH  17  18
HETATM   18  C   UNL     1     -11.830  13.045  68.052  1.00  0.00    -0.347 C  
HETATM   19  C   UNL     1     -11.010  15.803  67.882  1.00  0.00    -0.324 C  
HETATM   20  C   UNL     1     -11.507  15.096  69.138  1.00  0.00    -0.306 C  
HETATM   21  O   UNL     1     -12.472  14.093  68.795  1.00  0.00    -0.170 OA 
HETATM   22  N   UNL     1     -10.357  14.890  66.901  1.00  0.00    -0.261 NA 
HETATM   23  C   UNL     1     -11.269  13.698  66.700  1.00  0.00    -0.313 C  
BRANCH  22  24
HETATM   24  C   UNL     1     -10.190  15.633  65.620  1.00  0.00    -0.375 C  
BRANCH  24  25
HETATM   25  C   UNL     1      -9.726  17.052  65.854  1.00  0.00    -0.142 C  
HETATM   26  N   UNL     1      -8.434  17.320  66.115  1.00  0.00    -0.479 NA 
HETATM   27  N   UNL     1     -10.499  18.103  65.817  1.00  0.00    -0.613 NA 
HETATM   28  O   UNL     1      -7.339  19.331  66.427  1.00  0.00    -0.229 OA 
HETATM   29  C   UNL     1      -8.343  18.673  66.231  1.00  0.00    -0.230 C  
HETATM   30  N   UNL     1      -9.640  19.143  66.063  1.00  0.00    -0.457 NA 
HETATM   31  H   UNL     1     -11.504  18.141  65.645  1.00  0.00     0.000 HD 
ENDBRANCH  24  25
ENDBRANCH  22  24
BRANCH  23  32
HETATM   32  C   UNL     1     -10.753  12.697  65.662  1.00  0.00    -0.297 A  
HETATM   33  C   UNL     1      -9.860  10.646  63.952  1.00  0.00    -0.338 A  
HETATM   34  F   UNL     1      -9.464   9.648  63.155  1.00  0.00    -0.297 F  
HETATM   35  C   UNL     1     -11.439  12.411  64.473  1.00  0.00    -0.394 A  
HETATM   36  C   UNL     1      -9.149  10.926  65.108  1.00  0.00    -0.216 A  
HETATM   37  C   UNL     1     -10.996  11.387  63.624  1.00  0.00    -0.443 A  
HETATM   38  C   UNL     1      -9.589  11.948  65.955  1.00  0.00    -0.251 A  
ENDBRANCH  23  32
ENDBRANCH  17  18
ENDBRANCH   2  17
TORSDOF 6
ENDMDL
MODEL       81
REMARK 921   NORMALIZED FREE ENERGY PREDICTED BY IDOCK:   -6.56 KCAL/MOL
REMARK 922        TOTAL FREE ENERGY PREDICTED BY IDOCK:  -11.00 KCAL/MOL
REMARK 923 INTER-LIGAND FREE ENERGY PREDICTED BY IDOCK:   -8.70 KCAL/MOL
REMARK 924 INTRA-LIGAND FREE ENERGY PREDICTED BY IDOCK:   -2.30 KCAL/MOL
REMARK 927      BINDING AFFINITY PREDICTED BY RF-SCORE:    0.00 PKD
ROOT
HETATM    1  C   UNL     1      -5.319  12.094  68.218  1.00  0.00    -0.053 C  
HETATM    2  C   UNL     1      -6.738  12.648  68.412  1.00  0.00    -0.082 C  
ENDROOT
BRANCH   2   3
HETATM    3  C   UNL     1      -7.842  11.629  68.082  1.00  0.00    -0.133 A  
HETATM    4  C   UNL     1      -8.615  11.013  69.085  1.00  0.00    -0.009 A  
HETATM    5  C   UNL     1      -8.099  11.271  66.746  1.00  0.00    -0.159 A  
HETATM    6  F   UNL     1     -11.076  10.352  70.650  1.00  0.00    -0.349 F  
HETATM    7  F   UNL     1     -11.337   8.539  69.479  1.00  0.00    -0.110 F  
HETATM    8  C   UNL     1      -9.092  10.326  66.416  1.00  0.00    -0.174 A  
HETATM    9  C   UNL     1      -9.350   9.924  64.982  1.00  0.00    -0.264 C  
HETATM   10  C   UNL     1      -9.844   9.733  67.444  1.00  0.00    -0.219 A  
HETATM   11  F   UNL     1      -9.610   8.751  70.781  1.00  0.00    -0.180 F  
HETATM   12  F   UNL     1      -8.576  10.587  64.077  1.00  0.00    -0.167 F  
HETATM   13  F   UNL     1      -9.129   8.599  64.765  1.00  0.00    -0.164 F  
HETATM   14  F   UNL     1     -10.639  10.151  64.602  1.00  0.00    -0.308 F  
HETATM   15  C   UNL     1     -10.400   9.431  69.906  1.00  0.00    -0.227 C  
HETATM   16  C   UNL     1      -9.612  10.068  68.783  1.00  0.00    -0.168 A  
ENDBRANCH   2   3
BRANCH   2  17
HETATM   17  O   UNL     1      -6.907  13.973  67.849  1.00  0.00    -0.129 OA 
BRANCH  17  18
HETATM   18  C   UNL     1      -7.898  14.800  68.474  1.00  0.00    -0.130 C  
HETATM   19  C   UNL     1      -7.590  17.469  67.429  1.00  0.00    -0.196 C  
HETATM   20  C   UNL     1      -6.584  16.733  68.307  1.00  0.00    -0.152 C  
HETATM   21  O   UNL     1      -7.264  15.855  69.213  1.00  0.00    -0.193 OA 
HETATM   22  N   UNL     1      -8.437  16.561  66.602  1.00  0.00    -0.234 NA 
HETATM   23  C   UNL     1      -8.983  15.481  67.511  1.00  0.00    -0.189 C  
BRANCH  22  24
HETATM   24  C   UNL     1      -9.553  17.367  66.030  1.00  0.00    -0.118 C  
BRANCH  24  25
HETATM   25  C   UNL     1      -9.748  18.663  66.783  1.00  0.00    -0.329 C  
HETATM   26  N   UNL     1     -10.182  18.662  68.057  1.00  0.00    -0.370 NA 
HETATM   27  N   UNL     1      -9.513  19.850  66.294  1.00  0.00    -0.423 NA 
HETATM   28  O   UNL     1     -10.505  20.398  69.547  1.00  0.00    -0.059 OA 
HETATM   29  C   UNL     1     -10.208  19.964  68.450  1.00  0.00    -0.433 C  
HETATM   30  N   UNL     1      -9.809  20.691  67.335  1.00  0.00    -0.454 NA 
HETATM   31  H   UNL     1      -9.187  20.094  65.358  1.00  0.00     0.000 HD 
ENDBRANCH  24  25
ENDBRANCH  22  24
BRANCH  23  32
HETATM   32  C   UNL     1      -9.929  14.504  66.807  1.00  0.00    -0.267 A  
HETATM   33  C   UNL     1     -11.889  12.880  65.604  1.00  0.00    -0.417 A  
HETATM   34  F   UNL     1     -12.841  12.141  65.024  1.00  0.00    -0.414 F  
HETATM   35  C   UNL     1      -9.988  14.374  65.412  1.00  0.00    -0.344 A  
HETATM   36  C   UNL     1     -11.835  12.972  66.986  1.00  0.00    -0.437 A  
HETATM   37  C   UNL     1     -10.968  13.567  64.814  1.00  0.00    -0.382 A  
HETATM   38  C   UNL     1     -10.859  13.774  67.584  1.00  0.00    -0.264 A  
ENDBRANCH  23  32
ENDBRANCH  17  18
ENDBRANCH   2  17
TORSDOF 6
ENDMDL
MODEL       82
REMARK 921   NORMALIZED FREE ENERGY PREDICTED BY IDOCK:   -6.55 KCAL/MOL
REMARK 922        TOTAL FREE ENERGY PREDICTED BY IDOCK:  -10.98 KCAL/MOL
REMARK 923 INTER-LIGAND FREE ENERGY PREDICTED BY IDOCK:   -8.02 KCAL/MOL
REMARK 924 INTRA-LIGAND FREE ENERGY PREDICTED BY IDOCK:   -2.96 KCAL/MOL
REMARK 927      BINDING AFFINITY PREDICTED BY RF-SCORE:    0.00 PKD
ROOT
HETATM    1  C   UNL     1      -6.324   9.085  70.356  1.00  0.00    -0.044 C  
HETATM    2  C   UNL     1      -7.572   8.257  70.016  1.00  0.00    -0.072 C  
ENDROOT
BRANCH   2   3
HETATM    3  C   UNL     1      -7.777   8.052  68.505  1.00  0.00    -0.106 A  
HETATM    4  C   UNL     1      -8.371   6.888  67.982  1.00  0.00    -0.121 A  
HETATM    5  C   UNL     1      -7.351   9.035  67.592  1.00  0.00    -0.084 A  
HETATM    6  F   UNL     1     -10.437   5.239  66.583  1.00  0.00    -0.216 F  
HETATM    7  F   UNL     1      -9.286   5.354  64.743  1.00  0.00    -0.103 F  
HETATM    8  C   UNL     1      -7.509   8.865  66.202  1.00  0.00    -0.090 A  
HETATM    9  C   UNL     1      -7.029   9.911  65.221  1.00  0.00    -0.122 C  
HETATM   10  C   UNL     1      -8.108   7.690  65.717  1.00  0.00    -0.126 A  
HETATM   11  F   UNL     1      -8.478   4.305  66.466  1.00  0.00    -0.107 F  
HETATM   12  F   UNL     1      -6.491  11.014  65.814  1.00  0.00    -0.124 F  
HETATM   13  F   UNL     1      -6.074   9.434  64.378  1.00  0.00    -0.071 F  
HETATM   14  F   UNL     1      -8.032  10.374  64.422  1.00  0.00    -0.157 F  
HETATM   15  C   UNL     1      -9.175   5.415  66.099  1.00  0.00    -0.156 C  
HETATM   16  C   UNL     1      -8.541   6.693  66.600  1.00  0.00    -0.123 A  
ENDBRANCH   2   3
BRANCH   2  17
HETATM   17  O   UNL     1      -8.743   8.669  70.765  1.00  0.00    -0.143 OA 
BRANCH  17  18
HETATM   18  C   UNL     1     -10.011   8.325  70.190  1.00  0.00    -0.187 C  
HETATM   19  C   UNL     1     -12.064   9.282  71.973  1.00  0.00    -0.336 C  
HETATM   20  C   UNL     1     -11.066   8.170  72.276  1.00  0.00    -0.344 C  
HETATM   21  O   UNL     1     -10.734   7.458  71.078  1.00  0.00    -0.228 OA 
HETATM   22  N   UNL     1     -11.557  10.289  70.996  1.00  0.00    -0.359 NA 
HETATM   23  C   UNL     1     -10.987   9.538  69.811  1.00  0.00    -0.223 C  
BRANCH  22  24
HETATM   24  C   UNL     1     -12.708  11.132  70.565  1.00  0.00    -0.218 C  
BRANCH  24  25
HETATM   25  C   UNL     1     -12.618  12.530  71.134  1.00  0.00    -0.253 C  
HETATM   26  N   UNL     1     -13.390  12.904  72.171  1.00  0.00    -0.530 NA 
HETATM   27  N   UNL     1     -11.811  13.459  70.699  1.00  0.00    -0.528 NA 
HETATM   28  O   UNL     1     -13.472  14.883  73.360  1.00  0.00    -0.506 OA 
HETATM   29  C   UNL     1     -13.039  14.186  72.463  1.00  0.00    -0.463 C  
HETATM   30  N   UNL     1     -12.071  14.523  71.525  1.00  0.00    -0.346 NA 
HETATM   31  H   UNL     1     -11.146  13.407  69.927  1.00  0.00     0.000 HD 
ENDBRANCH  24  25
ENDBRANCH  22  24
BRANCH  23  32
HETATM   32  C   UNL     1     -10.482  10.450  68.690  1.00  0.00    -0.216 A  
HETATM   33  C   UNL     1      -9.827  12.232  66.610  1.00  0.00    -0.220 A  
HETATM   34  F   UNL     1      -9.542  13.104  65.637  1.00  0.00    -0.238 F  
HETATM   35  C   UNL     1      -9.592  11.511  68.914  1.00  0.00    -0.045 A  
HETATM   36  C   UNL     1     -10.688  11.176  66.357  1.00  0.00    -0.303 A  
HETATM   37  C   UNL     1      -9.270  12.400  67.878  1.00  0.00    -0.192 A  
HETATM   38  C   UNL     1     -11.010  10.288  67.388  1.00  0.00    -0.317 A  
ENDBRANCH  23  32
ENDBRANCH  17  18
ENDBRANCH   2  17
TORSDOF 6
ENDMDL
MODEL       83
REMARK 921   NORMALIZED FREE ENERGY PREDICTED BY IDOCK:   -6.55 KCAL/MOL
REMARK 922        TOTAL FREE ENERGY PREDICTED BY IDOCK:  -10.97 KCAL/MOL
REMARK 923 INTER-LIGAND FREE ENERGY PREDICTED BY IDOCK:  -10.45 KCAL/MOL
REMARK 924 INTRA-LIGAND FREE ENERGY PREDICTED BY IDOCK:   -0.52 KCAL/MOL
REMARK 927      BINDING AFFINITY PREDICTED BY RF-SCORE:    0.00 PKD
ROOT
HETATM    1  C   UNL     1     -11.917  15.827  64.214  1.00  0.00    -0.062 C  
HETATM    2  C   UNL     1     -11.047  15.222  65.326  1.00  0.00    -0.376 C  
ENDROOT
BRANCH   2   3
HETATM    3  C   UNL     1     -10.101  16.240  65.985  1.00  0.00    -0.377 A  
HETATM    4  C   UNL     1     -10.436  17.602  66.105  1.00  0.00    -0.295 A  
HETATM    5  C   UNL     1      -8.849  15.829  66.477  1.00  0.00    -0.345 A  
HETATM    6  F   UNL     1     -11.121  20.159  67.498  1.00  0.00    -0.345 F  
HETATM    7  F   UNL     1      -9.043  20.786  67.373  1.00  0.00    -0.465 F  
HETATM    8  C   UNL     1      -7.955  16.744  67.069  1.00  0.00    -0.231 A  
HETATM    9  C   UNL     1      -6.599  16.306  67.575  1.00  0.00    -0.164 C  
HETATM   10  C   UNL     1      -8.324  18.096  67.173  1.00  0.00    -0.244 A  
HETATM   11  F   UNL     1     -10.215  20.541  65.559  1.00  0.00    -0.461 F  
HETATM   12  F   UNL     1      -6.370  14.969  67.442  1.00  0.00    -0.176 F  
HETATM   13  F   UNL     1      -5.576  16.928  66.930  1.00  0.00    -0.156 F  
HETATM   14  F   UNL     1      -6.425  16.581  68.899  1.00  0.00    -0.134 F  
HETATM   15  C   UNL     1      -9.975  19.989  66.780  1.00  0.00    -0.454 C  
HETATM   16  C   UNL     1      -9.563  18.537  66.691  1.00  0.00    -0.328 A  
ENDBRANCH   2   3
BRANCH   2  17
HETATM   17  O   UNL     1     -10.452  13.954  64.948  1.00  0.00    -0.386 OA 
BRANCH  17  18
HETATM   18  C   UNL     1     -11.352  12.841  64.854  1.00  0.00    -0.306 C  
HETATM   19  C   UNL     1      -9.783  10.505  64.231  1.00  0.00    -0.330 C  
HETATM   20  C   UNL     1      -9.998  11.705  63.316  1.00  0.00    -0.419 C  
HETATM   21  O   UNL     1     -11.295  12.273  63.536  1.00  0.00    -0.433 OA 
HETATM   22  N   UNL     1      -9.871  10.837  65.682  1.00  0.00    -0.231 NA 
HETATM   23  C   UNL     1     -11.134  11.644  65.897  1.00  0.00    -0.264 C  
BRANCH  22  24
HETATM   24  C   UNL     1      -9.942   9.558  66.444  1.00  0.00    -0.269 C  
BRANCH  24  25
HETATM   25  C   UNL     1      -8.575   8.938  66.622  1.00  0.00    -0.123 C  
HETATM   26  N   UNL     1      -8.414   7.603  66.598  1.00  0.00    -0.125 NA 
HETATM   27  N   UNL     1      -7.470   9.612  66.798  1.00  0.00    -0.094 NA 
HETATM   28  O   UNL     1      -6.507   6.305  66.733  1.00  0.00    -0.043 OA 
HETATM   29  C   UNL     1      -7.079   7.378  66.741  1.00  0.00    -0.079 C  
HETATM   30  N   UNL     1      -6.510   8.637  66.886  1.00  0.00    -0.060 NA 
HETATM   31  H   UNL     1      -7.350  10.623  66.857  1.00  0.00     0.000 HD 
ENDBRANCH  24  25
ENDBRANCH  22  24
BRANCH  23  32
HETATM   32  C   UNL     1     -11.391  12.007  67.362  1.00  0.00    -0.393 A  
HETATM   33  C   UNL     1     -12.129  12.763  69.972  1.00  0.00    -0.285 A  
HETATM   34  F   UNL     1     -12.517  13.111  71.204  1.00  0.00    -0.418 F  
HETATM   35  C   UNL     1     -11.527  11.043  68.372  1.00  0.00    -0.378 A  
HETATM   36  C   UNL     1     -11.975  13.737  68.998  1.00  0.00    -0.399 A  
HETATM   37  C   UNL     1     -11.899  11.421  69.671  1.00  0.00    -0.431 A  
HETATM   38  C   UNL     1     -11.604  13.363  67.703  1.00  0.00    -0.377 A  
ENDBRANCH  23  32
ENDBRANCH  17  18
ENDBRANCH   2  17
TORSDOF 6
ENDMDL
MODEL       84
REMARK 921   NORMALIZED FREE ENERGY PREDICTED BY IDOCK:   -6.54 KCAL/MOL
REMARK 922        TOTAL FREE ENERGY PREDICTED BY IDOCK:  -10.96 KCAL/MOL
REMARK 923 INTER-LIGAND FREE ENERGY PREDICTED BY IDOCK:  -10.10 KCAL/MOL
REMARK 924 INTRA-LIGAND FREE ENERGY PREDICTED BY IDOCK:   -0.86 KCAL/MOL
REMARK 927      BINDING AFFINITY PREDICTED BY RF-SCORE:    0.00 PKD
ROOT
HETATM    1  C   UNL     1      -7.224  11.448  68.977  1.00  0.00    -0.118 C  
HETATM    2  C   UNL     1      -8.752  11.590  68.930  1.00  0.00     0.039 C  
ENDROOT
BRANCH   2   3
HETATM    3  C   UNL     1      -9.497  10.257  69.121  1.00  0.00    -0.225 A  
HETATM    4  C   UNL     1     -10.145   9.929  70.327  1.00  0.00    -0.295 A  
HETATM    5  C   UNL     1      -9.533   9.311  68.081  1.00  0.00    -0.150 A  
HETATM    6  F   UNL     1     -12.440   9.314  72.142  1.00  0.00    -0.407 F  
HETATM    7  F   UNL     1     -12.087   7.186  71.872  1.00  0.00    -0.303 F  
HETATM    8  C   UNL     1     -10.192   8.074  68.234  1.00  0.00    -0.243 A  
HETATM    9  C   UNL     1     -10.209   7.048  67.124  1.00  0.00    -0.248 C  
HETATM   10  C   UNL     1     -10.829   7.782  69.452  1.00  0.00    -0.121 A  
HETATM   11  F   UNL     1     -10.601   8.415  72.874  1.00  0.00    -0.394 F  
HETATM   12  F   UNL     1      -9.581   7.459  65.987  1.00  0.00    -0.183 F  
HETATM   13  F   UNL     1      -9.609   5.882  67.485  1.00  0.00    -0.112 F  
HETATM   14  F   UNL     1     -11.475   6.712  66.746  1.00  0.00    -0.461 F  
HETATM   15  C   UNL     1     -11.476   8.403  71.831  1.00  0.00    -0.318 C  
HETATM   16  C   UNL     1     -10.809   8.703  70.507  1.00  0.00    -0.257 A  
ENDBRANCH   2   3
BRANCH   2  17
HETATM   17  O   UNL     1      -9.207  12.420  67.832  1.00  0.00    -0.178 OA 
BRANCH  17  18
HETATM   18  C   UNL     1     -10.318  13.282  68.114  1.00  0.00    -0.244 C  
HETATM   19  C   UNL     1      -9.378  16.001  67.941  1.00  0.00    -0.208 C  
HETATM   20  C   UNL     1      -8.956  14.976  68.988  1.00  0.00    -0.205 C  
HETATM   21  O   UNL     1     -10.040  14.082  69.273  1.00  0.00    -0.041 OA 
HETATM   22  N   UNL     1      -9.792  15.394  66.643  1.00  0.00    -0.245 NA 
HETATM   23  C   UNL     1     -10.773  14.281  66.946  1.00  0.00    -0.290 C  
BRANCH  22  24
HETATM   24  C   UNL     1     -10.450  16.453  65.828  1.00  0.00    -0.354 C  
BRANCH  24  25
HETATM   25  C   UNL     1      -9.894  17.824  66.141  1.00  0.00    -0.244 C  
HETATM   26  N   UNL     1      -8.621  18.137  65.839  1.00  0.00    -0.490 NA 
HETATM   27  N   UNL     1     -10.571  18.791  66.699  1.00  0.00    -0.409 NA 
HETATM   28  O   UNL     1      -7.456  20.119  66.066  1.00  0.00    -0.301 OA 
HETATM   29  C   UNL     1      -8.453  19.437  66.204  1.00  0.00    -0.291 C  
HETATM   30  N   UNL     1      -9.669  19.822  66.756  1.00  0.00    -0.367 NA 
HETATM   31  H   UNL     1     -11.540  18.781  67.017  1.00  0.00     0.000 HD 
ENDBRANCH  24  25
ENDBRANCH  22  24
BRANCH  23  32
HETATM   32  C   UNL     1     -11.338  13.601  65.695  1.00  0.00    -0.309 A  
HETATM   33  C   UNL     1     -12.246  12.106  63.489  1.00  0.00    -0.567 A  
HETATM   34  F   UNL     1     -12.681  11.364  62.464  1.00  0.00    -0.124 F  
HETATM   35  C   UNL     1     -12.708  13.365  65.509  1.00  0.00    -0.469 A  
HETATM   36  C   UNL     1     -10.889  12.349  63.635  1.00  0.00    -0.509 A  
HETATM   37  C   UNL     1     -13.158  12.616  64.412  1.00  0.00    -0.071 A  
HETATM   38  C   UNL     1     -10.438  13.096  64.728  1.00  0.00    -0.390 A  
ENDBRANCH  23  32
ENDBRANCH  17  18
ENDBRANCH   2  17
TORSDOF 6
ENDMDL
MODEL       85
REMARK 921   NORMALIZED FREE ENERGY PREDICTED BY IDOCK:   -6.52 KCAL/MOL
REMARK 922        TOTAL FREE ENERGY PREDICTED BY IDOCK:  -10.94 KCAL/MOL
REMARK 923 INTER-LIGAND FREE ENERGY PREDICTED BY IDOCK:   -8.98 KCAL/MOL
REMARK 924 INTRA-LIGAND FREE ENERGY PREDICTED BY IDOCK:   -1.95 KCAL/MOL
REMARK 927      BINDING AFFINITY PREDICTED BY RF-SCORE:    0.00 PKD
ROOT
HETATM    1  C   UNL     1      -7.254   9.641  70.124  1.00  0.00    -0.128 C  
HETATM    2  C   UNL     1      -8.663   9.067  69.917  1.00  0.00    -0.156 C  
ENDROOT
BRANCH   2   3
HETATM    3  C   UNL     1      -8.912   8.561  68.486  1.00  0.00    -0.139 A  
HETATM    4  C   UNL     1      -8.838   9.413  67.368  1.00  0.00    -0.135 A  
HETATM    5  C   UNL     1      -9.242   7.212  68.260  1.00  0.00    -0.132 A  
HETATM    6  F   UNL     1      -7.769  10.490  64.791  1.00  0.00    -0.149 F  
HETATM    7  F   UNL     1      -9.256   9.347  63.693  1.00  0.00    -0.261 F  
HETATM    8  C   UNL     1      -9.494   6.724  66.961  1.00  0.00    -0.175 A  
HETATM    9  C   UNL     1      -9.874   5.281  66.722  1.00  0.00    -0.176 C  
HETATM   10  C   UNL     1      -9.410   7.605  65.869  1.00  0.00     0.003 A  
HETATM   11  F   UNL     1      -9.881  10.953  65.017  1.00  0.00    -0.248 F  
HETATM   12  F   UNL     1      -9.897   4.524  67.855  1.00  0.00    -0.192 F  
HETATM   13  F   UNL     1     -11.106   5.153  66.159  1.00  0.00    -0.318 F  
HETATM   14  F   UNL     1      -9.012   4.651  65.873  1.00  0.00    -0.117 F  
HETATM   15  C   UNL     1      -9.001   9.920  64.902  1.00  0.00    -0.207 C  
HETATM   16  C   UNL     1      -9.084   8.953  66.062  1.00  0.00    -0.265 A  
ENDBRANCH   2   3
BRANCH   2  17
HETATM   17  O   UNL     1      -9.701   9.906  70.484  1.00  0.00    -0.203 OA 
BRANCH  17  18
HETATM   18  C   UNL     1     -10.983   9.837  69.845  1.00  0.00    -0.264 C  
HETATM   19  C   UNL     1     -12.908  11.035  71.624  1.00  0.00    -0.435 C  
HETATM   20  C   UNL     1     -12.141   9.742  71.879  1.00  0.00    -0.254 C  
HETATM   21  O   UNL     1     -11.890   9.061  70.644  1.00  0.00    -0.255 OA 
HETATM   22  N   UNL     1     -12.185  11.994  70.740  1.00  0.00    -0.357 NA 
HETATM   23  C   UNL     1     -11.707  11.230  69.523  1.00  0.00    -0.345 C  
BRANCH  22  24
HETATM   24  C   UNL     1     -13.145  13.060  70.334  1.00  0.00     0.471 C  
BRANCH  24  25
HETATM   25  C   UNL     1     -13.232  14.155  71.372  1.00  0.00    -0.347 C  
HETATM   26  N   UNL     1     -12.148  14.883  71.699  1.00  0.00    -0.335 NA 
HETATM   27  N   UNL     1     -14.320  14.490  72.011  1.00  0.00    -0.531 NA 
HETATM   28  O   UNL     1     -11.907  16.674  73.139  1.00  0.00    -0.473 OA 
HETATM   29  C   UNL     1     -12.568  15.798  72.615  1.00  0.00    -0.445 C  
HETATM   30  N   UNL     1     -13.916  15.526  72.813  1.00  0.00    -0.514 NA 
HETATM   31  H   UNL     1     -15.250  14.078  71.932  1.00  0.00     0.000 HD 
ENDBRANCH  24  25
ENDBRANCH  22  24
BRANCH  23  32
HETATM   32  C   UNL     1     -10.996  12.105  68.487  1.00  0.00    -0.276 A  
HETATM   33  C   UNL     1      -9.877  13.929  66.657  1.00  0.00    -0.284 A  
HETATM   34  F   UNL     1      -9.353  14.824  65.812  1.00  0.00    -0.323 F  
HETATM   35  C   UNL     1      -9.681  12.564  68.651  1.00  0.00    -0.057 A  
HETATM   36  C   UNL     1     -11.170  13.470  66.457  1.00  0.00    -0.322 A  
HETATM   37  C   UNL     1      -9.127  13.475  67.741  1.00  0.00    -0.207 A  
HETATM   38  C   UNL     1     -11.725  12.561  67.363  1.00  0.00    -0.432 A  
ENDBRANCH  23  32
ENDBRANCH  17  18
ENDBRANCH   2  17
TORSDOF 6
ENDMDL
MODEL       86
REMARK 921   NORMALIZED FREE ENERGY PREDICTED BY IDOCK:   -6.52 KCAL/MOL
REMARK 922        TOTAL FREE ENERGY PREDICTED BY IDOCK:  -10.94 KCAL/MOL
REMARK 923 INTER-LIGAND FREE ENERGY PREDICTED BY IDOCK:   -8.76 KCAL/MOL
REMARK 924 INTRA-LIGAND FREE ENERGY PREDICTED BY IDOCK:   -2.17 KCAL/MOL
REMARK 927      BINDING AFFINITY PREDICTED BY RF-SCORE:    0.00 PKD
ROOT
HETATM    1  C   UNL     1      -9.552  10.938  62.920  1.00  0.00    -0.371 C  
HETATM    2  C   UNL     1      -9.429  10.908  64.451  1.00  0.00    -0.247 C  
ENDROOT
BRANCH   2   3
HETATM    3  C   UNL     1      -9.224   9.494  65.020  1.00  0.00    -0.297 A  
HETATM    4  C   UNL     1      -8.455   8.523  64.351  1.00  0.00    -0.089 A  
HETATM    5  C   UNL     1      -9.826   9.126  66.237  1.00  0.00    -0.359 A  
HETATM    6  F   UNL     1      -6.172   6.643  63.907  1.00  0.00    -0.032 F  
HETATM    7  F   UNL     1      -7.363   5.006  64.697  1.00  0.00    -0.058 F  
HETATM    8  C   UNL     1      -9.670   7.831  66.773  1.00  0.00    -0.296 A  
HETATM    9  C   UNL     1     -10.338   7.429  68.068  1.00  0.00    -0.199 C  
HETATM   10  C   UNL     1      -8.894   6.889  66.077  1.00  0.00    -0.154 A  
HETATM   11  F   UNL     1      -7.950   5.980  62.846  1.00  0.00    -0.082 F  
HETATM   12  F   UNL     1     -11.040   8.436  68.659  1.00  0.00    -0.083 F  
HETATM   13  F   UNL     1     -11.217   6.404  67.904  1.00  0.00    -0.355 F  
HETATM   14  F   UNL     1      -9.443   7.004  69.004  1.00  0.00    -0.140 F  
HETATM   15  C   UNL     1      -7.455   6.222  64.091  1.00  0.00    -0.083 C  
HETATM   16  C   UNL     1      -8.283   7.224  64.862  1.00  0.00    -0.075 A  
ENDBRANCH   2   3
BRANCH   2  17
HETATM   17  O   UNL     1     -10.432  11.720  65.112  1.00  0.00    -0.261 OA 
BRANCH  17  18
HETATM   18  C   UNL     1     -10.032  13.052  65.462  1.00  0.00    -0.214 C  
HETATM   19  C   UNL     1     -12.145  14.207  67.046  1.00  0.00    -0.414 C  
HETATM   20  C   UNL     1     -12.239  13.830  65.573  1.00  0.00    -0.442 C  
HETATM   21  O   UNL     1     -10.969  14.002  64.932  1.00  0.00    -0.350 OA 
HETATM   22  N   UNL     1     -11.159  13.389  67.810  1.00  0.00    -0.260 NA 
HETATM   23  C   UNL     1      -9.865  13.370  67.024  1.00  0.00    -0.250 C  
BRANCH  22  24
HETATM   24  C   UNL     1     -10.947  14.040  69.134  1.00  0.00    -0.230 C  
BRANCH  24  25
HETATM   25  C   UNL     1     -11.827  13.431  70.202  1.00  0.00    -0.272 C  
HETATM   26  N   UNL     1     -12.629  14.203  70.957  1.00  0.00    -0.347 NA 
HETATM   27  N   UNL     1     -11.894  12.156  70.471  1.00  0.00    -0.512 NA 
HETATM   28  O   UNL     1     -14.164  13.645  72.592  1.00  0.00    -0.735 OA 
HETATM   29  C   UNL     1     -13.308  13.356  71.778  1.00  0.00    -0.394 C  
HETATM   30  N   UNL     1     -12.824  12.088  71.477  1.00  0.00    -0.353 NA 
HETATM   31  H   UNL     1     -11.378  11.390  70.036  1.00  0.00     0.000 HD 
ENDBRANCH  24  25
ENDBRANCH  22  24
BRANCH  23  32
HETATM   32  C   UNL     1      -8.732  12.613  67.722  1.00  0.00    -0.179 A  
HETATM   33  C   UNL     1      -6.711  10.995  68.829  1.00  0.00    -0.065 A  
HETATM   34  F   UNL     1      -5.745  10.210  69.320  1.00  0.00    -0.038 F  
HETATM   35  C   UNL     1      -7.381  12.957  67.572  1.00  0.00    -0.154 A  
HETATM   36  C   UNL     1      -8.040  10.647  69.014  1.00  0.00    -0.148 A  
HETATM   37  C   UNL     1      -6.375  12.148  68.121  1.00  0.00    -0.055 A  
HETATM   38  C   UNL     1      -9.044  11.453  68.469  1.00  0.00    -0.169 A  
ENDBRANCH  23  32
ENDBRANCH  17  18
ENDBRANCH   2  17
TORSDOF 6
ENDMDL
MODEL       87
REMARK 921   NORMALIZED FREE ENERGY PREDICTED BY IDOCK:   -6.51 KCAL/MOL
REMARK 922        TOTAL FREE ENERGY PREDICTED BY IDOCK:  -10.93 KCAL/MOL
REMARK 923 INTER-LIGAND FREE ENERGY PREDICTED BY IDOCK:   -8.96 KCAL/MOL
REMARK 924 INTRA-LIGAND FREE ENERGY PREDICTED BY IDOCK:   -1.97 KCAL/MOL
REMARK 927      BINDING AFFINITY PREDICTED BY RF-SCORE:    0.00 PKD
ROOT
HETATM    1  C   UNL     1     -12.251  13.224  63.510  1.00  0.00    -0.513 C  
HETATM    2  C   UNL     1     -11.394  12.750  64.693  1.00  0.00    -0.321 C  
ENDROOT
BRANCH   2   3
HETATM    3  C   UNL     1     -11.292  13.784  65.827  1.00  0.00    -0.309 A  
HETATM    4  C   UNL     1     -10.780  15.078  65.616  1.00  0.00    -0.365 A  
HETATM    5  C   UNL     1     -11.702  13.448  67.131  1.00  0.00    -0.424 A  
HETATM    6  F   UNL     1     -10.824  18.063  65.434  1.00  0.00    -0.436 F  
HETATM    7  F   UNL     1     -10.054  18.201  67.462  1.00  0.00    -0.296 F  
HETATM    8  C   UNL     1     -11.603  14.369  68.193  1.00  0.00    -0.360 A  
HETATM    9  C   UNL     1     -12.019  13.998  69.598  1.00  0.00    -0.339 C  
HETATM   10  C   UNL     1     -11.087  15.652  67.944  1.00  0.00    -0.324 A  
HETATM   11  F   UNL     1      -8.827  17.336  65.890  1.00  0.00    -0.251 F  
HETATM   12  F   UNL     1     -12.526  12.738  69.706  1.00  0.00    -0.249 F  
HETATM   13  F   UNL     1     -10.987  14.065  70.482  1.00  0.00    -0.011 F  
HETATM   14  F   UNL     1     -12.983  14.828  70.091  1.00  0.00    -0.340 F  
HETATM   15  C   UNL     1     -10.100  17.387  66.370  1.00  0.00    -0.327 C  
HETATM   16  C   UNL     1     -10.670  16.017  66.657  1.00  0.00    -0.247 A  
ENDBRANCH   2   3
BRANCH   2  17
HETATM   17  O   UNL     1     -10.146  12.142  64.275  1.00  0.00    -0.301 OA 
BRANCH  17  18
HETATM   18  C   UNL     1     -10.160  10.714  64.132  1.00  0.00    -0.334 C  
HETATM   19  C   UNL     1      -7.510   9.892  63.351  1.00  0.00    -0.132 C  
HETATM   20  C   UNL     1      -8.470  10.725  62.510  1.00  0.00    -0.242 C  
HETATM   21  O   UNL     1      -9.826  10.351  62.784  1.00  0.00    -0.277 OA 
HETATM   22  N   UNL     1      -7.714  10.047  64.820  1.00  0.00    -0.139 NA 
HETATM   23  C   UNL     1      -9.193   9.881  65.102  1.00  0.00    -0.234 C  
BRANCH  22  24
HETATM   24  C   UNL     1      -6.936   8.979  65.509  1.00  0.00    -0.080 C  
BRANCH  24  25
HETATM   25  C   UNL     1      -7.137   7.632  64.853  1.00  0.00    -0.063 C  
HETATM   26  N   UNL     1      -8.262   6.924  65.061  1.00  0.00    -0.124 NA 
HETATM   27  N   UNL     1      -6.280   7.060  64.052  1.00  0.00    -0.036 NA 
HETATM   28  O   UNL     1      -8.969   4.910  64.177  1.00  0.00    -0.133 OA 
HETATM   29  C   UNL     1      -8.149   5.799  64.305  1.00  0.00    -0.127 C  
HETATM   30  N   UNL     1      -6.901   5.889  63.700  1.00  0.00    -0.037 NA 
HETATM   31  H   UNL     1      -5.365   7.403  63.757  1.00  0.00     0.000 HD 
ENDBRANCH  24  25
ENDBRANCH  22  24
BRANCH  23  32
HETATM   32  C   UNL     1      -9.548   9.953  66.590  1.00  0.00    -0.235 A  
HETATM   33  C   UNL     1     -10.340  10.338  69.264  1.00  0.00    -0.231 A  
HETATM   34  F   UNL     1     -10.749  10.536  70.522  1.00  0.00    -0.333 F  
HETATM   35  C   UNL     1     -10.441   9.063  67.203  1.00  0.00    -0.333 A  
HETATM   36  C   UNL     1      -9.435  11.216  68.688  1.00  0.00    -0.196 A  
HETATM   37  C   UNL     1     -10.837   9.258  68.535  1.00  0.00    -0.119 A  
HETATM   38  C   UNL     1      -9.038  11.023  67.362  1.00  0.00    -0.143 A  
ENDBRANCH  23  32
ENDBRANCH  17  18
ENDBRANCH   2  17
TORSDOF 6
ENDMDL
MODEL       88
REMARK 921   NORMALIZED FREE ENERGY PREDICTED BY IDOCK:   -6.50 KCAL/MOL
REMARK 922        TOTAL FREE ENERGY PREDICTED BY IDOCK:  -10.91 KCAL/MOL
REMARK 923 INTER-LIGAND FREE ENERGY PREDICTED BY IDOCK:   -9.53 KCAL/MOL
REMARK 924 INTRA-LIGAND FREE ENERGY PREDICTED BY IDOCK:   -1.38 KCAL/MOL
REMARK 927      BINDING AFFINITY PREDICTED BY RF-SCORE:    0.00 PKD
ROOT
HETATM    1  C   UNL     1     -11.160  11.976  66.844  1.00  0.00    -0.352 C  
HETATM    2  C   UNL     1     -11.967  12.256  68.120  1.00  0.00    -0.195 C  
ENDROOT
BRANCH   2   3
HETATM    3  C   UNL     1     -11.470  13.483  68.902  1.00  0.00    -0.348 A  
HETATM    4  C   UNL     1     -12.154  13.980  70.028  1.00  0.00    -0.412 A  
HETATM    5  C   UNL     1     -10.308  14.162  68.491  1.00  0.00    -0.249 A  
HETATM    6  F   UNL     1     -12.588  14.663  72.907  1.00  0.00    -0.404 F  
HETATM    7  F   UNL     1     -11.954  16.706  72.519  1.00  0.00    -0.551 F  
HETATM    8  C   UNL     1      -9.840  15.301  69.178  1.00  0.00    -0.239 A  
HETATM    9  C   UNL     1      -8.605  16.044  68.720  1.00  0.00    -0.223 C  
HETATM   10  C   UNL     1     -10.548  15.766  70.298  1.00  0.00    -0.297 A  
HETATM   11  F   UNL     1     -13.774  15.943  71.610  1.00  0.00    -0.515 F  
HETATM   12  F   UNL     1      -7.994  15.480  67.641  1.00  0.00    -0.127 F  
HETATM   13  F   UNL     1      -8.872  17.331  68.372  1.00  0.00    -0.233 F  
HETATM   14  F   UNL     1      -7.651  16.112  69.691  1.00  0.00    -0.226 F  
HETATM   15  C   UNL     1     -12.494  15.605  71.926  1.00  0.00    -0.432 C  
HETATM   16  C   UNL     1     -11.709  15.113  70.731  1.00  0.00    -0.370 A  
ENDBRANCH   2   3
BRANCH   2  17
HETATM   17  O   UNL     1     -12.214  11.060  68.903  1.00  0.00    -0.519 OA 
BRANCH  17  18
HETATM   18  C   UNL     1     -11.452  10.933  70.112  1.00  0.00    -0.319 C  
HETATM   19  C   UNL     1     -12.231   8.463  71.376  1.00  0.00    -0.302 C  
HETATM   20  C   UNL     1     -13.118   9.688  71.190  1.00  0.00    -0.309 C  
HETATM   21  O   UNL     1     -12.332  10.885  71.246  1.00  0.00    -0.358 OA 
HETATM   22  N   UNL     1     -11.168   8.332  70.339  1.00  0.00    -0.251 NA 
HETATM   23  C   UNL     1     -10.470   9.671  70.220  1.00  0.00    -0.283 C  
BRANCH  22  24
HETATM   24  C   UNL     1     -10.205   7.289  70.794  1.00  0.00    -0.197 C  
BRANCH  24  25
HETATM   25  C   UNL     1      -9.776   6.392  69.656  1.00  0.00    -0.152 C  
HETATM   26  N   UNL     1     -10.677   5.911  68.780  1.00  0.00    -0.277 NA 
HETATM   27  N   UNL     1      -8.546   6.025  69.422  1.00  0.00    -0.121 NA 
HETATM   28  O   UNL     1     -10.404   4.614  66.887  1.00  0.00    -0.195 OA 
HETATM   29  C   UNL     1      -9.972   5.186  67.869  1.00  0.00    -0.152 C  
HETATM   30  N   UNL     1      -8.650   5.250  68.295  1.00  0.00    -0.099 NA 
HETATM   31  H   UNL     1      -7.706   6.259  69.951  1.00  0.00     0.000 HD 
ENDBRANCH  24  25
ENDBRANCH  22  24
BRANCH  23  32
HETATM   32  C   UNL     1      -9.303   9.671  69.228  1.00  0.00    -0.184 A  
HETATM   33  C   UNL     1      -7.037   9.462  67.571  1.00  0.00    -0.078 A  
HETATM   34  F   UNL     1      -5.959   9.323  66.791  1.00  0.00    -0.054 F  
HETATM   35  C   UNL     1      -9.424   9.207  67.910  1.00  0.00    -0.158 A  
HETATM   36  C   UNL     1      -6.895   9.949  68.861  1.00  0.00    -0.057 A  
HETATM   37  C   UNL     1      -8.294   9.099  67.087  1.00  0.00    -0.117 A  
HETATM   38  C   UNL     1      -8.021  10.058  69.682  1.00  0.00    -0.176 A  
ENDBRANCH  23  32
ENDBRANCH  17  18
ENDBRANCH   2  17
TORSDOF 6
ENDMDL
MODEL       89
REMARK 921   NORMALIZED FREE ENERGY PREDICTED BY IDOCK:   -6.49 KCAL/MOL
REMARK 922        TOTAL FREE ENERGY PREDICTED BY IDOCK:  -10.90 KCAL/MOL
REMARK 923 INTER-LIGAND FREE ENERGY PREDICTED BY IDOCK:  -10.43 KCAL/MOL
REMARK 924 INTRA-LIGAND FREE ENERGY PREDICTED BY IDOCK:   -0.48 KCAL/MOL
REMARK 927      BINDING AFFINITY PREDICTED BY RF-SCORE:    0.00 PKD
ROOT
HETATM    1  C   UNL     1     -10.597  14.825  64.794  1.00  0.00    -0.355 C  
HETATM    2  C   UNL     1     -10.609  14.765  66.329  1.00  0.00    -0.305 C  
ENDROOT
BRANCH   2   3
HETATM    3  C   UNL     1      -9.849  15.926  66.992  1.00  0.00    -0.236 A  
HETATM    4  C   UNL     1      -8.613  15.736  67.640  1.00  0.00    -0.173 A  
HETATM    5  C   UNL     1     -10.388  17.225  66.981  1.00  0.00    -0.318 A  
HETATM    6  F   UNL     1      -5.672  16.021  68.103  1.00  0.00    -0.090 F  
HETATM    7  F   UNL     1      -6.048  17.634  69.511  1.00  0.00    -0.205 F  
HETATM    8  C   UNL     1      -9.722  18.304  67.598  1.00  0.00    -0.306 A  
HETATM    9  C   UNL     1     -10.316  19.694  67.607  1.00  0.00    -0.451 C  
HETATM   10  C   UNL     1      -8.490  18.076  68.234  1.00  0.00    -0.293 A  
HETATM   11  F   UNL     1      -6.722  15.618  69.963  1.00  0.00    -0.175 F  
HETATM   12  F   UNL     1     -11.498  19.791  66.936  1.00  0.00    -0.390 F  
HETATM   13  F   UNL     1     -10.560  20.148  68.866  1.00  0.00    -0.526 F  
HETATM   14  F   UNL     1      -9.489  20.616  67.035  1.00  0.00    -0.509 F  
HETATM   15  C   UNL     1      -6.609  16.525  68.954  1.00  0.00    -0.173 C  
HETATM   16  C   UNL     1      -7.927  16.794  68.263  1.00  0.00    -0.200 A  
ENDBRANCH   2   3
BRANCH   2  17
HETATM   17  O   UNL     1     -10.321  13.440  66.842  1.00  0.00    -0.253 OA 
BRANCH  17  18
HETATM   18  C   UNL     1     -11.347  12.456  66.654  1.00  0.00    -0.339 C  
HETATM   19  C   UNL     1     -10.054   9.898  66.350  1.00  0.00    -0.240 C  
HETATM   20  C   UNL     1      -9.964  11.065  65.373  1.00  0.00    -0.260 C  
HETATM   21  O   UNL     1     -11.186  11.815  65.380  1.00  0.00    -0.304 OA 
HETATM   22  N   UNL     1     -10.298  10.317  67.760  1.00  0.00    -0.190 NA 
HETATM   23  C   UNL     1     -11.451  11.299  67.758  1.00  0.00    -0.275 C  
BRANCH  22  24
HETATM   24  C   UNL     1     -10.657   9.103  68.546  1.00  0.00    -0.169 C  
BRANCH  24  25
HETATM   25  C   UNL     1      -9.451   8.512  69.240  1.00  0.00    -0.158 C  
HETATM   26  N   UNL     1      -9.512   7.295  69.810  1.00  0.00    -0.150 NA 
HETATM   27  N   UNL     1      -8.289   9.097  69.338  1.00  0.00    -0.119 NA 
HETATM   28  O   UNL     1      -7.885   6.033  70.860  1.00  0.00    -0.102 OA 
HETATM   29  C   UNL     1      -8.268   7.043  70.302  1.00  0.00    -0.128 C  
HETATM   30  N   UNL     1      -7.525   8.183  70.018  1.00  0.00    -0.065 NA 
HETATM   31  H   UNL     1      -8.013  10.016  68.991  1.00  0.00     0.000 HD 
ENDBRANCH  24  25
ENDBRANCH  22  24
BRANCH  23  32
HETATM   32  C   UNL     1     -11.858  11.772  69.157  1.00  0.00    -0.389 A  
HETATM   33  C   UNL     1     -12.836  12.774  71.599  1.00  0.00    -0.261 A  
HETATM   34  F   UNL     1     -13.337  13.246  72.746  1.00  0.00    -0.596 F  
HETATM   35  C   UNL     1     -12.325  10.899  70.149  1.00  0.00    -0.399 A  
HETATM   36  C   UNL     1     -12.355  13.657  70.644  1.00  0.00    -0.440 A  
HETATM   37  C   UNL     1     -12.816  11.400  71.364  1.00  0.00    -0.502 A  
HETATM   38  C   UNL     1     -11.865  13.159  69.433  1.00  0.00    -0.383 A  
ENDBRANCH  23  32
ENDBRANCH  17  18
ENDBRANCH   2  17
TORSDOF 6
ENDMDL
MODEL       90
REMARK 921   NORMALIZED FREE ENERGY PREDICTED BY IDOCK:   -6.48 KCAL/MOL
REMARK 922        TOTAL FREE ENERGY PREDICTED BY IDOCK:  -10.89 KCAL/MOL
REMARK 923 INTER-LIGAND FREE ENERGY PREDICTED BY IDOCK:   -8.64 KCAL/MOL
REMARK 924 INTRA-LIGAND FREE ENERGY PREDICTED BY IDOCK:   -2.26 KCAL/MOL
REMARK 927      BINDING AFFINITY PREDICTED BY RF-SCORE:    0.00 PKD
ROOT
HETATM    1  C   UNL     1      -5.333  11.691  66.700  1.00  0.00    -0.099 C  
HETATM    2  C   UNL     1      -6.717  11.940  67.317  1.00  0.00    -0.138 C  
ENDROOT
BRANCH   2   3
HETATM    3  C   UNL     1      -7.834  11.099  66.675  1.00  0.00    -0.155 A  
HETATM    4  C   UNL     1      -8.540  10.119  67.398  1.00  0.00    -0.122 A  
HETATM    5  C   UNL     1      -8.169  11.283  65.321  1.00  0.00     0.320 A  
HETATM    6  F   UNL     1     -10.897   8.828  68.710  1.00  0.00    -0.224 F  
HETATM    7  F   UNL     1     -11.219   7.609  66.939  1.00  0.00    -0.341 F  
HETATM    8  C   UNL     1      -9.175  10.513  64.702  1.00  0.00    -0.274 A  
HETATM    9  C   UNL     1      -9.518  10.694  63.241  1.00  0.00    -0.329 C  
HETATM   10  C   UNL     1      -9.860   9.544  65.455  1.00  0.00    -0.304 A  
HETATM   11  F   UNL     1      -9.417   7.347  68.126  1.00  0.00    -0.138 F  
HETATM   12  F   UNL     1      -8.804  11.679  62.628  1.00  0.00    -0.310 F  
HETATM   13  F   UNL     1      -9.302   9.565  62.513  1.00  0.00    -0.276 F  
HETATM   14  F   UNL     1     -10.829  11.014  63.050  1.00  0.00    -0.322 F  
HETATM   15  C   UNL     1     -10.263   8.291  67.630  1.00  0.00    -0.231 C  
HETATM   16  C   UNL     1      -9.548   9.337  66.805  1.00  0.00    -0.240 A  
ENDBRANCH   2   3
BRANCH   2  17
HETATM   17  O   UNL     1      -7.007  13.350  67.498  1.00  0.00    -0.156 OA 
BRANCH  17  18
HETATM   18  C   UNL     1      -7.861  13.679  68.603  1.00  0.00    -0.096 C  
HETATM   19  C   UNL     1      -7.879  16.549  68.864  1.00  0.00    -0.240 C  
HETATM   20  C   UNL     1      -6.680  15.638  69.105  1.00  0.00    -0.149 C  
HETATM   21  O   UNL     1      -7.113  14.371  69.614  1.00  0.00    -0.126 OA 
HETATM   22  N   UNL     1      -8.858  15.999  67.883  1.00  0.00    -0.180 NA 
HETATM   23  C   UNL     1      -9.154  14.568  68.277  1.00  0.00    -0.196 C  
BRANCH  22  24
HETATM   24  C   UNL     1     -10.099  16.822  67.960  1.00  0.00    -0.284 C  
BRANCH  24  25
HETATM   25  C   UNL     1     -10.935  16.458  69.166  1.00  0.00    -0.324 C  
HETATM   26  N   UNL     1     -12.029  15.685  69.038  1.00  0.00    -0.356 NA 
HETATM   27  N   UNL     1     -10.678  16.833  70.389  1.00  0.00    -0.090 NA 
HETATM   28  O   UNL     1     -13.483  14.846  70.626  1.00  0.00    -0.296 OA 
HETATM   29  C   UNL     1     -12.521  15.512  70.295  1.00  0.00    -0.367 C  
HETATM   30  N   UNL     1     -11.681  16.250  71.121  1.00  0.00    -0.386 NA 
HETATM   31  H   UNL     1      -9.914  17.420  70.722  1.00  0.00     0.000 HD 
ENDBRANCH  24  25
ENDBRANCH  22  24
BRANCH  23  32
HETATM   32  C   UNL     1     -10.201  13.889  67.389  1.00  0.00    -0.252 A  
HETATM   33  C   UNL     1     -11.901  12.532  65.602  1.00  0.00    -0.438 A  
HETATM   34  F   UNL     1     -12.682  11.858  64.751  1.00  0.00    -0.318 F  
HETATM   35  C   UNL     1     -11.014  12.838  67.838  1.00  0.00    -0.262 A  
HETATM   36  C   UNL     1     -11.127  13.585  65.140  1.00  0.00    -0.326 A  
HETATM   37  C   UNL     1     -11.857  12.160  66.946  1.00  0.00    -0.295 A  
HETATM   38  C   UNL     1     -10.286  14.262  66.028  1.00  0.00    -0.318 A  
ENDBRANCH  23  32
ENDBRANCH  17  18
ENDBRANCH   2  17
TORSDOF 6
ENDMDL
MODEL       91
REMARK 921   NORMALIZED FREE ENERGY PREDICTED BY IDOCK:   -6.48 KCAL/MOL
REMARK 922        TOTAL FREE ENERGY PREDICTED BY IDOCK:  -10.89 KCAL/MOL
REMARK 923 INTER-LIGAND FREE ENERGY PREDICTED BY IDOCK:   -9.97 KCAL/MOL
REMARK 924 INTRA-LIGAND FREE ENERGY PREDICTED BY IDOCK:   -0.92 KCAL/MOL
REMARK 927      BINDING AFFINITY PREDICTED BY RF-SCORE:    0.00 PKD
ROOT
HETATM    1  C   UNL     1      -9.666   9.796  67.198  1.00  0.00    -0.223 C  
HETATM    2  C   UNL     1     -11.106  10.212  67.534  1.00  0.00    -0.181 C  
ENDROOT
BRANCH   2   3
HETATM    3  C   UNL     1     -11.350  11.726  67.408  1.00  0.00    -0.376 A  
HETATM    4  C   UNL     1     -11.583  12.541  68.532  1.00  0.00    -0.364 A  
HETATM    5  C   UNL     1     -11.362  12.338  66.142  1.00  0.00    -0.402 A  
HETATM    6  F   UNL     1     -11.037  14.694  70.535  1.00  0.00    -0.260 F  
HETATM    7  F   UNL     1     -12.294  16.064  69.408  1.00  0.00    -0.320 F  
HETATM    8  C   UNL     1     -11.602  13.720  65.996  1.00  0.00    -0.361 A  
HETATM    9  C   UNL     1     -11.640  14.373  64.633  1.00  0.00    -0.409 C  
HETATM   10  C   UNL     1     -11.830  14.502  67.141  1.00  0.00    -0.412 A  
HETATM   11  F   UNL     1     -13.170  14.314  70.354  1.00  0.00    -0.361 F  
HETATM   12  F   UNL     1     -11.379  13.516  63.606  1.00  0.00    -0.356 F  
HETATM   13  F   UNL     1     -12.849  14.932  64.358  1.00  0.00    -0.397 F  
HETATM   14  F   UNL     1     -10.729  15.380  64.514  1.00  0.00    -0.397 F  
HETATM   15  C   UNL     1     -12.080  14.742  69.659  1.00  0.00    -0.304 C  
HETATM   16  C   UNL     1     -11.824  13.921  68.415  1.00  0.00    -0.409 A  
ENDBRANCH   2   3
BRANCH   2  17
HETATM   17  O   UNL     1     -11.605   9.586  68.743  1.00  0.00     0.239 OA 
BRANCH  17  18
HETATM   18  C   UNL     1     -10.625   9.287  69.747  1.00  0.00    -0.231 C  
HETATM   19  C   UNL     1     -12.034   8.431  72.111  1.00  0.00    -0.374 C  
HETATM   20  C   UNL     1     -12.070   9.831  71.510  1.00  0.00    -0.409 C  
HETATM   21  O   UNL     1     -10.815  10.137  70.889  1.00  0.00    -0.290 OA 
HETATM   22  N   UNL     1     -11.773   7.357  71.109  1.00  0.00    -0.285 NA 
HETATM   23  C   UNL     1     -10.576   7.778  70.283  1.00  0.00    -0.231 C  
BRANCH  22  24
HETATM   24  C   UNL     1     -11.471   6.100  71.850  1.00  0.00    -0.300 C  
BRANCH  24  25
HETATM   25  C   UNL     1     -10.381   6.306  72.877  1.00  0.00    -0.207 C  
HETATM   26  N   UNL     1      -9.175   5.728  72.728  1.00  0.00    -0.136 NA 
HETATM   27  N   UNL     1     -10.500   7.038  73.951  1.00  0.00    -0.419 NA 
HETATM   28  O   UNL     1      -7.256   5.880  74.006  1.00  0.00    -0.087 OA 
HETATM   29  C   UNL     1      -8.422   6.142  73.784  1.00  0.00    -0.123 C  
HETATM   30  N   UNL     1      -9.268   6.939  74.545  1.00  0.00    -0.206 NA 
HETATM   31  H   UNL     1     -11.316   7.561  74.271  1.00  0.00     0.000 HD 
ENDBRANCH  24  25
ENDBRANCH  22  24
BRANCH  23  32
HETATM   32  C   UNL     1     -10.148   6.735  69.245  1.00  0.00    -0.179 A  
HETATM   33  C   UNL     1      -9.364   5.037  67.141  1.00  0.00    -0.125 A  
HETATM   34  F   UNL     1      -8.971   4.259  66.126  1.00  0.00    -0.115 F  
HETATM   35  C   UNL     1      -8.883   6.130  69.252  1.00  0.00    -0.124 A  
HETATM   36  C   UNL     1     -10.630   5.602  67.125  1.00  0.00    -0.344 A  
HETATM   37  C   UNL     1      -8.493   5.287  68.201  1.00  0.00    -0.096 A  
HETATM   38  C   UNL     1     -11.021   6.442  68.172  1.00  0.00    -0.393 A  
ENDBRANCH  23  32
ENDBRANCH  17  18
ENDBRANCH   2  17
TORSDOF 6
ENDMDL
MODEL       92
REMARK 921   NORMALIZED FREE ENERGY PREDICTED BY IDOCK:   -6.46 KCAL/MOL
REMARK 922        TOTAL FREE ENERGY PREDICTED BY IDOCK:  -10.86 KCAL/MOL
REMARK 923 INTER-LIGAND FREE ENERGY PREDICTED BY IDOCK:  -10.40 KCAL/MOL
REMARK 924 INTRA-LIGAND FREE ENERGY PREDICTED BY IDOCK:   -0.45 KCAL/MOL
REMARK 927      BINDING AFFINITY PREDICTED BY RF-SCORE:    0.00 PKD
ROOT
HETATM    1  C   UNL     1     -11.146  10.670  69.336  1.00  0.00    -0.315 C  
HETATM    2  C   UNL     1     -11.224  11.971  68.525  1.00  0.00    -0.256 C  
ENDROOT
BRANCH   2   3
HETATM    3  C   UNL     1     -11.489  13.216  69.389  1.00  0.00    -0.321 A  
HETATM    4  C   UNL     1     -10.970  14.481  69.056  1.00  0.00    -0.272 A  
HETATM    5  C   UNL     1     -12.255  13.112  70.564  1.00  0.00    -0.405 A  
HETATM    6  F   UNL     1     -11.036  17.354  68.226  1.00  0.00    -0.362 F  
HETATM    7  F   UNL     1     -10.902  17.961  70.309  1.00  0.00     0.317 F  
HETATM    8  C   UNL     1     -12.499  14.232  71.385  1.00  0.00    -0.437 A  
HETATM    9  C   UNL     1     -13.302  14.114  72.660  1.00  0.00    -0.541 C  
HETATM   10  C   UNL     1     -11.966  15.480  71.020  1.00  0.00    -0.428 A  
HETATM   11  F   UNL     1      -9.244  16.911  69.375  1.00  0.00    -0.192 F  
HETATM   12  F   UNL     1     -13.785  12.861  72.891  1.00  0.00    -0.491 F  
HETATM   13  F   UNL     1     -12.579  14.448  73.764  1.00  0.00    -0.548 F  
HETATM   14  F   UNL     1     -14.389  14.937  72.668  1.00  0.00    -0.496 F  
HETATM   15  C   UNL     1     -10.603  16.945  69.452  1.00  0.00    -0.292 C  
HETATM   16  C   UNL     1     -11.197  15.615  69.857  1.00  0.00    -0.335 A  
ENDBRANCH   2   3
BRANCH   2  17
HETATM   17  O   UNL     1     -12.036  11.842  67.331  1.00  0.00    -0.603 OA 
BRANCH  17  18
HETATM   18  C   UNL     1     -11.321  11.769  66.090  1.00  0.00    -0.280 C  
HETATM   19  C   UNL     1     -11.876  14.186  64.622  1.00  0.00    -0.431 C  
HETATM   20  C   UNL     1     -12.886  13.094  64.956  1.00  0.00    -0.302 C  
HETATM   21  O   UNL     1     -12.242  11.814  64.988  1.00  0.00    -0.226 OA 
HETATM   22  N   UNL     1     -10.759  14.288  65.604  1.00  0.00    -0.303 NA 
HETATM   23  C   UNL     1     -10.211  12.894  65.827  1.00  0.00    -0.288 C  
BRANCH  22  24
HETATM   24  C   UNL     1      -9.708  15.167  65.017  1.00  0.00     0.138 C  
BRANCH  24  25
HETATM   25  C   UNL     1     -10.001  16.629  65.265  1.00  0.00     0.279 C  
HETATM   26  N   UNL     1      -9.097  17.421  65.869  1.00  0.00    -0.523 NA 
HETATM   27  N   UNL     1     -11.106  17.234  64.922  1.00  0.00    -0.817 NA 
HETATM   28  O   UNL     1      -9.135  19.685  66.328  1.00  0.00    -0.362 OA 
HETATM   29  C   UNL     1      -9.644  18.667  65.900  1.00  0.00     0.107 C  
HETATM   30  N   UNL     1     -10.902  18.528  65.326  1.00  0.00    -0.466 NA 
HETATM   31  H   UNL     1     -11.926  16.838  64.462  1.00  0.00     0.000 HD 
ENDBRANCH  24  25
ENDBRANCH  22  24
BRANCH  23  32
HETATM   32  C   UNL     1      -9.007  12.850  66.773  1.00  0.00    -0.182 A  
HETATM   33  C   UNL     1      -6.636  12.679  68.281  1.00  0.00    -0.079 A  
HETATM   34  F   UNL     1      -5.489  12.608  68.965  1.00  0.00    -0.065 F  
HETATM   35  C   UNL     1      -8.420  14.004  67.312  1.00  0.00    -0.220 A  
HETATM   36  C   UNL     1      -7.211  11.521  67.781  1.00  0.00    -0.094 A  
HETATM   37  C   UNL     1      -7.237  13.917  68.060  1.00  0.00    -0.141 A  
HETATM   38  C   UNL     1      -8.391  11.605  67.036  1.00  0.00    -0.169 A  
ENDBRANCH  23  32
ENDBRANCH  17  18
ENDBRANCH   2  17
TORSDOF 6
ENDMDL
MODEL       93
REMARK 921   NORMALIZED FREE ENERGY PREDICTED BY IDOCK:   -6.45 KCAL/MOL
REMARK 922        TOTAL FREE ENERGY PREDICTED BY IDOCK:  -10.85 KCAL/MOL
REMARK 923 INTER-LIGAND FREE ENERGY PREDICTED BY IDOCK:   -9.16 KCAL/MOL
REMARK 924 INTRA-LIGAND FREE ENERGY PREDICTED BY IDOCK:   -1.69 KCAL/MOL
REMARK 927      BINDING AFFINITY PREDICTED BY RF-SCORE:    0.00 PKD
ROOT
HETATM    1  C   UNL     1      -9.522  10.125  64.174  1.00  0.00    -0.353 C  
HETATM    2  C   UNL     1      -9.818  10.517  65.629  1.00  0.00    -0.252 C  
ENDROOT
BRANCH   2   3
HETATM    3  C   UNL     1      -9.973   9.308  66.568  1.00  0.00    -0.344 A  
HETATM    4  C   UNL     1     -10.369   9.452  67.912  1.00  0.00    -0.276 A  
HETATM    5  C   UNL     1      -9.702   8.009  66.101  1.00  0.00    -0.116 A  
HETATM    6  F   UNL     1     -12.131   9.164  70.311  1.00  0.00    -0.147 F  
HETATM    7  F   UNL     1     -10.995   7.419  70.938  1.00  0.00    -0.240 F  
HETATM    8  C   UNL     1      -9.818   6.885  66.945  1.00  0.00    -0.240 A  
HETATM    9  C   UNL     1      -9.502   5.493  66.450  1.00  0.00    -0.155 C  
HETATM   10  C   UNL     1     -10.216   7.068  68.280  1.00  0.00    -0.206 A  
HETATM   11  F   UNL     1     -10.046   9.374  70.891  1.00  0.00    -0.286 F  
HETATM   12  F   UNL     1      -9.153   5.444  65.133  1.00  0.00    -0.160 F  
HETATM   13  F   UNL     1      -8.475   4.918  67.132  1.00  0.00    -0.106 F  
HETATM   14  F   UNL     1     -10.558   4.641  66.583  1.00  0.00    -0.268 F  
HETATM   15  C   UNL     1     -10.909   8.569  70.212  1.00  0.00    -0.238 C  
HETATM   16  C   UNL     1     -10.492   8.349  68.775  1.00  0.00    -0.202 A  
ENDBRANCH   2   3
BRANCH   2  17
HETATM   17  O   UNL     1     -10.838  11.542  65.739  1.00  0.00    -0.280 OA 
BRANCH  17  18
HETATM   18  C   UNL     1     -10.462  12.852  65.292  1.00  0.00    -0.296 C  
HETATM   19  C   UNL     1     -12.428  14.709  66.288  1.00  0.00     0.039 C  
HETATM   20  C   UNL     1     -12.675  13.619  65.251  1.00  0.00    -0.430 C  
HETATM   21  O   UNL     1     -11.497  13.405  64.465  1.00  0.00    -0.344 OA 
HETATM   22  N   UNL     1     -11.324  14.390  67.239  1.00  0.00    -0.327 NA 
HETATM   23  C   UNL     1     -10.130  13.936  66.426  1.00  0.00    -0.295 C  
BRANCH  22  24
HETATM   24  C   UNL     1     -10.992  15.632  67.993  1.00  0.00    -0.318 C  
BRANCH  24  25
HETATM   25  C   UNL     1     -11.635  15.644  69.360  1.00  0.00    -0.370 C  
HETATM   26  N   UNL     1     -10.914  15.377  70.464  1.00  0.00    -0.320 NA 
HETATM   27  N   UNL     1     -12.892  15.912  69.588  1.00  0.00    -0.474 NA 
HETATM   28  O   UNL     1     -11.504  15.393  72.698  1.00  0.00    -0.459 OA 
HETATM   29  C   UNL     1     -11.766  15.511  71.516  1.00  0.00    -0.412 C  
HETATM   30  N   UNL     1     -12.997  15.823  70.952  1.00  0.00    -0.495 NA 
HETATM   31  H   UNL     1     -13.623  16.135  68.912  1.00  0.00     0.000 HD 
ENDBRANCH  24  25
ENDBRANCH  22  24
BRANCH  23  32
HETATM   32  C   UNL     1      -8.890  13.631  67.271  1.00  0.00    -0.227 A  
HETATM   33  C   UNL     1      -6.668  13.319  68.972  1.00  0.00    -0.107 A  
HETATM   34  F   UNL     1      -5.634  13.187  69.809  1.00  0.00    -0.084 F  
HETATM   35  C   UNL     1      -8.826  12.557  68.169  1.00  0.00    -0.191 A  
HETATM   36  C   UNL     1      -6.696  14.375  68.074  1.00  0.00    -0.154 A  
HETATM   37  C   UNL     1      -7.720  12.405  69.019  1.00  0.00     0.170 A  
HETATM   38  C   UNL     1      -7.797  14.527  67.225  1.00  0.00    -0.199 A  
ENDBRANCH  23  32
ENDBRANCH  17  18
ENDBRANCH   2  17
TORSDOF 6
ENDMDL
MODEL       94
REMARK 921   NORMALIZED FREE ENERGY PREDICTED BY IDOCK:   -6.44 KCAL/MOL
REMARK 922        TOTAL FREE ENERGY PREDICTED BY IDOCK:  -10.83 KCAL/MOL
REMARK 923 INTER-LIGAND FREE ENERGY PREDICTED BY IDOCK:   -7.82 KCAL/MOL
REMARK 924 INTRA-LIGAND FREE ENERGY PREDICTED BY IDOCK:   -3.01 KCAL/MOL
REMARK 927      BINDING AFFINITY PREDICTED BY RF-SCORE:    0.00 PKD
ROOT
HETATM    1  C   UNL     1      -6.766  15.880  67.933  1.00  0.00    -0.163 C  
HETATM    2  C   UNL     1      -7.391  14.483  67.816  1.00  0.00    -0.175 C  
ENDROOT
BRANCH   2   3
HETATM    3  C   UNL     1      -8.912  14.511  67.586  1.00  0.00    -0.193 A  
HETATM    4  C   UNL     1      -9.473  14.525  66.295  1.00  0.00    -0.310 A  
HETATM    5  C   UNL     1      -9.794  14.540  68.682  1.00  0.00    -0.232 A  
HETATM    6  F   UNL     1     -11.028  13.501  63.955  1.00  0.00    -0.375 F  
HETATM    7  F   UNL     1     -12.764  14.633  64.610  1.00  0.00    -0.435 F  
HETATM    8  C   UNL     1     -11.191  14.585  68.501  1.00  0.00    -0.285 A  
HETATM    9  C   UNL     1     -12.136  14.642  69.679  1.00  0.00    -0.311 C  
HETATM   10  C   UNL     1     -11.714  14.597  67.197  1.00  0.00    -0.392 A  
HETATM   11  F   UNL     1     -10.969  15.674  63.965  1.00  0.00    -0.152 F  
HETATM   12  F   UNL     1     -11.510  14.598  70.888  1.00  0.00    -0.310 F  
HETATM   13  F   UNL     1     -12.890  15.774  69.688  1.00  0.00    -0.216 F  
HETATM   14  F   UNL     1     -13.023  13.606  69.685  1.00  0.00    -0.102 F  
HETATM   15  C   UNL     1     -11.404  14.596  64.674  1.00  0.00    -0.369 C  
HETATM   16  C   UNL     1     -10.863  14.570  66.085  1.00  0.00    -0.317 A  
ENDBRANCH   2   3
BRANCH   2  17
HETATM   17  O   UNL     1      -6.920  13.568  68.837  1.00  0.00    -0.106 OA 
BRANCH  17  18
HETATM   18  C   UNL     1      -6.313  12.357  68.365  1.00  0.00    -0.056 C  
HETATM   19  C   UNL     1      -6.334  10.466  70.540  1.00  0.00    -0.101 C  
HETATM   20  C   UNL     1      -5.531  11.761  70.491  1.00  0.00    -0.151 C  
HETATM   21  O   UNL     1      -5.144  12.056  69.143  1.00  0.00    -0.052 OA 
HETATM   22  N   UNL     1      -7.586  10.509  69.730  1.00  0.00    -0.133 NA 
HETATM   23  C   UNL     1      -7.231  11.043  68.358  1.00  0.00    -0.085 C  
BRANCH  22  24
HETATM   24  C   UNL     1      -8.112   9.119  69.621  1.00  0.00    -0.106 C  
BRANCH  24  25
HETATM   25  C   UNL     1      -9.097   8.808  70.724  1.00  0.00    -0.192 C  
HETATM   26  N   UNL     1      -8.690   8.231  71.870  1.00  0.00    -0.154 NA 
HETATM   27  N   UNL     1     -10.375   9.067  70.674  1.00  0.00    -0.212 NA 
HETATM   28  O   UNL     1      -9.855   7.698  73.793  1.00  0.00    -0.286 OA 
HETATM   29  C   UNL     1      -9.795   8.129  72.657  1.00  0.00    -0.294 C  
HETATM   30  N   UNL     1     -10.838   8.634  71.890  1.00  0.00    -0.323 NA 
HETATM   31  H   UNL     1     -10.904   9.491  69.912  1.00  0.00     0.000 HD 
ENDBRANCH  24  25
ENDBRANCH  22  24
BRANCH  23  32
HETATM   32  C   UNL     1      -8.415  11.084  67.388  1.00  0.00    -0.132 A  
HETATM   33  C   UNL     1     -10.520  10.886  65.529  1.00  0.00    -0.219 A  
HETATM   34  F   UNL     1     -11.523  10.754  64.654  1.00  0.00    -0.011 F  
HETATM   35  C   UNL     1      -9.750  11.105  67.818  1.00  0.00    -0.183 A  
HETATM   36  C   UNL     1      -9.209  10.891  65.077  1.00  0.00    -0.233 A  
HETATM   37  C   UNL     1     -10.797  11.002  66.891  1.00  0.00    -0.324 A  
HETATM   38  C   UNL     1      -8.164  10.994  65.999  1.00  0.00    -0.129 A  
ENDBRANCH  23  32
ENDBRANCH  17  18
ENDBRANCH   2  17
TORSDOF 6
ENDMDL
MODEL       95
REMARK 921   NORMALIZED FREE ENERGY PREDICTED BY IDOCK:   -6.41 KCAL/MOL
REMARK 922        TOTAL FREE ENERGY PREDICTED BY IDOCK:  -10.78 KCAL/MOL
REMARK 923 INTER-LIGAND FREE ENERGY PREDICTED BY IDOCK:   -8.66 KCAL/MOL
REMARK 924 INTRA-LIGAND FREE ENERGY PREDICTED BY IDOCK:   -2.12 KCAL/MOL
REMARK 927      BINDING AFFINITY PREDICTED BY RF-SCORE:    0.00 PKD
ROOT
HETATM    1  C   UNL     1     -10.275   8.767  70.790  1.00  0.00    -0.262 C  
HETATM    2  C   UNL     1     -10.711   9.120  69.360  1.00  0.00    -0.198 C  
ENDROOT
BRANCH   2   3
HETATM    3  C   UNL     1     -10.066   8.228  68.286  1.00  0.00    -0.231 A  
HETATM    4  C   UNL     1      -9.558   8.754  67.083  1.00  0.00    -0.228 A  
HETATM    5  C   UNL     1      -9.983   6.836  68.477  1.00  0.00    -0.149 A  
HETATM    6  F   UNL     1      -7.489   9.477  65.049  1.00  0.00    -0.098 F  
HETATM    7  F   UNL     1      -7.935   7.658  63.945  1.00  0.00    -0.120 F  
HETATM    8  C   UNL     1      -9.414   5.992  67.502  1.00  0.00    -0.113 A  
HETATM    9  C   UNL     1      -9.349   4.495  67.698  1.00  0.00    -0.147 C  
HETATM   10  C   UNL     1      -8.917   6.554  66.314  1.00  0.00    -0.168 A  
HETATM   11  F   UNL     1      -9.439   9.217  64.124  1.00  0.00    -0.186 F  
HETATM   12  F   UNL     1      -9.839   4.076  68.898  1.00  0.00    -0.238 F  
HETATM   13  F   UNL     1     -10.047   3.814  66.749  1.00  0.00    -0.207 F  
HETATM   14  F   UNL     1      -8.073   4.018  67.633  1.00  0.00    -0.088 F  
HETATM   15  C   UNL     1      -8.469   8.559  64.817  1.00  0.00    -0.127 C  
HETATM   16  C   UNL     1      -8.986   7.935  66.093  1.00  0.00    -0.214 A  
ENDBRANCH   2   3
BRANCH   2  17
HETATM   17  O   UNL     1     -10.686  10.546  69.101  1.00  0.00    -0.201 OA 
BRANCH  17  18
HETATM   18  C   UNL     1     -11.948  11.151  68.789  1.00  0.00    -0.268 C  
HETATM   19  C   UNL     1     -12.064  13.682  70.163  1.00  0.00    -0.361 C  
HETATM   20  C   UNL     1     -12.048  12.309  70.823  1.00  0.00    -0.162 C  
HETATM   21  O   UNL     1     -12.710  11.348  69.990  1.00  0.00    -0.105 OA 
HETATM   22  N   UNL     1     -11.382  13.715  68.837  1.00  0.00    -0.272 NA 
HETATM   23  C   UNL     1     -11.907  12.555  68.017  1.00  0.00    -0.325 C  
BRANCH  22  24
HETATM   24  C   UNL     1     -11.721  15.008  68.176  1.00  0.00    -0.312 C  
BRANCH  24  25
HETATM   25  C   UNL     1     -10.624  16.031  68.358  1.00  0.00    -0.270 C  
HETATM   26  N   UNL     1     -10.904  17.347  68.367  1.00  0.00    -0.296 NA 
HETATM   27  N   UNL     1      -9.361  15.746  68.526  1.00  0.00    -0.192 NA 
HETATM   28  O   UNL     1      -9.541  19.182  68.711  1.00  0.00    -0.381 OA 
HETATM   29  C   UNL     1      -9.722  17.985  68.591  1.00  0.00    -0.350 C  
HETATM   30  N   UNL     1      -8.770  16.975  68.666  1.00  0.00    -0.259 NA 
HETATM   31  H   UNL     1      -8.919  14.827  68.548  1.00  0.00     0.000 HD 
ENDBRANCH  24  25
ENDBRANCH  22  24
BRANCH  23  32
HETATM   32  C   UNL     1     -11.338  12.498  66.597  1.00  0.00    -0.389 A  
HETATM   33  C   UNL     1     -10.194  12.124  64.051  1.00  0.00    -0.370 A  
HETATM   34  F   UNL     1      -9.660  11.908  62.844  1.00  0.00    -0.391 F  
HETATM   35  C   UNL     1     -12.148  12.431  65.454  1.00  0.00    -0.428 A  
HETATM   36  C   UNL     1      -9.370  12.213  65.162  1.00  0.00     0.159 A  
HETATM   37  C   UNL     1     -11.578  12.241  64.187  1.00  0.00    -0.463 A  
HETATM   38  C   UNL     1      -9.937  12.404  66.426  1.00  0.00    -0.254 A  
ENDBRANCH  23  32
ENDBRANCH  17  18
ENDBRANCH   2  17
TORSDOF 6
ENDMDL
MODEL       96
REMARK 921   NORMALIZED FREE ENERGY PREDICTED BY IDOCK:   -6.39 KCAL/MOL
REMARK 922        TOTAL FREE ENERGY PREDICTED BY IDOCK:  -10.76 KCAL/MOL
REMARK 923 INTER-LIGAND FREE ENERGY PREDICTED BY IDOCK:   -9.41 KCAL/MOL
REMARK 924 INTRA-LIGAND FREE ENERGY PREDICTED BY IDOCK:   -1.35 KCAL/MOL
REMARK 927      BINDING AFFINITY PREDICTED BY RF-SCORE:    0.00 PKD
ROOT
HETATM    1  C   UNL     1     -10.300  15.445  65.084  1.00  0.00    -0.405 C  
HETATM    2  C   UNL     1     -10.204  15.009  66.553  1.00  0.00    -0.275 C  
ENDROOT
BRANCH   2   3
HETATM    3  C   UNL     1      -9.079  15.716  67.328  1.00  0.00    -0.217 A  
HETATM    4  C   UNL     1      -8.103  15.001  68.048  1.00  0.00    -0.132 A  
HETATM    5  C   UNL     1      -9.009  17.121  67.350  1.00  0.00    -0.223 A  
HETATM    6  F   UNL     1      -5.374  13.983  68.726  1.00  0.00    -0.076 F  
HETATM    7  F   UNL     1      -5.142  15.573  70.190  1.00  0.00    -0.101 F  
HETATM    8  C   UNL     1      -8.001  17.796  68.068  1.00  0.00    -0.244 A  
HETATM    9  C   UNL     1      -7.941  19.306  68.111  1.00  0.00    -0.308 C  
HETATM   10  C   UNL     1      -7.043  17.048  68.774  1.00  0.00    -0.219 A  
HETATM   11  F   UNL     1      -6.649  14.036  70.486  1.00  0.00    -0.124 F  
HETATM   12  F   UNL     1      -8.907  19.915  67.368  1.00  0.00    -0.334 F  
HETATM   13  F   UNL     1      -8.074  19.796  69.374  1.00  0.00    -0.344 F  
HETATM   14  F   UNL     1      -6.755  19.793  67.648  1.00  0.00    -0.236 F  
HETATM   15  C   UNL     1      -6.075  14.825  69.537  1.00  0.00    -0.112 C  
HETATM   16  C   UNL     1      -7.087  15.649  68.773  1.00  0.00    -0.127 A  
ENDBRANCH   2   3
BRANCH   2  17
HETATM   17  O   UNL     1     -10.283  13.571  66.719  1.00  0.00    -0.256 OA 
BRANCH  17  18
HETATM   18  C   UNL     1     -11.594  13.036  66.951  1.00  0.00    -0.366 C  
HETATM   19  C   UNL     1     -11.278  10.316  67.852  1.00  0.00    -0.220 C  
HETATM   20  C   UNL     1     -10.932  10.842  66.464  1.00  0.00    -0.121 C  
HETATM   21  O   UNL     1     -11.821  11.904  66.097  1.00  0.00    -0.528 OA 
HETATM   22  N   UNL     1     -11.184  11.350  68.922  1.00  0.00    -0.224 NA 
HETATM   23  C   UNL     1     -11.934  12.578  68.448  1.00  0.00    -0.221 C  
BRANCH  22  24
HETATM   24  C   UNL     1     -11.822  10.800  70.152  1.00  0.00    -0.343 C  
BRANCH  24  25
HETATM   25  C   UNL     1     -10.909   9.833  70.869  1.00  0.00    -0.328 C  
HETATM   26  N   UNL     1     -11.407   8.759  71.508  1.00  0.00    -0.280 NA 
HETATM   27  N   UNL     1      -9.609   9.939  70.924  1.00  0.00    -0.275 NA 
HETATM   28  O   UNL     1     -10.346   7.030  72.615  1.00  0.00    -0.192 OA 
HETATM   29  C   UNL     1     -10.336   8.081  72.004  1.00  0.00    -0.236 C  
HETATM   30  N   UNL     1      -9.227   8.840  71.649  1.00  0.00    -0.253 NA 
HETATM   31  H   UNL     1      -9.018  10.667  70.523  1.00  0.00     0.000 HD 
ENDBRANCH  24  25
ENDBRANCH  22  24
BRANCH  23  32
HETATM   32  C   UNL     1     -11.976  13.709  69.479  1.00  0.00    -0.397 A  
HETATM   33  C   UNL     1     -12.075  15.581  71.580  1.00  0.00    -0.401 A  
HETATM   34  F   UNL     1     -12.101  16.445  72.601  1.00  0.00    -0.516 F  
HETATM   35  C   UNL     1     -10.873  14.530  69.755  1.00  0.00    -0.132 A  
HETATM   36  C   UNL     1     -13.188  14.800  71.310  1.00  0.00    -0.447 A  
HETATM   37  C   UNL     1     -10.922  15.459  70.805  1.00  0.00    -0.349 A  
HETATM   38  C   UNL     1     -13.141  13.874  70.264  1.00  0.00     0.153 A  
ENDBRANCH  23  32
ENDBRANCH  17  18
ENDBRANCH   2  17
TORSDOF 6
ENDMDL
MODEL       97
REMARK 921   NORMALIZED FREE ENERGY PREDICTED BY IDOCK:   -6.38 KCAL/MOL
REMARK 922        TOTAL FREE ENERGY PREDICTED BY IDOCK:  -10.75 KCAL/MOL
REMARK 923 INTER-LIGAND FREE ENERGY PREDICTED BY IDOCK:   -9.74 KCAL/MOL
REMARK 924 INTRA-LIGAND FREE ENERGY PREDICTED BY IDOCK:   -1.01 KCAL/MOL
REMARK 927      BINDING AFFINITY PREDICTED BY RF-SCORE:    0.00 PKD
ROOT
HETATM    1  C   UNL     1      -6.540   8.911  69.565  1.00  0.00    -0.044 C  
HETATM    2  C   UNL     1      -8.073   8.826  69.575  1.00  0.00    -0.105 C  
ENDROOT
BRANCH   2   3
HETATM    3  C   UNL     1      -8.605   7.386  69.672  1.00  0.00    -0.137 A  
HETATM    4  C   UNL     1      -9.164   6.875  70.859  1.00  0.00    -0.157 A  
HETATM    5  C   UNL     1      -8.529   6.526  68.562  1.00  0.00    -0.124 A  
HETATM    6  F   UNL     1     -11.292   5.787  72.657  1.00  0.00    -0.284 F  
HETATM    7  F   UNL     1     -10.633   3.763  72.215  1.00  0.00    -0.229 F  
HETATM    8  C   UNL     1      -8.992   5.196  68.628  1.00  0.00    -0.122 A  
HETATM    9  C   UNL     1      -8.887   4.265  67.442  1.00  0.00    -0.110 C  
HETATM   10  C   UNL     1      -9.545   4.721  69.830  1.00  0.00    -0.249 A  
HETATM   11  F   UNL     1      -9.320   5.122  73.286  1.00  0.00    -0.132 F  
HETATM   12  F   UNL     1      -8.359   4.850  66.330  1.00  0.00    -0.107 F  
HETATM   13  F   UNL     1      -8.110   3.179  67.700  1.00  0.00    -0.077 F  
HETATM   14  F   UNL     1     -10.099   3.772  67.059  1.00  0.00    -0.204 F  
HETATM   15  C   UNL     1     -10.212   5.057  72.260  1.00  0.00    -0.201 C  
HETATM   16  C   UNL     1      -9.633   5.552  70.953  1.00  0.00    -0.219 A  
ENDBRANCH   2   3
BRANCH   2  17
HETATM   17  O   UNL     1      -8.690   9.664  68.565  1.00  0.00    -0.118 OA 
BRANCH  17  18
HETATM   18  C   UNL     1      -8.820  11.054  68.895  1.00  0.00    -0.113 C  
HETATM   19  C   UNL     1      -9.718  12.432  66.528  1.00  0.00    -0.240 C  
HETATM   20  C   UNL     1      -8.363  11.756  66.707  1.00  0.00    -0.165 C  
HETATM   21  O   UNL     1      -7.942  11.840  68.075  1.00  0.00    -0.125 OA 
HETATM   22  N   UNL     1     -10.801  11.826  67.354  1.00  0.00    -0.238 NA 
HETATM   23  C   UNL     1     -10.284  11.693  68.771  1.00  0.00    -0.177 C  
BRANCH  22  24
HETATM   24  C   UNL     1     -11.976  12.743  67.318  1.00  0.00    -0.280 C  
BRANCH  24  25
HETATM   25  C   UNL     1     -12.192  13.318  65.937  1.00  0.00    -0.441 C  
HETATM   26  N   UNL     1     -11.917  14.610  65.678  1.00  0.00    -0.292 NA 
HETATM   27  N   UNL     1     -12.635  12.643  64.912  1.00  0.00    -0.656 NA 
HETATM   28  O   UNL     1     -12.020  15.812  63.707  1.00  0.00    -0.570 OA 
HETATM   29  C   UNL     1     -12.175  14.794  64.354  1.00  0.00    -0.428 C  
HETATM   30  N   UNL     1     -12.641  13.567  63.898  1.00  0.00    -0.694 NA 
HETATM   31  H   UNL     1     -12.912  11.662  64.874  1.00  0.00     0.000 HD 
ENDBRANCH  24  25
ENDBRANCH  22  24
BRANCH  23  32
HETATM   32  C   UNL     1     -11.319  11.139  69.755  1.00  0.00    -0.354 A  
HETATM   33  C   UNL     1     -12.995  10.028  71.725  1.00  0.00    -0.458 A  
HETATM   34  F   UNL     1     -13.765   9.511  72.689  1.00  0.00    -0.458 F  
HETATM   35  C   UNL     1     -12.148  11.961  70.532  1.00  0.00    -0.422 A  
HETATM   36  C   UNL     1     -12.206   9.192  70.952  1.00  0.00    -0.239 A  
HETATM   37  C   UNL     1     -12.979  11.407  71.516  1.00  0.00    -0.505 A  
HETATM   38  C   UNL     1     -11.377   9.742  69.970  1.00  0.00    -0.269 A  
ENDBRANCH  23  32
ENDBRANCH  17  18
ENDBRANCH   2  17
TORSDOF 6
ENDMDL
MODEL       98
REMARK 921   NORMALIZED FREE ENERGY PREDICTED BY IDOCK:   -6.37 KCAL/MOL
REMARK 922        TOTAL FREE ENERGY PREDICTED BY IDOCK:  -10.74 KCAL/MOL
REMARK 923 INTER-LIGAND FREE ENERGY PREDICTED BY IDOCK:   -9.71 KCAL/MOL
REMARK 924 INTRA-LIGAND FREE ENERGY PREDICTED BY IDOCK:   -1.03 KCAL/MOL
REMARK 927      BINDING AFFINITY PREDICTED BY RF-SCORE:    0.00 PKD
ROOT
HETATM    1  C   UNL     1     -11.758  10.611  69.932  1.00  0.00    -0.395 C  
HETATM    2  C   UNL     1     -10.558  11.217  69.190  1.00  0.00    -0.204 C  
ENDROOT
BRANCH   2   3
HETATM    3  C   UNL     1     -10.880  12.549  68.491  1.00  0.00    -0.271 A  
HETATM    4  C   UNL     1     -10.556  13.792  69.066  1.00  0.00    -0.161 A  
HETATM    5  C   UNL     1     -11.533  12.555  67.245  1.00  0.00    -0.416 A  
HETATM    6  F   UNL     1      -9.165  16.426  69.332  1.00  0.00    -0.246 F  
HETATM    7  F   UNL     1     -10.856  17.417  68.392  1.00  0.00    -0.354 F  
HETATM    8  C   UNL     1     -11.857  13.761  66.590  1.00  0.00    -0.445 A  
HETATM    9  C   UNL     1     -12.580  13.767  65.263  1.00  0.00    -0.473 C  
HETATM   10  C   UNL     1     -11.517  14.983  67.195  1.00  0.00    -0.304 A  
HETATM   11  F   UNL     1     -11.098  16.457  70.327  1.00  0.00    -0.325 F  
HETATM   12  F   UNL     1     -12.831  12.522  64.769  1.00  0.00    -0.548 F  
HETATM   13  F   UNL     1     -13.786  14.394  65.331  1.00  0.00    -0.189 F  
HETATM   14  F   UNL     1     -11.878  14.416  64.291  1.00  0.00    -0.405 F  
HETATM   15  C   UNL     1     -10.505  16.314  69.110  1.00  0.00    -0.280 C  
HETATM   16  C   UNL     1     -10.867  15.010  68.436  1.00  0.00    -0.256 A  
ENDBRANCH   2   3
BRANCH   2  17
HETATM   17  O   UNL     1      -9.835  10.241  68.397  1.00  0.00    -0.149 OA 
BRANCH  17  18
HETATM   18  C   UNL     1     -10.629   9.210  67.793  1.00  0.00    -0.227 C  
HETATM   19  C   UNL     1      -8.877   7.607  66.160  1.00  0.00    -0.164 C  
HETATM   20  C   UNL     1      -9.246   9.064  65.908  1.00  0.00    -0.230 C  
HETATM   21  O   UNL     1     -10.580   9.326  66.363  1.00  0.00    -0.142 OA 
HETATM   22  N   UNL     1      -8.928   7.219  67.599  1.00  0.00    -0.126 NA 
HETATM   23  C   UNL     1     -10.251   7.697  68.161  1.00  0.00    -0.196 C  
BRANCH  22  24
HETATM   24  C   UNL     1      -8.842   5.733  67.679  1.00  0.00    -0.105 C  
BRANCH  24  25
HETATM   25  C   UNL     1      -9.435   5.074  66.455  1.00  0.00    -0.153 C  
HETATM   26  N   UNL     1      -8.643   4.579  65.486  1.00  0.00    -0.120 NA 
HETATM   27  N   UNL     1     -10.713   4.921  66.238  1.00  0.00    -0.465 NA 
HETATM   28  O   UNL     1      -9.159   3.434  63.546  1.00  0.00    -0.092 OA 
HETATM   29  C   UNL     1      -9.474   4.024  64.562  1.00  0.00    -0.167 C  
HETATM   30  N   UNL     1     -10.759   4.264  65.035  1.00  0.00    -0.200 NA 
HETATM   31  H   UNL     1     -11.493   5.220  66.824  1.00  0.00     0.000 HD 
ENDBRANCH  24  25
ENDBRANCH  22  24
BRANCH  23  32
HETATM   32  C   UNL     1     -10.473   7.311  69.626  1.00  0.00    -0.239 A  
HETATM   33  C   UNL     1     -10.896   6.888  72.377  1.00  0.00    -0.235 A  
HETATM   34  F   UNL     1     -11.120   6.719  73.685  1.00  0.00    -0.267 F  
HETATM   35  C   UNL     1     -11.642   6.684  70.079  1.00  0.00    -0.423 A  
HETATM   36  C   UNL     1      -9.719   7.486  71.953  1.00  0.00    -0.191 A  
HETATM   37  C   UNL     1     -11.853   6.477  71.450  1.00  0.00    -0.384 A  
HETATM   38  C   UNL     1      -9.507   7.692  70.586  1.00  0.00    -0.163 A  
ENDBRANCH  23  32
ENDBRANCH  17  18
ENDBRANCH   2  17
TORSDOF 6
ENDMDL
MODEL       99
REMARK 921   NORMALIZED FREE ENERGY PREDICTED BY IDOCK:   -6.36 KCAL/MOL
REMARK 922        TOTAL FREE ENERGY PREDICTED BY IDOCK:  -10.73 KCAL/MOL
REMARK 923 INTER-LIGAND FREE ENERGY PREDICTED BY IDOCK:   -8.68 KCAL/MOL
REMARK 924 INTRA-LIGAND FREE ENERGY PREDICTED BY IDOCK:   -2.05 KCAL/MOL
REMARK 927      BINDING AFFINITY PREDICTED BY RF-SCORE:    0.00 PKD
ROOT
HETATM    1  C   UNL     1     -10.358   8.489  70.472  1.00  0.00    -0.226 C  
HETATM    2  C   UNL     1     -10.760   9.065  69.107  1.00  0.00    -0.157 C  
ENDROOT
BRANCH   2   3
HETATM    3  C   UNL     1     -10.052   8.384  67.923  1.00  0.00    -0.254 A  
HETATM    4  C   UNL     1     -10.417   7.101  67.472  1.00  0.00    -0.331 A  
HETATM    5  C   UNL     1      -8.992   9.032  67.263  1.00  0.00    -0.139 A  
HETATM    6  F   UNL     1     -11.493   5.049  65.581  1.00  0.00    -0.162 F  
HETATM    7  F   UNL     1      -9.472   4.594  64.922  1.00  0.00    -0.156 F  
HETATM    8  C   UNL     1      -8.313   8.424  66.188  1.00  0.00    -0.127 A  
HETATM    9  C   UNL     1      -7.159   9.111  65.496  1.00  0.00    -0.082 C  
HETATM   10  C   UNL     1      -8.707   7.143  65.764  1.00  0.00    -0.125 A  
HETATM   11  F   UNL     1     -10.069   4.167  66.967  1.00  0.00    -0.237 F  
HETATM   12  F   UNL     1      -6.891  10.357  65.980  1.00  0.00    -0.098 F  
HETATM   13  F   UNL     1      -5.997   8.410  65.600  1.00  0.00    -0.042 F  
HETATM   14  F   UNL     1      -7.375   9.273  64.159  1.00  0.00    -0.099 F  
HETATM   15  C   UNL     1     -10.187   5.087  65.971  1.00  0.00    -0.222 C  
HETATM   16  C   UNL     1      -9.757   6.471  66.402  1.00  0.00    -0.133 A  
ENDBRANCH   2   3
BRANCH   2  17
HETATM   17  O   UNL     1     -10.774  10.515  69.090  1.00  0.00    -0.201 OA 
BRANCH  17  18
HETATM   18  C   UNL     1     -12.035  11.128  68.786  1.00  0.00    -0.268 C  
HETATM   19  C   UNL     1     -12.093  13.694  70.097  1.00  0.00    -0.361 C  
HETATM   20  C   UNL     1     -12.082  12.338  70.792  1.00  0.00    -0.162 C  
HETATM   21  O   UNL     1     -12.770  11.365  69.996  1.00  0.00    -0.105 OA 
HETATM   22  N   UNL     1     -11.436  13.685  68.759  1.00  0.00    -0.285 NA 
HETATM   23  C   UNL     1     -11.991  12.511  67.979  1.00  0.00    -0.223 C  
BRANCH  22  24
HETATM   24  C   UNL     1     -11.771  14.965  68.072  1.00  0.00    -0.320 C  
BRANCH  24  25
HETATM   25  C   UNL     1     -10.662  15.981  68.214  1.00  0.00    -0.298 C  
HETATM   26  N   UNL     1     -10.932  17.299  68.226  1.00  0.00    -0.280 NA 
HETATM   27  N   UNL     1      -9.397  15.688  68.343  1.00  0.00    -0.192 NA 
HETATM   28  O   UNL     1      -9.546  19.125  68.517  1.00  0.00    -0.348 OA 
HETATM   29  C   UNL     1      -9.740  17.930  68.409  1.00  0.00    -0.340 C  
HETATM   30  N   UNL     1      -8.793  16.913  68.459  1.00  0.00    -0.243 NA 
HETATM   31  H   UNL     1      -8.961  14.766  68.356  1.00  0.00     0.000 HD 
ENDBRANCH  24  25
ENDBRANCH  22  24
BRANCH  23  32
HETATM   32  C   UNL     1     -11.449  12.411  66.550  1.00  0.00    -0.427 A  
HETATM   33  C   UNL     1     -10.399  11.944  63.980  1.00  0.00    -0.364 A  
HETATM   34  F   UNL     1      -9.914  11.686  62.760  1.00  0.00    -0.346 F  
HETATM   35  C   UNL     1     -12.270  12.504  65.417  1.00  0.00    -0.475 A  
HETATM   36  C   UNL     1      -9.561  11.873  65.082  1.00  0.00    -0.132 A  
HETATM   37  C   UNL     1     -11.746  12.267  64.137  1.00  0.00    -0.481 A  
HETATM   38  C   UNL     1     -10.081  12.110  66.358  1.00  0.00    -0.242 A  
ENDBRANCH  23  32
ENDBRANCH  17  18
ENDBRANCH   2  17
TORSDOF 6
ENDMDL
MODEL      100
REMARK 921   NORMALIZED FREE ENERGY PREDICTED BY IDOCK:   -6.35 KCAL/MOL
REMARK 922        TOTAL FREE ENERGY PREDICTED BY IDOCK:  -10.71 KCAL/MOL
REMARK 923 INTER-LIGAND FREE ENERGY PREDICTED BY IDOCK:   -9.31 KCAL/MOL
REMARK 924 INTRA-LIGAND FREE ENERGY PREDICTED BY IDOCK:   -1.40 KCAL/MOL
REMARK 927      BINDING AFFINITY PREDICTED BY RF-SCORE:    0.00 PKD
ROOT
HETATM    1  C   UNL     1     -10.546   8.642  66.652  1.00  0.00    -0.131 C  
HETATM    2  C   UNL     1      -9.927   8.811  68.047  1.00  0.00    -0.182 C  
ENDROOT
BRANCH   2   3
HETATM    3  C   UNL     1     -10.092   7.572  68.944  1.00  0.00    -0.195 A  
HETATM    4  C   UNL     1     -10.916   7.581  70.086  1.00  0.00    -0.267 A  
HETATM    5  C   UNL     1      -9.397   6.386  68.648  1.00  0.00    -0.124 A  
HETATM    6  F   UNL     1     -13.234   6.822  71.815  1.00  0.00    -0.388 F  
HETATM    7  F   UNL     1     -11.990   5.370  72.850  1.00  0.00    -0.352 F  
HETATM    8  C   UNL     1      -9.514   5.241  69.463  1.00  0.00    -0.192 A  
HETATM    9  C   UNL     1      -8.748   3.975  69.158  1.00  0.00    -0.087 C  
HETATM   10  C   UNL     1     -10.347   5.287  70.594  1.00  0.00    -0.324 A  
HETATM   11  F   UNL     1     -11.548   7.491  73.014  1.00  0.00    -0.337 F  
HETATM   12  F   UNL     1      -7.997   4.048  68.023  1.00  0.00    -0.081 F  
HETATM   13  F   UNL     1      -7.888   3.633  70.156  1.00  0.00    -0.047 F  
HETATM   14  F   UNL     1      -9.568   2.898  68.990  1.00  0.00    -0.226 F  
HETATM   15  C   UNL     1     -11.942   6.529  72.135  1.00  0.00    -0.290 C  
HETATM   16  C   UNL     1     -11.051   6.454  70.916  1.00  0.00    -0.354 A  
ENDBRANCH   2   3
BRANCH   2  17
HETATM   17  O   UNL     1     -10.253  10.085  68.657  1.00  0.00    -0.166 OA 
BRANCH  17  18
HETATM   18  C   UNL     1     -11.568  10.592  68.388  1.00  0.00    -0.194 C  
HETATM   19  C   UNL     1     -11.847  13.084  69.810  1.00  0.00    -0.311 C  
HETATM   20  C   UNL     1     -11.705  11.705  70.445  1.00  0.00    -0.199 C  
HETATM   21  O   UNL     1     -12.310  10.709  69.612  1.00  0.00    -0.277 OA 
HETATM   22  N   UNL     1     -11.205  13.192  68.469  1.00  0.00    -0.255 NA 
HETATM   23  C   UNL     1     -11.658  12.008  67.641  1.00  0.00    -0.321 C  
BRANCH  22  24
HETATM   24  C   UNL     1     -11.663  14.464  67.840  1.00  0.00    -0.356 C  
BRANCH  24  25
HETATM   25  C   UNL     1     -10.503  15.382  67.529  1.00  0.00    -0.275 C  
HETATM   26  N   UNL     1     -10.615  16.342  66.594  1.00  0.00    -0.287 NA 
HETATM   27  N   UNL     1      -9.340  15.336  68.121  1.00  0.00    -0.196 NA 
HETATM   28  O   UNL     1      -9.127  17.974  65.914  1.00  0.00    -0.513 OA 
HETATM   29  C   UNL     1      -9.428  17.008  66.589  1.00  0.00    -0.263 C  
HETATM   30  N   UNL     1      -8.640  16.357  67.530  1.00  0.00    -0.172 NA 
HETATM   31  H   UNL     1      -9.027  14.695  68.849  1.00  0.00     0.000 HD 
ENDBRANCH  24  25
ENDBRANCH  22  24
BRANCH  23  32
HETATM   32  C   UNL     1     -11.125  12.019  66.206  1.00  0.00    -0.363 A  
HETATM   33  C   UNL     1     -10.039  11.770  63.620  1.00  0.00    -0.418 A  
HETATM   34  F   UNL     1      -9.532  11.614  62.392  1.00  0.00    -0.312 F  
HETATM   35  C   UNL     1     -11.962  11.984  65.082  1.00  0.00    -0.230 A  
HETATM   36  C   UNL     1      -9.189  11.829  64.713  1.00  0.00     0.174 A  
HETATM   37  C   UNL     1     -11.420  11.856  63.795  1.00  0.00    -0.542 A  
HETATM   38  C   UNL     1      -9.727  11.957  65.997  1.00  0.00    -0.257 A  
ENDBRANCH  23  32
ENDBRANCH  17  18
ENDBRANCH   2  17
TORSDOF 6
ENDMDL
MODEL      101
REMARK 921   NORMALIZED FREE ENERGY PREDICTED BY IDOCK:   -6.34 KCAL/MOL
REMARK 922        TOTAL FREE ENERGY PREDICTED BY IDOCK:  -10.69 KCAL/MOL
REMARK 923 INTER-LIGAND FREE ENERGY PREDICTED BY IDOCK:   -8.30 KCAL/MOL
REMARK 924 INTRA-LIGAND FREE ENERGY PREDICTED BY IDOCK:   -2.39 KCAL/MOL
REMARK 927      BINDING AFFINITY PREDICTED BY RF-SCORE:    0.00 PKD
ROOT
HETATM    1  C   UNL     1      -5.186  12.524  67.665  1.00  0.00    -0.107 C  
HETATM    2  C   UNL     1      -6.646  12.979  67.806  1.00  0.00    -0.146 C  
ENDROOT
BRANCH   2   3
HETATM    3  C   UNL     1      -7.665  11.885  67.442  1.00  0.00    -0.158 A  
HETATM    4  C   UNL     1      -7.476  11.023  66.345  1.00  0.00    -0.131 A  
HETATM    5  C   UNL     1      -8.839  11.730  68.201  1.00  0.00    -0.169 A  
HETATM    6  F   UNL     1      -7.011   8.432  64.926  1.00  0.00    -0.070 F  
HETATM    7  F   UNL     1      -9.148   8.232  64.585  1.00  0.00     0.002 F  
HETATM    8  C   UNL     1      -9.799  10.749  67.879  1.00  0.00    -0.185 A  
HETATM    9  C   UNL     1     -11.072  10.600  68.681  1.00  0.00    -0.263 C  
HETATM   10  C   UNL     1      -9.576   9.906  66.778  1.00  0.00    -0.231 A  
HETATM   11  F   UNL     1      -8.045   9.852  63.645  1.00  0.00    -0.126 F  
HETATM   12  F   UNL     1     -11.159  11.457  69.737  1.00  0.00    -0.286 F  
HETATM   13  F   UNL     1     -12.187  10.813  67.931  1.00  0.00    -0.104 F  
HETATM   14  F   UNL     1     -11.212   9.350  69.207  1.00  0.00    -0.215 F  
HETATM   15  C   UNL     1      -8.164   9.148  64.804  1.00  0.00    -0.149 C  
HETATM   16  C   UNL     1      -8.417  10.036  66.002  1.00  0.00    -0.137 A  
ENDBRANCH   2   3
BRANCH   2  17
HETATM   17  O   UNL     1      -6.886  14.288  67.230  1.00  0.00    -0.234 OA 
BRANCH  17  18
HETATM   18  C   UNL     1      -7.748  15.155  67.979  1.00  0.00    -0.124 C  
HETATM   19  C   UNL     1      -7.582  17.779  66.798  1.00  0.00    -0.216 C  
HETATM   20  C   UNL     1      -6.454  17.055  67.525  1.00  0.00    -0.144 C  
HETATM   21  O   UNL     1      -6.986  16.223  68.563  1.00  0.00    -0.134 OA 
HETATM   22  N   UNL     1      -8.566  16.861  66.156  1.00  0.00    -0.457 NA 
HETATM   23  C   UNL     1      -8.969  15.824  67.184  1.00  0.00    -0.214 C  
BRANCH  22  24
HETATM   24  C   UNL     1      -9.751  17.668  65.748  1.00  0.00     0.108 C  
BRANCH  24  25
HETATM   25  C   UNL     1      -9.940  18.872  66.641  1.00  0.00    -0.373 C  
HETATM   26  N   UNL     1     -10.215  18.723  67.950  1.00  0.00    -0.376 NA 
HETATM   27  N   UNL     1      -9.849  20.113  66.246  1.00  0.00    -0.567 NA 
HETATM   28  O   UNL     1     -10.472  20.289  69.630  1.00  0.00    -0.071 OA 
HETATM   29  C   UNL     1     -10.282  19.979  68.469  1.00  0.00    -0.357 C  
HETATM   30  N   UNL     1     -10.072  20.832  67.392  1.00  0.00    -0.264 NA 
HETATM   31  H   UNL     1      -9.657  20.464  65.308  1.00  0.00     0.000 HD 
ENDBRANCH  24  25
ENDBRANCH  22  24
BRANCH  23  32
HETATM   32  C   UNL     1     -10.032  14.842  66.683  1.00  0.00    -0.272 A  
HETATM   33  C   UNL     1     -12.171  13.264  65.755  1.00  0.00    -0.456 A  
HETATM   34  F   UNL     1     -13.200  12.546  65.293  1.00  0.00    -0.272 F  
HETATM   35  C   UNL     1      -9.980  14.245  65.415  1.00  0.00    -0.334 A  
HETATM   36  C   UNL     1     -12.235  13.821  67.023  1.00  0.00    -0.381 A  
HETATM   37  C   UNL     1     -11.048  13.463  64.952  1.00  0.00    -0.348 A  
HETATM   38  C   UNL     1     -11.171  14.600  67.486  1.00  0.00    -0.343 A  
ENDBRANCH  23  32
ENDBRANCH  17  18
ENDBRANCH   2  17
TORSDOF 6
ENDMDL
MODEL      102
REMARK 921   NORMALIZED FREE ENERGY PREDICTED BY IDOCK:   -6.32 KCAL/MOL
REMARK 922        TOTAL FREE ENERGY PREDICTED BY IDOCK:  -10.67 KCAL/MOL
REMARK 923 INTER-LIGAND FREE ENERGY PREDICTED BY IDOCK:   -8.20 KCAL/MOL
REMARK 924 INTRA-LIGAND FREE ENERGY PREDICTED BY IDOCK:   -2.47 KCAL/MOL
REMARK 927      BINDING AFFINITY PREDICTED BY RF-SCORE:    0.00 PKD
ROOT
HETATM    1  C   UNL     1      -7.397   9.700  70.272  1.00  0.00    -0.153 C  
HETATM    2  C   UNL     1      -8.076   9.840  68.901  1.00  0.00    -0.101 C  
ENDROOT
BRANCH   2   3
HETATM    3  C   UNL     1      -9.446  10.534  68.965  1.00  0.00    -0.211 A  
HETATM    4  C   UNL     1      -9.825  11.528  68.042  1.00  0.00    -0.192 A  
HETATM    5  C   UNL     1     -10.364  10.198  69.977  1.00  0.00    -0.301 A  
HETATM    6  F   UNL     1     -11.395  12.771  65.822  1.00  0.00    -0.308 F  
HETATM    7  F   UNL     1     -12.651  13.788  67.276  1.00  0.00    -0.332 F  
HETATM    8  C   UNL     1     -11.620  10.832  70.071  1.00  0.00    -0.417 A  
HETATM    9  C   UNL     1     -12.595  10.488  71.173  1.00  0.00    -0.417 C  
HETATM   10  C   UNL     1     -11.963  11.819  69.131  1.00  0.00    -0.356 A  
HETATM   11  F   UNL     1     -10.542  14.290  67.123  1.00  0.00    -0.269 F  
HETATM   12  F   UNL     1     -12.158   9.500  72.004  1.00  0.00    -0.424 F  
HETATM   13  F   UNL     1     -12.876  11.553  71.971  1.00  0.00    -0.495 F  
HETATM   14  F   UNL     1     -13.796  10.060  70.690  1.00  0.00    -0.343 F  
HETATM   15  C   UNL     1     -11.414  13.245  67.099  1.00  0.00    -0.341 C  
HETATM   16  C   UNL     1     -11.071  12.176  68.113  1.00  0.00    -0.295 A  
ENDBRANCH   2   3
BRANCH   2  17
HETATM   17  O   UNL     1      -8.017   8.621  68.117  1.00  0.00    -0.105 OA 
BRANCH  17  18
HETATM   18  C   UNL     1      -9.265   8.156  67.584  1.00  0.00    -0.137 C  
HETATM   19  C   UNL     1      -8.750   5.682  66.197  1.00  0.00    -0.136 C  
HETATM   20  C   UNL     1      -8.242   7.059  65.785  1.00  0.00    -0.132 C  
HETATM   21  O   UNL     1      -9.188   8.070  66.153  1.00  0.00    -0.186 OA 
HETATM   22  N   UNL     1      -8.982   5.546  67.664  1.00  0.00    -0.109 NA 
HETATM   23  C   UNL     1      -9.795   6.740  68.117  1.00  0.00    -0.137 C  
BRANCH  22  24
HETATM   24  C   UNL     1      -9.745   4.286  67.895  1.00  0.00    -0.114 C  
BRANCH  24  25
HETATM   25  C   UNL     1      -9.044   3.383  68.883  1.00  0.00    -0.144 C  
HETATM   26  N   UNL     1      -9.550   3.183  70.114  1.00  0.00    -0.147 NA 
HETATM   27  N   UNL     1      -7.937   2.734  68.642  1.00  0.00    -0.053 NA 
HETATM   28  O   UNL     1      -8.836   1.824  71.841  1.00  0.00    -0.065 OA 
HETATM   29  C   UNL     1      -8.717   2.300  70.728  1.00  0.00    -0.060 C  
HETATM   30  N   UNL     1      -7.708   2.047  69.807  1.00  0.00    -0.043 NA 
HETATM   31  H   UNL     1      -7.376   2.737  67.790  1.00  0.00     0.000 HD 
ENDBRANCH  24  25
ENDBRANCH  22  24
BRANCH  23  32
HETATM   32  C   UNL     1     -10.166   6.704  69.602  1.00  0.00    -0.213 A  
HETATM   33  C   UNL     1     -10.956   6.368  72.284  1.00  0.00    -0.254 A  
HETATM   34  F   UNL     1     -11.323   6.171  73.555  1.00  0.00    -0.177 F  
HETATM   35  C   UNL     1      -9.209   6.643  70.625  1.00  0.00    -0.159 A  
HETATM   36  C   UNL     1     -11.923   6.452  71.294  1.00  0.00    -0.288 A  
HETATM   37  C   UNL     1      -9.604   6.472  71.960  1.00  0.00    -0.154 A  
HETATM   38  C   UNL     1     -11.531   6.624  69.963  1.00  0.00    -0.434 A  
ENDBRANCH  23  32
ENDBRANCH  17  18
ENDBRANCH   2  17
TORSDOF 6
ENDMDL
MODEL      103
REMARK 921   NORMALIZED FREE ENERGY PREDICTED BY IDOCK:   -6.28 KCAL/MOL
REMARK 922        TOTAL FREE ENERGY PREDICTED BY IDOCK:  -10.62 KCAL/MOL
REMARK 923 INTER-LIGAND FREE ENERGY PREDICTED BY IDOCK:   -7.79 KCAL/MOL
REMARK 924 INTRA-LIGAND FREE ENERGY PREDICTED BY IDOCK:   -2.82 KCAL/MOL
REMARK 927      BINDING AFFINITY PREDICTED BY RF-SCORE:    0.00 PKD
ROOT
HETATM    1  C   UNL     1      -7.765   8.239  72.144  1.00  0.00    -0.162 C  
HETATM    2  C   UNL     1      -8.208   8.505  70.698  1.00  0.00    -0.123 C  
ENDROOT
BRANCH   2   3
HETATM    3  C   UNL     1      -9.592   9.168  70.595  1.00  0.00    -0.312 A  
HETATM    4  C   UNL     1     -10.725   8.636  71.241  1.00  0.00    -0.322 A  
HETATM    5  C   UNL     1      -9.765  10.332  69.825  1.00  0.00    -0.183 A  
HETATM    6  F   UNL     1     -12.993   8.537  73.187  1.00  0.00    -0.239 F  
HETATM    7  F   UNL     1     -14.343   9.283  71.656  1.00  0.00    -0.323 F  
HETATM    8  C   UNL     1     -11.027  10.949  69.697  1.00  0.00    -0.311 A  
HETATM    9  C   UNL     1     -11.216  12.186  68.849  1.00  0.00    -0.269 C  
HETATM   10  C   UNL     1     -12.134  10.390  70.358  1.00  0.00    -0.402 A  
HETATM   11  F   UNL     1     -13.416   7.330  71.429  1.00  0.00    -0.397 F  
HETATM   12  F   UNL     1     -10.064  12.645  68.283  1.00  0.00    -0.208 F  
HETATM   13  F   UNL     1     -12.085  11.985  67.822  1.00  0.00    -0.378 F  
HETATM   14  F   UNL     1     -11.720  13.233  69.562  1.00  0.00    -0.308 F  
HETATM   15  C   UNL     1     -13.175   8.606  71.839  1.00  0.00    -0.375 C  
HETATM   16  C   UNL     1     -11.994   9.231  71.131  1.00  0.00    -0.394 A  
ENDBRANCH   2   3
BRANCH   2  17
HETATM   17  O   UNL     1      -7.978   7.374  69.821  1.00  0.00    -0.119 OA 
BRANCH  17  18
HETATM   18  C   UNL     1      -6.952   7.542  68.833  1.00  0.00    -0.077 C  
HETATM   19  C   UNL     1      -6.824   5.113  67.288  1.00  0.00    -0.060 C  
HETATM   20  C   UNL     1      -6.458   5.254  68.761  1.00  0.00    -0.039 C  
HETATM   21  O   UNL     1      -5.923   6.558  69.018  1.00  0.00    -0.020 OA 
HETATM   22  N   UNL     1      -7.845   6.098  66.830  1.00  0.00    -0.103 NA 
HETATM   23  C   UNL     1      -7.408   7.470  67.298  1.00  0.00    -0.098 C  
BRANCH  22  24
HETATM   24  C   UNL     1      -7.893   6.054  65.340  1.00  0.00    -0.104 C  
BRANCH  24  25
HETATM   25  C   UNL     1      -8.803   4.954  64.844  1.00  0.00    -0.152 C  
HETATM   26  N   UNL     1      -8.322   3.947  64.093  1.00  0.00    -0.091 NA 
HETATM   27  N   UNL     1     -10.082   4.877  65.095  1.00  0.00    -0.397 NA 
HETATM   28  O   UNL     1      -9.357   2.064  63.243  1.00  0.00    -0.091 OA 
HETATM   29  C   UNL     1      -9.372   3.116  63.853  1.00  0.00    -0.114 C  
HETATM   30  N   UNL     1     -10.464   3.720  64.466  1.00  0.00    -0.212 NA 
HETATM   31  H   UNL     1     -10.659   5.524  65.632  1.00  0.00     0.000 HD 
ENDBRANCH  24  25
ENDBRANCH  22  24
BRANCH  23  32
HETATM   32  C   UNL     1      -8.335   8.601  66.843  1.00  0.00    -0.108 A  
HETATM   33  C   UNL     1      -9.927  10.643  65.737  1.00  0.00    -0.257 A  
HETATM   34  F   UNL     1     -10.685  11.592  65.179  1.00  0.00    -0.308 F  
HETATM   35  C   UNL     1      -9.729   8.464  66.784  1.00  0.00    -0.309 A  
HETATM   36  C   UNL     1      -8.553  10.813  65.809  1.00  0.00    -0.187 A  
HETATM   37  C   UNL     1     -10.521   9.481  66.229  1.00  0.00    -0.137 A  
HETATM   38  C   UNL     1      -7.762   9.801  66.362  1.00  0.00    -0.102 A  
ENDBRANCH  23  32
ENDBRANCH  17  18
ENDBRANCH   2  17
TORSDOF 6
ENDMDL
MODEL      104
REMARK 921   NORMALIZED FREE ENERGY PREDICTED BY IDOCK:   -6.26 KCAL/MOL
REMARK 922        TOTAL FREE ENERGY PREDICTED BY IDOCK:  -10.59 KCAL/MOL
REMARK 923 INTER-LIGAND FREE ENERGY PREDICTED BY IDOCK:   -8.95 KCAL/MOL
REMARK 924 INTRA-LIGAND FREE ENERGY PREDICTED BY IDOCK:   -1.64 KCAL/MOL
REMARK 927      BINDING AFFINITY PREDICTED BY RF-SCORE:    0.00 PKD
ROOT
HETATM    1  C   UNL     1     -13.893   8.997  71.761  1.00  0.00    -0.453 C  
HETATM    2  C   UNL     1     -12.425   9.444  71.697  1.00  0.00    -0.378 C  
ENDROOT
BRANCH   2   3
HETATM    3  C   UNL     1     -12.242  10.864  71.135  1.00  0.00    -0.441 A  
HETATM    4  C   UNL     1     -12.688  12.005  71.828  1.00  0.00    -0.273 A  
HETATM    5  C   UNL     1     -11.627  11.057  69.884  1.00  0.00    -0.416 A  
HETATM    6  F   UNL     1     -12.460  14.589  73.316  1.00  0.00    -0.451 F  
HETATM    7  F   UNL     1     -12.836  15.685  71.476  1.00  0.00    -0.388 F  
HETATM    8  C   UNL     1     -11.463  12.346  69.336  1.00  0.00    -0.336 A  
HETATM    9  C   UNL     1     -10.825  12.549  67.981  1.00  0.00    -0.225 C  
HETATM   10  C   UNL     1     -11.920  13.462  70.057  1.00  0.00    -0.407 A  
HETATM   11  F   UNL     1     -14.388  14.423  72.325  1.00  0.00    -0.517 F  
HETATM   12  F   UNL     1     -10.401  11.395  67.395  1.00  0.00    -0.204 F  
HETATM   13  F   UNL     1     -11.671  13.134  67.090  1.00  0.00    -0.328 F  
HETATM   14  F   UNL     1      -9.730  13.359  68.039  1.00  0.00    -0.195 F  
HETATM   15  C   UNL     1     -13.049  14.488  72.091  1.00  0.00    -0.356 C  
HETATM   16  C   UNL     1     -12.537  13.302  71.305  1.00  0.00    -0.398 A  
ENDBRANCH   2   3
BRANCH   2  17
HETATM   17  O   UNL     1     -11.550   8.426  71.149  1.00  0.00    -0.272 OA 
BRANCH  17  18
HETATM   18  C   UNL     1     -10.218   8.388  71.682  1.00  0.00    -0.241 C  
HETATM   19  C   UNL     1      -9.803   5.766  72.804  1.00  0.00    -0.160 C  
HETATM   20  C   UNL     1     -10.776   6.816  73.327  1.00  0.00    -0.302 C  
HETATM   21  O   UNL     1     -10.260   8.133  73.094  1.00  0.00    -0.293 OA 
HETATM   22  N   UNL     1      -9.537   5.875  71.340  1.00  0.00    -0.163 NA 
HETATM   23  C   UNL     1      -9.211   7.322  71.036  1.00  0.00    -0.154 C  
BRANCH  22  24
HETATM   24  C   UNL     1      -8.369   5.006  71.019  1.00  0.00    -0.118 C  
BRANCH  24  25
HETATM   25  C   UNL     1      -8.774   3.818  70.177  1.00  0.00    -0.069 C  
HETATM   26  N   UNL     1      -8.450   3.755  68.872  1.00  0.00    -0.076 NA 
HETATM   27  N   UNL     1      -9.436   2.784  70.619  1.00  0.00    -0.151 NA 
HETATM   28  O   UNL     1      -8.797   2.093  67.305  1.00  0.00    -0.114 OA 
HETATM   29  C   UNL     1      -8.916   2.558  68.423  1.00  0.00    -0.136 C  
HETATM   30  N   UNL     1      -9.545   1.976  69.517  1.00  0.00    -0.037 NA 
HETATM   31  H   UNL     1      -9.788   2.616  71.562  1.00  0.00     0.000 HD 
ENDBRANCH  24  25
ENDBRANCH  22  24
BRANCH  23  32
HETATM   32  C   UNL     1      -8.850   7.577  69.569  1.00  0.00    -0.137 A  
HETATM   33  C   UNL     1      -8.395   8.251  66.874  1.00  0.00    -0.114 A  
HETATM   34  F   UNL     1      -8.187   8.609  65.602  1.00  0.00    -0.100 F  
HETATM   35  C   UNL     1      -7.630   8.142  69.173  1.00  0.00    -0.096 A  
HETATM   36  C   UNL     1      -9.599   7.668  67.237  1.00  0.00    -0.201 A  
HETATM   37  C   UNL     1      -7.407   8.482  67.830  1.00  0.00    -0.093 A  
HETATM   38  C   UNL     1      -9.824   7.328  68.574  1.00  0.00    -0.159 A  
ENDBRANCH  23  32
ENDBRANCH  17  18
ENDBRANCH   2  17
TORSDOF 6
ENDMDL
MODEL      105
REMARK 921   NORMALIZED FREE ENERGY PREDICTED BY IDOCK:   -6.26 KCAL/MOL
REMARK 922        TOTAL FREE ENERGY PREDICTED BY IDOCK:  -10.59 KCAL/MOL
REMARK 923 INTER-LIGAND FREE ENERGY PREDICTED BY IDOCK:  -10.73 KCAL/MOL
REMARK 924 INTRA-LIGAND FREE ENERGY PREDICTED BY IDOCK:    0.14 KCAL/MOL
REMARK 927      BINDING AFFINITY PREDICTED BY RF-SCORE:    0.00 PKD
ROOT
HETATM    1  C   UNL     1     -11.836  12.056  65.262  1.00  0.00    -0.269 C  
HETATM    2  C   UNL     1     -10.920  12.114  66.493  1.00  0.00    -0.284 C  
ENDROOT
BRANCH   2   3
HETATM    3  C   UNL     1     -10.704  10.744  67.159  1.00  0.00    -0.324 A  
HETATM    4  C   UNL     1     -11.111  10.484  68.482  1.00  0.00    -0.329 A  
HETATM    5  C   UNL     1     -10.069   9.705  66.455  1.00  0.00    -0.317 A  
HETATM    6  F   UNL     1     -12.686   9.207  70.680  1.00  0.00    -0.176 F  
HETATM    7  F   UNL     1     -11.083   7.774  70.999  1.00  0.00    -0.241 F  
HETATM    8  C   UNL     1      -9.842   8.446  67.047  1.00  0.00    -0.296 A  
HETATM    9  C   UNL     1      -9.137   7.339  66.298  1.00  0.00    -0.149 C  
HETATM   10  C   UNL     1     -10.262   8.224  68.369  1.00  0.00    -0.242 A  
HETATM   11  F   UNL     1     -10.749   9.884  71.397  1.00  0.00    -0.379 F  
HETATM   12  F   UNL     1      -8.802   7.669  65.018  1.00  0.00    -0.078 F  
HETATM   13  F   UNL     1      -7.979   6.956  66.902  1.00  0.00    -0.101 F  
HETATM   14  F   UNL     1      -9.896   6.211  66.202  1.00  0.00    -0.185 F  
HETATM   15  C   UNL     1     -11.345   9.024  70.526  1.00  0.00    -0.243 C  
HETATM   16  C   UNL     1     -10.896   9.238  69.097  1.00  0.00    -0.154 A  
ENDBRANCH   2   3
BRANCH   2  17
HETATM   17  O   UNL     1     -11.243  13.210  67.385  1.00  0.00    -0.266 OA 
BRANCH  17  18
HETATM   18  C   UNL     1     -10.127  13.890  67.975  1.00  0.00    -0.244 C  
HETATM   19  C   UNL     1      -9.706  16.325  66.491  1.00  0.00    -0.263 C  
HETATM   20  C   UNL     1      -9.509  14.910  65.959  1.00  0.00    -0.281 C  
HETATM   21  O   UNL     1      -9.074  14.039  67.010  1.00  0.00    -0.227 OA 
HETATM   22  N   UNL     1     -10.722  16.417  67.578  1.00  0.00    -0.320 NA 
HETATM   23  C   UNL     1     -10.410  15.341  68.596  1.00  0.00    -0.232 C  
BRANCH  22  24
HETATM   24  C   UNL     1     -10.606  17.766  68.203  1.00  0.00    -0.344 C  
BRANCH  24  25
HETATM   25  C   UNL     1      -9.945  18.757  67.273  1.00  0.00    -0.331 C  
HETATM   26  N   UNL     1      -8.637  19.046  67.389  1.00  0.00    -0.275 NA 
HETATM   27  N   UNL     1     -10.554  19.388  66.305  1.00  0.00    -0.473 NA 
HETATM   28  O   UNL     1      -7.269  20.408  66.118  1.00  0.00    -0.265 OA 
HETATM   29  C   UNL     1      -8.351  19.925  66.390  1.00  0.00    -0.334 C  
HETATM   30  N   UNL     1      -9.560  20.143  65.739  1.00  0.00    -0.226 NA 
HETATM   31  H   UNL     1     -11.536  19.332  66.035  1.00  0.00     0.000 HD 
ENDBRANCH  24  25
ENDBRANCH  22  24
BRANCH  23  32
HETATM   32  C   UNL     1     -11.340  15.355  69.812  1.00  0.00    -0.317 A  
HETATM   33  C   UNL     1     -12.921  15.132  72.131  1.00  0.00    -0.353 A  
HETATM   34  F   UNL     1     -13.641  15.010  73.252  1.00  0.00    -0.521 F  
HETATM   35  C   UNL     1     -11.233  16.301  70.842  1.00  0.00    -0.267 A  
HETATM   36  C   UNL     1     -13.065  14.199  71.116  1.00  0.00    -0.398 A  
HETATM   37  C   UNL     1     -12.018  16.186  71.998  1.00  0.00    -0.607 A  
HETATM   38  C   UNL     1     -12.284  14.312  69.962  1.00  0.00    -0.417 A  
ENDBRANCH  23  32
ENDBRANCH  17  18
ENDBRANCH   2  17
TORSDOF 6
ENDMDL
MODEL      106
REMARK 921   NORMALIZED FREE ENERGY PREDICTED BY IDOCK:   -6.25 KCAL/MOL
REMARK 922        TOTAL FREE ENERGY PREDICTED BY IDOCK:  -10.57 KCAL/MOL
REMARK 923 INTER-LIGAND FREE ENERGY PREDICTED BY IDOCK:   -9.23 KCAL/MOL
REMARK 924 INTRA-LIGAND FREE ENERGY PREDICTED BY IDOCK:   -1.34 KCAL/MOL
REMARK 927      BINDING AFFINITY PREDICTED BY RF-SCORE:    0.00 PKD
ROOT
HETATM    1  C   UNL     1      -7.469   8.995  65.588  1.00  0.00    -0.086 C  
HETATM    2  C   UNL     1      -8.253   9.370  66.853  1.00  0.00    -0.116 C  
ENDROOT
BRANCH   2   3
HETATM    3  C   UNL     1      -9.351  10.419  66.604  1.00  0.00    -0.185 A  
HETATM    4  C   UNL     1      -9.894  11.194  67.647  1.00  0.00    -0.191 A  
HETATM    5  C   UNL     1      -9.858  10.619  65.308  1.00  0.00    -0.334 A  
HETATM    6  F   UNL     1     -10.502  13.669  69.210  1.00  0.00    -0.192 F  
HETATM    7  F   UNL     1     -12.437  13.816  68.230  1.00  0.00    -0.351 F  
HETATM    8  C   UNL     1     -10.877  11.560  65.054  1.00  0.00    -0.336 A  
HETATM    9  C   UNL     1     -11.438  11.757  63.664  1.00  0.00    -0.431 C  
HETATM   10  C   UNL     1     -11.394  12.316  66.119  1.00  0.00    -0.402 A  
HETATM   11  F   UNL     1     -12.010  12.140  69.547  1.00  0.00    -0.323 F  
HETATM   12  F   UNL     1     -10.838  10.986  62.715  1.00  0.00    -0.153 F  
HETATM   13  F   UNL     1     -12.767  11.472  63.595  1.00  0.00    -0.505 F  
HETATM   14  F   UNL     1     -11.312  13.043  63.230  1.00  0.00    -0.469 F  
HETATM   15  C   UNL     1     -11.463  12.932  68.585  1.00  0.00    -0.308 C  
HETATM   16  C   UNL     1     -10.911  12.139  67.422  1.00  0.00    -0.286 A  
ENDBRANCH   2   3
BRANCH   2  17
HETATM   17  O   UNL     1      -7.394   9.608  67.997  1.00  0.00    -0.081 OA 
BRANCH  17  18
HETATM   18  C   UNL     1      -7.022   8.449  68.756  1.00  0.00    -0.063 C  
HETATM   19  C   UNL     1      -8.160   8.730  71.389  1.00  0.00    -0.142 C  
HETATM   20  C   UNL     1      -7.062   9.604  70.794  1.00  0.00    -0.068 C  
HETATM   21  O   UNL     1      -6.246   8.838  69.900  1.00  0.00    -0.034 OA 
HETATM   22  N   UNL     1      -9.072   8.139  70.368  1.00  0.00    -0.149 NA 
HETATM   23  C   UNL     1      -8.215   7.518  69.286  1.00  0.00    -0.130 C  
BRANCH  22  24
HETATM   24  C   UNL     1      -9.895   7.092  71.037  1.00  0.00    -0.180 C  
BRANCH  24  25
HETATM   25  C   UNL     1     -11.289   7.589  71.343  1.00  0.00    -0.258 C  
HETATM   26  N   UNL     1     -11.507   8.876  71.670  1.00  0.00    -0.313 NA 
HETATM   27  N   UNL     1     -12.366   6.851  71.310  1.00  0.00    -0.375 NA 
HETATM   28  O   UNL     1     -13.469  10.017  72.102  1.00  0.00    -0.428 OA 
HETATM   29  C   UNL     1     -12.851   9.003  71.838  1.00  0.00    -0.387 C  
HETATM   30  N   UNL     1     -13.368   7.730  71.631  1.00  0.00    -0.346 NA 
HETATM   31  H   UNL     1     -12.443   5.856  71.096  1.00  0.00     0.000 HD 
ENDBRANCH  24  25
ENDBRANCH  22  24
BRANCH  23  32
HETATM   32  C   UNL     1      -9.020   6.811  68.192  1.00  0.00    -0.118 A  
HETATM   33  C   UNL     1     -10.491   5.272  66.350  1.00  0.00    -0.292 A  
HETATM   34  F   UNL     1     -11.206   4.521  65.504  1.00  0.00    -0.320 F  
HETATM   35  C   UNL     1     -10.359   7.122  67.911  1.00  0.00    -0.248 A  
HETATM   36  C   UNL     1      -9.162   4.961  66.590  1.00  0.00    -0.126 A  
HETATM   37  C   UNL     1     -11.091   6.352  66.996  1.00  0.00    -0.405 A  
HETATM   38  C   UNL     1      -8.429   5.728  67.501  1.00  0.00    -0.103 A  
ENDBRANCH  23  32
ENDBRANCH  17  18
ENDBRANCH   2  17
TORSDOF 6
ENDMDL
MODEL      107
REMARK 921   NORMALIZED FREE ENERGY PREDICTED BY IDOCK:   -6.25 KCAL/MOL
REMARK 922        TOTAL FREE ENERGY PREDICTED BY IDOCK:  -10.57 KCAL/MOL
REMARK 923 INTER-LIGAND FREE ENERGY PREDICTED BY IDOCK:   -9.57 KCAL/MOL
REMARK 924 INTRA-LIGAND FREE ENERGY PREDICTED BY IDOCK:   -1.00 KCAL/MOL
REMARK 927      BINDING AFFINITY PREDICTED BY RF-SCORE:    0.00 PKD
ROOT
HETATM    1  C   UNL     1      -6.535   8.916  69.562  1.00  0.00    -0.043 C  
HETATM    2  C   UNL     1      -8.066   8.802  69.555  1.00  0.00    -0.105 C  
ENDROOT
BRANCH   2   3
HETATM    3  C   UNL     1      -8.571   7.351  69.638  1.00  0.00    -0.137 A  
HETATM    4  C   UNL     1      -8.951   6.625  68.493  1.00  0.00    -0.120 A  
HETATM    5  C   UNL     1      -8.684   6.711  70.886  1.00  0.00    -0.138 A  
HETATM    6  F   UNL     1      -8.804   4.474  66.421  1.00  0.00    -0.112 F  
HETATM    7  F   UNL     1     -10.275   3.311  67.521  1.00  0.00     0.102 F  
HETATM    8  C   UNL     1      -9.161   5.389  70.993  1.00  0.00    -0.179 A  
HETATM    9  C   UNL     1      -9.305   4.710  72.336  1.00  0.00    -0.130 C  
HETATM   10  C   UNL     1      -9.530   4.695  69.828  1.00  0.00    -0.238 A  
HETATM   11  F   UNL     1     -10.836   5.216  66.637  1.00  0.00    -0.314 F  
HETATM   12  F   UNL     1      -8.892   5.476  73.385  1.00  0.00    -0.118 F  
HETATM   13  F   UNL     1     -10.592   4.363  72.609  1.00  0.00    -0.233 F  
HETATM   14  F   UNL     1      -8.585   3.555  72.415  1.00  0.00    -0.080 F  
HETATM   15  C   UNL     1      -9.834   4.582  67.307  1.00  0.00    -0.175 C  
HETATM   16  C   UNL     1      -9.430   5.305  68.572  1.00  0.00    -0.166 A  
ENDBRANCH   2   3
BRANCH   2  17
HETATM   17  O   UNL     1      -8.688   9.634  68.544  1.00  0.00    -0.118 OA 
BRANCH  17  18
HETATM   18  C   UNL     1      -8.840  11.021  68.877  1.00  0.00    -0.113 C  
HETATM   19  C   UNL     1      -9.773  12.387  66.517  1.00  0.00    -0.240 C  
HETATM   20  C   UNL     1      -8.406  11.734  66.689  1.00  0.00    -0.136 C  
HETATM   21  O   UNL     1      -7.980  11.823  68.054  1.00  0.00    -0.125 OA 
HETATM   22  N   UNL     1     -10.842  11.761  67.347  1.00  0.00    -0.238 NA 
HETATM   23  C   UNL     1     -10.316  11.635  68.762  1.00  0.00    -0.195 C  
BRANCH  22  24
HETATM   24  C   UNL     1     -12.032  12.658  67.319  1.00  0.00    -0.253 C  
BRANCH  24  25
HETATM   25  C   UNL     1     -12.265  13.231  65.940  1.00  0.00    -0.441 C  
HETATM   26  N   UNL     1     -12.017  14.528  65.680  1.00  0.00    -0.342 NA 
HETATM   27  N   UNL     1     -12.700  12.549  64.915  1.00  0.00    -0.754 NA 
HETATM   28  O   UNL     1     -12.153  15.731  63.712  1.00  0.00    -0.648 OA 
HETATM   29  C   UNL     1     -12.285  14.709  64.358  1.00  0.00    -0.452 C  
HETATM   30  N   UNL     1     -12.728  13.473  63.902  1.00  0.00    -0.622 NA 
HETATM   31  H   UNL     1     -12.957  11.563  64.877  1.00  0.00     0.000 HD 
ENDBRANCH  24  25
ENDBRANCH  22  24
BRANCH  23  32
HETATM   32  C   UNL     1     -11.336  11.062  69.749  1.00  0.00    -0.366 A  
HETATM   33  C   UNL     1     -12.983   9.919  71.725  1.00  0.00    -0.449 A  
HETATM   34  F   UNL     1     -13.740   9.386  72.692  1.00  0.00    -0.469 F  
HETATM   35  C   UNL     1     -12.175  11.868  70.531  1.00  0.00    -0.426 A  
HETATM   36  C   UNL     1     -12.184   9.097  70.947  1.00  0.00    -0.239 A  
HETATM   37  C   UNL     1     -12.992  11.298  71.519  1.00  0.00    -0.520 A  
HETATM   38  C   UNL     1     -11.369   9.664  69.962  1.00  0.00    -0.239 A  
ENDBRANCH  23  32
ENDBRANCH  17  18
ENDBRANCH   2  17
TORSDOF 6
ENDMDL
MODEL      108
REMARK 921   NORMALIZED FREE ENERGY PREDICTED BY IDOCK:   -6.23 KCAL/MOL
REMARK 922        TOTAL FREE ENERGY PREDICTED BY IDOCK:  -10.55 KCAL/MOL
REMARK 923 INTER-LIGAND FREE ENERGY PREDICTED BY IDOCK:   -8.50 KCAL/MOL
REMARK 924 INTRA-LIGAND FREE ENERGY PREDICTED BY IDOCK:   -2.05 KCAL/MOL
REMARK 927      BINDING AFFINITY PREDICTED BY RF-SCORE:    0.00 PKD
ROOT
HETATM    1  C   UNL     1      -7.604   9.085  71.006  1.00  0.00    -0.138 C  
HETATM    2  C   UNL     1      -8.263   9.160  69.621  1.00  0.00    -0.116 C  
ENDROOT
BRANCH   2   3
HETATM    3  C   UNL     1      -9.573   9.967  69.610  1.00  0.00    -0.249 A  
HETATM    4  C   UNL     1      -9.765  11.068  68.754  1.00  0.00    -0.199 A  
HETATM    5  C   UNL     1     -10.622   9.626  70.484  1.00  0.00    -0.369 A  
HETATM    6  F   UNL     1     -10.974  12.638  66.514  1.00  0.00    -0.264 F  
HETATM    7  F   UNL     1     -12.299  13.632  67.923  1.00  0.00    -0.368 F  
HETATM    8  C   UNL     1     -11.826  10.360  70.508  1.00  0.00    -0.430 A  
HETATM    9  C   UNL     1     -12.942  10.009  71.465  1.00  0.00    -0.434 C  
HETATM   10  C   UNL     1     -11.982  11.452  69.638  1.00  0.00    -0.416 A  
HETATM   11  F   UNL     1     -10.152  13.953  68.039  1.00  0.00    -0.220 F  
HETATM   12  F   UNL     1     -12.681   8.916  72.236  1.00  0.00    -0.374 F  
HETATM   13  F   UNL     1     -13.225  11.020  72.329  1.00  0.00    -0.580 F  
HETATM   14  F   UNL     1     -14.112   9.735  70.820  1.00  0.00    -0.290 F  
HETATM   15  C   UNL     1     -11.098  12.997  67.823  1.00  0.00    -0.262 C  
HETATM   16  C   UNL     1     -10.956  11.817  68.758  1.00  0.00    -0.281 A  
ENDBRANCH   2   3
BRANCH   2  17
HETATM   17  O   UNL     1      -8.302   7.877  68.946  1.00  0.00    -0.125 OA 
BRANCH  17  18
HETATM   18  C   UNL     1      -7.169   7.567  68.122  1.00  0.00    -0.090 C  
HETATM   19  C   UNL     1      -7.460   4.840  67.234  1.00  0.00    -0.082 C  
HETATM   20  C   UNL     1      -7.225   5.290  68.671  1.00  0.00    -0.062 C  
HETATM   21  O   UNL     1      -6.427   6.480  68.696  1.00  0.00    -0.045 OA 
HETATM   22  N   UNL     1      -8.168   5.854  66.399  1.00  0.00    -0.110 NA 
HETATM   23  C   UNL     1      -7.469   7.183  66.595  1.00  0.00    -0.088 C  
BRANCH  22  24
HETATM   24  C   UNL     1      -8.071   5.427  64.975  1.00  0.00    -0.120 C  
BRANCH  24  25
HETATM   25  C   UNL     1      -9.320   4.704  64.524  1.00  0.00    -0.066 C  
HETATM   26  N   UNL     1      -9.338   4.014  63.368  1.00  0.00    -0.135 NA 
HETATM   27  N   UNL     1     -10.443   4.674  65.188  1.00  0.00    -0.476 NA 
HETATM   28  O   UNL     1     -10.993   2.722  62.404  1.00  0.00    -0.167 OA 
HETATM   29  C   UNL     1     -10.576   3.456  63.279  1.00  0.00    -0.243 C  
HETATM   30  N   UNL     1     -11.257   3.894  64.409  1.00  0.00    -0.220 NA 
HETATM   31  H   UNL     1     -10.662   5.124  66.077  1.00  0.00     0.000 HD 
ENDBRANCH  24  25
ENDBRANCH  22  24
BRANCH  23  32
HETATM   32  C   UNL     1      -8.051   8.316  65.744  1.00  0.00    -0.109 A  
HETATM   33  C   UNL     1      -9.140  10.554  64.429  1.00  0.00    -0.225 A  
HETATM   34  F   UNL     1      -9.638  11.641  63.828  1.00  0.00    -0.250 F  
HETATM   35  C   UNL     1      -7.294   9.026  64.801  1.00  0.00    -0.100 A  
HETATM   36  C   UNL     1      -9.918   9.853  65.337  1.00  0.00    -0.349 A  
HETATM   37  C   UNL     1      -7.837  10.143  64.150  1.00  0.00    -0.145 A  
HETATM   38  C   UNL     1      -9.379   8.738  65.987  1.00  0.00    -0.296 A  
ENDBRANCH  23  32
ENDBRANCH  17  18
ENDBRANCH   2  17
TORSDOF 6
ENDMDL
MODEL      109
REMARK 921   NORMALIZED FREE ENERGY PREDICTED BY IDOCK:   -6.22 KCAL/MOL
REMARK 922        TOTAL FREE ENERGY PREDICTED BY IDOCK:  -10.53 KCAL/MOL
REMARK 923 INTER-LIGAND FREE ENERGY PREDICTED BY IDOCK:   -7.96 KCAL/MOL
REMARK 924 INTRA-LIGAND FREE ENERGY PREDICTED BY IDOCK:   -2.57 KCAL/MOL
REMARK 927      BINDING AFFINITY PREDICTED BY RF-SCORE:    0.00 PKD
ROOT
HETATM    1  C   UNL     1      -6.952  10.442  70.032  1.00  0.00    -0.159 C  
HETATM    2  C   UNL     1      -7.716   9.703  68.924  1.00  0.00    -0.077 C  
ENDROOT
BRANCH   2   3
HETATM    3  C   UNL     1      -9.102  10.301  68.633  1.00  0.00    -0.152 A  
HETATM    4  C   UNL     1      -9.469  10.750  67.350  1.00  0.00    -0.171 A  
HETATM    5  C   UNL     1     -10.049  10.431  69.666  1.00  0.00    -0.226 A  
HETATM    6  F   UNL     1     -10.984  10.786  64.772  1.00  0.00    -0.322 F  
HETATM    7  F   UNL     1     -12.313  12.310  65.573  1.00  0.00    -0.478 F  
HETATM    8  C   UNL     1     -11.321  10.992  69.432  1.00  0.00    -0.352 A  
HETATM    9  C   UNL     1     -12.327  11.154  70.548  1.00  0.00    -0.364 C  
HETATM   10  C   UNL     1     -11.651  11.429  68.137  1.00  0.00    -0.364 A  
HETATM   11  F   UNL     1     -10.211  12.760  65.254  1.00  0.00    -0.274 F  
HETATM   12  F   UNL     1     -11.900  10.670  71.747  1.00  0.00    -0.293 F  
HETATM   13  F   UNL     1     -12.660  12.456  70.764  1.00  0.00    -0.401 F  
HETATM   14  F   UNL     1     -13.501  10.511  70.287  1.00  0.00    -0.291 F  
HETATM   15  C   UNL     1     -11.060  11.790  65.691  1.00  0.00    -0.285 C  
HETATM   16  C   UNL     1     -10.730  11.314  67.088  1.00  0.00    -0.297 A  
ENDBRANCH   2   3
BRANCH   2  17
HETATM   17  O   UNL     1      -7.663   8.261  69.070  1.00  0.00    -0.094 OA 
BRANCH  17  18
HETATM   18  C   UNL     1      -8.595   7.514  68.275  1.00  0.00    -0.124 C  
HETATM   19  C   UNL     1      -7.659   4.791  68.162  1.00  0.00    -0.081 C  
HETATM   20  C   UNL     1      -6.965   6.000  67.544  1.00  0.00    -0.069 C  
HETATM   21  O   UNL     1      -7.934   6.968  67.124  1.00  0.00    -0.110 OA 
HETATM   22  N   UNL     1      -8.485   5.124  69.358  1.00  0.00    -0.089 NA 
HETATM   23  C   UNL     1      -9.360   6.307  69.000  1.00  0.00    -0.126 C  
BRANCH  22  24
HETATM   24  C   UNL     1      -9.329   3.938  69.679  1.00  0.00    -0.176 C  
BRANCH  24  25
HETATM   25  C   UNL     1      -9.162   3.509  71.119  1.00  0.00    -0.121 C  
HETATM   26  N   UNL     1      -8.190   4.035  71.887  1.00  0.00    -0.089 NA 
HETATM   27  N   UNL     1      -9.918   2.636  71.727  1.00  0.00    -0.153 NA 
HETATM   28  O   UNL     1      -7.685   3.713  74.119  1.00  0.00    -0.068 OA 
HETATM   29  C   UNL     1      -8.338   3.479  73.120  1.00  0.00    -0.079 C  
HETATM   30  N   UNL     1      -9.404   2.595  72.997  1.00  0.00    -0.088 NA 
HETATM   31  H   UNL     1     -10.704   2.109  71.347  1.00  0.00     0.000 HD 
ENDBRANCH  24  25
ENDBRANCH  22  24
BRANCH  23  32
HETATM   32  C   UNL     1     -10.318   6.726  70.120  1.00  0.00    -0.228 A  
HETATM   33  C   UNL     1     -11.982   7.770  72.137  1.00  0.00    -0.317 A  
HETATM   34  F   UNL     1     -12.777   8.298  73.073  1.00  0.00    -0.241 F  
HETATM   35  C   UNL     1     -11.712   6.690  69.982  1.00  0.00    -0.378 A  
HETATM   36  C   UNL     1     -10.607   7.792  72.309  1.00  0.00    -0.315 A  
HETATM   37  C   UNL     1     -12.540   7.214  70.986  1.00  0.00    -0.335 A  
HETATM   38  C   UNL     1      -9.780   7.270  71.310  1.00  0.00    -0.168 A  
ENDBRANCH  23  32
ENDBRANCH  17  18
ENDBRANCH   2  17
TORSDOF 6
ENDMDL
MODEL      110
REMARK 921   NORMALIZED FREE ENERGY PREDICTED BY IDOCK:   -6.22 KCAL/MOL
REMARK 922        TOTAL FREE ENERGY PREDICTED BY IDOCK:  -10.53 KCAL/MOL
REMARK 923 INTER-LIGAND FREE ENERGY PREDICTED BY IDOCK:   -8.40 KCAL/MOL
REMARK 924 INTRA-LIGAND FREE ENERGY PREDICTED BY IDOCK:   -2.12 KCAL/MOL
REMARK 927      BINDING AFFINITY PREDICTED BY RF-SCORE:    0.00 PKD
ROOT
HETATM    1  C   UNL     1      -6.634  14.833  68.589  1.00  0.00    -0.084 C  
HETATM    2  C   UNL     1      -7.462  14.005  67.596  1.00  0.00    -0.174 C  
ENDROOT
BRANCH   2   3
HETATM    3  C   UNL     1      -8.662  14.771  67.012  1.00  0.00    -0.258 A  
HETATM    4  C   UNL     1      -9.655  14.132  66.245  1.00  0.00    -0.295 A  
HETATM    5  C   UNL     1      -8.788  16.156  67.222  1.00  0.00    -0.202 A  
HETATM    6  F   UNL     1     -12.381  13.103  65.575  1.00  0.00    -0.416 F  
HETATM    7  F   UNL     1     -12.771  14.892  64.403  1.00  0.00    -0.460 F  
HETATM    8  C   UNL     1      -9.867  16.886  66.684  1.00  0.00    -0.295 A  
HETATM    9  C   UNL     1      -9.988  18.379  66.889  1.00  0.00    -0.353 C  
HETATM   10  C   UNL     1     -10.839  16.214  65.923  1.00  0.00    -0.179 A  
HETATM   11  F   UNL     1     -11.228  13.496  63.774  1.00  0.00    -0.361 F  
HETATM   12  F   UNL     1      -9.000  18.909  67.663  1.00  0.00    -0.287 F  
HETATM   13  F   UNL     1      -9.958  19.070  65.717  1.00  0.00    -0.357 F  
HETATM   14  F   UNL     1     -11.159  18.727  67.494  1.00  0.00    -0.472 F  
HETATM   15  C   UNL     1     -11.769  14.096  64.870  1.00  0.00    -0.392 C  
HETATM   16  C   UNL     1     -10.741  14.836  65.696  1.00  0.00    -0.345 A  
ENDBRANCH   2   3
BRANCH   2  17
HETATM   17  O   UNL     1      -7.736  12.663  68.073  1.00  0.00    -0.115 OA 
BRANCH  17  18
HETATM   18  C   UNL     1      -6.758  11.667  67.741  1.00  0.00    -0.072 C  
HETATM   19  C   UNL     1      -7.043   9.506  69.627  1.00  0.00    -0.072 C  
HETATM   20  C   UNL     1      -6.574  10.919  69.954  1.00  0.00    -0.148 C  
HETATM   21  O   UNL     1      -5.858  11.475  68.844  1.00  0.00    -0.047 OA 
HETATM   22  N   UNL     1      -7.952   9.437  68.447  1.00  0.00    -0.094 NA 
HETATM   23  C   UNL     1      -7.311  10.222  67.322  1.00  0.00    -0.090 C  
BRANCH  22  24
HETATM   24  C   UNL     1      -8.095   8.005  68.059  1.00  0.00    -0.129 C  
BRANCH  24  25
HETATM   25  C   UNL     1      -9.249   7.345  68.777  1.00  0.00    -0.144 C  
HETATM   26  N   UNL     1      -9.094   6.154  69.383  1.00  0.00    -0.134 NA 
HETATM   27  N   UNL     1     -10.448   7.852  68.881  1.00  0.00    -0.265 NA 
HETATM   28  O   UNL     1     -10.566   4.894  70.643  1.00  0.00    -0.162 OA 
HETATM   29  C   UNL     1     -10.291   5.864  69.963  1.00  0.00    -0.244 C  
HETATM   30  N   UNL     1     -11.127   6.920  69.623  1.00  0.00    -0.268 NA 
HETATM   31  H   UNL     1     -10.796   8.731  68.500  1.00  0.00     0.000 HD 
ENDBRANCH  24  25
ENDBRANCH  22  24
BRANCH  23  32
HETATM   32  C   UNL     1      -8.108  10.187  66.015  1.00  0.00    -0.129 A  
HETATM   33  C   UNL     1      -9.618  10.410  63.650  1.00  0.00    -0.310 A  
HETATM   34  F   UNL     1     -10.321  10.552  62.521  1.00  0.00    -0.123 F  
HETATM   35  C   UNL     1      -7.510   9.973  64.765  1.00  0.00    -0.143 A  
HETATM   36  C   UNL     1     -10.239  10.600  64.875  1.00  0.00    -0.395 A  
HETATM   37  C   UNL     1      -8.263  10.088  63.587  1.00  0.00    -0.160 A  
HETATM   38  C   UNL     1      -9.490  10.485  66.050  1.00  0.00    -0.227 A  
ENDBRANCH  23  32
ENDBRANCH  17  18
ENDBRANCH   2  17
TORSDOF 6
ENDMDL
MODEL      111
REMARK 921   NORMALIZED FREE ENERGY PREDICTED BY IDOCK:   -6.21 KCAL/MOL
REMARK 922        TOTAL FREE ENERGY PREDICTED BY IDOCK:  -10.53 KCAL/MOL
REMARK 923 INTER-LIGAND FREE ENERGY PREDICTED BY IDOCK:   -9.45 KCAL/MOL
REMARK 924 INTRA-LIGAND FREE ENERGY PREDICTED BY IDOCK:   -1.08 KCAL/MOL
REMARK 927      BINDING AFFINITY PREDICTED BY RF-SCORE:    0.00 PKD
ROOT
HETATM    1  C   UNL     1      -7.356   8.996  70.621  1.00  0.00    -0.099 C  
HETATM    2  C   UNL     1      -8.779   9.572  70.623  1.00  0.00    -0.133 C  
ENDROOT
BRANCH   2   3
HETATM    3  C   UNL     1      -9.827   8.613  71.213  1.00  0.00    -0.307 A  
HETATM    4  C   UNL     1      -9.464   7.420  71.866  1.00  0.00    -0.166 A  
HETATM    5  C   UNL     1     -11.198   8.903  71.097  1.00  0.00    -0.352 A  
HETATM    6  F   UNL     1      -9.170   5.506  74.145  1.00  0.00    -0.123 F  
HETATM    7  F   UNL     1     -10.996   4.495  73.535  1.00  0.00    -0.251 F  
HETATM    8  C   UNL     1     -12.181   8.033  71.612  1.00  0.00    -0.340 A  
HETATM    9  C   UNL     1     -13.655   8.333  71.464  1.00  0.00    -0.299 C  
HETATM   10  C   UNL     1     -11.780   6.851  72.258  1.00  0.00    -0.296 A  
HETATM   11  F   UNL     1      -9.248   4.454  72.244  1.00  0.00    -0.127 F  
HETATM   12  F   UNL     1     -13.914   9.518  70.843  1.00  0.00    -0.363 F  
HETATM   13  F   UNL     1     -14.310   7.382  70.746  1.00  0.00    -0.378 F  
HETATM   14  F   UNL     1     -14.295   8.398  72.666  1.00  0.00    -0.425 F  
HETATM   15  C   UNL     1      -9.970   5.261  73.069  1.00  0.00    -0.164 C  
HETATM   16  C   UNL     1     -10.422   6.534  72.389  1.00  0.00    -0.229 A  
ENDBRANCH   2   3
BRANCH   2  17
HETATM   17  O   UNL     1      -9.132  10.204  69.367  1.00  0.00    -0.188 OA 
BRANCH  17  18
HETATM   18  C   UNL     1      -8.389   9.775  68.217  1.00  0.00    -0.106 C  
HETATM   19  C   UNL     1     -10.248   9.498  66.032  1.00  0.00    -0.172 C  
HETATM   20  C   UNL     1     -10.217   8.639  67.292  1.00  0.00    -0.268 C  
HETATM   21  O   UNL     1      -8.872   8.500  67.766  1.00  0.00    -0.136 OA 
HETATM   22  N   UNL     1      -9.715  10.876  66.236  1.00  0.00    -0.197 NA 
HETATM   23  C   UNL     1      -8.386  10.757  66.951  1.00  0.00    -0.132 C  
BRANCH  22  24
HETATM   24  C   UNL     1      -9.525  11.498  64.895  1.00  0.00    -0.129 C  
BRANCH  24  25
HETATM   25  C   UNL     1     -10.774  12.210  64.428  1.00  0.00    -0.323 C  
HETATM   26  N   UNL     1     -10.875  13.549  64.509  1.00  0.00    -0.399 NA 
HETATM   27  N   UNL     1     -11.819  11.619  63.917  1.00  0.00    -0.398 NA 
HETATM   28  O   UNL     1     -12.551  14.985  63.823  1.00  0.00    -0.776 OA 
HETATM   29  C   UNL     1     -12.085  13.872  63.976  1.00  0.00    -0.396 C  
HETATM   30  N   UNL     1     -12.668  12.658  63.631  1.00  0.00    -0.749 NA 
HETATM   31  H   UNL     1     -11.970  10.622  63.765  1.00  0.00     0.000 HD 
ENDBRANCH  24  25
ENDBRANCH  22  24
BRANCH  23  32
HETATM   32  C   UNL     1      -7.685  12.100  67.173  1.00  0.00    -0.151 A  
HETATM   33  C   UNL     1      -6.521  14.573  67.848  1.00  0.00    -0.162 A  
HETATM   34  F   UNL     1      -5.965  15.736  68.205  1.00  0.00    -0.092 F  
HETATM   35  C   UNL     1      -6.294  12.220  67.310  1.00  0.00    -0.150 A  
HETATM   36  C   UNL     1      -7.895  14.487  67.692  1.00  0.00    -0.194 A  
HETATM   37  C   UNL     1      -5.716  13.451  67.650  1.00  0.00    -0.072 A  
HETATM   38  C   UNL     1      -8.473  13.260  67.352  1.00  0.00    -0.206 A  
ENDBRANCH  23  32
ENDBRANCH  17  18
ENDBRANCH   2  17
TORSDOF 6
ENDMDL
MODEL      112
REMARK 921   NORMALIZED FREE ENERGY PREDICTED BY IDOCK:   -6.21 KCAL/MOL
REMARK 922        TOTAL FREE ENERGY PREDICTED BY IDOCK:  -10.52 KCAL/MOL
REMARK 923 INTER-LIGAND FREE ENERGY PREDICTED BY IDOCK:   -9.62 KCAL/MOL
REMARK 924 INTRA-LIGAND FREE ENERGY PREDICTED BY IDOCK:   -0.91 KCAL/MOL
REMARK 927      BINDING AFFINITY PREDICTED BY RF-SCORE:    0.00 PKD
ROOT
HETATM    1  C   UNL     1      -9.556  11.615  68.159  1.00  0.00    -0.190 C  
HETATM    2  C   UNL     1     -10.881  10.838  68.168  1.00  0.00    -0.236 C  
ENDROOT
BRANCH   2   3
HETATM    3  C   UNL     1     -11.677  11.003  69.473  1.00  0.00    -0.400 A  
HETATM    4  C   UNL     1     -12.151   9.897  70.205  1.00  0.00    -0.168 A  
HETATM    5  C   UNL     1     -11.972  12.287  69.966  1.00  0.00    -0.379 A  
HETATM    6  F   UNL     1     -12.365   8.009  72.515  1.00  0.00    -0.339 F  
HETATM    7  F   UNL     1     -14.090   9.107  73.255  1.00  0.00    -0.236 F  
HETATM    8  C   UNL     1     -12.716  12.468  71.150  1.00  0.00    -0.340 A  
HETATM    9  C   UNL     1     -13.053  13.849  71.665  1.00  0.00    -0.367 C  
HETATM   10  C   UNL     1     -13.171  11.341  71.854  1.00  0.00    -0.491 A  
HETATM   11  F   UNL     1     -14.208   8.048  71.361  1.00  0.00    -0.405 F  
HETATM   12  F   UNL     1     -12.534  14.858  70.910  1.00  0.00    -0.302 F  
HETATM   13  F   UNL     1     -14.394  14.072  71.719  1.00  0.00    -0.471 F  
HETATM   14  F   UNL     1     -12.590  14.059  72.930  1.00  0.00    -0.366 F  
HETATM   15  C   UNL     1     -13.387   8.822  72.123  1.00  0.00    -0.423 C  
HETATM   16  C   UNL     1     -12.895  10.049  71.388  1.00  0.00    -0.519 A  
ENDBRANCH   2   3
BRANCH   2  17
HETATM   17  O   UNL     1     -10.740   9.481  67.677  1.00  0.00    -0.274 OA 
BRANCH  17  18
HETATM   18  C   UNL     1      -9.528   8.804  68.037  1.00  0.00    -0.143 C  
HETATM   19  C   UNL     1     -10.051   5.971  67.940  1.00  0.00    -0.155 C  
HETATM   20  C   UNL     1     -10.665   6.958  68.926  1.00  0.00    -0.222 C  
HETATM   21  O   UNL     1      -9.739   8.012  69.216  1.00  0.00    -0.163 OA 
HETATM   22  N   UNL     1      -9.672   6.587  66.636  1.00  0.00    -0.164 NA 
HETATM   23  C   UNL     1      -8.879   7.843  66.930  1.00  0.00    -0.133 C  
BRANCH  22  24
HETATM   24  C   UNL     1      -8.829   5.609  65.891  1.00  0.00    -0.152 C  
BRANCH  24  25
HETATM   25  C   UNL     1      -9.665   4.709  65.010  1.00  0.00    -0.073 C  
HETATM   26  N   UNL     1      -9.100   3.997  64.018  1.00  0.00    -0.133 NA 
HETATM   27  N   UNL     1     -10.954   4.539  65.131  1.00  0.00    -0.842 NA 
HETATM   28  O   UNL     1     -10.011   2.465  62.547  1.00  0.00    -0.088 OA 
HETATM   29  C   UNL     1     -10.103   3.271  63.454  1.00  0.00    -0.164 C  
HETATM   30  N   UNL     1     -11.252   3.635  64.145  1.00  0.00    -0.187 NA 
HETATM   31  H   UNL     1     -11.588   4.975  65.801  1.00  0.00     0.000 HD 
ENDBRANCH  24  25
ENDBRANCH  22  24
BRANCH  23  32
HETATM   32  C   UNL     1      -8.365   8.555  65.676  1.00  0.00    -0.154 A  
HETATM   33  C   UNL     1      -7.469  10.115  63.510  1.00  0.00    -0.132 A  
HETATM   34  F   UNL     1      -7.028  10.883  62.507  1.00  0.00    -0.140 F  
HETATM   35  C   UNL     1      -7.024   8.506  65.269  1.00  0.00    -0.078 A  
HETATM   36  C   UNL     1      -8.805  10.161  63.876  1.00  0.00    -0.248 A  
HETATM   37  C   UNL     1      -6.578   9.287  64.192  1.00  0.00    -0.091 A  
HETATM   38  C   UNL     1      -9.251   9.383  64.948  1.00  0.00    -0.246 A  
ENDBRANCH  23  32
ENDBRANCH  17  18
ENDBRANCH   2  17
TORSDOF 6
ENDMDL
MODEL      113
REMARK 921   NORMALIZED FREE ENERGY PREDICTED BY IDOCK:   -6.21 KCAL/MOL
REMARK 922        TOTAL FREE ENERGY PREDICTED BY IDOCK:  -10.52 KCAL/MOL
REMARK 923 INTER-LIGAND FREE ENERGY PREDICTED BY IDOCK:   -9.46 KCAL/MOL
REMARK 924 INTRA-LIGAND FREE ENERGY PREDICTED BY IDOCK:   -1.06 KCAL/MOL
REMARK 927      BINDING AFFINITY PREDICTED BY RF-SCORE:    0.00 PKD
ROOT
HETATM    1  C   UNL     1      -8.480  10.102  67.834  1.00  0.00    -0.118 C  
HETATM    2  C   UNL     1     -10.007  10.141  67.678  1.00  0.00    -0.181 C  
ENDROOT
BRANCH   2   3
HETATM    3  C   UNL     1     -10.525  11.446  67.050  1.00  0.00    -0.271 A  
HETATM    4  C   UNL     1     -11.008  11.498  65.729  1.00  0.00    -0.305 A  
HETATM    5  C   UNL     1     -10.511  12.642  67.789  1.00  0.00    -0.228 A  
HETATM    6  F   UNL     1     -13.019  11.850  63.543  1.00  0.00    -0.648 F  
HETATM    7  F   UNL     1     -12.378  13.911  63.282  1.00  0.00    -0.519 F  
HETATM    8  C   UNL     1     -10.962  13.856  67.232  1.00  0.00    -0.299 A  
HETATM    9  C   UNL     1     -10.923  15.146  68.019  1.00  0.00    -0.295 C  
HETATM   10  C   UNL     1     -11.439  13.870  65.910  1.00  0.00    -0.328 A  
HETATM   11  F   UNL     1     -11.009  12.283  62.836  1.00  0.00    -0.375 F  
HETATM   12  F   UNL     1     -10.465  14.998  69.294  1.00  0.00    -0.217 F  
HETATM   13  F   UNL     1     -10.126  16.085  67.441  1.00  0.00    -0.240 F  
HETATM   14  F   UNL     1     -12.153  15.723  68.133  1.00  0.00    -0.263 F  
HETATM   15  C   UNL     1     -11.961  12.690  63.720  1.00  0.00    -0.510 C  
HETATM   16  C   UNL     1     -11.464  12.695  65.148  1.00  0.00    -0.363 A  
ENDBRANCH   2   3
BRANCH   2  17
HETATM   17  O   UNL     1     -10.705   9.686  68.866  1.00  0.00    -0.218 OA 
BRANCH  17  18
HETATM   18  C   UNL     1      -9.911   8.984  69.832  1.00  0.00    -0.183 C  
HETATM   19  C   UNL     1     -11.678   8.087  71.924  1.00  0.00    -0.303 C  
HETATM   20  C   UNL     1     -11.337   9.538  71.606  1.00  0.00    -0.341 C  
HETATM   21  O   UNL     1      -9.997   9.637  71.108  1.00  0.00    -0.221 OA 
HETATM   22  N   UNL     1     -11.585   7.179  70.745  1.00  0.00    -0.307 NA 
HETATM   23  C   UNL     1     -10.257   7.437  70.065  1.00  0.00    -0.209 C  
BRANCH  22  24
HETATM   24  C   UNL     1     -11.646   5.774  71.239  1.00  0.00     0.120 C  
BRANCH  24  25
HETATM   25  C   UNL     1     -10.741   5.562  72.431  1.00  0.00    -0.235 C  
HETATM   26  N   UNL     1      -9.414   5.408  72.271  1.00  0.00    -0.145 NA 
HETATM   27  N   UNL     1     -11.144   5.522  73.672  1.00  0.00    -0.439 NA 
HETATM   28  O   UNL     1      -7.720   5.166  73.823  1.00  0.00    -0.097 OA 
HETATM   29  C   UNL     1      -8.892   5.284  73.521  1.00  0.00    -0.116 C  
HETATM   30  N   UNL     1      -9.984   5.336  74.380  1.00  0.00    -0.202 NA 
HETATM   31  H   UNL     1     -12.095   5.608  74.030  1.00  0.00     0.000 HD 
ENDBRANCH  24  25
ENDBRANCH  22  24
BRANCH  23  32
HETATM   32  C   UNL     1      -9.993   6.525  68.864  1.00  0.00    -0.165 A  
HETATM   33  C   UNL     1      -9.483   5.092  66.494  1.00  0.00    -0.148 A  
HETATM   34  F   UNL     1      -9.216   4.440  65.357  1.00  0.00    -0.127 F  
HETATM   35  C   UNL     1      -8.826   5.758  68.732  1.00  0.00    -0.110 A  
HETATM   36  C   UNL     1     -10.656   5.821  66.611  1.00  0.00    -0.347 A  
HETATM   37  C   UNL     1      -8.571   5.048  67.549  1.00  0.00    -0.104 A  
HETATM   38  C   UNL     1     -10.912   6.529  67.789  1.00  0.00    -0.407 A  
ENDBRANCH  23  32
ENDBRANCH  17  18
ENDBRANCH   2  17
TORSDOF 6
ENDMDL
MODEL      114
REMARK 921   NORMALIZED FREE ENERGY PREDICTED BY IDOCK:   -6.17 KCAL/MOL
REMARK 922        TOTAL FREE ENERGY PREDICTED BY IDOCK:  -10.47 KCAL/MOL
REMARK 923 INTER-LIGAND FREE ENERGY PREDICTED BY IDOCK:   -9.77 KCAL/MOL
REMARK 924 INTRA-LIGAND FREE ENERGY PREDICTED BY IDOCK:   -0.70 KCAL/MOL
REMARK 927      BINDING AFFINITY PREDICTED BY RF-SCORE:    0.00 PKD
ROOT
HETATM    1  C   UNL     1     -11.913  15.690  64.222  1.00  0.00    -0.121 C  
HETATM    2  C   UNL     1     -11.263  15.066  65.465  1.00  0.00    -0.344 C  
ENDROOT
BRANCH   2   3
HETATM    3  C   UNL     1     -10.407  16.058  66.271  1.00  0.00    -0.330 A  
HETATM    4  C   UNL     1      -9.565  15.639  67.318  1.00  0.00    -0.220 A  
HETATM    5  C   UNL     1     -10.459  17.434  65.985  1.00  0.00    -0.278 A  
HETATM    6  F   UNL     1      -6.987  15.146  68.751  1.00  0.00    -0.099 F  
HETATM    7  F   UNL     1      -7.225  17.019  69.829  1.00  0.00    -0.133 F  
HETATM    8  C   UNL     1      -9.700  18.367  66.719  1.00  0.00    -0.331 A  
HETATM    9  C   UNL     1      -9.776  19.849  66.428  1.00  0.00    -0.447 C  
HETATM   10  C   UNL     1      -8.869  17.912  67.758  1.00  0.00    -0.251 A  
HETATM   11  F   UNL     1      -8.628  15.391  70.155  1.00  0.00    -0.136 F  
HETATM   12  F   UNL     1     -10.594  20.161  65.384  1.00  0.00    -0.546 F  
HETATM   13  F   UNL     1     -10.232  20.566  67.490  1.00  0.00    -0.533 F  
HETATM   14  F   UNL     1      -8.560  20.381  66.116  1.00  0.00    -0.273 F  
HETATM   15  C   UNL     1      -7.920  16.037  69.189  1.00  0.00    -0.238 C  
HETATM   16  C   UNL     1      -8.796  16.548  68.067  1.00  0.00    -0.197 A  
ENDBRANCH   2   3
BRANCH   2  17
HETATM   17  O   UNL     1     -10.658  13.776  65.196  1.00  0.00    -0.330 OA 
BRANCH  17  18
HETATM   18  C   UNL     1     -11.559  12.664  65.111  1.00  0.00    -0.348 C  
HETATM   19  C   UNL     1     -10.045  10.382  64.212  1.00  0.00    -0.236 C  
HETATM   20  C   UNL     1     -10.341  11.634  63.395  1.00  0.00    -0.435 C  
HETATM   21  O   UNL     1     -11.616  12.178  63.761  1.00  0.00    -0.394 OA 
HETATM   22  N   UNL     1     -10.007  10.624  65.683  1.00  0.00    -0.253 NA 
HETATM   23  C   UNL     1     -11.249  11.407  66.056  1.00  0.00    -0.112 C  
BRANCH  22  24
HETATM   24  C   UNL     1     -10.008   9.301  66.368  1.00  0.00    -0.286 C  
BRANCH  24  25
HETATM   25  C   UNL     1      -8.619   8.710  66.443  1.00  0.00    -0.119 C  
HETATM   26  N   UNL     1      -8.425   7.385  66.311  1.00  0.00    -0.130 NA 
HETATM   27  N   UNL     1      -7.526   9.401  66.624  1.00  0.00    -0.093 NA 
HETATM   28  O   UNL     1      -6.481   6.137  66.270  1.00  0.00    -0.043 OA 
HETATM   29  C   UNL     1      -7.080   7.189  66.383  1.00  0.00    -0.077 C  
HETATM   30  N   UNL     1      -6.538   8.451  66.598  1.00  0.00    -0.056 NA 
HETATM   31  H   UNL     1      -7.431  10.408  66.754  1.00  0.00     0.000 HD 
ENDBRANCH  24  25
ENDBRANCH  22  24
BRANCH  23  32
HETATM   32  C   UNL     1     -11.379  11.677  67.558  1.00  0.00    -0.364 A  
HETATM   33  C   UNL     1     -11.898  12.243  70.266  1.00  0.00    -0.240 A  
HETATM   34  F   UNL     1     -12.181  12.498  71.548  1.00  0.00    -0.269 F  
HETATM   35  C   UNL     1     -11.322  10.661  68.521  1.00  0.00    -0.348 A  
HETATM   36  C   UNL     1     -11.934  13.271  69.337  1.00  0.00    -0.356 A  
HETATM   37  C   UNL     1     -11.585  10.943  69.870  1.00  0.00    -0.410 A  
HETATM   38  C   UNL     1     -11.671  12.991  67.992  1.00  0.00    -0.397 A  
ENDBRANCH  23  32
ENDBRANCH  17  18
ENDBRANCH   2  17
TORSDOF 6
ENDMDL
MODEL      115
REMARK 921   NORMALIZED FREE ENERGY PREDICTED BY IDOCK:   -6.17 KCAL/MOL
REMARK 922        TOTAL FREE ENERGY PREDICTED BY IDOCK:  -10.46 KCAL/MOL
REMARK 923 INTER-LIGAND FREE ENERGY PREDICTED BY IDOCK:  -10.31 KCAL/MOL
REMARK 924 INTRA-LIGAND FREE ENERGY PREDICTED BY IDOCK:   -0.16 KCAL/MOL
REMARK 927      BINDING AFFINITY PREDICTED BY RF-SCORE:    0.00 PKD
ROOT
HETATM    1  C   UNL     1     -12.161  11.068  69.732  1.00  0.00    -0.424 C  
HETATM    2  C   UNL     1     -11.663  12.206  68.828  1.00  0.00    -0.321 C  
ENDROOT
BRANCH   2   3
HETATM    3  C   UNL     1     -11.643  13.576  69.526  1.00  0.00    -0.355 A  
HETATM    4  C   UNL     1     -10.998  14.693  68.960  1.00  0.00    -0.269 A  
HETATM    5  C   UNL     1     -12.266  13.745  70.776  1.00  0.00    -0.437 A  
HETATM    6  F   UNL     1     -10.764  17.410  67.733  1.00  0.00    -0.347 F  
HETATM    7  F   UNL     1     -10.290  18.252  69.681  1.00  0.00    -0.215 F  
HETATM    8  C   UNL     1     -12.247  14.985  71.446  1.00  0.00    -0.388 A  
HETATM    9  C   UNL     1     -12.895  15.158  72.801  1.00  0.00    -0.411 C  
HETATM   10  C   UNL     1     -11.594  16.077  70.850  1.00  0.00    -0.453 A  
HETATM   11  F   UNL     1      -8.923  16.846  68.744  1.00  0.00    -0.239 F  
HETATM   12  F   UNL     1     -13.516  14.035  73.259  1.00  0.00    -0.507 F  
HETATM   13  F   UNL     1     -12.002  15.513  73.764  1.00  0.00    -0.514 F  
HETATM   14  F   UNL     1     -13.847  16.133  72.801  1.00  0.00    -0.591 F  
HETATM   15  C   UNL     1     -10.244  17.100  68.955  1.00  0.00    -0.332 C  
HETATM   16  C   UNL     1     -10.964  15.941  69.607  1.00  0.00    -0.319 A  
ENDBRANCH   2   3
BRANCH   2  17
HETATM   17  O   UNL     1     -12.257  12.174  67.505  1.00  0.00    -0.474 OA 
BRANCH  17  18
HETATM   18  C   UNL     1     -11.392  11.759  66.439  1.00  0.00    -0.297 C  
HETATM   19  C   UNL     1      -9.414  13.822  66.069  1.00  0.00    -0.101 C  
HETATM   20  C   UNL     1     -10.907  13.959  65.796  1.00  0.00    -0.289 C  
HETATM   21  O   UNL     1     -11.451  12.707  65.361  1.00  0.00    -0.311 OA 
HETATM   22  N   UNL     1      -9.089  12.819  67.123  1.00  0.00    -0.211 NA 
HETATM   23  C   UNL     1      -9.846  11.547  66.801  1.00  0.00    -0.203 C  
BRANCH  22  24
HETATM   24  C   UNL     1      -7.620  12.568  67.084  1.00  0.00    -0.085 C  
BRANCH  24  25
HETATM   25  C   UNL     1      -6.849  13.659  67.791  1.00  0.00    -0.168 C  
HETATM   26  N   UNL     1      -7.258  14.132  68.982  1.00  0.00    -0.118 NA 
HETATM   27  N   UNL     1      -5.757  14.211  67.336  1.00  0.00    -0.315 NA 
HETATM   28  O   UNL     1      -6.312  15.697  70.395  1.00  0.00    -0.049 OA 
HETATM   29  C   UNL     1      -6.336  15.059  69.360  1.00  0.00    -0.124 C  
HETATM   30  N   UNL     1      -5.421  15.111  68.315  1.00  0.00    -0.112 NA 
HETATM   31  H   UNL     1      -5.270  14.019  66.461  1.00  0.00     0.000 HD 
ENDBRANCH  24  25
ENDBRANCH  22  24
BRANCH  23  32
HETATM   32  C   UNL     1      -9.559  10.398  67.772  1.00  0.00    -0.169 A  
HETATM   33  C   UNL     1      -9.187   8.435  69.755  1.00  0.00    -0.157 A  
HETATM   34  F   UNL     1      -9.046   7.510  70.711  1.00  0.00    -0.149 F  
HETATM   35  C   UNL     1     -10.109   9.117  67.619  1.00  0.00    -0.273 A  
HETATM   36  C   UNL     1      -8.610   9.685  69.917  1.00  0.00    -0.218 A  
HETATM   37  C   UNL     1      -9.926   8.142  68.610  1.00  0.00    -0.201 A  
HETATM   38  C   UNL     1      -8.791  10.659  68.930  1.00  0.00    -0.160 A  
ENDBRANCH  23  32
ENDBRANCH  17  18
ENDBRANCH   2  17
TORSDOF 6
ENDMDL
MODEL      116
REMARK 921   NORMALIZED FREE ENERGY PREDICTED BY IDOCK:   -6.12 KCAL/MOL
REMARK 922        TOTAL FREE ENERGY PREDICTED BY IDOCK:  -10.41 KCAL/MOL
REMARK 923 INTER-LIGAND FREE ENERGY PREDICTED BY IDOCK:   -8.07 KCAL/MOL
REMARK 924 INTRA-LIGAND FREE ENERGY PREDICTED BY IDOCK:   -2.33 KCAL/MOL
REMARK 927      BINDING AFFINITY PREDICTED BY RF-SCORE:    0.00 PKD
ROOT
HETATM    1  C   UNL     1     -11.808  12.624  68.785  1.00  0.00    -0.341 C  
HETATM    2  C   UNL     1     -10.874  11.407  68.712  1.00  0.00    -0.208 C  
ENDROOT
BRANCH   2   3
HETATM    3  C   UNL     1     -10.233  11.210  67.328  1.00  0.00    -0.227 A  
HETATM    4  C   UNL     1     -10.829  11.702  66.151  1.00  0.00    -0.343 A  
HETATM    5  C   UNL     1      -9.021  10.506  67.202  1.00  0.00    -0.147 A  
HETATM    6  F   UNL     1     -11.106  13.400  63.705  1.00  0.00    -0.378 F  
HETATM    7  F   UNL     1     -10.282  11.794  62.494  1.00  0.00    -0.154 F  
HETATM    8  C   UNL     1      -8.421  10.294  65.944  1.00  0.00    -0.154 A  
HETATM    9  C   UNL     1      -7.133   9.516  65.807  1.00  0.00    -0.096 C  
HETATM   10  C   UNL     1      -9.045  10.801  64.791  1.00  0.00    -0.222 A  
HETATM   11  F   UNL     1     -12.196  11.531  63.489  1.00  0.00    -0.532 F  
HETATM   12  F   UNL     1      -6.614   9.100  66.997  1.00  0.00    -0.061 F  
HETATM   13  F   UNL     1      -7.279   8.396  65.049  1.00  0.00    -0.077 F  
HETATM   14  F   UNL     1      -6.147  10.243  65.208  1.00  0.00    -0.088 F  
HETATM   15  C   UNL     1     -10.948  12.047  63.655  1.00  0.00    -0.448 C  
HETATM   16  C   UNL     1     -10.252  11.505  64.884  1.00  0.00    -0.324 A  
ENDBRANCH   2   3
BRANCH   2  17
HETATM   17  O   UNL     1     -11.445  10.222  69.323  1.00  0.00    -0.221 OA 
BRANCH  17  18
HETATM   18  C   UNL     1     -10.635   9.573  70.313  1.00  0.00    -0.266 C  
HETATM   19  C   UNL     1     -12.359   7.853  71.855  1.00  0.00    -0.315 C  
HETATM   20  C   UNL     1     -12.410   9.376  71.829  1.00  0.00    -0.394 C  
HETATM   21  O   UNL     1     -11.097   9.915  71.628  1.00  0.00    -0.200 OA 
HETATM   22  N   UNL     1     -11.831   7.252  70.597  1.00  0.00    -0.284 NA 
HETATM   23  C   UNL     1     -10.548   7.974  70.241  1.00  0.00    -0.231 C  
BRANCH  22  24
HETATM   24  C   UNL     1     -11.555   5.810  70.855  1.00  0.00     0.230 C  
BRANCH  24  25
HETATM   25  C   UNL     1     -10.974   5.592  72.234  1.00  0.00    -0.239 C  
HETATM   26  N   UNL     1      -9.688   5.887  72.495  1.00  0.00    -0.158 NA 
HETATM   27  N   UNL     1     -11.640   5.128  73.256  1.00  0.00    -0.516 NA 
HETATM   28  O   UNL     1      -8.482   5.787  74.463  1.00  0.00    -0.111 OA 
HETATM   29  C   UNL     1      -9.497   5.620  73.815  1.00  0.00    -0.139 C  
HETATM   30  N   UNL     1     -10.716   5.129  74.269  1.00  0.00    -0.317 NA 
HETATM   31  H   UNL     1     -12.616   4.834  73.293  1.00  0.00     0.000 HD 
ENDBRANCH  24  25
ENDBRANCH  22  24
BRANCH  23  32
HETATM   32  C   UNL     1      -9.854   7.417  68.995  1.00  0.00    -0.168 A  
HETATM   33  C   UNL     1      -8.581   6.133  66.837  1.00  0.00    -0.109 A  
HETATM   34  F   UNL     1      -7.998   5.490  65.819  1.00  0.00    -0.097 F  
HETATM   35  C   UNL     1     -10.492   7.313  67.750  1.00  0.00    -0.292 A  
HETATM   36  C   UNL     1      -7.919   6.246  68.049  1.00  0.00    -0.108 A  
HETATM   37  C   UNL     1      -9.859   6.669  66.677  1.00  0.00    -0.208 A  
HETATM   38  C   UNL     1      -8.548   6.888  69.120  1.00  0.00    -0.128 A  
ENDBRANCH  23  32
ENDBRANCH  17  18
ENDBRANCH   2  17
TORSDOF 6
ENDMDL
MODEL      117
REMARK 921   NORMALIZED FREE ENERGY PREDICTED BY IDOCK:   -6.12 KCAL/MOL
REMARK 922        TOTAL FREE ENERGY PREDICTED BY IDOCK:  -10.40 KCAL/MOL
REMARK 923 INTER-LIGAND FREE ENERGY PREDICTED BY IDOCK:   -8.76 KCAL/MOL
REMARK 924 INTRA-LIGAND FREE ENERGY PREDICTED BY IDOCK:   -1.64 KCAL/MOL
REMARK 927      BINDING AFFINITY PREDICTED BY RF-SCORE:    0.00 PKD
ROOT
HETATM    1  C   UNL     1     -13.653   9.881  72.254  1.00  0.00    -0.337 C  
HETATM    2  C   UNL     1     -12.646  10.324  71.183  1.00  0.00    -0.400 C  
ENDROOT
BRANCH   2   3
HETATM    3  C   UNL     1     -11.552   9.280  70.903  1.00  0.00    -0.364 A  
HETATM    4  C   UNL     1     -10.610   9.443  69.869  1.00  0.00    -0.258 A  
HETATM    5  C   UNL     1     -11.476   8.108  71.678  1.00  0.00    -0.323 A  
HETATM    6  F   UNL     1      -7.916   9.845  68.634  1.00  0.00    -0.081 F  
HETATM    7  F   UNL     1      -7.738   7.702  68.320  1.00  0.00    -0.107 F  
HETATM    8  C   UNL     1     -10.495   7.126  71.431  1.00  0.00    -0.220 A  
HETATM    9  C   UNL     1     -10.430   5.856  72.248  1.00  0.00    -0.205 C  
HETATM   10  C   UNL     1      -9.571   7.324  70.391  1.00  0.00    -0.165 A  
HETATM   11  F   UNL     1      -9.264   8.831  67.262  1.00  0.00    -0.139 F  
HETATM   12  F   UNL     1     -11.361   5.793  73.241  1.00  0.00    -0.286 F  
HETATM   13  F   UNL     1     -10.613   4.740  71.491  1.00  0.00    -0.256 F  
HETATM   14  F   UNL     1      -9.223   5.694  72.862  1.00  0.00    -0.135 F  
HETATM   15  C   UNL     1      -8.646   8.706  68.469  1.00  0.00    -0.135 C  
HETATM   16  C   UNL     1      -9.622   8.479  69.602  1.00  0.00    -0.170 A  
ENDBRANCH   2   3
BRANCH   2  17
HETATM   17  O   UNL     1     -12.191  11.688  71.369  1.00  0.00    -0.165 OA 
BRANCH  17  18
HETATM   18  C   UNL     1     -13.104  12.716  70.962  1.00  0.00     0.041 C  
HETATM   19  C   UNL     1     -12.155  15.207  72.058  1.00  0.00    -0.379 C  
HETATM   20  C   UNL     1     -12.687  14.025  72.860  1.00  0.00    -0.177 C  
HETATM   21  O   UNL     1     -13.697  13.333  72.115  1.00  0.00    -0.507 OA 
HETATM   22  N   UNL     1     -11.543  14.818  70.755  1.00  0.00    -0.282 NA 
HETATM   23  C   UNL     1     -12.509  13.891  70.048  1.00  0.00    -0.266 C  
BRANCH  22  24
HETATM   24  C   UNL     1     -11.339  16.058  69.954  1.00  0.00    -0.340 C  
BRANCH  24  25
HETATM   25  C   UNL     1      -9.911  16.182  69.472  1.00  0.00    -0.222 C  
HETATM   26  N   UNL     1      -9.567  17.117  68.568  1.00  0.00    -0.278 NA 
HETATM   27  N   UNL     1      -8.922  15.434  69.879  1.00  0.00    -0.325 NA 
HETATM   28  O   UNL     1      -7.510  17.675  67.675  1.00  0.00    -0.193 OA 
HETATM   29  C   UNL     1      -8.225  16.992  68.385  1.00  0.00    -0.250 C  
HETATM   30  N   UNL     1      -7.843  15.927  69.191  1.00  0.00    -0.216 NA 
HETATM   31  H   UNL     1      -8.946  14.665  70.548  1.00  0.00     0.000 HD 
ENDBRANCH  24  25
ENDBRANCH  22  24
BRANCH  23  32
HETATM   32  C   UNL     1     -12.038  13.456  68.657  1.00  0.00    -0.281 A  
HETATM   33  C   UNL     1     -11.294  12.396  66.158  1.00  0.00    -0.352 A  
HETATM   34  F   UNL     1     -10.974  11.871  64.970  1.00  0.00    -0.323 F  
HETATM   35  C   UNL     1     -12.584  13.972  67.473  1.00  0.00     0.359 A  
HETATM   36  C   UNL     1     -10.720  11.887  67.312  1.00  0.00    -0.276 A  
HETATM   37  C   UNL     1     -12.216  13.440  66.229  1.00  0.00    -0.456 A  
HETATM   38  C   UNL     1     -11.086  12.416  68.553  1.00  0.00    -0.296 A  
ENDBRANCH  23  32
ENDBRANCH  17  18
ENDBRANCH   2  17
TORSDOF 6
ENDMDL
MODEL      118
REMARK 921   NORMALIZED FREE ENERGY PREDICTED BY IDOCK:   -6.12 KCAL/MOL
REMARK 922        TOTAL FREE ENERGY PREDICTED BY IDOCK:  -10.40 KCAL/MOL
REMARK 923 INTER-LIGAND FREE ENERGY PREDICTED BY IDOCK:   -8.37 KCAL/MOL
REMARK 924 INTRA-LIGAND FREE ENERGY PREDICTED BY IDOCK:   -2.03 KCAL/MOL
REMARK 927      BINDING AFFINITY PREDICTED BY RF-SCORE:    0.00 PKD
ROOT
HETATM    1  C   UNL     1      -8.452  10.944  66.137  1.00  0.00    -0.171 C  
HETATM    2  C   UNL     1      -7.681  11.154  67.449  1.00  0.00    -0.120 C  
ENDROOT
BRANCH   2   3
HETATM    3  C   UNL     1      -8.389  10.556  68.677  1.00  0.00    -0.132 A  
HETATM    4  C   UNL     1      -7.717   9.732  69.600  1.00  0.00    -0.136 A  
HETATM    5  C   UNL     1      -9.755  10.809  68.900  1.00  0.00    -0.207 A  
HETATM    6  F   UNL     1      -6.540   8.931  72.229  1.00  0.00    -0.091 F  
HETATM    7  F   UNL     1      -8.343   7.809  72.697  1.00  0.00    -0.119 F  
HETATM    8  C   UNL     1     -10.434  10.259  70.006  1.00  0.00    -0.293 A  
HETATM    9  C   UNL     1     -11.907  10.512  70.231  1.00  0.00    -0.331 C  
HETATM   10  C   UNL     1      -9.730   9.443  70.907  1.00  0.00    -0.320 A  
HETATM   11  F   UNL     1      -7.074   7.187  71.046  1.00  0.00    -0.063 F  
HETATM   12  F   UNL     1     -12.470  11.339  69.306  1.00  0.00    -0.346 F  
HETATM   13  F   UNL     1     -12.641   9.367  70.208  1.00  0.00    -0.037 F  
HETATM   14  F   UNL     1     -12.157  11.088  71.442  1.00  0.00    -0.402 F  
HETATM   15  C   UNL     1      -7.596   8.284  71.661  1.00  0.00    -0.096 C  
HETATM   16  C   UNL     1      -8.370   9.171  70.712  1.00  0.00    -0.248 A  
ENDBRANCH   2   3
BRANCH   2  17
HETATM   17  O   UNL     1      -7.184  12.508  67.599  1.00  0.00    -0.110 OA 
BRANCH  17  18
HETATM   18  C   UNL     1      -7.690  13.242  68.722  1.00  0.00    -0.022 C  
HETATM   19  C   UNL     1      -6.358  15.798  68.763  1.00  0.00    -0.109 C  
HETATM   20  C   UNL     1      -5.700  14.445  69.004  1.00  0.00    -0.088 C  
HETATM   21  O   UNL     1      -6.623  13.547  69.633  1.00  0.00    -0.102 OA 
HETATM   22  N   UNL     1      -7.561  15.728  67.884  1.00  0.00    -0.125 NA 
HETATM   23  C   UNL     1      -8.450  14.617  68.404  1.00  0.00    -0.160 C  
BRANCH  22  24
HETATM   24  C   UNL     1      -8.270  17.037  67.969  1.00  0.00    -0.206 C  
BRANCH  24  25
HETATM   25  C   UNL     1      -7.698  18.045  66.999  1.00  0.00    -0.216 C  
HETATM   26  N   UNL     1      -7.250  19.238  67.429  1.00  0.00    -0.212 NA 
HETATM   27  N   UNL     1      -7.581  17.855  65.713  1.00  0.00    -0.552 NA 
HETATM   28  O   UNL     1      -6.236  20.974  66.289  1.00  0.00    -0.244 OA 
HETATM   29  C   UNL     1      -6.767  19.881  66.331  1.00  0.00    -0.209 C  
HETATM   30  N   UNL     1      -7.000  19.015  65.269  1.00  0.00    -0.488 NA 
HETATM   31  H   UNL     1      -7.856  17.038  65.168  1.00  0.00     0.000 HD 
ENDBRANCH  24  25
ENDBRANCH  22  24
BRANCH  23  32
HETATM   32  C   UNL     1      -9.764  14.469  67.632  1.00  0.00    -0.215 A  
HETATM   33  C   UNL     1     -12.082  13.932  66.126  1.00  0.00    -0.448 A  
HETATM   34  F   UNL     1     -13.180  13.639  65.421  1.00  0.00    -0.484 F  
HETATM   35  C   UNL     1     -11.006  14.318  68.265  1.00  0.00    -0.261 A  
HETATM   36  C   UNL     1     -10.871  14.104  65.475  1.00  0.00    -0.312 A  
HETATM   37  C   UNL     1     -12.159  14.047  67.514  1.00  0.00    -0.361 A  
HETATM   38  C   UNL     1      -9.720  14.375  66.221  1.00  0.00    -0.330 A  
ENDBRANCH  23  32
ENDBRANCH  17  18
ENDBRANCH   2  17
TORSDOF 6
ENDMDL
MODEL      119
REMARK 921   NORMALIZED FREE ENERGY PREDICTED BY IDOCK:   -6.11 KCAL/MOL
REMARK 922        TOTAL FREE ENERGY PREDICTED BY IDOCK:  -10.39 KCAL/MOL
REMARK 923 INTER-LIGAND FREE ENERGY PREDICTED BY IDOCK:   -9.53 KCAL/MOL
REMARK 924 INTRA-LIGAND FREE ENERGY PREDICTED BY IDOCK:   -0.86 KCAL/MOL
REMARK 927      BINDING AFFINITY PREDICTED BY RF-SCORE:    0.00 PKD
ROOT
HETATM    1  C   UNL     1     -10.049   9.808  66.452  1.00  0.00    -0.313 C  
HETATM    2  C   UNL     1      -9.108  10.167  67.611  1.00  0.00    -0.137 C  
ENDROOT
BRANCH   2   3
HETATM    3  C   UNL     1      -9.689   9.833  68.996  1.00  0.00    -0.177 A  
HETATM    4  C   UNL     1      -8.940   9.153  69.976  1.00  0.00    -0.201 A  
HETATM    5  C   UNL     1     -11.011  10.191  69.315  1.00  0.00    -0.279 A  
HETATM    6  F   UNL     1      -7.494   8.772  72.565  1.00  0.00    -0.127 F  
HETATM    7  F   UNL     1      -9.264   7.844  73.420  1.00  0.00    -0.249 F  
HETATM    8  C   UNL     1     -11.575   9.881  70.570  1.00  0.00    -0.386 A  
HETATM    9  C   UNL     1     -13.004  10.243  70.902  1.00  0.00    -0.371 C  
HETATM   10  C   UNL     1     -10.797   9.202  71.523  1.00  0.00    -0.436 A  
HETATM   11  F   UNL     1      -8.213   6.875  71.783  1.00  0.00    -0.103 F  
HETATM   12  F   UNL     1     -13.644  10.920  69.908  1.00  0.00     0.140 F  
HETATM   13  F   UNL     1     -13.771   9.151  71.167  1.00  0.00    -0.386 F  
HETATM   14  F   UNL     1     -13.095  11.037  72.007  1.00  0.00    -0.543 F  
HETATM   15  C   UNL     1      -8.627   8.089  72.241  1.00  0.00    -0.157 C  
HETATM   16  C   UNL     1      -9.477   8.831  71.235  1.00  0.00    -0.320 A  
ENDBRANCH   2   3
BRANCH   2  17
HETATM   17  O   UNL     1      -8.519  11.485  67.470  1.00  0.00    -0.135 OA 
BRANCH  17  18
HETATM   18  C   UNL     1      -9.294  12.578  67.984  1.00  0.00    -0.205 C  
HETATM   19  C   UNL     1      -7.740  14.981  67.646  1.00  0.00    -0.168 C  
HETATM   20  C   UNL     1      -7.397  13.821  68.573  1.00  0.00    -0.117 C  
HETATM   21  O   UNL     1      -8.595  13.209  69.068  1.00  0.00     0.210 OA 
HETATM   22  N   UNL     1      -8.544  14.578  66.456  1.00  0.00    -0.056 NA 
HETATM   23  C   UNL     1      -9.699  13.729  66.945  1.00  0.00    -0.265 C  
BRANCH  22  24
HETATM   24  C   UNL     1      -9.056  15.817  65.805  1.00  0.00    -0.152 C  
BRANCH  24  25
HETATM   25  C   UNL     1      -8.959  17.012  66.725  1.00  0.00    -0.244 C  
HETATM   26  N   UNL     1     -10.000  17.377  67.494  1.00  0.00    -0.288 NA 
HETATM   27  N   UNL     1      -7.898  17.761  66.861  1.00  0.00    -0.214 NA 
HETATM   28  O   UNL     1     -10.203  19.053  69.072  1.00  0.00    -0.353 OA 
HETATM   29  C   UNL     1      -9.578  18.445  68.224  1.00  0.00    -0.334 C  
HETATM   30  N   UNL     1      -8.276  18.684  67.803  1.00  0.00    -0.252 NA 
HETATM   31  H   UNL     1      -7.002  17.679  66.381  1.00  0.00     0.000 HD 
ENDBRANCH  24  25
ENDBRANCH  22  24
BRANCH  23  32
HETATM   32  C   UNL     1     -10.655  13.290  65.831  1.00  0.00    -0.288 A  
HETATM   33  C   UNL     1     -12.300  12.215  63.816  1.00  0.00    -0.532 A  
HETATM   34  F   UNL     1     -13.083  11.671  62.878  1.00  0.00    -0.568 F  
HETATM   35  C   UNL     1     -12.046  13.239  65.999  1.00  0.00    -0.491 A  
HETATM   36  C   UNL     1     -10.930  12.279  63.615  1.00  0.00    -0.532 A  
HETATM   37  C   UNL     1     -12.864  12.700  64.996  1.00  0.00    -0.242 A  
HETATM   38  C   UNL     1     -10.113  12.817  64.614  1.00  0.00    -0.256 A  
ENDBRANCH  23  32
ENDBRANCH  17  18
ENDBRANCH   2  17
TORSDOF 6
ENDMDL
MODEL      120
REMARK 921   NORMALIZED FREE ENERGY PREDICTED BY IDOCK:   -6.11 KCAL/MOL
REMARK 922        TOTAL FREE ENERGY PREDICTED BY IDOCK:  -10.39 KCAL/MOL
REMARK 923 INTER-LIGAND FREE ENERGY PREDICTED BY IDOCK:   -8.92 KCAL/MOL
REMARK 924 INTRA-LIGAND FREE ENERGY PREDICTED BY IDOCK:   -1.46 KCAL/MOL
REMARK 927      BINDING AFFINITY PREDICTED BY RF-SCORE:    0.00 PKD
ROOT
HETATM    1  C   UNL     1      -9.625  14.848  68.020  1.00  0.00    -0.207 C  
HETATM    2  C   UNL     1      -9.847  13.352  68.283  1.00  0.00    -0.235 C  
ENDROOT
BRANCH   2   3
HETATM    3  C   UNL     1     -10.944  13.069  69.324  1.00  0.00    -0.122 A  
HETATM    4  C   UNL     1     -11.629  14.105  69.987  1.00  0.00    -0.315 A  
HETATM    5  C   UNL     1     -11.281  11.745  69.656  1.00  0.00    -0.225 A  
HETATM    6  F   UNL     1     -13.958  15.815  70.757  1.00  0.00    -0.384 F  
HETATM    7  F   UNL     1     -14.250  14.616  72.546  1.00  0.00    -0.507 F  
HETATM    8  C   UNL     1     -12.269  11.457  70.620  1.00  0.00    -0.484 A  
HETATM    9  C   UNL     1     -12.614  10.034  70.994  1.00  0.00    -0.367 C  
HETATM   10  C   UNL     1     -12.933  12.517  71.260  1.00  0.00    -0.301 A  
HETATM   11  F   UNL     1     -12.445  15.804  72.318  1.00  0.00    -0.377 F  
HETATM   12  F   UNL     1     -11.921   9.097  70.286  1.00  0.00    -0.190 F  
HETATM   13  F   UNL     1     -12.372   9.767  72.306  1.00  0.00    -0.404 F  
HETATM   14  F   UNL     1     -13.932   9.748  70.794  1.00  0.00    -0.341 F  
HETATM   15  C   UNL     1     -13.311  15.002  71.639  1.00  0.00    -0.401 C  
HETATM   16  C   UNL     1     -12.619  13.847  70.952  1.00  0.00    -0.431 A  
ENDBRANCH   2   3
BRANCH   2  17
HETATM   17  O   UNL     1      -8.607  12.620  68.452  1.00  0.00    -0.174 OA 
BRANCH  17  18
HETATM   18  C   UNL     1      -7.794  12.480  67.279  1.00  0.00    -0.160 C  
HETATM   19  C   UNL     1      -6.717   9.807  67.279  1.00  0.00    -0.074 C  
HETATM   20  C   UNL     1      -6.380  10.904  68.282  1.00  0.00    -0.056 C  
HETATM   21  O   UNL     1      -6.438  12.189  67.651  1.00  0.00    -0.082 OA 
HETATM   22  N   UNL     1      -8.078   9.937  66.686  1.00  0.00    -0.116 NA 
HETATM   23  C   UNL     1      -8.243  11.368  66.216  1.00  0.00    -0.088 C  
BRANCH  22  24
HETATM   24  C   UNL     1      -8.168   9.002  65.528  1.00  0.00    -0.122 C  
BRANCH  24  25
HETATM   25  C   UNL     1      -8.927   7.745  65.886  1.00  0.00    -0.113 C  
HETATM   26  N   UNL     1      -9.770   7.722  66.934  1.00  0.00    -0.198 NA 
HETATM   27  N   UNL     1      -8.846   6.617  65.233  1.00  0.00    -0.364 NA 
HETATM   28  O   UNL     1     -11.158   6.052  67.724  1.00  0.00    -0.300 OA 
HETATM   29  C   UNL     1     -10.316   6.475  66.956  1.00  0.00    -0.253 C  
HETATM   30  N   UNL     1      -9.715   5.795  65.904  1.00  0.00    -0.018 NA 
HETATM   31  H   UNL     1      -8.274   6.400  64.417  1.00  0.00     0.000 HD 
ENDBRANCH  24  25
ENDBRANCH  22  24
BRANCH  23  32
HETATM   32  C   UNL     1      -9.581  11.637  65.522  1.00  0.00    -0.241 A  
HETATM   33  C   UNL     1     -11.975  11.910  64.065  1.00  0.00    -0.356 A  
HETATM   34  F   UNL     1     -13.113  12.001  63.368  1.00  0.00    -0.608 F  
HETATM   35  C   UNL     1     -10.819  11.390  66.132  1.00  0.00    -0.310 A  
HETATM   36  C   UNL     1     -10.766  12.187  63.447  1.00  0.00    -0.461 A  
HETATM   37  C   UNL     1     -12.011  11.522  65.404  1.00  0.00     0.485 A  
HETATM   38  C   UNL     1      -9.577  12.056  64.171  1.00  0.00    -0.020 A  
ENDBRANCH  23  32
ENDBRANCH  17  18
ENDBRANCH   2  17
TORSDOF 6
ENDMDL
MODEL      121
REMARK 921   NORMALIZED FREE ENERGY PREDICTED BY IDOCK:   -6.11 KCAL/MOL
REMARK 922        TOTAL FREE ENERGY PREDICTED BY IDOCK:  -10.38 KCAL/MOL
REMARK 923 INTER-LIGAND FREE ENERGY PREDICTED BY IDOCK:   -6.84 KCAL/MOL
REMARK 924 INTRA-LIGAND FREE ENERGY PREDICTED BY IDOCK:   -3.54 KCAL/MOL
REMARK 927      BINDING AFFINITY PREDICTED BY RF-SCORE:    0.00 PKD
ROOT
HETATM    1  C   UNL     1      -5.522   9.865  69.388  1.00  0.00    -0.034 C  
HETATM    2  C   UNL     1      -6.491   8.677  69.311  1.00  0.00    -0.042 C  
ENDROOT
BRANCH   2   3
HETATM    3  C   UNL     1      -7.235   8.579  67.968  1.00  0.00    -0.087 A  
HETATM    4  C   UNL     1      -8.181   9.541  67.566  1.00  0.00    -0.121 A  
HETATM    5  C   UNL     1      -6.993   7.498  67.102  1.00  0.00    -0.083 A  
HETATM    6  F   UNL     1      -9.335  11.744  65.905  1.00  0.00    -0.217 F  
HETATM    7  F   UNL     1     -10.483  10.289  64.768  1.00  0.00    -0.403 F  
HETATM    8  C   UNL     1      -7.673   7.373  65.873  1.00  0.00    -0.093 A  
HETATM    9  C   UNL     1      -7.431   6.197  64.955  1.00  0.00    -0.083 C  
HETATM   10  C   UNL     1      -8.611   8.353  65.505  1.00  0.00    -0.201 A  
HETATM   11  F   UNL     1     -10.902  10.594  66.879  1.00  0.00    -0.292 F  
HETATM   12  F   UNL     1      -6.483   5.331  65.410  1.00  0.00    -0.035 F  
HETATM   13  F   UNL     1      -8.553   5.454  64.753  1.00  0.00    -0.140 F  
HETATM   14  F   UNL     1      -7.015   6.583  63.715  1.00  0.00    -0.043 F  
HETATM   15  C   UNL     1      -9.888  10.500  65.975  1.00  0.00    -0.222 C  
HETATM   16  C   UNL     1      -8.874   9.441  66.346  1.00  0.00    -0.167 A  
ENDBRANCH   2   3
BRANCH   2  17
HETATM   17  O   UNL     1      -7.309   8.540  70.501  1.00  0.00    -0.053 OA 
BRANCH  17  18
HETATM   18  C   UNL     1      -7.419   7.215  71.039  1.00  0.00    -0.077 C  
HETATM   19  C   UNL     1      -9.229   7.332  73.279  1.00  0.00    -0.174 C  
HETATM   20  C   UNL     1      -7.854   7.986  73.208  1.00  0.00    -0.167 C  
HETATM   21  O   UNL     1      -6.969   7.197  72.402  1.00  0.00    -0.064 OA 
HETATM   22  N   UNL     1      -9.883   7.170  71.948  1.00  0.00    -0.160 NA 
HETATM   23  C   UNL     1      -8.873   6.542  71.010  1.00  0.00    -0.139 C  
BRANCH  22  24
HETATM   24  C   UNL     1     -11.058   6.269  72.119  1.00  0.00    -0.269 C  
BRANCH  24  25
HETATM   25  C   UNL     1     -12.361   7.028  72.021  1.00  0.00    -0.267 C  
HETATM   26  N   UNL     1     -12.371   8.360  71.833  1.00  0.00    -0.326 NA 
HETATM   27  N   UNL     1     -13.545   6.484  72.095  1.00  0.00    -0.419 NA 
HETATM   28  O   UNL     1     -14.127   9.834  71.539  1.00  0.00    -0.064 OA 
HETATM   29  C   UNL     1     -13.680   8.722  71.747  1.00  0.00    -0.419 C  
HETATM   30  N   UNL     1     -14.398   7.546  71.932  1.00  0.00    -0.391 NA 
HETATM   31  H   UNL     1     -13.781   5.502  72.239  1.00  0.00     0.000 HD 
ENDBRANCH  24  25
ENDBRANCH  22  24
BRANCH  23  32
HETATM   32  C   UNL     1      -9.428   6.255  69.612  1.00  0.00    -0.157 A  
HETATM   33  C   UNL     1     -10.586   5.497  67.160  1.00  0.00    -0.240 A  
HETATM   34  F   UNL     1     -11.169   5.125  66.015  1.00  0.00    -0.276 F  
HETATM   35  C   UNL     1     -10.366   7.084  68.980  1.00  0.00    -0.208 A  
HETATM   36  C   UNL     1      -9.642   4.673  67.751  1.00  0.00    -0.203 A  
HETATM   37  C   UNL     1     -10.946   6.703  67.761  1.00  0.00    -0.367 A  
HETATM   38  C   UNL     1      -9.063   5.051  68.966  1.00  0.00    -0.140 A  
ENDBRANCH  23  32
ENDBRANCH  17  18
ENDBRANCH   2  17
TORSDOF 6
ENDMDL
MODEL      122
REMARK 921   NORMALIZED FREE ENERGY PREDICTED BY IDOCK:   -6.11 KCAL/MOL
REMARK 922        TOTAL FREE ENERGY PREDICTED BY IDOCK:  -10.38 KCAL/MOL
REMARK 923 INTER-LIGAND FREE ENERGY PREDICTED BY IDOCK:   -8.91 KCAL/MOL
REMARK 924 INTRA-LIGAND FREE ENERGY PREDICTED BY IDOCK:   -1.47 KCAL/MOL
REMARK 927      BINDING AFFINITY PREDICTED BY RF-SCORE:    0.00 PKD
ROOT
HETATM    1  C   UNL     1     -10.367   9.989  67.160  1.00  0.00    -0.300 C  
HETATM    2  C   UNL     1     -11.240  10.045  68.422  1.00  0.00    -0.127 C  
ENDROOT
BRANCH   2   3
HETATM    3  C   UNL     1     -11.578  11.478  68.868  1.00  0.00    -0.384 A  
HETATM    4  C   UNL     1     -11.245  12.602  68.088  1.00  0.00    -0.311 A  
HETATM    5  C   UNL     1     -12.227  11.703  70.096  1.00  0.00    -0.367 A  
HETATM    6  F   UNL     1     -11.723  15.021  66.396  1.00  0.00    -0.339 F  
HETATM    7  F   UNL     1     -11.489  16.292  68.144  1.00  0.00    -0.353 F  
HETATM    8  C   UNL     1     -12.532  13.007  70.538  1.00  0.00    -0.306 A  
HETATM    9  C   UNL     1     -13.206  13.249  71.869  1.00  0.00    -0.431 C  
HETATM   10  C   UNL     1     -12.185  14.104  69.732  1.00  0.00    -0.397 A  
HETATM   11  F   UNL     1      -9.801  15.139  67.407  1.00  0.00    -0.219 F  
HETATM   12  F   UNL     1     -13.515  12.106  72.544  1.00  0.00    -0.583 F  
HETATM   13  F   UNL     1     -12.438  13.989  72.714  1.00  0.00    -0.301 F  
HETATM   14  F   UNL     1     -14.380  13.931  71.741  1.00  0.00    -0.462 F  
HETATM   15  C   UNL     1     -11.143  15.080  67.628  1.00  0.00    -0.316 C  
HETATM   16  C   UNL     1     -11.538  13.913  68.505  1.00  0.00    -0.367 A  
ENDBRANCH   2   3
BRANCH   2  17
HETATM   17  O   UNL     1     -10.781   9.147  69.464  1.00  0.00    -0.228 OA 
BRANCH  17  18
HETATM   18  C   UNL     1      -9.377   8.856  69.470  1.00  0.00    -0.155 C  
HETATM   19  C   UNL     1      -8.814   7.327  71.847  1.00  0.00    -0.122 C  
HETATM   20  C   UNL     1      -9.264   8.783  71.808  1.00  0.00    -0.262 C  
HETATM   21  O   UNL     1      -8.760   9.428  70.633  1.00  0.00    -0.223 OA 
HETATM   22  N   UNL     1      -9.281   6.526  70.679  1.00  0.00    -0.161 NA 
HETATM   23  C   UNL     1      -8.959   7.309  69.423  1.00  0.00    -0.139 C  
BRANCH  22  24
HETATM   24  C   UNL     1      -8.542   5.232  70.682  1.00  0.00    -0.122 C  
BRANCH  24  25
HETATM   25  C   UNL     1      -8.922   4.376  71.869  1.00  0.00    -0.124 C  
HETATM   26  N   UNL     1     -10.151   3.836  71.965  1.00  0.00    -0.167 NA 
HETATM   27  N   UNL     1      -8.125   4.085  72.861  1.00  0.00    -0.087 NA 
HETATM   28  O   UNL     1     -11.061   2.418  73.546  1.00  0.00    -0.181 OA 
HETATM   29  C   UNL     1     -10.154   3.100  73.109  1.00  0.00    -0.137 C  
HETATM   30  N   UNL     1      -8.893   3.282  73.665  1.00  0.00    -0.076 NA 
HETATM   31  H   UNL     1      -7.160   4.384  73.004  1.00  0.00     0.000 HD 
ENDBRANCH  24  25
ENDBRANCH  22  24
BRANCH  23  32
HETATM   32  C   UNL     1      -9.328   6.576  68.130  1.00  0.00    -0.109 A  
HETATM   33  C   UNL     1      -9.814   5.021  65.834  1.00  0.00    -0.164 A  
HETATM   34  F   UNL     1     -10.040   4.250  64.765  1.00  0.00    -0.179 F  
HETATM   35  C   UNL     1     -10.586   5.997  67.915  1.00  0.00    -0.337 A  
HETATM   36  C   UNL     1      -8.570   5.606  66.009  1.00  0.00    -0.137 A  
HETATM   37  C   UNL     1     -10.826   5.219  66.773  1.00  0.00    -0.124 A  
HETATM   38  C   UNL     1      -8.329   6.382  67.147  1.00  0.00    -0.112 A  
ENDBRANCH  23  32
ENDBRANCH  17  18
ENDBRANCH   2  17
TORSDOF 6
ENDMDL
MODEL      123
REMARK 921   NORMALIZED FREE ENERGY PREDICTED BY IDOCK:   -6.10 KCAL/MOL
REMARK 922        TOTAL FREE ENERGY PREDICTED BY IDOCK:  -10.38 KCAL/MOL
REMARK 923 INTER-LIGAND FREE ENERGY PREDICTED BY IDOCK:   -8.76 KCAL/MOL
REMARK 924 INTRA-LIGAND FREE ENERGY PREDICTED BY IDOCK:   -1.62 KCAL/MOL
REMARK 927      BINDING AFFINITY PREDICTED BY RF-SCORE:    0.00 PKD
ROOT
HETATM    1  C   UNL     1     -11.791  10.521  69.983  1.00  0.00    -0.388 C  
HETATM    2  C   UNL     1     -10.596  11.130  69.235  1.00  0.00    -0.175 C  
ENDROOT
BRANCH   2   3
HETATM    3  C   UNL     1     -10.930  12.450  68.520  1.00  0.00    -0.277 A  
HETATM    4  C   UNL     1     -10.665  13.704  69.102  1.00  0.00    -0.137 A  
HETATM    5  C   UNL     1     -11.536  12.434  67.250  1.00  0.00    -0.435 A  
HETATM    6  F   UNL     1      -9.362  16.379  69.409  1.00  0.00    -0.246 F  
HETATM    7  F   UNL     1     -11.046  17.317  68.404  1.00  0.00    -0.335 F  
HETATM    8  C   UNL     1     -11.871  13.628  66.580  1.00  0.00    -0.441 A  
HETATM    9  C   UNL     1     -12.545  13.609  65.227  1.00  0.00    -0.469 C  
HETATM   10  C   UNL     1     -11.590  14.861  67.192  1.00  0.00    -0.327 A  
HETATM   11  F   UNL     1     -11.330  16.355  70.332  1.00  0.00    -0.349 F  
HETATM   12  F   UNL     1     -12.740  12.356  64.728  1.00  0.00    -0.530 F  
HETATM   13  F   UNL     1     -13.770  14.201  65.247  1.00  0.00    -0.131 F  
HETATM   14  F   UNL     1     -11.827  14.276  64.279  1.00  0.00    -0.402 F  
HETATM   15  C   UNL     1     -10.689  16.226  69.138  1.00  0.00    -0.305 C  
HETATM   16  C   UNL     1     -10.988  14.911  68.456  1.00  0.00    -0.260 A  
ENDBRANCH   2   3
BRANCH   2  17
HETATM   17  O   UNL     1      -9.862  10.153  68.455  1.00  0.00    -0.146 OA 
BRANCH  17  18
HETATM   18  C   UNL     1     -10.632   9.062  67.930  1.00  0.00    -0.196 C  
HETATM   19  C   UNL     1      -8.869   7.449  66.319  1.00  0.00    -0.159 C  
HETATM   20  C   UNL     1      -9.306   8.876  66.008  1.00  0.00    -0.242 C  
HETATM   21  O   UNL     1     -10.633   9.107  66.495  1.00  0.00    -0.174 OA 
HETATM   22  N   UNL     1      -8.857   7.132  67.776  1.00  0.00    -0.124 NA 
HETATM   23  C   UNL     1     -10.180   7.585  68.358  1.00  0.00    -0.185 C  
BRANCH  22  24
HETATM   24  C   UNL     1      -8.708   5.656  67.926  1.00  0.00    -0.107 C  
BRANCH  24  25
HETATM   25  C   UNL     1      -7.391   5.292  68.572  1.00  0.00    -0.071 C  
HETATM   26  N   UNL     1      -7.327   4.979  69.879  1.00  0.00    -0.058 NA 
HETATM   27  N   UNL     1      -6.246   5.239  67.947  1.00  0.00    -0.036 NA 
HETATM   28  O   UNL     1      -5.551   4.287  71.184  1.00  0.00    -0.007 OA 
HETATM   29  C   UNL     1      -6.028   4.664  70.131  1.00  0.00    -0.017 C  
HETATM   30  N   UNL     1      -5.365   4.851  68.924  1.00  0.00    -0.004 NA 
HETATM   31  H   UNL     1      -6.053   5.439  66.966  1.00  0.00     0.000 HD 
ENDBRANCH  24  25
ENDBRANCH  22  24
BRANCH  23  32
HETATM   32  C   UNL     1     -10.338   7.265  69.848  1.00  0.00    -0.226 A  
HETATM   33  C   UNL     1     -10.666   6.965  72.628  1.00  0.00    -0.244 A  
HETATM   34  F   UNL     1     -10.847   6.852  73.948  1.00  0.00    -0.355 F  
HETATM   35  C   UNL     1     -11.445   6.577  70.365  1.00  0.00    -0.465 A  
HETATM   36  C   UNL     1      -9.549   7.626  72.141  1.00  0.00    -0.207 A  
HETATM   37  C   UNL     1     -11.609   6.432  71.750  1.00  0.00    -0.367 A  
HETATM   38  C   UNL     1      -9.383   7.771  70.760  1.00  0.00    -0.162 A  
ENDBRANCH  23  32
ENDBRANCH  17  18
ENDBRANCH   2  17
TORSDOF 6
ENDMDL
MODEL      124
REMARK 921   NORMALIZED FREE ENERGY PREDICTED BY IDOCK:   -6.08 KCAL/MOL
REMARK 922        TOTAL FREE ENERGY PREDICTED BY IDOCK:  -10.34 KCAL/MOL
REMARK 923 INTER-LIGAND FREE ENERGY PREDICTED BY IDOCK:  -10.87 KCAL/MOL
REMARK 924 INTRA-LIGAND FREE ENERGY PREDICTED BY IDOCK:    0.53 KCAL/MOL
REMARK 927      BINDING AFFINITY PREDICTED BY RF-SCORE:    0.00 PKD
ROOT
HETATM    1  C   UNL     1     -12.507  12.850  65.137  1.00  0.00    -0.561 C  
HETATM    2  C   UNL     1     -11.266  12.746  66.036  1.00  0.00    -0.299 C  
ENDROOT
BRANCH   2   3
HETATM    3  C   UNL     1     -10.609  11.356  66.012  1.00  0.00    -0.319 A  
HETATM    4  C   UNL     1      -9.875  10.895  64.902  1.00  0.00    -0.339 A  
HETATM    5  C   UNL     1     -10.742  10.489  67.112  1.00  0.00    -0.323 A  
HETATM    6  F   UNL     1      -7.468   9.993  63.373  1.00  0.00    -0.123 F  
HETATM    7  F   UNL     1      -8.004   7.919  63.750  1.00  0.00    -0.129 F  
HETATM    8  C   UNL     1     -10.166   9.203  67.110  1.00  0.00    -0.329 A  
HETATM    9  C   UNL     1     -10.332   8.263  68.283  1.00  0.00    -0.198 C  
HETATM   10  C   UNL     1      -9.440   8.778  65.985  1.00  0.00    -0.302 A  
HETATM   11  F   UNL     1      -9.291   9.168  62.523  1.00  0.00    -0.233 F  
HETATM   12  F   UNL     1     -11.033   8.800  69.321  1.00  0.00    -0.218 F  
HETATM   13  F   UNL     1     -10.980   7.117  67.944  1.00  0.00    -0.260 F  
HETATM   14  F   UNL     1      -9.136   7.872  68.808  1.00  0.00    -0.139 F  
HETATM   15  C   UNL     1      -8.523   9.175  63.647  1.00  0.00    -0.184 C  
HETATM   16  C   UNL     1      -9.289   9.617  64.873  1.00  0.00    -0.306 A  
ENDBRANCH   2   3
BRANCH   2  17
HETATM   17  O   UNL     1     -11.471  13.329  67.348  1.00  0.00    -0.297 OA 
BRANCH  17  18
HETATM   18  C   UNL     1     -10.330  13.970  67.936  1.00  0.00    -0.239 C  
HETATM   19  C   UNL     1      -9.906  16.452  66.533  1.00  0.00    -0.274 C  
HETATM   20  C   UNL     1      -9.744  15.055  65.944  1.00  0.00    -0.342 C  
HETATM   21  O   UNL     1      -9.298  14.139  66.951  1.00  0.00    -0.243 OA 
HETATM   22  N   UNL     1     -10.894  16.519  67.648  1.00  0.00    -0.306 NA 
HETATM   23  C   UNL     1     -10.574  15.400  68.617  1.00  0.00    -0.239 C  
BRANCH  22  24
HETATM   24  C   UNL     1     -10.741  17.841  68.319  1.00  0.00    -0.247 C  
BRANCH  24  25
HETATM   25  C   UNL     1      -9.296  18.281  68.361  1.00  0.00    -0.314 C  
HETATM   26  N   UNL     1      -8.947  19.535  68.020  1.00  0.00    -0.320 NA 
HETATM   27  N   UNL     1      -8.298  17.523  68.725  1.00  0.00    -0.256 NA 
HETATM   28  O   UNL     1      -6.894  20.596  68.048  1.00  0.00    -0.298 OA 
HETATM   29  C   UNL     1      -7.602  19.619  68.204  1.00  0.00    -0.307 C  
HETATM   30  N   UNL     1      -7.211  18.353  68.624  1.00  0.00    -0.279 NA 
HETATM   31  H   UNL     1      -8.321  16.546  69.017  1.00  0.00     0.000 HD 
ENDBRANCH  24  25
ENDBRANCH  22  24
BRANCH  23  32
HETATM   32  C   UNL     1     -11.475  15.383  69.855  1.00  0.00    -0.329 A  
HETATM   33  C   UNL     1     -13.133  15.645  72.116  1.00  0.00    -0.458 A  
HETATM   34  F   UNL     1     -13.937  15.800  73.173  1.00  0.00    -0.594 F  
HETATM   35  C   UNL     1     -12.793  14.905  69.831  1.00  0.00    -0.035 A  
HETATM   36  C   UNL     1     -11.825  16.100  72.174  1.00  0.00    -0.626 A  
HETATM   37  C   UNL     1     -13.619  15.040  70.957  1.00  0.00    -0.442 A  
HETATM   38  C   UNL     1     -11.000  15.966  71.053  1.00  0.00    -0.169 A  
ENDBRANCH  23  32
ENDBRANCH  17  18
ENDBRANCH   2  17
TORSDOF 6
ENDMDL
MODEL      125
REMARK 921   NORMALIZED FREE ENERGY PREDICTED BY IDOCK:   -6.08 KCAL/MOL
REMARK 922        TOTAL FREE ENERGY PREDICTED BY IDOCK:  -10.34 KCAL/MOL
REMARK 923 INTER-LIGAND FREE ENERGY PREDICTED BY IDOCK:   -9.29 KCAL/MOL
REMARK 924 INTRA-LIGAND FREE ENERGY PREDICTED BY IDOCK:   -1.05 KCAL/MOL
REMARK 927      BINDING AFFINITY PREDICTED BY RF-SCORE:    0.00 PKD
ROOT
HETATM    1  C   UNL     1      -7.411   8.895  70.787  1.00  0.00    -0.091 C  
HETATM    2  C   UNL     1      -8.872   9.366  70.826  1.00  0.00    -0.171 C  
ENDROOT
BRANCH   2   3
HETATM    3  C   UNL     1      -9.863   8.255  71.211  1.00  0.00    -0.225 A  
HETATM    4  C   UNL     1     -11.242   8.499  71.354  1.00  0.00    -0.327 A  
HETATM    5  C   UNL     1      -9.403   6.947  71.451  1.00  0.00    -0.156 A  
HETATM    6  F   UNL     1     -14.157   8.293  70.718  1.00  0.00    -0.108 F  
HETATM    7  F   UNL     1     -14.379   6.747  72.230  1.00  0.00    -0.381 F  
HETATM    8  C   UNL     1     -10.286   5.913  71.824  1.00  0.00    -0.263 A  
HETATM    9  C   UNL     1      -9.787   4.515  72.106  1.00  0.00    -0.177 C  
HETATM   10  C   UNL     1     -11.657   6.195  71.956  1.00  0.00    -0.364 A  
HETATM   11  F   UNL     1     -13.845   8.770  72.816  1.00  0.00    -0.420 F  
HETATM   12  F   UNL     1      -8.446   4.362  71.919  1.00  0.00    -0.101 F  
HETATM   13  F   UNL     1     -10.036   4.121  73.384  1.00  0.00    -0.136 F  
HETATM   14  F   UNL     1     -10.380   3.581  71.309  1.00  0.00    -0.160 F  
HETATM   15  C   UNL     1     -13.614   7.816  71.873  1.00  0.00    -0.270 C  
HETATM   16  C   UNL     1     -12.145   7.487  71.724  1.00  0.00    -0.340 A  
ENDBRANCH   2   3
BRANCH   2  17
HETATM   17  O   UNL     1      -9.235  10.170  69.675  1.00  0.00    -0.214 OA 
BRANCH  17  18
HETATM   18  C   UNL     1      -8.530   9.881  68.459  1.00  0.00    -0.112 C  
HETATM   19  C   UNL     1     -10.494   9.475  66.389  1.00  0.00    -0.098 C  
HETATM   20  C   UNL     1     -10.274   8.575  67.600  1.00  0.00    -0.236 C  
HETATM   21  O   UNL     1      -8.892   8.578  67.978  1.00  0.00    -0.140 OA 
HETATM   22  N   UNL     1     -10.112  10.897  66.626  1.00  0.00    -0.211 NA 
HETATM   23  C   UNL     1      -8.730  10.908  67.246  1.00  0.00    -0.131 C  
BRANCH  22  24
HETATM   24  C   UNL     1     -10.090  11.593  65.308  1.00  0.00    -0.264 C  
BRANCH  24  25
HETATM   25  C   UNL     1     -11.219  12.591  65.186  1.00  0.00    -0.304 C  
HETATM   26  N   UNL     1     -11.179  13.569  64.263  1.00  0.00    -0.377 NA 
HETATM   27  N   UNL     1     -12.294  12.591  65.926  1.00  0.00    -0.603 NA 
HETATM   28  O   UNL     1     -12.725  15.195  63.712  1.00  0.00    -0.722 OA 
HETATM   29  C   UNL     1     -12.346  14.256  64.386  1.00  0.00    -0.391 C  
HETATM   30  N   UNL     1     -13.019  13.648  65.439  1.00  0.00    -0.699 NA 
HETATM   31  H   UNL     1     -12.538  11.955  66.686  1.00  0.00     0.000 HD 
ENDBRANCH  24  25
ENDBRANCH  22  24
BRANCH  23  32
HETATM   32  C   UNL     1      -8.176  12.315  67.488  1.00  0.00    -0.170 A  
HETATM   33  C   UNL     1      -7.251  14.874  68.211  1.00  0.00    -0.113 A  
HETATM   34  F   UNL     1      -6.803  16.076  68.590  1.00  0.00    -0.117 F  
HETATM   35  C   UNL     1      -6.804  12.603  67.486  1.00  0.00    -0.151 A  
HETATM   36  C   UNL     1      -8.614  14.622  68.195  1.00  0.00    -0.166 A  
HETATM   37  C   UNL     1      -6.344  13.877  67.851  1.00  0.00    -0.167 A  
HETATM   38  C   UNL     1      -9.074  13.352  67.831  1.00  0.00    -0.208 A  
ENDBRANCH  23  32
ENDBRANCH  17  18
ENDBRANCH   2  17
TORSDOF 6
ENDMDL
MODEL      126
REMARK 921   NORMALIZED FREE ENERGY PREDICTED BY IDOCK:   -6.07 KCAL/MOL
REMARK 922        TOTAL FREE ENERGY PREDICTED BY IDOCK:  -10.34 KCAL/MOL
REMARK 923 INTER-LIGAND FREE ENERGY PREDICTED BY IDOCK:   -8.97 KCAL/MOL
REMARK 924 INTRA-LIGAND FREE ENERGY PREDICTED BY IDOCK:   -1.37 KCAL/MOL
REMARK 927      BINDING AFFINITY PREDICTED BY RF-SCORE:    0.00 PKD
ROOT
HETATM    1  C   UNL     1     -12.058  10.983  69.354  1.00  0.00    -0.389 C  
HETATM    2  C   UNL     1     -10.725  11.351  68.686  1.00  0.00    -0.206 C  
ENDROOT
BRANCH   2   3
HETATM    3  C   UNL     1     -10.878  12.344  67.521  1.00  0.00    -0.271 A  
HETATM    4  C   UNL     1     -11.515  11.991  66.316  1.00  0.00    -0.408 A  
HETATM    5  C   UNL     1     -10.360  13.647  67.629  1.00  0.00    -0.239 A  
HETATM    6  F   UNL     1     -13.610  12.062  64.184  1.00  0.00    -0.353 F  
HETATM    7  F   UNL     1     -12.379  13.420  63.016  1.00  0.00    -0.607 F  
HETATM    8  C   UNL     1     -10.469  14.572  66.571  1.00  0.00    -0.285 A  
HETATM    9  C   UNL     1      -9.890  15.964  66.679  1.00  0.00    -0.254 C  
HETATM   10  C   UNL     1     -11.113  14.184  65.383  1.00  0.00    -0.321 A  
HETATM   11  F   UNL     1     -11.704  11.388  63.386  1.00  0.00    -0.488 F  
HETATM   12  F   UNL     1      -9.316  16.228  67.886  1.00  0.00    -0.203 F  
HETATM   13  F   UNL     1      -8.930  16.203  65.745  1.00  0.00    -0.348 F  
HETATM   14  F   UNL     1     -10.832  16.934  66.497  1.00  0.00    -0.258 F  
HETATM   15  C   UNL     1     -12.322  12.450  63.971  1.00  0.00    -0.488 C  
HETATM   16  C   UNL     1     -11.638  12.893  65.245  1.00  0.00    -0.376 A  
ENDBRANCH   2   3
BRANCH   2  17
HETATM   17  O   UNL     1      -9.887  10.195  68.430  1.00  0.00    -0.146 OA 
BRANCH  17  18
HETATM   18  C   UNL     1     -10.571   8.996  68.040  1.00  0.00    -0.186 C  
HETATM   19  C   UNL     1      -8.655   7.286  66.732  1.00  0.00    -0.127 C  
HETATM   20  C   UNL     1      -9.159   8.625  66.208  1.00  0.00    -0.186 C  
HETATM   21  O   UNL     1     -10.517   8.840  66.614  1.00  0.00    -0.264 OA 
HETATM   22  N   UNL     1      -8.685   7.177  68.220  1.00  0.00    -0.128 NA 
HETATM   23  C   UNL     1     -10.054   7.625  68.688  1.00  0.00    -0.190 C  
BRANCH  22  24
HETATM   24  C   UNL     1      -8.458   5.750  68.582  1.00  0.00    -0.107 C  
BRANCH  24  25
HETATM   25  C   UNL     1      -7.191   5.573  69.386  1.00  0.00    -0.065 C  
HETATM   26  N   UNL     1      -7.240   5.343  70.710  1.00  0.00    -0.067 NA 
HETATM   27  N   UNL     1      -5.984   5.615  68.889  1.00  0.00    -0.022 NA 
HETATM   28  O   UNL     1      -5.557   4.929  72.238  1.00  0.00    -0.007 OA 
HETATM   29  C   UNL     1      -5.951   5.190  71.118  1.00  0.00    -0.021 C  
HETATM   30  N   UNL     1      -5.181   5.384  69.977  1.00  0.00    -0.004 NA 
HETATM   31  H   UNL     1      -5.704   5.781  67.922  1.00  0.00     0.000 HD 
ENDBRANCH  24  25
ENDBRANCH  22  24
BRANCH  23  32
HETATM   32  C   UNL     1     -10.255   7.507  70.202  1.00  0.00    -0.206 A  
HETATM   33  C   UNL     1     -10.600   6.999  72.950  1.00  0.00    -0.272 A  
HETATM   34  F   UNL     1     -10.739   6.727  74.252  1.00  0.00    -0.344 F  
HETATM   35  C   UNL     1      -9.301   7.944  71.133  1.00  0.00    -0.171 A  
HETATM   36  C   UNL     1     -11.570   6.581  72.052  1.00  0.00    -0.354 A  
HETATM   37  C   UNL     1      -9.473   7.686  72.501  1.00  0.00    -0.222 A  
HETATM   38  C   UNL     1     -11.401   6.837  70.688  1.00  0.00    -0.384 A  
ENDBRANCH  23  32
ENDBRANCH  17  18
ENDBRANCH   2  17
TORSDOF 6
ENDMDL
MODEL      127
REMARK 921   NORMALIZED FREE ENERGY PREDICTED BY IDOCK:   -6.04 KCAL/MOL
REMARK 922        TOTAL FREE ENERGY PREDICTED BY IDOCK:  -10.29 KCAL/MOL
REMARK 923 INTER-LIGAND FREE ENERGY PREDICTED BY IDOCK:   -7.37 KCAL/MOL
REMARK 924 INTRA-LIGAND FREE ENERGY PREDICTED BY IDOCK:   -2.91 KCAL/MOL
REMARK 927      BINDING AFFINITY PREDICTED BY RF-SCORE:    0.00 PKD
ROOT
HETATM    1  C   UNL     1      -6.809   9.889  70.678  1.00  0.00    -0.087 C  
HETATM    2  C   UNL     1      -8.267  10.176  70.290  1.00  0.00     0.200 C  
ENDROOT
BRANCH   2   3
HETATM    3  C   UNL     1      -9.211   8.986  70.533  1.00  0.00    -0.261 A  
HETATM    4  C   UNL     1     -10.533   9.160  70.986  1.00  0.00    -0.368 A  
HETATM    5  C   UNL     1      -8.761   7.670  70.321  1.00  0.00    -0.144 A  
HETATM    6  F   UNL     1     -13.520   9.088  70.860  1.00  0.00    -0.227 F  
HETATM    7  F   UNL     1     -13.520   7.184  71.910  1.00  0.00    -0.370 F  
HETATM    8  C   UNL     1      -9.598   6.560  70.554  1.00  0.00    -0.180 A  
HETATM    9  C   UNL     1      -9.105   5.146  70.350  1.00  0.00    -0.134 C  
HETATM   10  C   UNL     1     -10.911   6.773  71.004  1.00  0.00    -0.297 A  
HETATM   11  F   UNL     1     -12.819   8.979  72.915  1.00  0.00    -0.442 F  
HETATM   12  F   UNL     1      -7.825   5.072  69.887  1.00  0.00    -0.066 F  
HETATM   13  F   UNL     1      -9.133   4.414  71.496  1.00  0.00    -0.135 F  
HETATM   14  F   UNL     1      -9.863   4.456  69.450  1.00  0.00    -0.243 F  
HETATM   15  C   UNL     1     -12.795   8.322  71.723  1.00  0.00    -0.338 C  
HETATM   16  C   UNL     1     -11.389   8.071  71.226  1.00  0.00    -0.295 A  
ENDBRANCH   2   3
BRANCH   2  17
HETATM   17  O   UNL     1      -8.389  10.831  69.002  1.00  0.00    -0.148 OA 
BRANCH  17  18
HETATM   18  C   UNL     1      -9.714  10.908  68.459  1.00  0.00    -0.183 C  
HETATM   19  C   UNL     1      -9.573  12.467  66.039  1.00  0.00    -0.202 C  
HETATM   20  C   UNL     1      -9.324  12.986  67.450  1.00  0.00    -0.209 C  
HETATM   21  O   UNL     1     -10.139  12.278  68.392  1.00  0.00    -0.214 OA 
HETATM   22  N   UNL     1      -9.267  11.017  65.873  1.00  0.00    -0.193 NA 
HETATM   23  C   UNL     1      -9.939  10.270  67.006  1.00  0.00    -0.201 C  
BRANCH  22  24
HETATM   24  C   UNL     1      -9.824  10.575  64.563  1.00  0.00    -0.337 C  
BRANCH  24  25
HETATM   25  C   UNL     1      -8.840   9.720  63.799  1.00  0.00    -0.235 C  
HETATM   26  N   UNL     1      -7.524   9.999  63.817  1.00  0.00    -0.140 NA 
HETATM   27  N   UNL     1      -9.160   8.671  63.090  1.00  0.00    -0.218 NA 
HETATM   28  O   UNL     1      -5.728   8.891  62.874  1.00  0.00    -0.080 OA 
HETATM   29  C   UNL     1      -6.919   9.029  63.077  1.00  0.00    -0.088 C  
HETATM   30  N   UNL     1      -7.953   8.224  62.616  1.00  0.00    -0.151 NA 
HETATM   31  H   UNL     1     -10.087   8.277  62.929  1.00  0.00     0.000 HD 
ENDBRANCH  24  25
ENDBRANCH  22  24
BRANCH  23  32
HETATM   32  C   UNL     1      -9.762   8.750  66.931  1.00  0.00    -0.273 A  
HETATM   33  C   UNL     1      -9.603   5.966  66.550  1.00  0.00    -0.156 A  
HETATM   34  F   UNL     1      -9.527   4.648  66.330  1.00  0.00    -0.130 F  
HETATM   35  C   UNL     1      -8.534   8.140  66.641  1.00  0.00    -0.129 A  
HETATM   36  C   UNL     1     -10.825   6.542  66.862  1.00  0.00    -0.427 A  
HETATM   37  C   UNL     1      -8.457   6.753  66.447  1.00  0.00    -0.126 A  
HETATM   38  C   UNL     1     -10.903   7.924  67.056  1.00  0.00    -0.148 A  
ENDBRANCH  23  32
ENDBRANCH  17  18
ENDBRANCH   2  17
TORSDOF 6
ENDMDL
MODEL      128
REMARK 921   NORMALIZED FREE ENERGY PREDICTED BY IDOCK:   -6.04 KCAL/MOL
REMARK 922        TOTAL FREE ENERGY PREDICTED BY IDOCK:  -10.29 KCAL/MOL
REMARK 923 INTER-LIGAND FREE ENERGY PREDICTED BY IDOCK:   -9.39 KCAL/MOL
REMARK 924 INTRA-LIGAND FREE ENERGY PREDICTED BY IDOCK:   -0.89 KCAL/MOL
REMARK 927      BINDING AFFINITY PREDICTED BY RF-SCORE:    0.00 PKD
ROOT
HETATM    1  C   UNL     1     -12.061  10.984  69.367  1.00  0.00    -0.389 C  
HETATM    2  C   UNL     1     -10.718  11.374  68.734  1.00  0.00    -0.203 C  
ENDROOT
BRANCH   2   3
HETATM    3  C   UNL     1     -10.855  12.390  67.587  1.00  0.00    -0.258 A  
HETATM    4  C   UNL     1     -11.452  12.053  66.357  1.00  0.00    -0.417 A  
HETATM    5  C   UNL     1     -10.362  13.699  67.737  1.00  0.00    -0.241 A  
HETATM    6  F   UNL     1     -13.488  12.137  64.169  1.00  0.00    -0.400 F  
HETATM    7  F   UNL     1     -12.247  13.539  63.065  1.00  0.00    -0.581 F  
HETATM    8  C   UNL     1     -10.457  14.644  66.696  1.00  0.00    -0.278 A  
HETATM    9  C   UNL     1      -9.904  16.043  66.850  1.00  0.00    -0.245 C  
HETATM   10  C   UNL     1     -11.060  14.272  65.483  1.00  0.00    -0.323 A  
HETATM   11  F   UNL     1     -11.550  11.510  63.411  1.00  0.00    -0.494 F  
HETATM   12  F   UNL     1      -9.368  16.289  68.078  1.00  0.00    -0.205 F  
HETATM   13  F   UNL     1      -8.922  16.316  65.949  1.00  0.00    -0.335 F  
HETATM   14  F   UNL     1     -10.856  17.001  66.663  1.00  0.00    -0.259 F  
HETATM   15  C   UNL     1     -12.201  12.550  64.001  1.00  0.00    -0.480 C  
HETATM   16  C   UNL     1     -11.560  12.976  65.302  1.00  0.00    -0.361 A  
ENDBRANCH   2   3
BRANCH   2  17
HETATM   17  O   UNL     1      -9.866  10.230  68.472  1.00  0.00    -0.155 OA 
BRANCH  17  18
HETATM   18  C   UNL     1     -10.530   9.042  68.021  1.00  0.00    -0.216 C  
HETATM   19  C   UNL     1      -8.550   7.357  66.777  1.00  0.00    -0.127 C  
HETATM   20  C   UNL     1      -9.025   8.709  66.257  1.00  0.00    -0.173 C  
HETATM   21  O   UNL     1     -10.402   8.917  66.596  1.00  0.00    -0.271 OA 
HETATM   22  N   UNL     1      -8.658   7.215  68.258  1.00  0.00    -0.123 NA 
HETATM   23  C   UNL     1     -10.049   7.655  68.665  1.00  0.00    -0.190 C  
BRANCH  22  24
HETATM   24  C   UNL     1      -8.452   5.779  68.599  1.00  0.00    -0.107 C  
BRANCH  24  25
HETATM   25  C   UNL     1      -8.822   4.873  67.448  1.00  0.00    -0.103 C  
HETATM   26  N   UNL     1      -7.872   4.277  66.706  1.00  0.00    -0.097 NA 
HETATM   27  N   UNL     1     -10.045   4.590  67.089  1.00  0.00    -0.157 NA 
HETATM   28  O   UNL     1      -8.037   2.774  64.958  1.00  0.00    -0.081 OA 
HETATM   29  C   UNL     1      -8.528   3.508  65.795  1.00  0.00    -0.108 C  
HETATM   30  N   UNL     1      -9.879   3.731  66.033  1.00  0.00    -0.125 NA 
HETATM   31  H   UNL     1     -10.917   4.928  67.496  1.00  0.00     0.000 HD 
ENDBRANCH  24  25
ENDBRANCH  22  24
BRANCH  23  32
HETATM   32  C   UNL     1     -10.328   7.504  70.163  1.00  0.00    -0.217 A  
HETATM   33  C   UNL     1     -10.821   6.936  72.876  1.00  0.00    -0.285 A  
HETATM   34  F   UNL     1     -11.030   6.635  74.162  1.00  0.00    -0.188 F  
HETATM   35  C   UNL     1      -9.417   7.903  71.151  1.00  0.00    -0.180 A  
HETATM   36  C   UNL     1     -11.750   6.555  71.921  1.00  0.00    -0.371 A  
HETATM   37  C   UNL     1      -9.661   7.615  72.502  1.00  0.00    -0.238 A  
HETATM   38  C   UNL     1     -11.508   6.841  70.573  1.00  0.00    -0.413 A  
ENDBRANCH  23  32
ENDBRANCH  17  18
ENDBRANCH   2  17
TORSDOF 6
ENDMDL
MODEL      129
REMARK 921   NORMALIZED FREE ENERGY PREDICTED BY IDOCK:   -6.02 KCAL/MOL
REMARK 922        TOTAL FREE ENERGY PREDICTED BY IDOCK:  -10.27 KCAL/MOL
REMARK 923 INTER-LIGAND FREE ENERGY PREDICTED BY IDOCK:   -8.74 KCAL/MOL
REMARK 924 INTRA-LIGAND FREE ENERGY PREDICTED BY IDOCK:   -1.53 KCAL/MOL
REMARK 927      BINDING AFFINITY PREDICTED BY RF-SCORE:    0.00 PKD
ROOT
HETATM    1  C   UNL     1     -10.044  10.634  66.434  1.00  0.00    -0.279 C  
HETATM    2  C   UNL     1      -9.358  11.205  67.683  1.00  0.00    -0.165 C  
ENDROOT
BRANCH   2   3
HETATM    3  C   UNL     1      -9.780  10.506  68.987  1.00  0.00    -0.221 A  
HETATM    4  C   UNL     1      -8.871   9.765  69.766  1.00  0.00    -0.241 A  
HETATM    5  C   UNL     1     -11.114  10.578  69.429  1.00  0.00    -0.310 A  
HETATM    6  F   UNL     1      -7.199   9.091  72.152  1.00  0.00    -0.082 F  
HETATM    7  F   UNL     1      -8.748   7.740  72.859  1.00  0.00    -0.148 F  
HETATM    8  C   UNL     1     -11.533   9.932  70.610  1.00  0.00    -0.411 A  
HETATM    9  C   UNL     1     -12.971   9.989  71.071  1.00  0.00    -0.360 C  
HETATM   10  C   UNL     1     -10.597   9.202  71.363  1.00  0.00    -0.412 A  
HETATM   11  F   UNL     1      -7.691   7.307  71.011  1.00  0.00    -0.083 F  
HETATM   12  F   UNL     1     -13.774  10.747  70.273  1.00  0.00     0.074 F  
HETATM   13  F   UNL     1     -13.550   8.759  71.126  1.00  0.00    -0.315 F  
HETATM   14  F   UNL     1     -13.095  10.513  72.324  1.00  0.00    -0.532 F  
HETATM   15  C   UNL     1      -8.242   8.320  71.735  1.00  0.00    -0.145 C  
HETATM   16  C   UNL     1      -9.262   9.110  70.948  1.00  0.00    -0.326 A  
ENDBRANCH   2   3
BRANCH   2  17
HETATM   17  O   UNL     1      -9.357  12.655  67.712  1.00  0.00    -0.184 OA 
BRANCH  17  18
HETATM   18  C   UNL     1      -8.674  13.262  68.817  1.00  0.00     0.145 C  
HETATM   19  C   UNL     1      -7.163  15.491  67.790  1.00  0.00    -0.157 C  
HETATM   20  C   UNL     1      -6.905  14.021  67.481  1.00  0.00    -0.131 C  
HETATM   21  O   UNL     1      -7.254  13.207  68.608  1.00  0.00    -0.101 OA 
HETATM   22  N   UNL     1      -8.587  15.792  68.117  1.00  0.00    -0.162 NA 
HETATM   23  C   UNL     1      -9.046  14.784  69.151  1.00  0.00    -0.085 C  
BRANCH  22  24
HETATM   24  C   UNL     1      -8.649  17.171  68.679  1.00  0.00    -0.260 C  
BRANCH  24  25
HETATM   25  C   UNL     1      -9.464  18.094  67.803  1.00  0.00    -0.268 C  
HETATM   26  N   UNL     1      -9.613  17.844  66.490  1.00  0.00    -0.305 NA 
HETATM   27  N   UNL     1     -10.081  19.165  68.223  1.00  0.00    -0.395 NA 
HETATM   28  O   UNL     1     -10.840  18.945  64.870  1.00  0.00    -0.340 OA 
HETATM   29  C   UNL     1     -10.425  18.824  66.007  1.00  0.00    -0.432 C  
HETATM   30  N   UNL     1     -10.690  19.648  67.094  1.00  0.00    -0.485 NA 
HETATM   31  H   UNL     1     -10.104  19.551  69.167  1.00  0.00     0.000 HD 
ENDBRANCH  24  25
ENDBRANCH  22  24
BRANCH  23  32
HETATM   32  C   UNL     1     -10.482  15.010  69.633  1.00  0.00    -0.226 A  
HETATM   33  C   UNL     1     -13.130  15.137  70.581  1.00  0.00    -0.337 A  
HETATM   34  F   UNL     1     -14.379  15.170  71.058  1.00  0.00    -0.470 F  
HETATM   35  C   UNL     1     -10.790  15.737  70.792  1.00  0.00    -0.229 A  
HETATM   36  C   UNL     1     -12.856  14.434  69.419  1.00  0.00     0.468 A  
HETATM   37  C   UNL     1     -12.109  15.796  71.265  1.00  0.00    -0.487 A  
HETATM   38  C   UNL     1     -11.542  14.374  68.945  1.00  0.00    -0.340 A  
ENDBRANCH  23  32
ENDBRANCH  17  18
ENDBRANCH   2  17
TORSDOF 6
ENDMDL
MODEL      130
REMARK 921   NORMALIZED FREE ENERGY PREDICTED BY IDOCK:   -6.00 KCAL/MOL
REMARK 922        TOTAL FREE ENERGY PREDICTED BY IDOCK:  -10.24 KCAL/MOL
REMARK 923 INTER-LIGAND FREE ENERGY PREDICTED BY IDOCK:  -10.02 KCAL/MOL
REMARK 924 INTRA-LIGAND FREE ENERGY PREDICTED BY IDOCK:   -0.22 KCAL/MOL
REMARK 927      BINDING AFFINITY PREDICTED BY RF-SCORE:    0.00 PKD
ROOT
HETATM    1  C   UNL     1      -7.668  12.771  67.574  1.00  0.00    -0.168 C  
HETATM    2  C   UNL     1      -9.167  12.661  67.260  1.00  0.00    -0.195 C  
ENDROOT
BRANCH   2   3
HETATM    3  C   UNL     1      -9.845  11.451  67.927  1.00  0.00    -0.188 A  
HETATM    4  C   UNL     1      -9.645  10.135  67.469  1.00  0.00    -0.180 A  
HETATM    5  C   UNL     1     -10.709  11.638  69.021  1.00  0.00    -0.217 A  
HETATM    6  F   UNL     1      -8.717   7.294  67.569  1.00  0.00    -0.120 F  
HETATM    7  F   UNL     1     -10.703   6.666  68.193  1.00  0.00    -0.192 F  
HETATM    8  C   UNL     1     -11.358  10.550  69.640  1.00  0.00    -0.345 A  
HETATM    9  C   UNL     1     -12.306  10.755  70.799  1.00  0.00    -0.383 C  
HETATM   10  C   UNL     1     -11.133   9.251  69.155  1.00  0.00    -0.002 A  
HETATM   11  F   UNL     1     -10.405   7.520  66.217  1.00  0.00    -0.229 F  
HETATM   12  F   UNL     1     -12.420  12.055  71.193  1.00  0.00    -0.439 F  
HETATM   13  F   UNL     1     -13.570  10.335  70.519  1.00  0.00    -0.373 F  
HETATM   14  F   UNL     1     -11.924  10.065  71.911  1.00  0.00    -0.448 F  
HETATM   15  C   UNL     1     -10.034   7.644  67.521  1.00  0.00    -0.178 C  
HETATM   16  C   UNL     1     -10.279   9.032  68.067  1.00  0.00    -0.260 A  
ENDBRANCH   2   3
BRANCH   2  17
HETATM   17  O   UNL     1      -9.464  12.860  65.854  1.00  0.00    -0.179 OA 
BRANCH  17  18
HETATM   18  C   UNL     1     -10.059  14.118  65.510  1.00  0.00    -0.336 C  
HETATM   19  C   UNL     1     -12.458  14.406  67.081  1.00  0.00     0.125 C  
HETATM   20  C   UNL     1     -12.230  13.374  65.983  1.00  0.00    -0.437 C  
HETATM   21  O   UNL     1     -11.372  13.910  64.967  1.00  0.00    -0.313 OA 
HETATM   22  N   UNL     1     -11.205  14.844  67.759  1.00  0.00    -0.309 NA 
HETATM   23  C   UNL     1     -10.197  15.199  66.685  1.00  0.00    -0.266 C  
BRANCH  22  24
HETATM   24  C   UNL     1     -11.522  16.044  68.584  1.00  0.00    -0.377 C  
BRANCH  24  25
HETATM   25  C   UNL     1     -12.046  15.660  69.949  1.00  0.00    -0.341 C  
HETATM   26  N   UNL     1     -11.221  15.586  71.009  1.00  0.00    -0.355 NA 
HETATM   27  N   UNL     1     -13.294  15.387  70.216  1.00  0.00    -0.690 NA 
HETATM   28  O   UNL     1     -11.652  15.137  73.234  1.00  0.00    -0.339 OA 
HETATM   29  C   UNL     1     -12.001  15.264  72.076  1.00  0.00    -0.411 C  
HETATM   30  N   UNL     1     -13.285  15.123  71.561  1.00  0.00    -0.391 NA 
HETATM   31  H   UNL     1     -14.089  15.373  69.575  1.00  0.00     0.000 HD 
ENDBRANCH  24  25
ENDBRANCH  22  24
BRANCH  23  32
HETATM   32  C   UNL     1      -8.871  15.730  67.237  1.00  0.00    -0.212 A  
HETATM   33  C   UNL     1      -6.514  16.971  68.149  1.00  0.00    -0.146 A  
HETATM   34  F   UNL     1      -5.415  17.593  68.590  1.00  0.00    -0.143 F  
HETATM   35  C   UNL     1      -8.600  15.823  68.609  1.00  0.00    -0.194 A  
HETATM   36  C   UNL     1      -6.746  16.868  66.787  1.00  0.00    -0.262 A  
HETATM   37  C   UNL     1      -7.428  16.445  69.063  1.00  0.00    -0.227 A  
HETATM   38  C   UNL     1      -7.914  16.248  66.333  1.00  0.00    -0.299 A  
ENDBRANCH  23  32
ENDBRANCH  17  18
ENDBRANCH   2  17
TORSDOF 6
ENDMDL
MODEL      131
REMARK 921   NORMALIZED FREE ENERGY PREDICTED BY IDOCK:   -6.00 KCAL/MOL
REMARK 922        TOTAL FREE ENERGY PREDICTED BY IDOCK:  -10.24 KCAL/MOL
REMARK 923 INTER-LIGAND FREE ENERGY PREDICTED BY IDOCK:   -7.75 KCAL/MOL
REMARK 924 INTRA-LIGAND FREE ENERGY PREDICTED BY IDOCK:   -2.49 KCAL/MOL
REMARK 927      BINDING AFFINITY PREDICTED BY RF-SCORE:    0.00 PKD
ROOT
HETATM    1  C   UNL     1      -5.168   7.748  69.224  1.00  0.00    -0.018 C  
HETATM    2  C   UNL     1      -6.664   7.412  69.300  1.00  0.00    -0.041 C  
ENDROOT
BRANCH   2   3
HETATM    3  C   UNL     1      -7.509   8.137  68.239  1.00  0.00    -0.097 A  
HETATM    4  C   UNL     1      -7.421   7.821  66.870  1.00  0.00    -0.094 A  
HETATM    5  C   UNL     1      -8.392   9.164  68.618  1.00  0.00    -0.126 A  
HETATM    6  F   UNL     1      -8.347   6.815  64.210  1.00  0.00    -0.104 F  
HETATM    7  F   UNL     1      -8.827   8.847  63.605  1.00  0.00    -0.192 F  
HETATM    8  C   UNL     1      -9.165   9.859  67.664  1.00  0.00    -0.146 A  
HETATM    9  C   UNL     1     -10.095  10.979  68.070  1.00  0.00    -0.179 C  
HETATM   10  C   UNL     1      -9.052   9.515  66.307  1.00  0.00    -0.202 A  
HETATM   11  F   UNL     1      -6.762   8.285  63.983  1.00  0.00    -0.068 F  
HETATM   12  F   UNL     1     -10.136  11.200  69.414  1.00  0.00    -0.208 F  
HETATM   13  F   UNL     1      -9.755  12.169  67.504  1.00  0.00    -0.178 F  
HETATM   14  F   UNL     1     -11.385  10.745  67.695  1.00  0.00    -0.336 F  
HETATM   15  C   UNL     1      -8.033   8.121  64.441  1.00  0.00    -0.145 C  
HETATM   16  C   UNL     1      -8.180   8.498  65.898  1.00  0.00    -0.125 A  
ENDBRANCH   2   3
BRANCH   2  17
HETATM   17  O   UNL     1      -7.180   7.445  70.655  1.00  0.00    -0.066 OA 
BRANCH  17  18
HETATM   18  C   UNL     1      -7.765   6.227  71.135  1.00  0.00    -0.102 C  
HETATM   19  C   UNL     1      -9.793   6.934  73.058  1.00  0.00    -0.179 C  
HETATM   20  C   UNL     1      -8.292   7.146  73.224  1.00  0.00    -0.116 C  
HETATM   21  O   UNL     1      -7.565   6.110  72.552  1.00  0.00    -0.097 OA 
HETATM   22  N   UNL     1     -10.242   6.941  71.636  1.00  0.00    -0.191 NA 
HETATM   23  C   UNL     1      -9.329   6.017  70.857  1.00  0.00    -0.161 C  
BRANCH  22  24
HETATM   24  C   UNL     1     -11.644   6.435  71.593  1.00  0.00    -0.310 C  
BRANCH  24  25
HETATM   25  C   UNL     1     -12.643   7.540  71.849  1.00  0.00    -0.294 C  
HETATM   26  N   UNL     1     -12.274   8.833  71.782  1.00  0.00    -0.325 NA 
HETATM   27  N   UNL     1     -13.903   7.352  72.134  1.00  0.00    -0.543 NA 
HETATM   28  O   UNL     1     -13.510  10.772  72.008  1.00  0.00    -0.373 OA 
HETATM   29  C   UNL     1     -13.400   9.561  72.016  1.00  0.00    -0.452 C  
HETATM   30  N   UNL     1     -14.399   8.625  72.254  1.00  0.00    -0.493 NA 
HETATM   31  H   UNL     1     -14.400   6.468  72.243  1.00  0.00     0.000 HD 
ENDBRANCH  24  25
ENDBRANCH  22  24
BRANCH  23  32
HETATM   32  C   UNL     1      -9.712   5.874  69.381  1.00  0.00    -0.191 A  
HETATM   33  C   UNL     1     -10.534   5.352  66.740  1.00  0.00    -0.289 A  
HETATM   34  F   UNL     1     -10.956   5.086  65.499  1.00  0.00    -0.233 F  
HETATM   35  C   UNL     1     -10.686   6.674  68.767  1.00  0.00    -0.302 A  
HETATM   36  C   UNL     1      -9.550   4.564  67.315  1.00  0.00    -0.213 A  
HETATM   37  C   UNL     1     -11.098   6.410  67.452  1.00  0.00    -0.412 A  
HETATM   38  C   UNL     1      -9.138   4.826  68.625  1.00  0.00    -0.149 A  
ENDBRANCH  23  32
ENDBRANCH  17  18
ENDBRANCH   2  17
TORSDOF 6
ENDMDL
MODEL      132
REMARK 921   NORMALIZED FREE ENERGY PREDICTED BY IDOCK:   -6.00 KCAL/MOL
REMARK 922        TOTAL FREE ENERGY PREDICTED BY IDOCK:  -10.23 KCAL/MOL
REMARK 923 INTER-LIGAND FREE ENERGY PREDICTED BY IDOCK:   -9.38 KCAL/MOL
REMARK 924 INTRA-LIGAND FREE ENERGY PREDICTED BY IDOCK:   -0.85 KCAL/MOL
REMARK 927      BINDING AFFINITY PREDICTED BY RF-SCORE:    0.00 PKD
ROOT
HETATM    1  C   UNL     1     -11.525  12.678  66.336  1.00  0.00    -0.409 C  
HETATM    2  C   UNL     1     -12.119  12.615  67.751  1.00  0.00    -0.096 C  
ENDROOT
BRANCH   2   3
HETATM    3  C   UNL     1     -11.667  13.773  68.657  1.00  0.00    -0.391 A  
HETATM    4  C   UNL     1     -12.376  14.134  69.818  1.00  0.00    -0.350 A  
HETATM    5  C   UNL     1     -10.522  14.522  68.330  1.00  0.00    -0.242 A  
HETATM    6  F   UNL     1     -12.858  14.516  72.744  1.00  0.00    -0.396 F  
HETATM    7  F   UNL     1     -12.282  16.605  72.569  1.00  0.00    -0.495 F  
HETATM    8  C   UNL     1     -10.095  15.600  69.132  1.00  0.00    -0.237 A  
HETATM    9  C   UNL     1      -8.879  16.420  68.766  1.00  0.00    -0.246 C  
HETATM   10  C   UNL     1     -10.828  15.932  70.284  1.00  0.00    -0.349 A  
HETATM   11  F   UNL     1     -14.070  15.884  71.566  1.00  0.00    -0.449 F  
HETATM   12  F   UNL     1      -8.240  15.985  67.643  1.00  0.00    -0.140 F  
HETATM   13  F   UNL     1      -9.180  17.728  68.543  1.00  0.00    -0.257 F  
HETATM   14  F   UNL     1      -7.936  16.420  69.751  1.00  0.00    -0.093 F  
HETATM   15  C   UNL     1     -12.783  15.553  71.863  1.00  0.00    -0.417 C  
HETATM   16  C   UNL     1     -11.972  15.205  70.635  1.00  0.00    -0.371 A  
ENDBRANCH   2   3
BRANCH   2  17
HETATM   17  O   UNL     1     -12.047  11.288  68.332  1.00  0.00    -0.598 OA 
BRANCH  17  18
HETATM   18  C   UNL     1     -10.951  11.052  69.227  1.00  0.00    -0.252 C  
HETATM   19  C   UNL     1     -11.473   8.579  70.611  1.00  0.00    -0.228 C  
HETATM   20  C   UNL     1     -12.276   9.867  70.753  1.00  0.00    -0.291 C  
HETATM   21  O   UNL     1     -11.423  11.006  70.582  1.00  0.00    -0.267 OA 
HETATM   22  N   UNL     1     -10.812   8.430  69.283  1.00  0.00    -0.122 NA 
HETATM   23  C   UNL     1     -10.088   9.725  68.979  1.00  0.00    -0.187 C  
BRANCH  22  24
HETATM   24  C   UNL     1      -9.839   7.305  69.376  1.00  0.00    -0.163 C  
BRANCH  24  25
HETATM   25  C   UNL     1      -9.150   7.274  70.721  1.00  0.00    -0.152 C  
HETATM   26  N   UNL     1      -8.612   8.389  71.247  1.00  0.00    -0.146 NA 
HETATM   27  N   UNL     1      -9.028   6.211  71.469  1.00  0.00    -0.143 NA 
HETATM   28  O   UNL     1      -7.582   8.759  73.282  1.00  0.00    -0.381 OA 
HETATM   29  C   UNL     1      -8.117   8.036  72.464  1.00  0.00    -0.135 C  
HETATM   30  N   UNL     1      -8.366   6.673  72.578  1.00  0.00    -0.113 NA 
HETATM   31  H   UNL     1      -9.350   5.263  71.276  1.00  0.00     0.000 HD 
ENDBRANCH  24  25
ENDBRANCH  22  24
BRANCH  23  32
HETATM   32  C   UNL     1      -9.304   9.698  67.664  1.00  0.00    -0.144 A  
HETATM   33  C   UNL     1      -8.037   9.865  65.155  1.00  0.00    -0.138 A  
HETATM   34  F   UNL     1      -7.441   9.983  63.964  1.00  0.00    -0.123 F  
HETATM   35  C   UNL     1      -7.965  10.104  67.567  1.00  0.00    -0.106 A  
HETATM   36  C   UNL     1      -9.353   9.435  65.227  1.00  0.00    -0.303 A  
HETATM   37  C   UNL     1      -7.337  10.191  66.316  1.00  0.00    -0.112 A  
HETATM   38  C   UNL     1      -9.981   9.347  66.473  1.00  0.00    -0.339 A  
ENDBRANCH  23  32
ENDBRANCH  17  18
ENDBRANCH   2  17
TORSDOF 6
ENDMDL
MODEL      133
REMARK 921   NORMALIZED FREE ENERGY PREDICTED BY IDOCK:   -6.00 KCAL/MOL
REMARK 922        TOTAL FREE ENERGY PREDICTED BY IDOCK:  -10.23 KCAL/MOL
REMARK 923 INTER-LIGAND FREE ENERGY PREDICTED BY IDOCK:   -8.12 KCAL/MOL
REMARK 924 INTRA-LIGAND FREE ENERGY PREDICTED BY IDOCK:   -2.11 KCAL/MOL
REMARK 927      BINDING AFFINITY PREDICTED BY RF-SCORE:    0.00 PKD
ROOT
HETATM    1  C   UNL     1      -8.758   9.334  64.043  1.00  0.00    -0.198 C  
HETATM    2  C   UNL     1      -9.164   9.385  65.523  1.00  0.00    -0.232 C  
ENDROOT
BRANCH   2   3
HETATM    3  C   UNL     1      -9.336   7.995  66.159  1.00  0.00    -0.212 A  
HETATM    4  C   UNL     1      -9.993   7.813  67.390  1.00  0.00    -0.257 A  
HETATM    5  C   UNL     1      -8.815   6.855  65.521  1.00  0.00     0.020 A  
HETATM    6  F   UNL     1     -12.124   6.864  69.262  1.00  0.00     0.029 F  
HETATM    7  F   UNL     1     -10.911   5.133  69.770  1.00  0.00    -0.356 F  
HETATM    8  C   UNL     1      -8.941   5.571  66.090  1.00  0.00    -0.146 A  
HETATM    9  C   UNL     1      -8.359   4.350  65.415  1.00  0.00    -0.111 C  
HETATM   10  C   UNL     1      -9.604   5.428  67.320  1.00  0.00    -0.140 A  
HETATM   11  F   UNL     1     -10.232   7.129  70.299  1.00  0.00    -0.191 F  
HETATM   12  F   UNL     1      -7.764   4.615  64.218  1.00  0.00    -0.071 F  
HETATM   13  F   UNL     1      -7.413   3.736  66.177  1.00  0.00    -0.074 F  
HETATM   14  F   UNL     1      -9.302   3.400  65.157  1.00  0.00    -0.135 F  
HETATM   15  C   UNL     1     -10.839   6.414  69.312  1.00  0.00    -0.327 C  
HETATM   16  C   UNL     1     -10.133   6.544  67.981  1.00  0.00    -0.168 A  
ENDBRANCH   2   3
BRANCH   2  17
HETATM   17  O   UNL     1     -10.226  10.338  65.782  1.00  0.00    -0.257 OA 
BRANCH  17  18
HETATM   18  C   UNL     1      -9.829  11.714  65.869  1.00  0.00    -0.233 C  
HETATM   19  C   UNL     1     -12.086  13.210  66.857  1.00  0.00    -0.316 C  
HETATM   20  C   UNL     1     -12.005  12.504  65.508  1.00  0.00    -0.442 C  
HETATM   21  O   UNL     1     -10.658  12.520  65.018  1.00  0.00    -0.283 OA 
HETATM   22  N   UNL     1     -11.234  12.586  67.909  1.00  0.00    -0.246 NA 
HETATM   23  C   UNL     1      -9.852  12.382  67.325  1.00  0.00    -0.207 C  
BRANCH  22  24
HETATM   24  C   UNL     1     -11.171  13.523  69.067  1.00  0.00    -0.269 C  
BRANCH  24  25
HETATM   25  C   UNL     1     -12.050  13.062  70.206  1.00  0.00    -0.314 C  
HETATM   26  N   UNL     1     -12.162  11.756  70.506  1.00  0.00    -0.365 NA 
HETATM   27  N   UNL     1     -12.743  13.855  70.978  1.00  0.00    -0.350 NA 
HETATM   28  O   UNL     1     -13.308  10.685  72.203  1.00  0.00    -0.444 OA 
HETATM   29  C   UNL     1     -12.980  11.684  71.591  1.00  0.00    -0.378 C  
HETATM   30  N   UNL     1     -13.349  12.997  71.859  1.00  0.00    -0.463 NA 
HETATM   31  H   UNL     1     -12.817  14.872  70.935  1.00  0.00     0.000 HD 
ENDBRANCH  24  25
ENDBRANCH  22  24
BRANCH  23  32
HETATM   32  C   UNL     1      -8.842  11.802  68.321  1.00  0.00    -0.172 A  
HETATM   33  C   UNL     1      -6.969  10.503  69.972  1.00  0.00    -0.146 A  
HETATM   34  F   UNL     1      -6.061   9.871  70.724  1.00  0.00    -0.063 F  
HETATM   35  C   UNL     1      -7.564  12.345  68.513  1.00  0.00    -0.122 A  
HETATM   36  C   UNL     1      -8.235   9.959  69.820  1.00  0.00    -0.191 A  
HETATM   37  C   UNL     1      -6.630  11.695  69.332  1.00  0.00    -0.115 A  
HETATM   38  C   UNL     1      -9.167  10.607  69.003  1.00  0.00    -0.177 A  
ENDBRANCH  23  32
ENDBRANCH  17  18
ENDBRANCH   2  17
TORSDOF 6
ENDMDL
MODEL      134
REMARK 921   NORMALIZED FREE ENERGY PREDICTED BY IDOCK:   -5.99 KCAL/MOL
REMARK 922        TOTAL FREE ENERGY PREDICTED BY IDOCK:  -10.23 KCAL/MOL
REMARK 923 INTER-LIGAND FREE ENERGY PREDICTED BY IDOCK:   -8.46 KCAL/MOL
REMARK 924 INTRA-LIGAND FREE ENERGY PREDICTED BY IDOCK:   -1.77 KCAL/MOL
REMARK 927      BINDING AFFINITY PREDICTED BY RF-SCORE:    0.00 PKD
ROOT
HETATM    1  C   UNL     1      -9.679  16.244  68.643  1.00  0.00    -0.235 C  
HETATM    2  C   UNL     1      -9.803  14.720  68.781  1.00  0.00    -0.227 C  
ENDROOT
BRANCH   2   3
HETATM    3  C   UNL     1     -10.788  14.283  69.878  1.00  0.00     0.027 A  
HETATM    4  C   UNL     1     -11.321  12.980  69.929  1.00  0.00    -0.037 A  
HETATM    5  C   UNL     1     -11.199  15.196  70.866  1.00  0.00    -0.324 A  
HETATM    6  F   UNL     1     -11.799  10.240  71.027  1.00  0.00    -0.356 F  
HETATM    7  F   UNL     1     -13.653  10.924  71.933  1.00  0.00    -0.415 F  
HETATM    8  C   UNL     1     -12.115  14.828  71.873  1.00  0.00    -0.409 A  
HETATM    9  C   UNL     1     -12.575  15.818  72.918  1.00  0.00    -0.466 C  
HETATM   10  C   UNL     1     -12.625  13.519  71.892  1.00  0.00    -0.212 A  
HETATM   11  F   UNL     1     -13.453  10.879  69.769  1.00  0.00     0.078 F  
HETATM   12  F   UNL     1     -11.990  17.044  72.809  1.00  0.00    -0.455 F  
HETATM   13  F   UNL     1     -13.917  16.037  72.873  1.00  0.00    -0.643 F  
HETATM   14  F   UNL     1     -12.311  15.395  74.187  1.00  0.00    -0.561 F  
HETATM   15  C   UNL     1     -12.782  11.177  70.916  1.00  0.00    -0.344 C  
HETATM   16  C   UNL     1     -12.235  12.587  70.922  1.00  0.00    -0.277 A  
ENDBRANCH   2   3
BRANCH   2  17
HETATM   17  O   UNL     1      -8.518  14.048  68.776  1.00  0.00    -0.134 OA 
BRANCH  17  18
HETATM   18  C   UNL     1      -7.874  13.932  67.499  1.00  0.00    -0.181 C  
HETATM   19  C   UNL     1      -6.384  11.465  67.496  1.00  0.00    -0.069 C  
HETATM   20  C   UNL     1      -6.089  12.685  68.362  1.00  0.00    -0.063 C  
HETATM   21  O   UNL     1      -6.449  13.886  67.669  1.00  0.00    -0.170 OA 
HETATM   22  N   UNL     1      -7.821  11.334  67.119  1.00  0.00    -0.143 NA 
HETATM   23  C   UNL     1      -8.285  12.676  66.593  1.00  0.00     0.140 C  
BRANCH  22  24
HETATM   24  C   UNL     1      -7.924  10.299  66.052  1.00  0.00    -0.138 C  
BRANCH  24  25
HETATM   25  C   UNL     1      -8.813   9.151  66.473  1.00  0.00    -0.134 C  
HETATM   26  N   UNL     1      -9.205   9.016  67.753  1.00  0.00    -0.140 NA 
HETATM   27  N   UNL     1      -9.270   8.230  65.668  1.00  0.00    -0.405 NA 
HETATM   28  O   UNL     1     -10.615   7.481  68.750  1.00  0.00    -0.206 OA 
HETATM   29  C   UNL     1     -10.018   7.925  67.788  1.00  0.00    -0.173 C  
HETATM   30  N   UNL     1     -10.031   7.436  66.487  1.00  0.00    -0.170 NA 
HETATM   31  H   UNL     1      -9.101   8.127  64.667  1.00  0.00     0.000 HD 
ENDBRANCH  24  25
ENDBRANCH  22  24
BRANCH  23  32
HETATM   32  C   UNL     1      -9.737  12.676  66.104  1.00  0.00    -0.253 A  
HETATM   33  C   UNL     1     -12.315  12.502  64.987  1.00  0.00    -0.453 A  
HETATM   34  F   UNL     1     -13.532  12.381  64.446  1.00  0.00    -0.320 F  
HETATM   35  C   UNL     1     -10.776  12.048  66.806  1.00  0.00    -0.280 A  
HETATM   36  C   UNL     1     -11.311  13.151  64.286  1.00  0.00    -0.427 A  
HETATM   37  C   UNL     1     -12.059  11.959  66.246  1.00  0.00     0.275 A  
HETATM   38  C   UNL     1     -10.032  13.242  64.842  1.00  0.00    -0.156 A  
ENDBRANCH  23  32
ENDBRANCH  17  18
ENDBRANCH   2  17
TORSDOF 6
ENDMDL
MODEL      135
REMARK 921   NORMALIZED FREE ENERGY PREDICTED BY IDOCK:   -5.99 KCAL/MOL
REMARK 922        TOTAL FREE ENERGY PREDICTED BY IDOCK:  -10.23 KCAL/MOL
REMARK 923 INTER-LIGAND FREE ENERGY PREDICTED BY IDOCK:   -6.71 KCAL/MOL
REMARK 924 INTRA-LIGAND FREE ENERGY PREDICTED BY IDOCK:   -3.52 KCAL/MOL
REMARK 927      BINDING AFFINITY PREDICTED BY RF-SCORE:    0.00 PKD
ROOT
HETATM    1  C   UNL     1      -8.961   8.166  71.644  1.00  0.00    -0.212 C  
HETATM    2  C   UNL     1      -8.252   8.370  70.297  1.00  0.00    -0.121 C  
ENDROOT
BRANCH   2   3
HETATM    3  C   UNL     1      -8.611   9.699  69.611  1.00  0.00    -0.196 A  
HETATM    4  C   UNL     1      -7.630  10.546  69.061  1.00  0.00    -0.117 A  
HETATM    5  C   UNL     1      -9.953  10.115  69.531  1.00  0.00    -0.257 A  
HETATM    6  F   UNL     1      -6.139  12.007  66.921  1.00  0.00    -0.136 F  
HETATM    7  F   UNL     1      -7.310  13.795  67.322  1.00  0.00    -0.174 F  
HETATM    8  C   UNL     1     -10.310  11.337  68.925  1.00  0.00    -0.214 A  
HETATM    9  C   UNL     1     -11.749  11.794  68.863  1.00  0.00    -0.323 C  
HETATM   10  C   UNL     1      -9.303  12.155  68.386  1.00  0.00    -0.170 A  
HETATM   11  F   UNL     1      -5.955  13.021  68.835  1.00  0.00    -0.069 F  
HETATM   12  F   UNL     1     -12.632  10.903  69.395  1.00  0.00    -0.376 F  
HETATM   13  F   UNL     1     -11.952  12.965  69.524  1.00  0.00    -0.330 F  
HETATM   14  F   UNL     1     -12.170  12.012  67.584  1.00  0.00    -0.314 F  
HETATM   15  C   UNL     1      -6.858  12.641  67.889  1.00  0.00    -0.112 C  
HETATM   16  C   UNL     1      -7.958  11.770  68.451  1.00  0.00    -0.147 A  
ENDBRANCH   2   3
BRANCH   2  17
HETATM   17  O   UNL     1      -8.292   7.189  69.455  1.00  0.00    -0.130 OA 
BRANCH  17  18
HETATM   18  C   UNL     1      -7.175   7.007  68.574  1.00  0.00    -0.091 C  
HETATM   19  C   UNL     1      -7.407   4.383  67.406  1.00  0.00    -0.069 C  
HETATM   20  C   UNL     1      -7.143   4.684  68.877  1.00  0.00    -0.052 C  
HETATM   21  O   UNL     1      -6.382   5.891  69.008  1.00  0.00    -0.037 OA 
HETATM   22  N   UNL     1      -8.169   5.455  66.704  1.00  0.00    -0.108 NA 
HETATM   23  C   UNL     1      -7.507   6.779  67.023  1.00  0.00    -0.087 C  
BRANCH  22  24
HETATM   24  C   UNL     1      -8.101   5.185  65.239  1.00  0.00    -0.120 C  
BRANCH  24  25
HETATM   25  C   UNL     1      -9.391   4.591  64.721  1.00  0.00    -0.138 C  
HETATM   26  N   UNL     1      -9.390   3.754  63.668  1.00  0.00    -0.124 NA 
HETATM   27  N   UNL     1     -10.571   4.817  65.231  1.00  0.00    -0.504 NA 
HETATM   28  O   UNL     1     -11.112   2.587  62.662  1.00  0.00    -0.189 OA 
HETATM   29  C   UNL     1     -10.683   3.371  63.487  1.00  0.00    -0.250 C  
HETATM   30  N   UNL     1     -11.407   4.057  64.454  1.00  0.00    -0.135 NA 
HETATM   31  H   UNL     1     -10.813   5.415  66.021  1.00  0.00     0.000 HD 
ENDBRANCH  24  25
ENDBRANCH  22  24
BRANCH  23  32
HETATM   32  C   UNL     1      -8.149   7.975  66.314  1.00  0.00    -0.112 A  
HETATM   33  C   UNL     1      -9.391  10.279  65.278  1.00  0.00    -0.215 A  
HETATM   34  F   UNL     1      -9.967  11.394  64.816  1.00  0.00    -0.246 F  
HETATM   35  C   UNL     1      -7.406   8.924  65.598  1.00  0.00    -0.085 A  
HETATM   36  C   UNL     1     -10.153   9.343  65.959  1.00  0.00    -0.302 A  
HETATM   37  C   UNL     1      -8.025  10.073  65.086  1.00  0.00    -0.145 A  
HETATM   38  C   UNL     1      -9.537   8.196  66.470  1.00  0.00    -0.303 A  
ENDBRANCH  23  32
ENDBRANCH  17  18
ENDBRANCH   2  17
TORSDOF 6
ENDMDL
MODEL      136
REMARK 921   NORMALIZED FREE ENERGY PREDICTED BY IDOCK:   -5.98 KCAL/MOL
REMARK 922        TOTAL FREE ENERGY PREDICTED BY IDOCK:  -10.21 KCAL/MOL
REMARK 923 INTER-LIGAND FREE ENERGY PREDICTED BY IDOCK:   -8.48 KCAL/MOL
REMARK 924 INTRA-LIGAND FREE ENERGY PREDICTED BY IDOCK:   -1.73 KCAL/MOL
REMARK 927      BINDING AFFINITY PREDICTED BY RF-SCORE:    0.00 PKD
ROOT
HETATM    1  C   UNL     1      -6.348  14.738  68.860  1.00  0.00    -0.087 C  
HETATM    2  C   UNL     1      -7.132  13.939  67.809  1.00  0.00    -0.172 C  
ENDROOT
BRANCH   2   3
HETATM    3  C   UNL     1      -8.289  14.731  67.176  1.00  0.00    -0.240 A  
HETATM    4  C   UNL     1      -8.286  16.138  67.115  1.00  0.00    -0.225 A  
HETATM    5  C   UNL     1      -9.405  14.056  66.650  1.00  0.00    -0.292 A  
HETATM    6  F   UNL     1      -8.219  18.839  65.834  1.00  0.00    -0.278 F  
HETATM    7  F   UNL     1     -10.387  18.951  65.952  1.00  0.00    -0.420 F  
HETATM    8  C   UNL     1     -10.488  14.758  66.081  1.00  0.00    -0.311 A  
HETATM    9  C   UNL     1     -11.698  14.032  65.538  1.00  0.00    -0.350 C  
HETATM   10  C   UNL     1     -10.449  16.161  66.036  1.00  0.00    -0.349 A  
HETATM   11  F   UNL     1      -9.200  18.915  67.772  1.00  0.00    -0.292 F  
HETATM   12  F   UNL     1     -11.605  12.675  65.615  1.00  0.00    -0.340 F  
HETATM   13  F   UNL     1     -12.843  14.368  66.192  1.00  0.00    -0.449 F  
HETATM   14  F   UNL     1     -11.926  14.313  64.223  1.00  0.00    -0.418 F  
HETATM   15  C   UNL     1      -9.296  18.373  66.527  1.00  0.00    -0.309 C  
HETATM   16  C   UNL     1      -9.352  16.862  66.553  1.00  0.00    -0.293 A  
ENDBRANCH   2   3
BRANCH   2  17
HETATM   17  O   UNL     1      -7.448  12.593  68.246  1.00  0.00    -0.106 OA 
BRANCH  17  18
HETATM   18  C   UNL     1      -6.490  11.581  67.908  1.00  0.00    -0.056 C  
HETATM   19  C   UNL     1      -6.919   9.348  69.680  1.00  0.00    -0.058 C  
HETATM   20  C   UNL     1      -6.419  10.729  70.089  1.00  0.00    -0.155 C  
HETATM   21  O   UNL     1      -5.642  11.309  69.035  1.00  0.00    -0.040 OA 
HETATM   22  N   UNL     1      -7.781   9.362  68.463  1.00  0.00    -0.084 NA 
HETATM   23  C   UNL     1      -7.070  10.175  67.401  1.00  0.00    -0.084 C  
BRANCH  22  24
HETATM   24  C   UNL     1      -7.953   7.954  68.004  1.00  0.00    -0.128 C  
BRANCH  24  25
HETATM   25  C   UNL     1      -9.285   7.385  68.436  1.00  0.00    -0.138 C  
HETATM   26  N   UNL     1      -9.788   7.657  69.654  1.00  0.00    -0.179 NA 
HETATM   27  N   UNL     1     -10.041   6.620  67.697  1.00  0.00    -0.143 NA 
HETATM   28  O   UNL     1     -11.799   7.065  70.627  1.00  0.00    -0.339 OA 
HETATM   29  C   UNL     1     -10.999   7.038  69.711  1.00  0.00    -0.250 C  
HETATM   30  N   UNL     1     -11.132   6.381  68.494  1.00  0.00    -0.322 NA 
HETATM   31  H   UNL     1      -9.864   6.281  66.752  1.00  0.00     0.000 HD 
ENDBRANCH  24  25
ENDBRANCH  22  24
BRANCH  23  32
HETATM   32  C   UNL     1      -7.814  10.225  66.063  1.00  0.00    -0.133 A  
HETATM   33  C   UNL     1      -9.116  10.031  63.575  1.00  0.00    -0.272 A  
HETATM   34  F   UNL     1      -9.746   9.903  62.402  1.00  0.00    -0.288 F  
HETATM   35  C   UNL     1      -9.202  10.398  65.970  1.00  0.00    -0.200 A  
HETATM   36  C   UNL     1      -7.740   9.883  63.637  1.00  0.00    -0.141 A  
HETATM   37  C   UNL     1      -9.850  10.298  64.730  1.00  0.00    -0.403 A  
HETATM   38  C   UNL     1      -7.092   9.984  64.872  1.00  0.00    -0.136 A  
ENDBRANCH  23  32
ENDBRANCH  17  18
ENDBRANCH   2  17
TORSDOF 6
ENDMDL
MODEL      137
REMARK 921   NORMALIZED FREE ENERGY PREDICTED BY IDOCK:   -5.95 KCAL/MOL
REMARK 922        TOTAL FREE ENERGY PREDICTED BY IDOCK:  -10.17 KCAL/MOL
REMARK 923 INTER-LIGAND FREE ENERGY PREDICTED BY IDOCK:   -8.49 KCAL/MOL
REMARK 924 INTRA-LIGAND FREE ENERGY PREDICTED BY IDOCK:   -1.68 KCAL/MOL
REMARK 927      BINDING AFFINITY PREDICTED BY RF-SCORE:    0.00 PKD
ROOT
HETATM    1  C   UNL     1     -12.894  11.211  69.956  1.00  0.00    -0.006 C  
HETATM    2  C   UNL     1     -11.566  11.044  69.205  1.00  0.00    -0.319 C  
ENDROOT
BRANCH   2   3
HETATM    3  C   UNL     1     -10.532  10.201  69.971  1.00  0.00    -0.325 A  
HETATM    4  C   UNL     1      -9.148  10.335  69.751  1.00  0.00    -0.089 A  
HETATM    5  C   UNL     1     -10.955   9.246  70.913  1.00  0.00    -0.368 A  
HETATM    6  F   UNL     1      -6.307  11.004  70.405  1.00  0.00    -0.131 F  
HETATM    7  F   UNL     1      -5.925   8.918  70.885  1.00  0.00    -0.031 F  
HETATM    8  C   UNL     1     -10.030   8.446  71.616  1.00  0.00    -0.302 A  
HETATM    9  C   UNL     1     -10.487   7.403  72.610  1.00  0.00    -0.255 C  
HETATM   10  C   UNL     1      -8.656   8.610  71.371  1.00  0.00    -0.247 A  
HETATM   11  F   UNL     1      -6.417   9.491  68.847  1.00  0.00    -0.045 F  
HETATM   12  F   UNL     1     -11.839   7.359  72.777  1.00  0.00    -0.285 F  
HETATM   13  F   UNL     1     -10.112   6.145  72.254  1.00  0.00    -0.184 F  
HETATM   14  F   UNL     1      -9.967   7.607  73.853  1.00  0.00    -0.341 F  
HETATM   15  C   UNL     1      -6.731   9.734  70.150  1.00  0.00    -0.100 C  
HETATM   16  C   UNL     1      -8.204   9.551  70.438  1.00  0.00    -0.220 A  
ENDBRANCH   2   3
BRANCH   2  17
HETATM   17  O   UNL     1     -11.079  12.287  68.639  1.00  0.00    -0.220 OA 
BRANCH  17  18
HETATM   18  C   UNL     1     -10.432  12.186  67.363  1.00  0.00    -0.213 C  
HETATM   19  C   UNL     1     -11.587  14.190  65.642  1.00  0.00    -0.339 C  
HETATM   20  C   UNL     1     -12.309  12.969  66.200  1.00  0.00    -0.265 C  
HETATM   21  O   UNL     1     -11.397  11.874  66.346  1.00  0.00    -0.331 OA 
HETATM   22  N   UNL     1     -10.469  14.668  66.506  1.00  0.00    -0.284 NA 
HETATM   23  C   UNL     1      -9.614  13.471  66.863  1.00  0.00    -0.258 C  
BRANCH  22  24
HETATM   24  C   UNL     1      -9.672  15.655  65.723  1.00  0.00    -0.345 C  
BRANCH  24  25
HETATM   25  C   UNL     1      -9.917  17.070  66.193  1.00  0.00    -0.298 C  
HETATM   26  N   UNL     1     -10.380  18.008  65.347  1.00  0.00    -0.460 NA 
HETATM   27  N   UNL     1      -9.722  17.492  67.413  1.00  0.00    -0.268 NA 
HETATM   28  O   UNL     1     -10.963  20.215  65.706  1.00  0.00    -0.214 OA 
HETATM   29  C   UNL     1     -10.530  19.142  66.083  1.00  0.00    -0.477 C  
HETATM   30  N   UNL     1     -10.097  18.810  67.361  1.00  0.00    -0.336 NA 
HETATM   31  H   UNL     1      -9.373  16.966  68.215  1.00  0.00     0.000 HD 
ENDBRANCH  24  25
ENDBRANCH  22  24
BRANCH  23  32
HETATM   32  C   UNL     1      -8.382  13.822  67.702  1.00  0.00    -0.183 A  
HETATM   33  C   UNL     1      -6.250  14.332  69.469  1.00  0.00    -0.122 A  
HETATM   34  F   UNL     1      -5.244  14.539  70.325  1.00  0.00    -0.093 F  
HETATM   35  C   UNL     1      -7.124  13.244  67.485  1.00  0.00    -0.156 A  
HETATM   36  C   UNL     1      -7.478  14.937  69.689  1.00  0.00    -0.126 A  
HETATM   37  C   UNL     1      -6.063  13.495  68.369  1.00  0.00    -0.094 A  
HETATM   38  C   UNL     1      -8.536  14.688  68.810  1.00  0.00    -0.161 A  
ENDBRANCH  23  32
ENDBRANCH  17  18
ENDBRANCH   2  17
TORSDOF 6
ENDMDL
MODEL      138
REMARK 921   NORMALIZED FREE ENERGY PREDICTED BY IDOCK:   -5.95 KCAL/MOL
REMARK 922        TOTAL FREE ENERGY PREDICTED BY IDOCK:  -10.16 KCAL/MOL
REMARK 923 INTER-LIGAND FREE ENERGY PREDICTED BY IDOCK:   -7.56 KCAL/MOL
REMARK 924 INTRA-LIGAND FREE ENERGY PREDICTED BY IDOCK:   -2.60 KCAL/MOL
REMARK 927      BINDING AFFINITY PREDICTED BY RF-SCORE:    0.00 PKD
ROOT
HETATM    1  C   UNL     1      -6.144   9.196  70.229  1.00  0.00    -0.040 C  
HETATM    2  C   UNL     1      -7.241   8.133  70.072  1.00  0.00    -0.056 C  
ENDROOT
BRANCH   2   3
HETATM    3  C   UNL     1      -7.531   7.766  68.606  1.00  0.00    -0.100 A  
HETATM    4  C   UNL     1      -7.000   8.505  67.532  1.00  0.00    -0.079 A  
HETATM    5  C   UNL     1      -8.362   6.673  68.301  1.00  0.00    -0.117 A  
HETATM    6  F   UNL     1      -5.329   9.029  65.108  1.00  0.00    -0.037 F  
HETATM    7  F   UNL     1      -7.036   8.596  63.834  1.00  0.00    -0.089 F  
HETATM    8  C   UNL     1      -8.660   6.325  66.968  1.00  0.00    -0.104 A  
HETATM    9  C   UNL     1      -9.573   5.165  66.642  1.00  0.00    -0.154 C  
HETATM   10  C   UNL     1      -8.111   7.085  65.921  1.00  0.00    -0.119 A  
HETATM   11  F   UNL     1      -7.075  10.324  65.151  1.00  0.00    -0.123 F  
HETATM   12  F   UNL     1     -10.019   4.492  67.739  1.00  0.00    -0.205 F  
HETATM   13  F   UNL     1     -10.685   5.554  65.961  1.00  0.00    -0.237 F  
HETATM   14  F   UNL     1      -8.966   4.230  65.856  1.00  0.00    -0.116 F  
HETATM   15  C   UNL     1      -6.691   9.020  65.082  1.00  0.00    -0.072 C  
HETATM   16  C   UNL     1      -7.281   8.180  66.193  1.00  0.00    -0.066 A  
ENDBRANCH   2   3
BRANCH   2  17
HETATM   17  O   UNL     1      -8.400   8.393  70.903  1.00  0.00    -0.115 OA 
BRANCH  17  18
HETATM   18  C   UNL     1      -9.632   7.803  70.466  1.00  0.00    -0.167 C  
HETATM   19  C   UNL     1     -11.704   8.674  72.271  1.00  0.00    -0.358 C  
HETATM   20  C   UNL     1     -10.535   7.761  72.627  1.00  0.00    -0.302 C  
HETATM   21  O   UNL     1     -10.168   6.960  71.497  1.00  0.00    -0.196 OA 
HETATM   22  N   UNL     1     -11.408   9.613  71.151  1.00  0.00    -0.357 NA 
HETATM   23  C   UNL     1     -10.798   8.809  70.021  1.00  0.00    -0.223 C  
BRANCH  22  24
HETATM   24  C   UNL     1     -12.694  10.225  70.711  1.00  0.00    -0.346 C  
BRANCH  24  25
HETATM   25  C   UNL     1     -12.825  11.652  71.192  1.00  0.00    -0.294 C  
HETATM   26  N   UNL     1     -12.280  12.667  70.498  1.00  0.00    -0.353 NA 
HETATM   27  N   UNL     1     -13.461  12.016  72.272  1.00  0.00    -0.551 NA 
HETATM   28  O   UNL     1     -12.347  14.949  70.849  1.00  0.00    -0.284 OA 
HETATM   29  C   UNL     1     -12.612  13.805  71.165  1.00  0.00    -0.373 C  
HETATM   30  N   UNL     1     -13.328  13.381  72.278  1.00  0.00    -0.524 NA 
HETATM   31  H   UNL     1     -13.942  11.426  72.951  1.00  0.00     0.000 HD 
ENDBRANCH  24  25
ENDBRANCH  22  24
BRANCH  23  32
HETATM   32  C   UNL     1     -10.498   9.637  68.769  1.00  0.00    -0.238 A  
HETATM   33  C   UNL     1      -9.663  11.093  66.508  1.00  0.00    -0.198 A  
HETATM   34  F   UNL     1      -9.239  11.758  65.428  1.00  0.00    -0.215 F  
HETATM   35  C   UNL     1     -10.881   9.235  67.481  1.00  0.00    -0.182 A  
HETATM   36  C   UNL     1      -9.294  11.526  67.772  1.00  0.00    -0.168 A  
HETATM   37  C   UNL     1     -10.461   9.959  66.356  1.00  0.00    -0.197 A  
HETATM   38  C   UNL     1      -9.712  10.806  68.895  1.00  0.00    -0.207 A  
ENDBRANCH  23  32
ENDBRANCH  17  18
ENDBRANCH   2  17
TORSDOF 6
ENDMDL
MODEL      139
REMARK 921   NORMALIZED FREE ENERGY PREDICTED BY IDOCK:   -5.94 KCAL/MOL
REMARK 922        TOTAL FREE ENERGY PREDICTED BY IDOCK:  -10.15 KCAL/MOL
REMARK 923 INTER-LIGAND FREE ENERGY PREDICTED BY IDOCK:   -7.75 KCAL/MOL
REMARK 924 INTRA-LIGAND FREE ENERGY PREDICTED BY IDOCK:   -2.40 KCAL/MOL
REMARK 927      BINDING AFFINITY PREDICTED BY RF-SCORE:    0.00 PKD
ROOT
HETATM    1  C   UNL     1      -8.219   8.226  74.167  1.00  0.00    -0.264 C  
HETATM    2  C   UNL     1      -8.458   7.609  72.782  1.00  0.00    -0.129 C  
ENDROOT
BRANCH   2   3
HETATM    3  C   UNL     1      -9.415   8.432  71.902  1.00  0.00    -0.323 A  
HETATM    4  C   UNL     1      -8.987   9.062  70.719  1.00  0.00    -0.286 A  
HETATM    5  C   UNL     1     -10.762   8.589  72.277  1.00  0.00    -0.411 A  
HETATM    6  F   UNL     1      -8.834   9.593  67.780  1.00  0.00    -0.124 F  
HETATM    7  F   UNL     1     -10.281  11.201  67.992  1.00  0.00    -0.174 F  
HETATM    8  C   UNL     1     -11.657   9.353  71.500  1.00  0.00    -0.467 A  
HETATM    9  C   UNL     1     -13.097   9.542  71.916  1.00  0.00    -0.428 C  
HETATM   10  C   UNL     1     -11.193   9.967  70.324  1.00  0.00    -0.379 A  
HETATM   11  F   UNL     1      -8.325  11.370  68.924  1.00  0.00    -0.151 F  
HETATM   12  F   UNL     1     -13.431   8.877  73.058  1.00  0.00    -0.437 F  
HETATM   13  F   UNL     1     -13.408  10.848  72.138  1.00  0.00    -0.555 F  
HETATM   14  F   UNL     1     -13.974   9.108  70.967  1.00  0.00    -0.376 F  
HETATM   15  C   UNL     1      -9.335  10.493  68.671  1.00  0.00    -0.172 C  
HETATM   16  C   UNL     1      -9.858   9.830  69.925  1.00  0.00    -0.279 A  
ENDBRANCH   2   3
BRANCH   2  17
HETATM   17  O   UNL     1      -8.713   6.183  72.837  1.00  0.00    -0.124 OA 
BRANCH  17  18
HETATM   18  C   UNL     1      -7.848   5.358  72.045  1.00  0.00    -0.106 C  
HETATM   19  C   UNL     1      -8.538   2.610  72.577  1.00  0.00    -0.074 C  
HETATM   20  C   UNL     1      -7.919   3.583  73.573  1.00  0.00    -0.074 C  
HETATM   21  O   UNL     1      -7.061   4.510  72.896  1.00  0.00    -0.071 OA 
HETATM   22  N   UNL     1      -9.361   3.275  71.526  1.00  0.00    -0.122 NA 
HETATM   23  C   UNL     1      -8.547   4.416  70.953  1.00  0.00    -0.092 C  
BRANCH  22  24
HETATM   24  C   UNL     1      -9.655   2.269  70.465  1.00  0.00    -0.059 C  
BRANCH  24  25
HETATM   25  C   UNL     1      -8.432   1.964  69.632  1.00  0.00    -0.048 C  
HETATM   26  N   UNL     1      -8.503   1.929  68.289  1.00  0.00    -0.058 NA 
HETATM   27  N   UNL     1      -7.243   1.728  70.116  1.00  0.00    -0.033 NA 
HETATM   28  O   UNL     1      -6.863   1.601  66.694  1.00  0.00    -0.036 OA 
HETATM   29  C   UNL     1      -7.241   1.675  67.848  1.00  0.00    -0.043 C  
HETATM   30  N   UNL     1      -6.474   1.532  68.998  1.00  0.00    -0.025 NA 
HETATM   31  H   UNL     1      -6.954   1.696  71.094  1.00  0.00     0.000 HD 
ENDBRANCH  24  25
ENDBRANCH  22  24
BRANCH  23  32
HETATM   32  C   UNL     1      -9.245   5.157  69.809  1.00  0.00    -0.165 A  
HETATM   33  C   UNL     1     -10.554   6.748  67.891  1.00  0.00    -0.242 A  
HETATM   34  F   UNL     1     -11.158   7.536  66.994  1.00  0.00    -0.411 F  
HETATM   35  C   UNL     1      -8.577   5.565  68.646  1.00  0.00    -0.103 A  
HETATM   36  C   UNL     1     -11.245   6.336  69.019  1.00  0.00    -0.415 A  
HETATM   37  C   UNL     1      -9.229   6.361  67.693  1.00  0.00    -0.116 A  
HETATM   38  C   UNL     1     -10.597   5.542  69.970  1.00  0.00    -0.384 A  
ENDBRANCH  23  32
ENDBRANCH  17  18
ENDBRANCH   2  17
TORSDOF 6
ENDMDL
MODEL      140
REMARK 921   NORMALIZED FREE ENERGY PREDICTED BY IDOCK:   -5.90 KCAL/MOL
REMARK 922        TOTAL FREE ENERGY PREDICTED BY IDOCK:  -10.11 KCAL/MOL
REMARK 923 INTER-LIGAND FREE ENERGY PREDICTED BY IDOCK:   -7.72 KCAL/MOL
REMARK 924 INTRA-LIGAND FREE ENERGY PREDICTED BY IDOCK:   -2.39 KCAL/MOL
REMARK 927      BINDING AFFINITY PREDICTED BY RF-SCORE:    0.00 PKD
ROOT
HETATM    1  C   UNL     1      -8.448   8.242  73.243  1.00  0.00    -0.267 C  
HETATM    2  C   UNL     1      -8.089   8.479  71.769  1.00  0.00    -0.141 C  
ENDROOT
BRANCH   2   3
HETATM    3  C   UNL     1      -9.190   9.208  70.981  1.00  0.00    -0.321 A  
HETATM    4  C   UNL     1      -8.966   9.733  69.694  1.00  0.00    -0.229 A  
HETATM    5  C   UNL     1     -10.467   9.385  71.545  1.00  0.00    -0.299 A  
HETATM    6  F   UNL     1      -9.281   9.994  66.732  1.00  0.00    -0.152 F  
HETATM    7  F   UNL     1     -10.717  11.600  67.024  1.00  0.00    -0.240 F  
HETATM    8  C   UNL     1     -11.489  10.065  70.853  1.00  0.00    -0.452 A  
HETATM    9  C   UNL     1     -12.853  10.277  71.471  1.00  0.00    -0.452 C  
HETATM   10  C   UNL     1     -11.228  10.575  69.570  1.00  0.00    -0.329 A  
HETATM   11  F   UNL     1      -8.645  11.874  67.621  1.00  0.00    -0.136 F  
HETATM   12  F   UNL     1     -12.989   9.715  72.705  1.00  0.00    -0.428 F  
HETATM   13  F   UNL     1     -13.157  11.594  71.622  1.00  0.00    -0.486 F  
HETATM   14  F   UNL     1     -13.855   9.749  70.711  1.00  0.00    -0.374 F  
HETATM   15  C   UNL     1      -9.661  10.967  67.607  1.00  0.00    -0.168 C  
HETATM   16  C   UNL     1      -9.967  10.415  68.981  1.00  0.00    -0.224 A  
ENDBRANCH   2   3
BRANCH   2  17
HETATM   17  O   UNL     1      -7.522   7.306  71.133  1.00  0.00    -0.077 OA 
BRANCH  17  18
HETATM   18  C   UNL     1      -7.985   7.026  69.804  1.00  0.00    -0.124 C  
HETATM   19  C   UNL     1      -7.081   4.380  69.106  1.00  0.00    -0.051 C  
HETATM   20  C   UNL     1      -6.190   5.596  69.335  1.00  0.00    -0.032 C  
HETATM   21  O   UNL     1      -6.868   6.792  68.933  1.00  0.00    -0.060 OA 
HETATM   22  N   UNL     1      -8.363   4.428  69.865  1.00  0.00    -0.062 NA 
HETATM   23  C   UNL     1      -8.988   5.788  69.633  1.00  0.00    -0.128 C  
BRANCH  22  24
HETATM   24  C   UNL     1      -9.253   3.356  69.335  1.00  0.00    -0.151 C  
BRANCH  24  25
HETATM   25  C   UNL     1      -9.188   3.273  67.827  1.00  0.00    -0.195 C  
HETATM   26  N   UNL     1      -9.794   4.197  67.059  1.00  0.00    -0.198 NA 
HETATM   27  N   UNL     1      -8.558   2.344  67.160  1.00  0.00    -0.101 NA 
HETATM   28  O   UNL     1      -9.840   4.463  64.765  1.00  0.00    -0.167 OA 
HETATM   29  C   UNL     1      -9.513   3.863  65.770  1.00  0.00    -0.178 C  
HETATM   30  N   UNL     1      -8.761   2.697  65.850  1.00  0.00    -0.122 NA 
HETATM   31  H   UNL     1      -8.039   1.547  67.526  1.00  0.00     0.000 HD 
ENDBRANCH  24  25
ENDBRANCH  22  24
BRANCH  23  32
HETATM   32  C   UNL     1     -10.353   5.961  70.306  1.00  0.00    -0.298 A  
HETATM   33  C   UNL     1     -12.736   6.486  71.710  1.00  0.00    -0.132 A  
HETATM   34  F   UNL     1     -13.858   6.773  72.379  1.00  0.00    -0.133 F  
HETATM   35  C   UNL     1     -11.463   6.507  69.646  1.00  0.00    -0.417 A  
HETATM   36  C   UNL     1     -11.662   5.921  72.379  1.00  0.00    -0.307 A  
HETATM   37  C   UNL     1     -12.648   6.772  70.347  1.00  0.00     0.198 A  
HETATM   38  C   UNL     1     -10.480   5.655  71.681  1.00  0.00    -0.286 A  
ENDBRANCH  23  32
ENDBRANCH  17  18
ENDBRANCH   2  17
TORSDOF 6
ENDMDL
MODEL      141
REMARK 921   NORMALIZED FREE ENERGY PREDICTED BY IDOCK:   -5.89 KCAL/MOL
REMARK 922        TOTAL FREE ENERGY PREDICTED BY IDOCK:  -10.09 KCAL/MOL
REMARK 923 INTER-LIGAND FREE ENERGY PREDICTED BY IDOCK:   -9.37 KCAL/MOL
REMARK 924 INTRA-LIGAND FREE ENERGY PREDICTED BY IDOCK:   -0.72 KCAL/MOL
REMARK 927      BINDING AFFINITY PREDICTED BY RF-SCORE:    0.00 PKD
ROOT
HETATM    1  C   UNL     1      -8.291  10.038  69.829  1.00  0.00    -0.187 C  
HETATM    2  C   UNL     1      -9.257  10.349  68.676  1.00  0.00    -0.164 C  
ENDROOT
BRANCH   2   3
HETATM    3  C   UNL     1      -8.996   9.506  67.416  1.00  0.00    -0.141 A  
HETATM    4  C   UNL     1      -8.595  10.088  66.198  1.00  0.00    -0.142 A  
HETATM    5  C   UNL     1      -9.171   8.111  67.447  1.00  0.00    -0.159 A  
HETATM    6  F   UNL     1      -6.784  10.684  63.894  1.00  0.00    -0.081 F  
HETATM    7  F   UNL     1      -7.771   9.146  62.717  1.00  0.00    -0.111 F  
HETATM    8  C   UNL     1      -8.957   7.316  66.303  1.00  0.00    -0.185 A  
HETATM    9  C   UNL     1      -9.170   5.820  66.332  1.00  0.00    -0.151 C  
HETATM   10  C   UNL     1      -8.557   7.932  65.105  1.00  0.00    -0.052 A  
HETATM   11  F   UNL     1      -8.871  10.917  63.330  1.00  0.00    -0.179 F  
HETATM   12  F   UNL     1      -9.532   5.340  67.555  1.00  0.00    -0.115 F  
HETATM   13  F   UNL     1     -10.140   5.415  65.467  1.00  0.00    -0.087 F  
HETATM   14  F   UNL     1      -8.049   5.128  65.980  1.00  0.00    -0.103 F  
HETATM   15  C   UNL     1      -7.957  10.003  63.759  1.00  0.00    -0.153 C  
HETATM   16  C   UNL     1      -8.375   9.319  65.041  1.00  0.00    -0.160 A  
ENDBRANCH   2   3
BRANCH   2  17
HETATM   17  O   UNL     1      -9.440  11.771  68.462  1.00  0.00    -0.200 OA 
BRANCH  17  18
HETATM   18  C   UNL     1     -10.713  12.169  67.935  1.00  0.00    -0.207 C  
HETATM   19  C   UNL     1     -12.382  12.922  70.161  1.00  0.00    -0.179 C  
HETATM   20  C   UNL     1     -11.868  11.517  69.866  1.00  0.00    -0.355 C  
HETATM   21  O   UNL     1     -11.748  11.318  68.452  1.00  0.00    -0.385 OA 
HETATM   22  N   UNL     1     -11.494  14.003  69.645  1.00  0.00    -0.266 NA 
HETATM   23  C   UNL     1     -11.166  13.683  68.201  1.00  0.00    -0.275 C  
BRANCH  22  24
HETATM   24  C   UNL     1     -12.239  15.291  69.730  1.00  0.00    -0.294 C  
BRANCH  24  25
HETATM   25  C   UNL     1     -12.789  15.526  71.118  1.00  0.00    -0.489 C  
HETATM   26  N   UNL     1     -11.965  15.758  72.156  1.00  0.00    -0.435 NA 
HETATM   27  N   UNL     1     -14.058  15.536  71.423  1.00  0.00    -0.640 NA 
HETATM   28  O   UNL     1     -12.419  16.250  74.368  1.00  0.00    -0.682 OA 
HETATM   29  C   UNL     1     -12.766  15.969  73.236  1.00  0.00    -0.537 C  
HETATM   30  N   UNL     1     -14.064  15.806  72.767  1.00  0.00    -0.516 NA 
HETATM   31  H   UNL     1     -14.857  15.380  70.807  1.00  0.00     0.000 HD 
ENDBRANCH  24  25
ENDBRANCH  22  24
BRANCH  23  32
HETATM   32  C   UNL     1     -10.305  14.747  67.515  1.00  0.00    -0.238 A  
HETATM   33  C   UNL     1      -8.515  16.499  66.229  1.00  0.00    -0.328 A  
HETATM   34  F   UNL     1      -7.651  17.301  65.597  1.00  0.00    -0.275 F  
HETATM   35  C   UNL     1     -10.602  15.264  66.245  1.00  0.00    -0.312 A  
HETATM   36  C   UNL     1      -8.212  16.023  67.495  1.00  0.00    -0.171 A  
HETATM   37  C   UNL     1      -9.707  16.133  65.604  1.00  0.00    -0.239 A  
HETATM   38  C   UNL     1      -9.103  15.157  68.136  1.00  0.00    -0.176 A  
ENDBRANCH  23  32
ENDBRANCH  17  18
ENDBRANCH   2  17
TORSDOF 6
ENDMDL
MODEL      142
REMARK 921   NORMALIZED FREE ENERGY PREDICTED BY IDOCK:   -5.88 KCAL/MOL
REMARK 922        TOTAL FREE ENERGY PREDICTED BY IDOCK:  -10.08 KCAL/MOL
REMARK 923 INTER-LIGAND FREE ENERGY PREDICTED BY IDOCK:   -7.40 KCAL/MOL
REMARK 924 INTRA-LIGAND FREE ENERGY PREDICTED BY IDOCK:   -2.68 KCAL/MOL
REMARK 927      BINDING AFFINITY PREDICTED BY RF-SCORE:    0.00 PKD
ROOT
HETATM    1  C   UNL     1      -7.993   8.576  74.024  1.00  0.00    -0.106 C  
HETATM    2  C   UNL     1      -8.307   7.842  72.712  1.00  0.00    -0.151 C  
ENDROOT
BRANCH   2   3
HETATM    3  C   UNL     1      -9.465   8.473  71.920  1.00  0.00    -0.350 A  
HETATM    4  C   UNL     1     -10.812   8.249  72.261  1.00  0.00    -0.408 A  
HETATM    5  C   UNL     1      -9.199   9.289  70.806  1.00  0.00    -0.316 A  
HETATM    6  F   UNL     1     -13.566   8.935  73.205  1.00  0.00    -0.387 F  
HETATM    7  F   UNL     1     -14.226   9.130  71.143  1.00  0.00    -0.403 F  
HETATM    8  C   UNL     1     -10.241   9.865  70.051  1.00  0.00    -0.319 A  
HETATM    9  C   UNL     1      -9.955  10.721  68.839  1.00  0.00    -0.202 C  
HETATM   10  C   UNL     1     -11.574   9.620  70.422  1.00  0.00    -0.299 A  
HETATM   11  F   UNL     1     -13.595   7.194  71.902  1.00  0.00    -0.378 F  
HETATM   12  F   UNL     1      -8.626  10.906  68.598  1.00  0.00    -0.124 F  
HETATM   13  F   UNL     1     -10.475  10.197  67.696  1.00  0.00    -0.216 F  
HETATM   14  F   UNL     1     -10.488  11.972  68.949  1.00  0.00    -0.214 F  
HETATM   15  C   UNL     1     -13.298   8.523  71.934  1.00  0.00    -0.372 C  
HETATM   16  C   UNL     1     -11.871   8.810  71.525  1.00  0.00    -0.377 A  
ENDBRANCH   2   3
BRANCH   2  17
HETATM   17  O   UNL     1      -8.355   6.402  72.871  1.00  0.00    -0.117 OA 
BRANCH  17  18
HETATM   18  C   UNL     1      -7.566   5.640  71.947  1.00  0.00    -0.096 C  
HETATM   19  C   UNL     1      -8.187   2.856  72.358  1.00  0.00    -0.059 C  
HETATM   20  C   UNL     1      -7.481   3.769  73.354  1.00  0.00    -0.069 C  
HETATM   21  O   UNL     1      -6.696   4.748  72.662  1.00  0.00    -0.048 OA 
HETATM   22  N   UNL     1      -9.111   3.579  71.437  1.00  0.00    -0.105 NA 
HETATM   23  C   UNL     1      -8.361   4.764  70.866  1.00  0.00    -0.098 C  
BRANCH  22  24
HETATM   24  C   UNL     1      -9.499   2.641  70.345  1.00  0.00    -0.115 C  
BRANCH  24  25
HETATM   25  C   UNL     1      -8.341   2.356  69.417  1.00  0.00    -0.049 C  
HETATM   26  N   UNL     1      -8.427   2.628  68.103  1.00  0.00    -0.074 NA 
HETATM   27  N   UNL     1      -7.197   1.850  69.790  1.00  0.00    -0.036 NA 
HETATM   28  O   UNL     1      -6.866   2.429  66.410  1.00  0.00    -0.042 OA 
HETATM   29  C   UNL     1      -7.220   2.300  67.567  1.00  0.00    -0.052 C  
HETATM   30  N   UNL     1      -6.474   1.798  68.626  1.00  0.00    -0.028 NA 
HETATM   31  H   UNL     1      -6.908   1.563  70.726  1.00  0.00     0.000 HD 
ENDBRANCH  24  25
ENDBRANCH  22  24
BRANCH  23  32
HETATM   32  C   UNL     1      -9.170   5.571  69.846  1.00  0.00    -0.170 A  
HETATM   33  C   UNL     1     -10.559   6.865  67.768  1.00  0.00    -0.244 A  
HETATM   34  F   UNL     1     -11.225   7.445  66.763  1.00  0.00    -0.389 F  
HETATM   35  C   UNL     1     -10.571   5.590  69.830  1.00  0.00    -0.387 A  
HETATM   36  C   UNL     1      -9.173   6.883  67.775  1.00  0.00    -0.119 A  
HETATM   37  C   UNL     1     -11.262   6.232  68.792  1.00  0.00    -0.357 A  
HETATM   38  C   UNL     1      -8.482   6.245  68.810  1.00  0.00    -0.119 A  
ENDBRANCH  23  32
ENDBRANCH  17  18
ENDBRANCH   2  17
TORSDOF 6
ENDMDL
MODEL      143
REMARK 921   NORMALIZED FREE ENERGY PREDICTED BY IDOCK:   -5.81 KCAL/MOL
REMARK 922        TOTAL FREE ENERGY PREDICTED BY IDOCK:   -9.98 KCAL/MOL
REMARK 923 INTER-LIGAND FREE ENERGY PREDICTED BY IDOCK:   -7.79 KCAL/MOL
REMARK 924 INTRA-LIGAND FREE ENERGY PREDICTED BY IDOCK:   -2.18 KCAL/MOL
REMARK 927      BINDING AFFINITY PREDICTED BY RF-SCORE:    0.00 PKD
ROOT
HETATM    1  C   UNL     1     -12.862  11.301  71.063  1.00  0.00    -0.395 C  
HETATM    2  C   UNL     1     -11.917  11.314  69.853  1.00  0.00    -0.365 C  
ENDROOT
BRANCH   2   3
HETATM    3  C   UNL     1     -11.059  10.044  69.733  1.00  0.00    -0.319 A  
HETATM    4  C   UNL     1     -11.083   9.231  68.584  1.00  0.00     0.065 A  
HETATM    5  C   UNL     1     -10.227   9.648  70.796  1.00  0.00    -0.330 A  
HETATM    6  F   UNL     1     -10.022   7.918  66.115  1.00  0.00    -0.258 F  
HETATM    7  F   UNL     1      -9.592   6.117  67.254  1.00  0.00    -0.113 F  
HETATM    8  C   UNL     1      -9.444   8.478  70.721  1.00  0.00    -0.213 A  
HETATM    9  C   UNL     1      -8.570   8.040  71.874  1.00  0.00    -0.137 C  
HETATM   10  C   UNL     1      -9.493   7.692  69.557  1.00  0.00    -0.152 A  
HETATM   11  F   UNL     1     -11.649   6.763  66.979  1.00  0.00    -0.416 F  
HETATM   12  F   UNL     1      -8.588   8.898  72.933  1.00  0.00    -0.186 F  
HETATM   13  F   UNL     1      -8.930   6.825  72.369  1.00  0.00    -0.134 F  
HETATM   14  F   UNL     1      -7.259   7.922  71.517  1.00  0.00    -0.058 F  
HETATM   15  C   UNL     1     -10.391   7.221  67.226  1.00  0.00    -0.279 C  
HETATM   16  C   UNL     1     -10.312   8.059  68.482  1.00  0.00    -0.229 A  
ENDBRANCH   2   3
BRANCH   2  17
HETATM   17  O   UNL     1     -11.213  12.573  69.702  1.00  0.00    -0.154 OA 
BRANCH  17  18
HETATM   18  C   UNL     1     -11.544  13.343  68.538  1.00  0.00    -0.333 C  
HETATM   19  C   UNL     1     -10.406  15.969  68.878  1.00  0.00    -0.235 C  
HETATM   20  C   UNL     1     -11.534  15.371  69.711  1.00  0.00    -0.324 C  
HETATM   21  O   UNL     1     -12.328  14.487  68.911  1.00  0.00    -0.204 OA 
HETATM   22  N   UNL     1      -9.479  14.949  68.308  1.00  0.00    -0.204 NA 
HETATM   23  C   UNL     1     -10.321  13.875  67.650  1.00  0.00    -0.242 C  
BRANCH  22  24
HETATM   24  C   UNL     1      -8.620  15.623  67.293  1.00  0.00    -0.192 C  
BRANCH  24  25
HETATM   25  C   UNL     1      -7.634  16.570  67.937  1.00  0.00    -0.152 C  
HETATM   26  N   UNL     1      -7.250  16.400  69.215  1.00  0.00    -0.229 NA 
HETATM   27  N   UNL     1      -7.081  17.589  67.337  1.00  0.00    -0.165 NA 
HETATM   28  O   UNL     1      -5.717  17.557  70.501  1.00  0.00    -0.218 OA 
HETATM   29  C   UNL     1      -6.339  17.379  69.471  1.00  0.00    -0.233 C  
HETATM   30  N   UNL     1      -6.261  18.121  68.299  1.00  0.00    -0.182 NA 
HETATM   31  H   UNL     1      -7.224  17.912  66.380  1.00  0.00     0.000 HD 
ENDBRANCH  24  25
ENDBRANCH  22  24
BRANCH  23  32
HETATM   32  C   UNL     1      -9.497  12.783  66.961  1.00  0.00    -0.233 A  
HETATM   33  C   UNL     1      -8.070  10.597  65.908  1.00  0.00    -0.159 A  
HETATM   34  F   UNL     1      -7.421   9.534  65.421  1.00  0.00    -0.091 F  
HETATM   35  C   UNL     1      -9.847  12.235  65.719  1.00  0.00    -0.260 A  
HETATM   36  C   UNL     1      -7.687  11.138  67.126  1.00  0.00    -0.136 A  
HETATM   37  C   UNL     1      -9.138  11.143  65.198  1.00  0.00    -0.161 A  
HETATM   38  C   UNL     1      -8.392  12.227  67.647  1.00  0.00    -0.166 A  
ENDBRANCH  23  32
ENDBRANCH  17  18
ENDBRANCH   2  17
TORSDOF 6
ENDMDL
MODEL      144
REMARK 921   NORMALIZED FREE ENERGY PREDICTED BY IDOCK:   -5.79 KCAL/MOL
REMARK 922        TOTAL FREE ENERGY PREDICTED BY IDOCK:   -9.96 KCAL/MOL
REMARK 923 INTER-LIGAND FREE ENERGY PREDICTED BY IDOCK:   -9.28 KCAL/MOL
REMARK 924 INTRA-LIGAND FREE ENERGY PREDICTED BY IDOCK:   -0.68 KCAL/MOL
REMARK 927      BINDING AFFINITY PREDICTED BY RF-SCORE:    0.00 PKD
ROOT
HETATM    1  C   UNL     1     -10.389   8.135  67.437  1.00  0.00    -0.351 C  
HETATM    2  C   UNL     1      -9.543   9.030  68.354  1.00  0.00    -0.152 C  
ENDROOT
BRANCH   2   3
HETATM    3  C   UNL     1      -9.225   8.385  69.714  1.00  0.00    -0.157 A  
HETATM    4  C   UNL     1     -10.235   8.046  70.635  1.00  0.00    -0.205 A  
HETATM    5  C   UNL     1      -7.892   8.129  70.082  1.00  0.00    -0.098 A  
HETATM    6  F   UNL     1     -11.955   6.256  72.302  1.00  0.00    -0.332 F  
HETATM    7  F   UNL     1     -10.652   6.590  74.009  1.00  0.00    -0.299 F  
HETATM    8  C   UNL     1      -7.570   7.556  71.329  1.00  0.00    -0.081 A  
HETATM    9  C   UNL     1      -6.136   7.305  71.734  1.00  0.00    -0.037 C  
HETATM   10  C   UNL     1      -8.605   7.231  72.223  1.00  0.00    -0.131 A  
HETATM   11  F   UNL     1     -11.802   8.238  73.183  1.00  0.00    -0.398 F  
HETATM   12  F   UNL     1      -5.228   7.639  70.774  1.00  0.00    -0.023 F  
HETATM   13  F   UNL     1      -5.779   8.002  72.847  1.00  0.00    -0.042 F  
HETATM   14  F   UNL     1      -5.900   5.995  72.026  1.00  0.00    -0.028 F  
HETATM   15  C   UNL     1     -11.070   7.143  72.837  1.00  0.00    -0.298 C  
HETATM   16  C   UNL     1      -9.942   7.474  71.886  1.00  0.00    -0.204 A  
ENDBRANCH   2   3
BRANCH   2  17
HETATM   17  O   UNL     1     -10.017  10.400  68.396  1.00  0.00    -0.154 OA 
BRANCH  17  18
HETATM   18  C   UNL     1     -11.136  10.705  67.552  1.00  0.00    -0.300 C  
HETATM   19  C   UNL     1     -11.658  13.530  67.784  1.00  0.00    -0.339 C  
HETATM   20  C   UNL     1     -11.830  12.496  68.892  1.00  0.00    -0.301 C  
HETATM   21  O   UNL     1     -12.216  11.232  68.338  1.00  0.00    -0.604 OA 
HETATM   22  N   UNL     1     -10.619  13.161  66.781  1.00  0.00    -0.262 NA 
HETATM   23  C   UNL     1     -10.877  11.732  66.350  1.00  0.00    -0.282 C  
BRANCH  22  24
HETATM   24  C   UNL     1     -10.755  14.082  65.616  1.00  0.00    -0.303 C  
BRANCH  24  25
HETATM   25  C   UNL     1     -10.501  15.519  66.010  1.00  0.00    -0.323 C  
HETATM   26  N   UNL     1     -10.721  16.522  65.140  1.00  0.00    -0.643 NA 
HETATM   27  N   UNL     1     -10.073  15.905  67.181  1.00  0.00    -0.258 NA 
HETATM   28  O   UNL     1     -10.548  18.812  65.394  1.00  0.00    -0.552 OA 
HETATM   29  C   UNL     1     -10.441  17.673  65.808  1.00  0.00    -0.205 C  
HETATM   30  N   UNL     1     -10.019  17.270  67.070  1.00  0.00    -0.279 NA 
HETATM   31  H   UNL     1      -9.835  15.327  67.988  1.00  0.00     0.000 HD 
ENDBRANCH  24  25
ENDBRANCH  22  24
BRANCH  23  32
HETATM   32  C   UNL     1      -9.917  11.234  65.266  1.00  0.00    -0.301 A  
HETATM   33  C   UNL     1      -8.145  10.062  63.418  1.00  0.00    -0.158 A  
HETATM   34  F   UNL     1      -7.321   9.471  62.546  1.00  0.00    -0.105 F  
HETATM   35  C   UNL     1     -10.319  10.999  63.943  1.00  0.00    -0.436 A  
HETATM   36  C   UNL     1      -7.715  10.309  64.713  1.00  0.00    -0.119 A  
HETATM   37  C   UNL     1      -9.436  10.411  63.025  1.00  0.00    -0.362 A  
HETATM   38  C   UNL     1      -8.593  10.895  65.629  1.00  0.00    -0.163 A  
ENDBRANCH  23  32
ENDBRANCH  17  18
ENDBRANCH   2  17
TORSDOF 6
ENDMDL
MODEL      145
REMARK 921   NORMALIZED FREE ENERGY PREDICTED BY IDOCK:   -5.79 KCAL/MOL
REMARK 922        TOTAL FREE ENERGY PREDICTED BY IDOCK:   -9.95 KCAL/MOL
REMARK 923 INTER-LIGAND FREE ENERGY PREDICTED BY IDOCK:   -8.62 KCAL/MOL
REMARK 924 INTRA-LIGAND FREE ENERGY PREDICTED BY IDOCK:   -1.33 KCAL/MOL
REMARK 927      BINDING AFFINITY PREDICTED BY RF-SCORE:    0.00 PKD
ROOT
HETATM    1  C   UNL     1     -11.591  10.494  69.090  1.00  0.00    -0.295 C  
HETATM    2  C   UNL     1     -10.492  11.519  68.775  1.00  0.00    -0.204 C  
ENDROOT
BRANCH   2   3
HETATM    3  C   UNL     1     -10.942  12.977  68.967  1.00  0.00    -0.242 A  
HETATM    4  C   UNL     1     -10.542  14.004  68.092  1.00  0.00    -0.252 A  
HETATM    5  C   UNL     1     -11.766  13.327  70.053  1.00  0.00    -0.295 A  
HETATM    6  F   UNL     1     -10.862  16.148  66.032  1.00  0.00    -0.312 F  
HETATM    7  F   UNL     1     -10.926  17.651  67.602  1.00  0.00    -0.364 F  
HETATM    8  C   UNL     1     -12.179  14.658  70.264  1.00  0.00    -0.389 A  
HETATM    9  C   UNL     1     -13.043  15.036  71.445  1.00  0.00    -0.389 C  
HETATM   10  C   UNL     1     -11.760  15.657  69.368  1.00  0.00    -0.395 A  
HETATM   11  F   UNL     1      -9.109  16.505  67.268  1.00  0.00    -0.197 F  
HETATM   12  F   UNL     1     -13.403  13.978  72.223  1.00  0.00    -0.399 F  
HETATM   13  F   UNL     1     -12.431  15.923  72.275  1.00  0.00    -0.399 F  
HETATM   14  F   UNL     1     -14.211  15.630  71.065  1.00  0.00    -0.504 F  
HETATM   15  C   UNL     1     -10.466  16.402  67.311  1.00  0.00    -0.303 C  
HETATM   16  C   UNL     1     -10.939  15.340  68.279  1.00  0.00    -0.276 A  
ENDBRANCH   2   3
BRANCH   2  17
HETATM   17  O   UNL     1      -9.788  11.228  67.541  1.00  0.00    -0.175 OA 
BRANCH  17  18
HETATM   18  C   UNL     1     -10.536  10.518  66.543  1.00  0.00    -0.212 C  
HETATM   19  C   UNL     1      -8.789  10.082  64.293  1.00  0.00    -0.220 C  
HETATM   20  C   UNL     1      -9.303  11.434  64.775  1.00  0.00    -0.099 C  
HETATM   21  O   UNL     1     -10.612  11.296  65.339  1.00  0.00    -0.267 OA 
HETATM   22  N   UNL     1      -8.690   9.061  65.375  1.00  0.00    -0.179 NA 
HETATM   23  C   UNL     1      -9.999   9.064  66.136  1.00  0.00    -0.241 C  
BRANCH  22  24
HETATM   24  C   UNL     1      -8.469   7.732  64.736  1.00  0.00     0.031 C  
BRANCH  24  25
HETATM   25  C   UNL     1      -7.513   6.880  65.538  1.00  0.00    -0.086 C  
HETATM   26  N   UNL     1      -7.701   5.553  65.652  1.00  0.00    -0.086 NA 
HETATM   27  N   UNL     1      -6.456   7.331  66.158  1.00  0.00    -0.044 NA 
HETATM   28  O   UNL     1      -6.428   3.927  66.691  1.00  0.00    -0.039 OA 
HETATM   29  C   UNL     1      -6.658   5.083  66.390  1.00  0.00    -0.049 C  
HETATM   30  N   UNL     1      -5.905   6.205  66.713  1.00  0.00    -0.020 NA 
HETATM   31  H   UNL     1      -6.120   8.292  66.215  1.00  0.00     0.000 HD 
ENDBRANCH  24  25
ENDBRANCH  22  24
BRANCH  23  32
HETATM   32  C   UNL     1     -10.068   8.013  67.248  1.00  0.00    -0.309 A  
HETATM   33  C   UNL     1     -10.101   5.885  69.091  1.00  0.00    -0.190 A  
HETATM   34  F   UNL     1     -10.085   4.859  69.949  1.00  0.00    -0.266 F  
HETATM   35  C   UNL     1      -9.195   8.007  68.345  1.00  0.00    -0.135 A  
HETATM   36  C   UNL     1     -10.992   5.881  68.030  1.00  0.00    -0.252 A  
HETATM   37  C   UNL     1      -9.210   6.945  69.261  1.00  0.00    -0.139 A  
HETATM   38  C   UNL     1     -10.979   6.939  67.116  1.00  0.00    -0.427 A  
ENDBRANCH  23  32
ENDBRANCH  17  18
ENDBRANCH   2  17
TORSDOF 6
ENDMDL
MODEL      146
REMARK 921   NORMALIZED FREE ENERGY PREDICTED BY IDOCK:   -5.79 KCAL/MOL
REMARK 922        TOTAL FREE ENERGY PREDICTED BY IDOCK:   -9.95 KCAL/MOL
REMARK 923 INTER-LIGAND FREE ENERGY PREDICTED BY IDOCK:   -9.28 KCAL/MOL
REMARK 924 INTRA-LIGAND FREE ENERGY PREDICTED BY IDOCK:   -0.67 KCAL/MOL
REMARK 927      BINDING AFFINITY PREDICTED BY RF-SCORE:    0.00 PKD
ROOT
HETATM    1  C   UNL     1     -12.322  10.734  70.188  1.00  0.00    -0.401 C  
HETATM    2  C   UNL     1     -11.719  11.743  69.200  1.00  0.00    -0.325 C  
ENDROOT
BRANCH   2   3
HETATM    3  C   UNL     1     -11.639  13.173  69.759  1.00  0.00    -0.291 A  
HETATM    4  C   UNL     1     -12.330  13.561  70.922  1.00  0.00    -0.437 A  
HETATM    5  C   UNL     1     -10.872  14.150  69.098  1.00  0.00    -0.254 A  
HETATM    6  F   UNL     1     -12.669  14.486  73.746  1.00  0.00    -0.584 F  
HETATM    7  F   UNL     1     -12.900  16.532  73.050  1.00  0.00    -0.446 F  
HETATM    8  C   UNL     1     -10.795  15.474  69.577  1.00  0.00    -0.267 A  
HETATM    9  C   UNL     1      -9.991  16.529  68.852  1.00  0.00    -0.262 C  
HETATM   10  C   UNL     1     -11.498  15.824  70.742  1.00  0.00    -0.423 A  
HETATM   11  F   UNL     1     -14.386  15.034  72.530  1.00  0.00    -0.521 F  
HETATM   12  F   UNL     1      -9.336  16.060  67.753  1.00  0.00    -0.205 F  
HETATM   13  F   UNL     1     -10.761  17.563  68.419  1.00  0.00    -0.351 F  
HETATM   14  F   UNL     1      -9.032  17.087  69.645  1.00  0.00     0.046 F  
HETATM   15  C   UNL     1     -13.046  15.232  72.670  1.00  0.00    -0.427 C  
HETATM   16  C   UNL     1     -12.271  14.874  71.422  1.00  0.00    -0.391 A  
ENDBRANCH   2   3
BRANCH   2  17
HETATM   17  O   UNL     1     -12.261  11.613  67.861  1.00  0.00    -0.560 OA 
BRANCH  17  18
HETATM   18  C   UNL     1     -11.383  11.044  66.880  1.00  0.00    -0.032 C  
HETATM   19  C   UNL     1      -9.509  13.089  66.097  1.00  0.00    -0.150 C  
HETATM   20  C   UNL     1     -11.009  13.102  65.825  1.00  0.00    -0.277 C  
HETATM   21  O   UNL     1     -11.493  11.766  65.643  1.00  0.00    -0.290 OA 
HETATM   22  N   UNL     1      -9.131  12.321  67.318  1.00  0.00    -0.178 NA 
HETATM   23  C   UNL     1      -9.826  10.977  67.253  1.00  0.00    -0.178 C  
BRANCH  22  24
HETATM   24  C   UNL     1      -7.652  12.136  67.305  1.00  0.00    -0.156 C  
BRANCH  24  25
HETATM   25  C   UNL     1      -6.935  13.335  67.882  1.00  0.00    -0.137 C  
HETATM   26  N   UNL     1      -7.046  13.644  69.187  1.00  0.00    -0.078 NA 
HETATM   27  N   UNL     1      -6.168  14.142  67.199  1.00  0.00    -0.293 NA 
HETATM   28  O   UNL     1      -6.045  15.308  70.439  1.00  0.00    -0.138 OA 
HETATM   29  C   UNL     1      -6.257  14.734  69.388  1.00  0.00    -0.114 C  
HETATM   30  N   UNL     1      -5.735  15.043  68.137  1.00  0.00    -0.125 NA 
HETATM   31  H   UNL     1      -5.944  14.109  66.205  1.00  0.00     0.000 HD 
ENDBRANCH  24  25
ENDBRANCH  22  24
BRANCH  23  32
HETATM   32  C   UNL     1      -9.479  10.048  68.420  1.00  0.00    -0.146 A  
HETATM   33  C   UNL     1      -8.672   8.189  70.374  1.00  0.00    -0.136 A  
HETATM   34  F   UNL     1      -8.253   7.304  71.286  1.00  0.00    -0.103 F  
HETATM   35  C   UNL     1      -8.696  10.455  69.510  1.00  0.00    -0.102 A  
HETATM   36  C   UNL     1      -9.467   7.767  69.320  1.00  0.00    -0.155 A  
HETATM   37  C   UNL     1      -8.292   9.527  70.481  1.00  0.00    -0.203 A  
HETATM   38  C   UNL     1      -9.872   8.691  68.352  1.00  0.00    -0.189 A  
ENDBRANCH  23  32
ENDBRANCH  17  18
ENDBRANCH   2  17
TORSDOF 6
ENDMDL
MODEL      147
REMARK 921   NORMALIZED FREE ENERGY PREDICTED BY IDOCK:   -5.77 KCAL/MOL
REMARK 922        TOTAL FREE ENERGY PREDICTED BY IDOCK:   -9.92 KCAL/MOL
REMARK 923 INTER-LIGAND FREE ENERGY PREDICTED BY IDOCK:   -8.47 KCAL/MOL
REMARK 924 INTRA-LIGAND FREE ENERGY PREDICTED BY IDOCK:   -1.45 KCAL/MOL
REMARK 927      BINDING AFFINITY PREDICTED BY RF-SCORE:    0.00 PKD
ROOT
HETATM    1  C   UNL     1      -6.889  11.336  66.871  1.00  0.00    -0.134 C  
HETATM    2  C   UNL     1      -8.188  10.543  66.665  1.00  0.00    -0.129 C  
ENDROOT
BRANCH   2   3
HETATM    3  C   UNL     1      -9.447  11.426  66.647  1.00  0.00    -0.206 A  
HETATM    4  C   UNL     1      -9.902  12.103  67.795  1.00  0.00    -0.199 A  
HETATM    5  C   UNL     1     -10.196  11.567  65.465  1.00  0.00    -0.303 A  
HETATM    6  F   UNL     1     -10.565  14.447  69.530  1.00  0.00    -0.238 F  
HETATM    7  F   UNL     1     -12.643  14.326  68.902  1.00  0.00    -0.272 F  
HETATM    8  C   UNL     1     -11.365  12.355  65.424  1.00  0.00    -0.379 A  
HETATM    9  C   UNL     1     -12.183  12.486  64.160  1.00  0.00    -0.467 C  
HETATM   10  C   UNL     1     -11.788  13.017  66.590  1.00  0.00    -0.455 A  
HETATM   11  F   UNL     1     -11.763  12.713  70.063  1.00  0.00    -0.361 F  
HETATM   12  F   UNL     1     -11.657  11.820  63.094  1.00  0.00    -0.441 F  
HETATM   13  F   UNL     1     -13.450  12.014  64.309  1.00  0.00    -0.417 F  
HETATM   14  F   UNL     1     -12.315  13.782  63.758  1.00  0.00    -0.488 F  
HETATM   15  C   UNL     1     -11.508  13.587  69.051  1.00  0.00    -0.303 C  
HETATM   16  C   UNL     1     -11.064  12.895  67.782  1.00  0.00    -0.291 A  
ENDBRANCH   2   3
BRANCH   2  17
HETATM   17  O   UNL     1      -8.258   9.353  67.490  1.00  0.00    -0.116 OA 
BRANCH  17  18
HETATM   18  C   UNL     1      -9.216   8.364  67.088  1.00  0.00    -0.143 C  
HETATM   19  C   UNL     1      -7.803   5.877  66.732  1.00  0.00    -0.101 C  
HETATM   20  C   UNL     1      -7.633   7.130  65.879  1.00  0.00    -0.093 C  
HETATM   21  O   UNL     1      -8.872   7.845  65.794  1.00  0.00    -0.163 OA 
HETATM   22  N   UNL     1      -8.237   6.162  68.130  1.00  0.00    -0.114 NA 
HETATM   23  C   UNL     1      -9.415   7.110  68.065  1.00  0.00    -0.130 C  
BRANCH  22  24
HETATM   24  C   UNL     1      -8.647   4.873  68.756  1.00  0.00    -0.089 C  
BRANCH  24  25
HETATM   25  C   UNL     1      -8.039   4.701  70.129  1.00  0.00    -0.068 C  
HETATM   26  N   UNL     1      -8.803   4.755  71.234  1.00  0.00    -0.125 NA 
HETATM   27  N   UNL     1      -6.772   4.482  70.358  1.00  0.00    -0.035 NA 
HETATM   28  O   UNL     1      -8.269   4.448  73.461  1.00  0.00    -0.093 OA 
HETATM   29  C   UNL     1      -7.970   4.523  72.285  1.00  0.00    -0.097 C  
HETATM   30  N   UNL     1      -6.707   4.376  71.724  1.00  0.00    -0.029 NA 
HETATM   31  H   UNL     1      -6.012   4.408  69.682  1.00  0.00     0.000 HD 
ENDBRANCH  24  25
ENDBRANCH  22  24
BRANCH  23  32
HETATM   32  C   UNL     1     -10.013   7.445  69.435  1.00  0.00    -0.176 A  
HETATM   33  C   UNL     1     -11.080   7.775  72.019  1.00  0.00    -0.269 A  
HETATM   34  F   UNL     1     -11.562   7.904  73.260  1.00  0.00    -0.414 F  
HETATM   35  C   UNL     1      -9.339   8.218  70.391  1.00  0.00    -0.162 A  
HETATM   36  C   UNL     1     -11.779   7.028  71.084  1.00  0.00    -0.366 A  
HETATM   37  C   UNL     1      -9.870   8.378  71.679  1.00  0.00    -0.290 A  
HETATM   38  C   UNL     1     -11.251   6.867  69.799  1.00  0.00    -0.315 A  
ENDBRANCH  23  32
ENDBRANCH  17  18
ENDBRANCH   2  17
TORSDOF 6
ENDMDL
MODEL      148
REMARK 921   NORMALIZED FREE ENERGY PREDICTED BY IDOCK:   -5.76 KCAL/MOL
REMARK 922        TOTAL FREE ENERGY PREDICTED BY IDOCK:   -9.91 KCAL/MOL
REMARK 923 INTER-LIGAND FREE ENERGY PREDICTED BY IDOCK:   -8.71 KCAL/MOL
REMARK 924 INTRA-LIGAND FREE ENERGY PREDICTED BY IDOCK:   -1.21 KCAL/MOL
REMARK 927      BINDING AFFINITY PREDICTED BY RF-SCORE:    0.00 PKD
ROOT
HETATM    1  C   UNL     1     -11.053  12.209  65.345  1.00  0.00    -0.362 C  
HETATM    2  C   UNL     1     -11.369  12.067  66.841  1.00  0.00    -0.341 C  
ENDROOT
BRANCH   2   3
HETATM    3  C   UNL     1     -11.369  13.408  67.596  1.00  0.00    -0.321 A  
HETATM    4  C   UNL     1     -12.026  13.570  68.831  1.00  0.00    -0.378 A  
HETATM    5  C   UNL     1     -10.715  14.528  67.052  1.00  0.00    -0.291 A  
HETATM    6  F   UNL     1     -12.286  14.059  71.770  1.00  0.00    -0.375 F  
HETATM    7  F   UNL     1     -12.709  16.156  71.386  1.00  0.00    -0.495 F  
HETATM    8  C   UNL     1     -10.715  15.773  67.713  1.00  0.00    -0.307 A  
HETATM    9  C   UNL     1     -10.034  16.982  67.114  1.00  0.00    -0.281 C  
HETATM   10  C   UNL     1     -11.381  15.897  68.944  1.00  0.00    -0.377 A  
HETATM   11  F   UNL     1     -14.101  14.627  70.718  1.00  0.00    -0.304 F  
HETATM   12  F   UNL     1      -9.403  16.729  65.933  1.00  0.00    -0.298 F  
HETATM   13  F   UNL     1     -10.902  18.000  66.866  1.00  0.00    -0.340 F  
HETATM   14  F   UNL     1      -9.079  17.502  67.938  1.00  0.00    -0.242 F  
HETATM   15  C   UNL     1     -12.775  14.915  70.829  1.00  0.00    -0.363 C  
HETATM   16  C   UNL     1     -12.042  14.800  69.512  1.00  0.00    -0.328 A  
ENDBRANCH   2   3
BRANCH   2  17
HETATM   17  O   UNL     1     -10.639  10.984  67.470  1.00  0.00    -0.200 OA 
BRANCH  17  18
HETATM   18  C   UNL     1      -9.341  10.702  66.927  1.00  0.00    -0.159 C  
HETATM   19  C   UNL     1      -7.484  10.579  69.128  1.00  0.00    -0.114 C  
HETATM   20  C   UNL     1      -8.226  11.824  68.655  1.00  0.00    -0.091 C  
HETATM   21  O   UNL     1      -8.434  11.771  67.238  1.00  0.00    -0.147 OA 
HETATM   22  N   UNL     1      -8.210   9.308  68.844  1.00  0.00    -0.110 NA 
HETATM   23  C   UNL     1      -8.643   9.337  67.393  1.00  0.00    -0.122 C  
BRANCH  22  24
HETATM   24  C   UNL     1      -7.267   8.177  69.077  1.00  0.00    -0.074 C  
BRANCH  24  25
HETATM   25  C   UNL     1      -7.798   7.212  70.112  1.00  0.00    -0.108 C  
HETATM   26  N   UNL     1      -6.959   6.493  70.880  1.00  0.00    -0.066 NA 
HETATM   27  N   UNL     1      -9.064   7.004  70.355  1.00  0.00    -0.156 NA 
HETATM   28  O   UNL     1      -7.377   5.016  72.606  1.00  0.00    -0.085 OA 
HETATM   29  C   UNL     1      -7.743   5.769  71.724  1.00  0.00    -0.101 C  
HETATM   30  N   UNL     1      -9.049   6.083  71.370  1.00  0.00    -0.143 NA 
HETATM   31  H   UNL     1      -9.872   7.428  69.898  1.00  0.00     0.000 HD 
ENDBRANCH  24  25
ENDBRANCH  22  24
BRANCH  23  32
HETATM   32  C   UNL     1      -9.352   8.058  66.937  1.00  0.00    -0.209 A  
HETATM   33  C   UNL     1     -10.446   5.558  66.243  1.00  0.00    -0.174 A  
HETATM   34  F   UNL     1     -10.955   4.357  65.949  1.00  0.00    -0.260 F  
HETATM   35  C   UNL     1     -10.615   7.677  67.411  1.00  0.00    -0.356 A  
HETATM   36  C   UNL     1      -9.207   5.923  65.740  1.00  0.00    -0.059 A  
HETATM   37  C   UNL     1     -11.157   6.429  67.068  1.00  0.00    -0.405 A  
HETATM   38  C   UNL     1      -8.665   7.166  66.080  1.00  0.00    -0.164 A  
ENDBRANCH  23  32
ENDBRANCH  17  18
ENDBRANCH   2  17
TORSDOF 6
ENDMDL
MODEL      149
REMARK 921   NORMALIZED FREE ENERGY PREDICTED BY IDOCK:   -5.74 KCAL/MOL
REMARK 922        TOTAL FREE ENERGY PREDICTED BY IDOCK:   -9.89 KCAL/MOL
REMARK 923 INTER-LIGAND FREE ENERGY PREDICTED BY IDOCK:   -8.39 KCAL/MOL
REMARK 924 INTRA-LIGAND FREE ENERGY PREDICTED BY IDOCK:   -1.50 KCAL/MOL
REMARK 927      BINDING AFFINITY PREDICTED BY RF-SCORE:    0.00 PKD
ROOT
HETATM    1  C   UNL     1     -10.041   9.680  66.025  1.00  0.00    -0.318 C  
HETATM    2  C   UNL     1     -11.035  10.074  67.128  1.00  0.00    -0.107 C  
ENDROOT
BRANCH   2   3
HETATM    3  C   UNL     1     -11.336  11.582  67.170  1.00  0.00    -0.354 A  
HETATM    4  C   UNL     1     -11.574  12.263  68.378  1.00  0.00    -0.377 A  
HETATM    5  C   UNL     1     -11.399  12.325  65.977  1.00  0.00    -0.398 A  
HETATM    6  F   UNL     1     -11.062  14.211  70.589  1.00  0.00    -0.116 F  
HETATM    7  F   UNL     1     -12.393  15.643  69.639  1.00  0.00    -0.359 F  
HETATM    8  C   UNL     1     -11.692  13.704  65.984  1.00  0.00    -0.383 A  
HETATM    9  C   UNL     1     -11.785  14.496  64.700  1.00  0.00    -0.431 C  
HETATM   10  C   UNL     1     -11.923  14.351  67.210  1.00  0.00    -0.409 A  
HETATM   11  F   UNL     1     -13.183  13.771  70.409  1.00  0.00    -0.218 F  
HETATM   12  F   UNL     1     -11.516  13.763  63.582  1.00  0.00    -0.300 F  
HETATM   13  F   UNL     1     -13.019  15.034  64.508  1.00  0.00    -0.250 F  
HETATM   14  F   UNL     1     -10.914  15.545  64.672  1.00  0.00    -0.400 F  
HETATM   15  C   UNL     1     -12.126  14.311  69.743  1.00  0.00    -0.347 C  
HETATM   16  C   UNL     1     -11.868  13.638  68.414  1.00  0.00    -0.407 A  
ENDBRANCH   2   3
BRANCH   2  17
HETATM   17  O   UNL     1     -10.737   9.450  68.403  1.00  0.00    -0.219 OA 
BRANCH  17  18
HETATM   18  C   UNL     1      -9.353   9.172  68.659  1.00  0.00    -0.135 C  
HETATM   19  C   UNL     1      -9.166   8.047  71.305  1.00  0.00    -0.150 C  
HETATM   20  C   UNL     1      -9.582   9.475  70.970  1.00  0.00    -0.090 C  
HETATM   21  O   UNL     1      -8.901   9.927  69.793  1.00  0.00    -0.196 OA 
HETATM   22  N   UNL     1      -9.473   7.067  70.224  1.00  0.00    -0.165 NA 
HETATM   23  C   UNL     1      -8.959   7.641  68.920  1.00  0.00    -0.137 C  
BRANCH  22  24
HETATM   24  C   UNL     1      -8.763   5.794  70.540  1.00  0.00    -0.139 C  
BRANCH  24  25
HETATM   25  C   UNL     1      -9.318   5.142  71.785  1.00  0.00    -0.146 C  
HETATM   26  N   UNL     1     -10.621   4.816  71.872  1.00  0.00    -0.134 NA 
HETATM   27  N   UNL     1      -8.614   4.837  72.842  1.00  0.00    -0.110 NA 
HETATM   28  O   UNL     1     -11.805   3.738  73.538  1.00  0.00    -0.057 OA 
HETATM   29  C   UNL     1     -10.783   4.217  73.083  1.00  0.00    -0.194 C  
HETATM   30  N   UNL     1      -9.530   4.257  73.682  1.00  0.00    -0.109 NA 
HETATM   31  H   UNL     1      -7.620   4.994  73.004  1.00  0.00     0.000 HD 
ENDBRANCH  24  25
ENDBRANCH  22  24
BRANCH  23  32
HETATM   32  C   UNL     1      -9.148   6.709  67.720  1.00  0.00    -0.113 A  
HETATM   33  C   UNL     1      -9.345   4.794  65.665  1.00  0.00    -0.163 A  
HETATM   34  F   UNL     1      -9.441   3.856  64.716  1.00  0.00    -0.131 F  
HETATM   35  C   UNL     1     -10.395   6.177  67.358  1.00  0.00    -0.262 A  
HETATM   36  C   UNL     1      -8.105   5.324  65.986  1.00  0.00    -0.110 A  
HETATM   37  C   UNL     1     -10.490   5.220  66.337  1.00  0.00    -0.347 A  
HETATM   38  C   UNL     1      -8.008   6.279  67.003  1.00  0.00    -0.109 A  
ENDBRANCH  23  32
ENDBRANCH  17  18
ENDBRANCH   2  17
TORSDOF 6
ENDMDL
MODEL      150
REMARK 921   NORMALIZED FREE ENERGY PREDICTED BY IDOCK:   -5.73 KCAL/MOL
REMARK 922        TOTAL FREE ENERGY PREDICTED BY IDOCK:   -9.88 KCAL/MOL
REMARK 923 INTER-LIGAND FREE ENERGY PREDICTED BY IDOCK:   -8.46 KCAL/MOL
REMARK 924 INTRA-LIGAND FREE ENERGY PREDICTED BY IDOCK:   -1.42 KCAL/MOL
REMARK 927      BINDING AFFINITY PREDICTED BY RF-SCORE:    0.00 PKD
ROOT
HETATM    1  C   UNL     1      -7.077  10.560  66.235  1.00  0.00    -0.132 C  
HETATM    2  C   UNL     1      -8.426  10.069  66.781  1.00  0.00    -0.125 C  
ENDROOT
BRANCH   2   3
HETATM    3  C   UNL     1      -9.571  11.076  66.578  1.00  0.00    -0.223 A  
HETATM    4  C   UNL     1     -10.028  11.908  67.618  1.00  0.00    -0.197 A  
HETATM    5  C   UNL     1     -10.211  11.179  65.330  1.00  0.00    -0.337 A  
HETATM    6  F   UNL     1     -10.542  14.469  69.073  1.00  0.00    -0.225 F  
HETATM    7  F   UNL     1     -12.569  14.510  68.288  1.00  0.00    -0.164 F  
HETATM    8  C   UNL     1     -11.275  12.080  65.121  1.00  0.00    -0.368 A  
HETATM    9  C   UNL     1     -11.979  12.171  63.786  1.00  0.00    -0.513 C  
HETATM   10  C   UNL     1     -11.703  12.895  66.183  1.00  0.00    -0.451 A  
HETATM   11  F   UNL     1     -11.967  12.936  69.659  1.00  0.00    -0.333 F  
HETATM   12  F   UNL     1     -11.456  11.351  62.832  1.00  0.00    -0.248 F  
HETATM   13  F   UNL     1     -13.299  11.855  63.871  1.00  0.00    -0.519 F  
HETATM   14  F   UNL     1     -11.932  13.428  63.259  1.00  0.00    -0.531 F  
HETATM   15  C   UNL     1     -11.541  13.673  68.597  1.00  0.00    -0.329 C  
HETATM   16  C   UNL     1     -11.087  12.815  67.438  1.00  0.00    -0.312 A  
ENDBRANCH   2   3
BRANCH   2  17
HETATM   17  O   UNL     1      -8.319   9.486  68.104  1.00  0.00    -0.117 OA 
BRANCH  17  18
HETATM   18  C   UNL     1      -7.310   8.480  68.268  1.00  0.00    -0.094 C  
HETATM   19  C   UNL     1      -7.184   7.822  71.072  1.00  0.00    -0.054 C  
HETATM   20  C   UNL     1      -6.797   9.159  70.451  1.00  0.00    -0.062 C  
HETATM   21  O   UNL     1      -6.270   8.962  69.133  1.00  0.00    -0.042 OA 
HETATM   22  N   UNL     1      -8.221   7.082  70.296  1.00  0.00    -0.126 NA 
HETATM   23  C   UNL     1      -7.788   7.063  68.845  1.00  0.00    -0.115 C  
BRANCH  22  24
HETATM   24  C   UNL     1      -8.291   5.692  70.830  1.00  0.00    -0.124 C  
BRANCH  24  25
HETATM   25  C   UNL     1      -9.449   5.519  71.785  1.00  0.00    -0.149 C  
HETATM   26  N   UNL     1      -9.664   4.344  72.405  1.00  0.00    -0.150 NA 
HETATM   27  N   UNL     1     -10.306   6.455  72.092  1.00  0.00    -0.187 NA 
HETATM   28  O   UNL     1     -11.239   3.728  73.978  1.00  0.00    -0.148 OA 
HETATM   29  C   UNL     1     -10.741   4.532  73.215  1.00  0.00    -0.239 C  
HETATM   30  N   UNL     1     -11.140   5.845  72.993  1.00  0.00    -0.267 NA 
HETATM   31  H   UNL     1     -10.345   7.414  71.745  1.00  0.00     0.000 HD 
ENDBRANCH  24  25
ENDBRANCH  22  24
BRANCH  23  32
HETATM   32  C   UNL     1      -8.732   6.276  67.931  1.00  0.00    -0.114 A  
HETATM   33  C   UNL     1     -10.477   5.068  66.081  1.00  0.00    -0.286 A  
HETATM   34  F   UNL     1     -11.288   4.514  65.173  1.00  0.00    -0.362 F  
HETATM   35  C   UNL     1      -8.312   5.177  67.169  1.00  0.00    -0.107 A  
HETATM   36  C   UNL     1     -10.924   6.137  66.842  1.00  0.00    -0.384 A  
HETATM   37  C   UNL     1      -9.181   4.579  66.245  1.00  0.00    -0.137 A  
HETATM   38  C   UNL     1     -10.060   6.734  67.765  1.00  0.00    -0.189 A  
ENDBRANCH  23  32
ENDBRANCH  17  18
ENDBRANCH   2  17
TORSDOF 6
ENDMDL
MODEL      151
REMARK 921   NORMALIZED FREE ENERGY PREDICTED BY IDOCK:   -5.73 KCAL/MOL
REMARK 922        TOTAL FREE ENERGY PREDICTED BY IDOCK:   -9.87 KCAL/MOL
REMARK 923 INTER-LIGAND FREE ENERGY PREDICTED BY IDOCK:   -8.32 KCAL/MOL
REMARK 924 INTRA-LIGAND FREE ENERGY PREDICTED BY IDOCK:   -1.55 KCAL/MOL
REMARK 927      BINDING AFFINITY PREDICTED BY RF-SCORE:    0.00 PKD
ROOT
HETATM    1  C   UNL     1      -6.136  14.487  67.804  1.00  0.00    -0.133 C  
HETATM    2  C   UNL     1      -7.260  13.464  67.581  1.00  0.00    -0.161 C  
ENDROOT
BRANCH   2   3
HETATM    3  C   UNL     1      -8.598  14.105  67.176  1.00  0.00    -0.230 A  
HETATM    4  C   UNL     1      -9.666  13.345  66.662  1.00  0.00    -0.275 A  
HETATM    5  C   UNL     1      -8.784  15.494  67.298  1.00  0.00    -0.214 A  
HETATM    6  F   UNL     1     -12.387  12.106  66.600  1.00  0.00    -0.276 F  
HETATM    7  F   UNL     1     -13.114  13.757  65.387  1.00  0.00    -0.517 F  
HETATM    8  C   UNL     1      -9.994  16.110  66.918  1.00  0.00    -0.258 A  
HETATM    9  C   UNL     1     -10.183  17.606  67.025  1.00  0.00    -0.332 C  
HETATM   10  C   UNL     1     -11.037  15.319  66.409  1.00  0.00    -0.273 A  
HETATM   11  F   UNL     1     -11.615  12.401  64.589  1.00  0.00    -0.340 F  
HETATM   12  F   UNL     1      -9.111  18.259  67.556  1.00  0.00    -0.249 F  
HETATM   13  F   UNL     1     -10.418  18.189  65.819  1.00  0.00    -0.389 F  
HETATM   14  F   UNL     1     -11.245  17.941  67.812  1.00  0.00    -0.302 F  
HETATM   15  C   UNL     1     -11.988  13.065  65.718  1.00  0.00    -0.429 C  
HETATM   16  C   UNL     1     -10.883  13.933  66.275  1.00  0.00    -0.290 A  
ENDBRANCH   2   3
BRANCH   2  17
HETATM   17  O   UNL     1      -7.325  12.462  68.627  1.00  0.00    -0.105 OA 
BRANCH  17  18
HETATM   18  C   UNL     1      -6.427  11.352  68.491  1.00  0.00    -0.056 C  
HETATM   19  C   UNL     1      -5.730  10.466  71.144  1.00  0.00    -0.017 C  
HETATM   20  C   UNL     1      -5.347  11.804  70.520  1.00  0.00    -0.137 C  
HETATM   21  O   UNL     1      -5.167  11.660  69.106  1.00  0.00    -0.047 OA 
HETATM   22  N   UNL     1      -6.996   9.895  70.601  1.00  0.00    -0.278 NA 
HETATM   23  C   UNL     1      -6.917   9.948  69.090  1.00  0.00    -0.057 C  
BRANCH  22  24
HETATM   24  C   UNL     1      -7.099   8.481  71.062  1.00  0.00    -0.068 C  
BRANCH  24  25
HETATM   25  C   UNL     1      -8.507   8.134  71.486  1.00  0.00    -0.127 C  
HETATM   26  N   UNL     1      -9.203   7.176  70.848  1.00  0.00    -0.153 NA 
HETATM   27  N   UNL     1      -9.146   8.698  72.475  1.00  0.00    -0.367 NA 
HETATM   28  O   UNL     1     -11.305   6.307  71.256  1.00  0.00    -0.286 OA 
HETATM   29  C   UNL     1     -10.398   7.081  71.493  1.00  0.00    -0.203 C  
HETATM   30  N   UNL     1     -10.354   8.049  72.489  1.00  0.00    -0.280 NA 
HETATM   31  H   UNL     1      -8.823   9.445  73.091  1.00  0.00     0.000 HD 
ENDBRANCH  24  25
ENDBRANCH  22  24
BRANCH  23  32
HETATM   32  C   UNL     1      -8.131   9.332  68.388  1.00  0.00    -0.106 A  
HETATM   33  C   UNL     1     -10.336   7.974  67.283  1.00  0.00    -0.301 A  
HETATM   34  F   UNL     1     -11.392   7.315  66.795  1.00  0.00    -0.356 F  
HETATM   35  C   UNL     1      -9.423   9.868  68.491  1.00  0.00    -0.149 A  
HETATM   36  C   UNL     1      -9.066   7.437  67.145  1.00  0.00    -0.146 A  
HETATM   37  C   UNL     1     -10.521   9.188  67.944  1.00  0.00    -0.293 A  
HETATM   38  C   UNL     1      -7.970   8.114  67.689  1.00  0.00    -0.122 A  
ENDBRANCH  23  32
ENDBRANCH  17  18
ENDBRANCH   2  17
TORSDOF 6
ENDMDL
MODEL      152
REMARK 921   NORMALIZED FREE ENERGY PREDICTED BY IDOCK:   -5.72 KCAL/MOL
REMARK 922        TOTAL FREE ENERGY PREDICTED BY IDOCK:   -9.86 KCAL/MOL
REMARK 923 INTER-LIGAND FREE ENERGY PREDICTED BY IDOCK:   -8.53 KCAL/MOL
REMARK 924 INTRA-LIGAND FREE ENERGY PREDICTED BY IDOCK:   -1.33 KCAL/MOL
REMARK 927      BINDING AFFINITY PREDICTED BY RF-SCORE:    0.00 PKD
ROOT
HETATM    1  C   UNL     1     -10.673  14.265  64.740  1.00  0.00    -0.435 C  
HETATM    2  C   UNL     1     -10.866  14.491  66.246  1.00  0.00    -0.317 C  
ENDROOT
BRANCH   2   3
HETATM    3  C   UNL     1      -9.927  15.560  66.830  1.00  0.00    -0.257 A  
HETATM    4  C   UNL     1      -8.608  15.262  67.224  1.00  0.00    -0.210 A  
HETATM    5  C   UNL     1     -10.377  16.881  67.003  1.00  0.00    -0.307 A  
HETATM    6  F   UNL     1      -5.620  15.365  67.149  1.00  0.00    -0.031 F  
HETATM    7  F   UNL     1      -5.632  16.885  68.703  1.00  0.00    -0.121 F  
HETATM    8  C   UNL     1      -9.544  17.877  67.552  1.00  0.00    -0.269 A  
HETATM    9  C   UNL     1     -10.038  19.290  67.761  1.00  0.00    -0.391 C  
HETATM   10  C   UNL     1      -8.234  17.542  67.933  1.00  0.00    -0.231 A  
HETATM   11  F   UNL     1      -6.337  14.877  69.142  1.00  0.00    -0.096 F  
HETATM   12  F   UNL     1     -11.314  19.495  67.329  1.00  0.00    -0.543 F  
HETATM   13  F   UNL     1     -10.020  19.660  69.070  1.00  0.00    -0.463 F  
HETATM   14  F   UNL     1      -9.274  20.210  67.105  1.00  0.00    -0.391 F  
HETATM   15  C   UNL     1      -6.354  15.850  68.190  1.00  0.00    -0.125 C  
HETATM   16  C   UNL     1      -7.756  16.235  67.775  1.00  0.00    -0.157 A  
ENDBRANCH   2   3
BRANCH   2  17
HETATM   17  O   UNL     1     -10.961  13.252  66.993  1.00  0.00    -0.269 OA 
BRANCH  17  18
HETATM   18  C   UNL     1     -10.295  13.231  68.263  1.00  0.00    -0.249 C  
HETATM   19  C   UNL     1     -11.501  11.145  69.845  1.00  0.00    -0.306 C  
HETATM   20  C   UNL     1     -12.185  12.430  69.392  1.00  0.00    -0.065 C  
HETATM   21  O   UNL     1     -11.234  13.499  69.316  1.00  0.00    -0.261 OA 
HETATM   22  N   UNL     1     -10.413  10.694  68.930  1.00  0.00    -0.198 NA 
HETATM   23  C   UNL     1      -9.519  11.884  68.652  1.00  0.00    -0.080 C  
BRANCH  22  24
HETATM   24  C   UNL     1      -9.642   9.622  69.623  1.00  0.00    -0.208 C  
BRANCH  24  25
HETATM   25  C   UNL     1     -10.497   8.405  69.892  1.00  0.00    -0.222 C  
HETATM   26  N   UNL     1     -11.023   8.187  71.111  1.00  0.00    -0.232 NA 
HETATM   27  N   UNL     1     -10.800   7.499  69.002  1.00  0.00    -0.402 NA 
HETATM   28  O   UNL     1     -12.435   6.525  71.874  1.00  0.00    -0.347 OA 
HETATM   29  C   UNL     1     -11.763   7.050  71.007  1.00  0.00    -0.333 C  
HETATM   30  N   UNL     1     -11.597   6.624  69.695  1.00  0.00    -0.296 NA 
HETATM   31  H   UNL     1     -10.513   7.453  68.025  1.00  0.00     0.000 HD 
ENDBRANCH  24  25
ENDBRANCH  22  24
BRANCH  23  32
HETATM   32  C   UNL     1      -8.312  11.554  67.769  1.00  0.00    -0.136 A  
HETATM   33  C   UNL     1      -6.205  11.133  65.949  1.00  0.00     0.030 A  
HETATM   34  F   UNL     1      -5.207  10.971  65.074  1.00  0.00    -0.143 F  
HETATM   35  C   UNL     1      -7.005  11.949  68.088  1.00  0.00    -0.078 A  
HETATM   36  C   UNL     1      -7.483  10.709  65.621  1.00  0.00    -0.093 A  
HETATM   37  C   UNL     1      -5.957  11.742  67.179  1.00  0.00    -0.140 A  
HETATM   38  C   UNL     1      -8.529  10.914  66.527  1.00  0.00    -0.159 A  
ENDBRANCH  23  32
ENDBRANCH  17  18
ENDBRANCH   2  17
TORSDOF 6
ENDMDL
MODEL      153
REMARK 921   NORMALIZED FREE ENERGY PREDICTED BY IDOCK:   -5.69 KCAL/MOL
REMARK 922        TOTAL FREE ENERGY PREDICTED BY IDOCK:   -9.82 KCAL/MOL
REMARK 923 INTER-LIGAND FREE ENERGY PREDICTED BY IDOCK:   -9.04 KCAL/MOL
REMARK 924 INTRA-LIGAND FREE ENERGY PREDICTED BY IDOCK:   -0.78 KCAL/MOL
REMARK 927      BINDING AFFINITY PREDICTED BY RF-SCORE:    0.00 PKD
ROOT
HETATM    1  C   UNL     1      -5.982  10.713  68.041  1.00  0.00    -0.046 C  
HETATM    2  C   UNL     1      -7.408  11.089  68.469  1.00  0.00    -0.101 C  
ENDROOT
BRANCH   2   3
HETATM    3  C   UNL     1      -8.252   9.882  68.913  1.00  0.00    -0.118 A  
HETATM    4  C   UNL     1      -8.943   9.075  67.990  1.00  0.00    -0.133 A  
HETATM    5  C   UNL     1      -8.367   9.562  70.278  1.00  0.00    -0.221 A  
HETATM    6  F   UNL     1      -9.609   6.596  66.455  1.00  0.00    -0.178 F  
HETATM    7  F   UNL     1     -11.180   6.130  67.885  1.00  0.00    -0.368 F  
HETATM    8  C   UNL     1      -9.149   8.473  70.714  1.00  0.00    -0.196 A  
HETATM    9  C   UNL     1      -9.293   8.144  72.182  1.00  0.00    -0.206 C  
HETATM   10  C   UNL     1      -9.825   7.688  69.763  1.00  0.00    -0.181 A  
HETATM   11  F   UNL     1     -11.342   7.898  66.631  1.00  0.00     0.036 F  
HETATM   12  F   UNL     1      -8.571   8.960  73.000  1.00  0.00    -0.170 F  
HETATM   13  F   UNL     1     -10.582   8.228  72.611  1.00  0.00    -0.348 F  
HETATM   14  F   UNL     1      -8.887   6.876  72.473  1.00  0.00    -0.125 F  
HETATM   15  C   UNL     1     -10.459   7.160  67.359  1.00  0.00    -0.284 C  
HETATM   16  C   UNL     1      -9.730   7.982  68.397  1.00  0.00    -0.168 A  
ENDBRANCH   2   3
BRANCH   2  17
HETATM   17  O   UNL     1      -8.048  12.008  67.548  1.00  0.00    -0.141 OA 
BRANCH  17  18
HETATM   18  C   UNL     1      -9.130  12.783  68.083  1.00  0.00    -0.203 C  
HETATM   19  C   UNL     1      -8.453  15.566  67.758  1.00  0.00    -0.152 C  
HETATM   20  C   UNL     1      -7.737  14.574  68.667  1.00  0.00    -0.137 C  
HETATM   21  O   UNL     1      -8.662  13.600  69.167  1.00  0.00     0.234 OA 
HETATM   22  N   UNL     1      -9.098  14.931  66.572  1.00  0.00    -0.279 NA 
HETATM   23  C   UNL     1      -9.904  13.746  67.063  1.00  0.00    -0.251 C  
BRANCH  22  24
HETATM   24  C   UNL     1      -9.997  15.939  65.942  1.00  0.00    -0.349 C  
BRANCH  24  25
HETATM   25  C   UNL     1      -9.565  17.351  66.266  1.00  0.00    -0.242 C  
HETATM   26  N   UNL     1     -10.312  18.133  67.066  1.00  0.00    -0.368 NA 
HETATM   27  N   UNL     1      -8.472  17.913  65.828  1.00  0.00    -0.434 NA 
HETATM   28  O   UNL     1      -9.945  20.272  67.860  1.00  0.00    -0.396 OA 
HETATM   29  C   UNL     1      -9.634  19.307  67.190  1.00  0.00    -0.325 C  
HETATM   30  N   UNL     1      -8.502  19.160  66.396  1.00  0.00    -0.313 NA 
HETATM   31  H   UNL     1      -7.763  17.518  65.209  1.00  0.00     0.000 HD 
ENDBRANCH  24  25
ENDBRANCH  22  24
BRANCH  23  32
HETATM   32  C   UNL     1     -10.679  13.028  65.954  1.00  0.00    -0.292 A  
HETATM   33  C   UNL     1     -12.166  11.974  63.809  1.00  0.00    -0.498 A  
HETATM   34  F   UNL     1     -12.860  11.503  62.767  1.00  0.00    -0.503 F  
HETATM   35  C   UNL     1     -10.053  12.258  64.964  1.00  0.00    -0.277 A  
HETATM   36  C   UNL     1     -12.813  12.709  64.790  1.00  0.00    -0.349 A  
HETATM   37  C   UNL     1     -10.794  11.737  63.893  1.00  0.00    -0.468 A  
HETATM   38  C   UNL     1     -12.076  13.229  65.858  1.00  0.00    -0.493 A  
ENDBRANCH  23  32
ENDBRANCH  17  18
ENDBRANCH   2  17
TORSDOF 6
ENDMDL
MODEL      154
REMARK 921   NORMALIZED FREE ENERGY PREDICTED BY IDOCK:   -5.65 KCAL/MOL
REMARK 922        TOTAL FREE ENERGY PREDICTED BY IDOCK:   -9.76 KCAL/MOL
REMARK 923 INTER-LIGAND FREE ENERGY PREDICTED BY IDOCK:   -7.85 KCAL/MOL
REMARK 924 INTRA-LIGAND FREE ENERGY PREDICTED BY IDOCK:   -1.91 KCAL/MOL
REMARK 927      BINDING AFFINITY PREDICTED BY RF-SCORE:    0.00 PKD
ROOT
HETATM    1  C   UNL     1      -7.100  10.077  66.484  1.00  0.00    -0.097 C  
HETATM    2  C   UNL     1      -8.037   9.522  67.566  1.00  0.00    -0.110 C  
ENDROOT
BRANCH   2   3
HETATM    3  C   UNL     1      -9.357  10.301  67.692  1.00  0.00    -0.158 A  
HETATM    4  C   UNL     1      -9.894  11.039  66.620  1.00  0.00    -0.235 A  
HETATM    5  C   UNL     1     -10.062  10.309  68.909  1.00  0.00    -0.216 A  
HETATM    6  F   UNL     1     -11.853  11.755  64.477  1.00  0.00    -0.380 F  
HETATM    7  F   UNL     1     -12.780  13.205  65.805  1.00  0.00    -0.480 F  
HETATM    8  C   UNL     1     -11.264  11.030  69.059  1.00  0.00    -0.320 A  
HETATM    9  C   UNL     1     -12.008  11.057  70.374  1.00  0.00    -0.368 C  
HETATM   10  C   UNL     1     -11.771  11.754  67.966  1.00  0.00    -0.363 A  
HETATM   11  F   UNL     1     -10.735  13.501  65.132  1.00  0.00    -0.291 F  
HETATM   12  F   UNL     1     -11.431  10.297  71.347  1.00  0.00    -0.413 F  
HETATM   13  F   UNL     1     -12.109  12.312  70.889  1.00  0.00    -0.444 F  
HETATM   14  F   UNL     1     -13.287  10.600  70.258  1.00  0.00    -0.298 F  
HETATM   15  C   UNL     1     -11.612  12.550  65.557  1.00  0.00    -0.386 C  
HETATM   16  C   UNL     1     -11.091  11.767  66.741  1.00  0.00    -0.360 A  
ENDBRANCH   2   3
BRANCH   2  17
HETATM   17  O   UNL     1      -7.349   9.231  68.810  1.00  0.00    -0.073 OA 
BRANCH  17  18
HETATM   18  C   UNL     1      -6.528   8.056  68.814  1.00  0.00    -0.049 C  
HETATM   19  C   UNL     1      -6.336   7.138  71.540  1.00  0.00    -0.037 C  
HETATM   20  C   UNL     1      -5.758   8.438  70.993  1.00  0.00    -0.033 C  
HETATM   21  O   UNL     1      -5.363   8.272  69.626  1.00  0.00    -0.029 OA 
HETATM   22  N   UNL     1      -7.537   6.660  70.797  1.00  0.00    -0.091 NA 
HETATM   23  C   UNL     1      -7.212   6.697  69.318  1.00  0.00    -0.090 C  
BRANCH  22  24
HETATM   24  C   UNL     1      -7.819   5.261  71.227  1.00  0.00    -0.107 C  
BRANCH  24  25
HETATM   25  C   UNL     1      -9.100   5.170  72.024  1.00  0.00    -0.137 C  
HETATM   26  N   UNL     1      -9.575   3.980  72.433  1.00  0.00    -0.134 NA 
HETATM   27  N   UNL     1      -9.828   6.193  72.381  1.00  0.00    -0.165 NA 
HETATM   28  O   UNL     1     -11.413   3.447  73.729  1.00  0.00    -0.162 OA 
HETATM   29  C   UNL     1     -10.701   4.245  73.150  1.00  0.00    -0.205 C  
HETATM   30  N   UNL     1     -10.855   5.625  73.090  1.00  0.00    -0.263 NA 
HETATM   31  H   UNL     1      -9.669   7.181  72.181  1.00  0.00     0.000 HD 
ENDBRANCH  24  25
ENDBRANCH  22  24
BRANCH  23  32
HETATM   32  C   UNL     1      -8.341   6.170  68.427  1.00  0.00    -0.114 A  
HETATM   33  C   UNL     1     -10.427   5.470  66.671  1.00  0.00    -0.294 A  
HETATM   34  F   UNL     1     -11.403   5.161  65.810  1.00  0.00    -0.196 F  
HETATM   35  C   UNL     1      -8.130   5.228  67.409  1.00  0.00    -0.100 A  
HETATM   36  C   UNL     1     -10.668   6.383  67.686  1.00  0.00    -0.387 A  
HETATM   37  C   UNL     1      -9.169   4.883  66.533  1.00  0.00    -0.135 A  
HETATM   38  C   UNL     1      -9.634   6.727  68.561  1.00  0.00    -0.130 A  
ENDBRANCH  23  32
ENDBRANCH  17  18
ENDBRANCH   2  17
TORSDOF 6
ENDMDL
MODEL      155
REMARK 921   NORMALIZED FREE ENERGY PREDICTED BY IDOCK:   -5.63 KCAL/MOL
REMARK 922        TOTAL FREE ENERGY PREDICTED BY IDOCK:   -9.74 KCAL/MOL
REMARK 923 INTER-LIGAND FREE ENERGY PREDICTED BY IDOCK:   -7.64 KCAL/MOL
REMARK 924 INTRA-LIGAND FREE ENERGY PREDICTED BY IDOCK:   -2.10 KCAL/MOL
REMARK 927      BINDING AFFINITY PREDICTED BY RF-SCORE:    0.00 PKD
ROOT
HETATM    1  C   UNL     1      -6.996  10.151  69.233  1.00  0.00    -0.068 C  
HETATM    2  C   UNL     1      -7.792  10.404  67.944  1.00  0.00    -0.101 C  
ENDROOT
BRANCH   2   3
HETATM    3  C   UNL     1      -9.223  10.907  68.197  1.00  0.00    -0.158 A  
HETATM    4  C   UNL     1     -10.013  10.415  69.253  1.00  0.00    -0.246 A  
HETATM    5  C   UNL     1      -9.792  11.878  67.352  1.00  0.00    -0.192 A  
HETATM    6  F   UNL     1     -11.536  10.500  71.825  1.00  0.00    -0.232 F  
HETATM    7  F   UNL     1     -13.385  10.808  70.723  1.00  0.00    -0.355 F  
HETATM    8  C   UNL     1     -11.108  12.344  67.549  1.00  0.00    -0.313 A  
HETATM    9  C   UNL     1     -11.727  13.368  66.626  1.00  0.00    -0.385 C  
HETATM   10  C   UNL     1     -11.866  11.830  68.615  1.00  0.00    -0.369 A  
HETATM   11  F   UNL     1     -12.295   8.939  70.516  1.00  0.00    -0.157 F  
HETATM   12  F   UNL     1     -10.885  13.807  65.649  1.00  0.00    -0.278 F  
HETATM   13  F   UNL     1     -12.830  12.893  65.986  1.00  0.00    -0.296 F  
HETATM   14  F   UNL     1     -12.137  14.486  67.290  1.00  0.00    -0.406 F  
HETATM   15  C   UNL     1     -12.130  10.287  70.617  1.00  0.00    -0.338 C  
HETATM   16  C   UNL     1     -11.328  10.863  69.473  1.00  0.00    -0.351 A  
ENDBRANCH   2   3
BRANCH   2  17
HETATM   17  O   UNL     1      -7.658   9.328  66.980  1.00  0.00    -0.090 OA 
BRANCH  17  18
HETATM   18  C   UNL     1      -8.851   8.967  66.271  1.00  0.00    -0.158 C  
HETATM   19  C   UNL     1      -8.120   7.033  64.263  1.00  0.00    -0.040 C  
HETATM   20  C   UNL     1      -7.693   8.496  64.290  1.00  0.00    -0.130 C  
HETATM   21  O   UNL     1      -8.719   9.303  64.881  1.00  0.00    -0.174 OA 
HETATM   22  N   UNL     1      -8.393   6.466  65.615  1.00  0.00    -0.143 NA 
HETATM   23  C   UNL     1      -9.301   7.431  66.348  1.00  0.00    -0.155 C  
BRANCH  22  24
HETATM   24  C   UNL     1      -9.074   5.152  65.435  1.00  0.00    -0.140 C  
BRANCH  24  25
HETATM   25  C   UNL     1      -8.708   4.179  66.532  1.00  0.00    -0.115 C  
HETATM   26  N   UNL     1      -7.429   4.028  66.921  1.00  0.00    -0.072 NA 
HETATM   27  N   UNL     1      -9.562   3.435  67.181  1.00  0.00    -0.353 NA 
HETATM   28  O   UNL     1      -6.500   2.737  68.597  1.00  0.00    -0.029 OA 
HETATM   29  C   UNL     1      -7.446   3.125  67.939  1.00  0.00    -0.054 C  
HETATM   30  N   UNL     1      -8.778   2.750  68.074  1.00  0.00    -0.093 NA 
HETATM   31  H   UNL     1     -10.573   3.377  67.055  1.00  0.00     0.000 HD 
ENDBRANCH  24  25
ENDBRANCH  22  24
BRANCH  23  32
HETATM   32  C   UNL     1      -9.721   6.946  67.739  1.00  0.00    -0.148 A  
HETATM   33  C   UNL     1     -10.427   6.325  70.392  1.00  0.00    -0.222 A  
HETATM   34  F   UNL     1     -10.776   6.067  71.657  1.00  0.00    -0.254 F  
HETATM   35  C   UNL     1     -11.048   6.640  68.069  1.00  0.00    -0.296 A  
HETATM   36  C   UNL     1      -9.103   6.598  70.086  1.00  0.00    -0.155 A  
HETATM   37  C   UNL     1     -11.400   6.335  69.393  1.00  0.00    -0.448 A  
HETATM   38  C   UNL     1      -8.751   6.902  68.767  1.00  0.00    -0.129 A  
ENDBRANCH  23  32
ENDBRANCH  17  18
ENDBRANCH   2  17
TORSDOF 6
ENDMDL
MODEL      156
REMARK 921   NORMALIZED FREE ENERGY PREDICTED BY IDOCK:   -5.61 KCAL/MOL
REMARK 922        TOTAL FREE ENERGY PREDICTED BY IDOCK:   -9.71 KCAL/MOL
REMARK 923 INTER-LIGAND FREE ENERGY PREDICTED BY IDOCK:   -9.81 KCAL/MOL
REMARK 924 INTRA-LIGAND FREE ENERGY PREDICTED BY IDOCK:    0.10 KCAL/MOL
REMARK 927      BINDING AFFINITY PREDICTED BY RF-SCORE:    0.00 PKD
ROOT
HETATM    1  C   UNL     1      -6.865  10.321  68.076  1.00  0.00    -0.070 C  
HETATM    2  C   UNL     1      -7.867  10.645  69.193  1.00  0.00    -0.142 C  
ENDROOT
BRANCH   2   3
HETATM    3  C   UNL     1      -8.544   9.399  69.788  1.00  0.00    -0.182 A  
HETATM    4  C   UNL     1      -8.047   8.100  69.566  1.00  0.00    -0.119 A  
HETATM    5  C   UNL     1      -9.707   9.529  70.569  1.00  0.00    -0.325 A  
HETATM    6  F   UNL     1      -6.823   5.462  70.263  1.00  0.00    -0.041 F  
HETATM    7  F   UNL     1      -8.803   4.573  70.384  1.00  0.00    -0.095 F  
HETATM    8  C   UNL     1     -10.359   8.402  71.110  1.00  0.00    -0.264 A  
HETATM    9  C   UNL     1     -11.623   8.542  71.928  1.00  0.00    -0.341 C  
HETATM   10  C   UNL     1      -9.833   7.122  70.868  1.00  0.00    -0.182 A  
HETATM   11  F   UNL     1      -8.056   5.307  68.479  1.00  0.00    -0.085 F  
HETATM   12  F   UNL     1     -12.017   9.833  72.114  1.00  0.00    -0.415 F  
HETATM   13  F   UNL     1     -12.682   7.903  71.361  1.00  0.00    -0.315 F  
HETATM   14  F   UNL     1     -11.495   8.011  73.177  1.00  0.00    -0.459 F  
HETATM   15  C   UNL     1      -8.102   5.590  69.810  1.00  0.00    -0.101 C  
HETATM   16  C   UNL     1      -8.677   6.960  70.094  1.00  0.00    -0.141 A  
ENDBRANCH   2   3
BRANCH   2  17
HETATM   17  O   UNL     1      -8.747  11.748  68.858  1.00  0.00    -0.030 OA 
BRANCH  17  18
HETATM   18  C   UNL     1      -9.029  11.925  67.463  1.00  0.00    -0.171 C  
HETATM   19  C   UNL     1     -11.888  11.789  67.128  1.00  0.00    -0.077 C  
HETATM   20  C   UNL     1     -10.984  10.638  67.557  1.00  0.00    -0.310 C  
HETATM   21  O   UNL     1      -9.695  10.764  66.944  1.00  0.00    -0.172 OA 
HETATM   22  N   UNL     1     -11.360  13.133  67.499  1.00  0.00    -0.283 NA 
HETATM   23  C   UNL     1      -9.913  13.199  67.059  1.00  0.00    -0.244 C  
BRANCH  22  24
HETATM   24  C   UNL     1     -12.165  14.159  66.777  1.00  0.00    -0.394 C  
BRANCH  24  25
HETATM   25  C   UNL     1     -12.339  13.806  65.318  1.00  0.00    -0.464 C  
HETATM   26  N   UNL     1     -12.789  12.593  64.951  1.00  0.00    -0.842 NA 
HETATM   27  N   UNL     1     -12.089  14.614  64.323  1.00  0.00    -0.645 NA 
HETATM   28  O   UNL     1     -13.272  11.725  62.864  1.00  0.00    -0.357 OA 
HETATM   29  C   UNL     1     -12.871  12.613  63.593  1.00  0.00    -0.077 C  
HETATM   30  N   UNL     1     -12.412  13.870  63.217  1.00  0.00    -0.731 NA 
HETATM   31  H   UNL     1     -11.737  15.570  64.360  1.00  0.00     0.000 HD 
ENDBRANCH  24  25
ENDBRANCH  22  24
BRANCH  23  32
HETATM   32  C   UNL     1      -9.252  14.556  67.321  1.00  0.00    -0.213 A  
HETATM   33  C   UNL     1      -8.269  17.171  67.668  1.00  0.00    -0.187 A  
HETATM   34  F   UNL     1      -7.839  18.426  67.838  1.00  0.00    -0.237 F  
HETATM   35  C   UNL     1      -9.112  15.100  68.605  1.00  0.00    -0.195 A  
HETATM   36  C   UNL     1      -8.372  16.646  66.389  1.00  0.00    -0.353 A  
HETATM   37  C   UNL     1      -8.626  16.404  68.777  1.00  0.00    -0.250 A  
HETATM   38  C   UNL     1      -8.856  15.346  66.216  1.00  0.00    -0.302 A  
ENDBRANCH  23  32
ENDBRANCH  17  18
ENDBRANCH   2  17
TORSDOF 6
ENDMDL
MODEL      157
REMARK 921   NORMALIZED FREE ENERGY PREDICTED BY IDOCK:   -5.61 KCAL/MOL
REMARK 922        TOTAL FREE ENERGY PREDICTED BY IDOCK:   -9.71 KCAL/MOL
REMARK 923 INTER-LIGAND FREE ENERGY PREDICTED BY IDOCK:   -6.14 KCAL/MOL
REMARK 924 INTRA-LIGAND FREE ENERGY PREDICTED BY IDOCK:   -3.57 KCAL/MOL
REMARK 927      BINDING AFFINITY PREDICTED BY RF-SCORE:    0.00 PKD
ROOT
HETATM    1  C   UNL     1      -8.918   8.063  71.804  1.00  0.00    -0.194 C  
HETATM    2  C   UNL     1      -8.198   8.261  70.462  1.00  0.00    -0.114 C  
ENDROOT
BRANCH   2   3
HETATM    3  C   UNL     1      -8.487   9.623  69.808  1.00  0.00    -0.200 A  
HETATM    4  C   UNL     1      -9.799  10.066  69.552  1.00  0.00    -0.249 A  
HETATM    5  C   UNL     1      -7.426  10.466  69.430  1.00  0.00    -0.135 A  
HETATM    6  F   UNL     1     -12.226  11.791  69.821  1.00  0.00    -0.337 F  
HETATM    7  F   UNL     1     -11.608  12.938  68.081  1.00  0.00    -0.287 F  
HETATM    8  C   UNL     1      -7.661  11.711  68.812  1.00  0.00    -0.111 A  
HETATM    9  C   UNL     1      -6.520  12.605  68.382  1.00  0.00    -0.078 C  
HETATM   10  C   UNL     1      -8.984  12.120  68.572  1.00  0.00    -0.082 A  
HETATM   11  F   UNL     1     -12.151  10.845  67.866  1.00  0.00    -0.257 F  
HETATM   12  F   UNL     1      -5.289  12.110  68.692  1.00  0.00    -0.050 F  
HETATM   13  F   UNL     1      -6.509  12.827  67.040  1.00  0.00    -0.157 F  
HETATM   14  F   UNL     1      -6.579  13.838  68.961  1.00  0.00    -0.086 F  
HETATM   15  C   UNL     1     -11.492  11.718  68.676  1.00  0.00    -0.288 C  
HETATM   16  C   UNL     1     -10.061  11.303  68.937  1.00  0.00    -0.185 A  
ENDBRANCH   2   3
BRANCH   2  17
HETATM   17  O   UNL     1      -8.300   7.105  69.593  1.00  0.00    -0.129 OA 
BRANCH  17  18
HETATM   18  C   UNL     1      -7.156   6.833  68.772  1.00  0.00    -0.086 C  
HETATM   19  C   UNL     1      -7.550   4.250  67.557  1.00  0.00    -0.073 C  
HETATM   20  C   UNL     1      -7.344   4.514  69.044  1.00  0.00    -0.056 C  
HETATM   21  O   UNL     1      -6.489   5.648  69.234  1.00  0.00    -0.041 OA 
HETATM   22  N   UNL     1      -8.176   5.391  66.829  1.00  0.00    -0.108 NA 
HETATM   23  C   UNL     1      -7.419   6.649  67.202  1.00  0.00    -0.088 C  
BRANCH  22  24
HETATM   24  C   UNL     1      -8.049   5.130  65.367  1.00  0.00    -0.118 C  
BRANCH  24  25
HETATM   25  C   UNL     1      -9.331   4.578  64.786  1.00  0.00    -0.138 C  
HETATM   26  N   UNL     1      -9.304   3.698  63.768  1.00  0.00    -0.122 NA 
HETATM   27  N   UNL     1     -10.529   4.881  65.207  1.00  0.00    -0.460 NA 
HETATM   28  O   UNL     1     -11.014   2.574  62.694  1.00  0.00    -0.173 OA 
HETATM   29  C   UNL     1     -10.601   3.371  63.515  1.00  0.00    -0.260 C  
HETATM   30  N   UNL     1     -11.350   4.131  64.405  1.00  0.00    -0.122 NA 
HETATM   31  H   UNL     1     -10.791   5.523  65.954  1.00  0.00     0.000 HD 
ENDBRANCH  24  25
ENDBRANCH  22  24
BRANCH  23  32
HETATM   32  C   UNL     1      -7.913   7.903  66.476  1.00  0.00    -0.102 A  
HETATM   33  C   UNL     1      -8.923  10.301  65.401  1.00  0.00    -0.178 A  
HETATM   34  F   UNL     1      -9.394  11.458  64.923  1.00  0.00    -0.224 F  
HETATM   35  C   UNL     1      -7.045   8.868  65.947  1.00  0.00    -0.084 A  
HETATM   36  C   UNL     1      -9.804   9.351  65.893  1.00  0.00    -0.362 A  
HETATM   37  C   UNL     1      -7.549  10.064  65.416  1.00  0.00    -0.138 A  
HETATM   38  C   UNL     1      -9.303   8.158  66.423  1.00  0.00    -0.269 A  
ENDBRANCH  23  32
ENDBRANCH  17  18
ENDBRANCH   2  17
TORSDOF 6
ENDMDL
MODEL      158
REMARK 921   NORMALIZED FREE ENERGY PREDICTED BY IDOCK:   -5.60 KCAL/MOL
REMARK 922        TOTAL FREE ENERGY PREDICTED BY IDOCK:   -9.70 KCAL/MOL
REMARK 923 INTER-LIGAND FREE ENERGY PREDICTED BY IDOCK:   -8.67 KCAL/MOL
REMARK 924 INTRA-LIGAND FREE ENERGY PREDICTED BY IDOCK:   -1.04 KCAL/MOL
REMARK 927      BINDING AFFINITY PREDICTED BY RF-SCORE:    0.00 PKD
ROOT
HETATM    1  C   UNL     1     -10.617  12.483  65.177  1.00  0.00    -0.322 C  
HETATM    2  C   UNL     1     -11.163  12.245  66.593  1.00  0.00    -0.316 C  
ENDROOT
BRANCH   2   3
HETATM    3  C   UNL     1     -11.287  13.532  67.425  1.00  0.00    -0.338 A  
HETATM    4  C   UNL     1     -10.790  14.768  66.969  1.00  0.00    -0.315 A  
HETATM    5  C   UNL     1     -11.896  13.500  68.693  1.00  0.00    -0.404 A  
HETATM    6  F   UNL     1     -10.903  17.602  66.022  1.00  0.00    -0.295 F  
HETATM    7  F   UNL     1     -10.486  18.296  68.040  1.00  0.00    -0.351 F  
HETATM    8  C   UNL     1     -12.007  14.661  69.485  1.00  0.00    -0.361 A  
HETATM    9  C   UNL     1     -12.639  14.620  70.857  1.00  0.00    -0.342 C  
HETATM   10  C   UNL     1     -11.500  15.877  68.996  1.00  0.00    -0.380 A  
HETATM   11  F   UNL     1      -8.987  17.162  66.949  1.00  0.00    -0.213 F  
HETATM   12  F   UNL     1     -13.115  13.392  71.207  1.00  0.00    -0.397 F  
HETATM   13  F   UNL     1     -11.772  14.981  71.841  1.00  0.00    -0.376 F  
HETATM   14  F   UNL     1     -13.699  15.471  70.967  1.00  0.00    -0.525 F  
HETATM   15  C   UNL     1     -10.323  17.236  67.199  1.00  0.00    -0.321 C  
HETATM   16  C   UNL     1     -10.887  15.941  67.739  1.00  0.00    -0.324 A  
ENDBRANCH   2   3
BRANCH   2  17
HETATM   17  O   UNL     1     -10.536  11.117  67.255  1.00  0.00    -0.213 OA 
BRANCH  17  18
HETATM   18  C   UNL     1      -9.192  10.821  66.854  1.00  0.00    -0.156 C  
HETATM   19  C   UNL     1      -7.532  10.952  69.207  1.00  0.00    -0.124 C  
HETATM   20  C   UNL     1      -8.253  12.127  68.557  1.00  0.00    -0.104 C  
HETATM   21  O   UNL     1      -8.335  11.938  67.139  1.00  0.00    -0.161 OA 
HETATM   22  N   UNL     1      -8.207   9.641  68.983  1.00  0.00    -0.107 NA 
HETATM   23  C   UNL     1      -8.512   9.523  67.505  1.00  0.00    -0.126 C  
BRANCH  22  24
HETATM   24  C   UNL     1      -7.267   8.562  69.402  1.00  0.00    -0.062 C  
BRANCH  24  25
HETATM   25  C   UNL     1      -7.793   7.796  70.594  1.00  0.00    -0.096 C  
HETATM   26  N   UNL     1      -9.083   7.420  70.658  1.00  0.00    -0.156 NA 
HETATM   27  N   UNL     1      -7.074   7.436  71.623  1.00  0.00    -0.062 NA 
HETATM   28  O   UNL     1     -10.220   6.175  72.238  1.00  0.00    -0.182 OA 
HETATM   29  C   UNL     1      -9.219   6.723  71.819  1.00  0.00    -0.147 C  
HETATM   30  N   UNL     1      -7.964   6.761  72.417  1.00  0.00    -0.098 NA 
HETATM   31  H   UNL     1      -6.084   7.614  71.794  1.00  0.00     0.000 HD 
ENDBRANCH  24  25
ENDBRANCH  22  24
BRANCH  23  32
HETATM   32  C   UNL     1      -9.154   8.189  67.113  1.00  0.00    -0.163 A  
HETATM   33  C   UNL     1     -10.549   5.894  66.268  1.00  0.00    -0.005 A  
HETATM   34  F   UNL     1     -11.223   4.823  65.835  1.00  0.00    -0.290 F  
HETATM   35  C   UNL     1      -8.595   7.327  66.159  1.00  0.00    -0.156 A  
HETATM   36  C   UNL     1     -11.110   6.716  67.233  1.00  0.00    -0.418 A  
HETATM   37  C   UNL     1      -9.293   6.186  65.736  1.00  0.00     0.041 A  
HETATM   38  C   UNL     1     -10.416   7.854  67.656  1.00  0.00    -0.303 A  
ENDBRANCH  23  32
ENDBRANCH  17  18
ENDBRANCH   2  17
TORSDOF 6
ENDMDL
MODEL      159
REMARK 921   NORMALIZED FREE ENERGY PREDICTED BY IDOCK:   -5.60 KCAL/MOL
REMARK 922        TOTAL FREE ENERGY PREDICTED BY IDOCK:   -9.69 KCAL/MOL
REMARK 923 INTER-LIGAND FREE ENERGY PREDICTED BY IDOCK:   -8.92 KCAL/MOL
REMARK 924 INTRA-LIGAND FREE ENERGY PREDICTED BY IDOCK:   -0.77 KCAL/MOL
REMARK 927      BINDING AFFINITY PREDICTED BY RF-SCORE:    0.00 PKD
ROOT
HETATM    1  C   UNL     1     -10.624   7.857  68.230  1.00  0.00    -0.163 C  
HETATM    2  C   UNL     1      -9.789   8.636  69.256  1.00  0.00    -0.188 C  
ENDROOT
BRANCH   2   3
HETATM    3  C   UNL     1      -9.306   7.774  70.435  1.00  0.00    -0.160 A  
HETATM    4  C   UNL     1      -7.957   7.743  70.836  1.00  0.00    -0.097 A  
HETATM    5  C   UNL     1     -10.217   6.966  71.141  1.00  0.00    -0.211 A  
HETATM    6  F   UNL     1      -5.607   8.181  72.633  1.00  0.00    -0.038 F  
HETATM    7  F   UNL     1      -5.753   6.126  73.328  1.00  0.00    -0.034 F  
HETATM    8  C   UNL     1      -9.799   6.152  72.213  1.00  0.00    -0.175 A  
HETATM    9  C   UNL     1     -10.774   5.266  72.955  1.00  0.00    -0.257 C  
HETATM   10  C   UNL     1      -8.445   6.148  72.586  1.00  0.00    -0.121 A  
HETATM   11  F   UNL     1      -5.245   6.538  71.256  1.00  0.00    -0.022 F  
HETATM   12  F   UNL     1     -12.060   5.377  72.517  1.00  0.00    -0.302 F  
HETATM   13  F   UNL     1     -10.457   3.947  72.857  1.00  0.00    -0.203 F  
HETATM   14  F   UNL     1     -10.813   5.540  74.290  1.00  0.00    -0.283 F  
HETATM   15  C   UNL     1      -6.049   6.941  72.278  1.00  0.00    -0.042 C  
HETATM   16  C   UNL     1      -7.514   6.940  71.902  1.00  0.00    -0.088 A  
ENDBRANCH   2   3
BRANCH   2  17
HETATM   17  O   UNL     1     -10.376   9.916  69.604  1.00  0.00    -0.208 OA 
BRANCH  17  18
HETATM   18  C   UNL     1     -11.281  10.475  68.642  1.00  0.00    -0.270 C  
HETATM   19  C   UNL     1     -11.386  13.319  69.094  1.00  0.00    -0.282 C  
HETATM   20  C   UNL     1     -11.895  12.245  70.047  1.00  0.00    -0.296 C  
HETATM   21  O   UNL     1     -12.378  11.114  69.311  1.00  0.00    -0.381 OA 
HETATM   22  N   UNL     1     -10.267  12.860  68.221  1.00  0.00    -0.241 NA 
HETATM   23  C   UNL     1     -10.672  11.536  67.607  1.00  0.00    -0.211 C  
BRANCH  22  24
HETATM   24  C   UNL     1     -10.066  13.882  67.154  1.00  0.00    -0.252 C  
BRANCH  24  25
HETATM   25  C   UNL     1     -11.249  13.948  66.216  1.00  0.00    -0.309 C  
HETATM   26  N   UNL     1     -11.095  13.737  64.896  1.00  0.00    -0.344 NA 
HETATM   27  N   UNL     1     -12.477  14.195  66.584  1.00  0.00    -0.548 NA 
HETATM   28  O   UNL     1     -12.647  13.658  63.185  1.00  0.00    -0.792 OA 
HETATM   29  C   UNL     1     -12.339  13.824  64.350  1.00  0.00    -0.344 C  
HETATM   30  N   UNL     1     -13.184  14.129  65.410  1.00  0.00    -0.653 NA 
HETATM   31  H   UNL     1     -12.828  14.389  67.522  1.00  0.00     0.000 HD 
ENDBRANCH  24  25
ENDBRANCH  22  24
BRANCH  23  32
HETATM   32  C   UNL     1      -9.638  10.970  66.629  1.00  0.00    -0.216 A  
HETATM   33  C   UNL     1      -7.810  10.149  64.652  1.00  0.00    -0.144 A  
HETATM   34  F   UNL     1      -6.935   9.797  63.703  1.00  0.00    -0.100 F  
HETATM   35  C   UNL     1      -8.259  10.999  66.878  1.00  0.00    -0.140 A  
HETATM   36  C   UNL     1      -9.170  10.086  64.391  1.00  0.00    -0.316 A  
HETATM   37  C   UNL     1      -7.349  10.594  65.890  1.00  0.00    -0.128 A  
HETATM   38  C   UNL     1     -10.079  10.488  65.374  1.00  0.00    -0.358 A  
ENDBRANCH  23  32
ENDBRANCH  17  18
ENDBRANCH   2  17
TORSDOF 6
ENDMDL
MODEL      160
REMARK 921   NORMALIZED FREE ENERGY PREDICTED BY IDOCK:   -5.60 KCAL/MOL
REMARK 922        TOTAL FREE ENERGY PREDICTED BY IDOCK:   -9.69 KCAL/MOL
REMARK 923 INTER-LIGAND FREE ENERGY PREDICTED BY IDOCK:   -9.30 KCAL/MOL
REMARK 924 INTRA-LIGAND FREE ENERGY PREDICTED BY IDOCK:   -0.39 KCAL/MOL
REMARK 927      BINDING AFFINITY PREDICTED BY RF-SCORE:    0.00 PKD
ROOT
HETATM    1  C   UNL     1      -6.586  10.719  68.060  1.00  0.00    -0.063 C  
HETATM    2  C   UNL     1      -7.977  11.267  68.407  1.00  0.00    -0.140 C  
ENDROOT
BRANCH   2   3
HETATM    3  C   UNL     1      -8.943  10.195  68.938  1.00  0.00    -0.155 A  
HETATM    4  C   UNL     1     -10.155  10.528  69.572  1.00  0.00    -0.208 A  
HETATM    5  C   UNL     1      -8.624   8.830  68.814  1.00  0.00    -0.137 A  
HETATM    6  F   UNL     1     -13.119  10.697  69.936  1.00  0.00    -0.284 F  
HETATM    7  F   UNL     1     -13.068   8.923  71.192  1.00  0.00    -0.319 F  
HETATM    8  C   UNL     1      -9.481   7.826  69.309  1.00  0.00    -0.155 A  
HETATM    9  C   UNL     1      -9.125   6.361  69.198  1.00  0.00    -0.131 C  
HETATM   10  C   UNL     1     -10.683   8.197  69.935  1.00  0.00    -0.241 A  
HETATM   11  F   UNL     1     -12.090  10.749  71.851  1.00  0.00    -0.300 F  
HETATM   12  F   UNL     1      -7.950   6.130  68.548  1.00  0.00    -0.101 F  
HETATM   13  F   UNL     1      -9.008   5.761  70.413  1.00  0.00    -0.136 F  
HETATM   14  F   UNL     1     -10.068   5.647  68.520  1.00  0.00    -0.164 F  
HETATM   15  C   UNL     1     -12.311   9.969  70.757  1.00  0.00    -0.303 C  
HETATM   16  C   UNL     1     -11.029   9.547  70.074  1.00  0.00    -0.284 A  
ENDBRANCH   2   3
BRANCH   2  17
HETATM   17  O   UNL     1      -8.506  12.148  67.383  1.00  0.00    -0.156 OA 
BRANCH  17  18
HETATM   18  C   UNL     1      -9.428  13.151  67.831  1.00  0.00    -0.218 C  
HETATM   19  C   UNL     1      -8.205  15.721  67.381  1.00  0.00    -0.173 C  
HETATM   20  C   UNL     1      -7.725  14.666  68.371  1.00  0.00    -0.125 C  
HETATM   21  O   UNL     1      -8.838  13.925  68.886  1.00  0.00    -0.049 OA 
HETATM   22  N   UNL     1      -8.928  15.154  66.207  1.00  0.00    -0.279 NA 
HETATM   23  C   UNL     1      -9.967  14.182  66.729  1.00  0.00    -0.267 C  
BRANCH  22  24
HETATM   24  C   UNL     1      -9.591  16.278  65.487  1.00  0.00     0.030 C  
BRANCH  24  25
HETATM   25  C   UNL     1      -9.872  17.442  66.409  1.00  0.00    -0.302 C  
HETATM   26  N   UNL     1      -9.351  18.658  66.163  1.00  0.00    -0.489 NA 
HETATM   27  N   UNL     1     -10.622  17.381  67.475  1.00  0.00    -0.352 NA 
HETATM   28  O   UNL     1      -9.623  20.672  67.263  1.00  0.00    -0.451 OA 
HETATM   29  C   UNL     1      -9.824  19.478  67.140  1.00  0.00    -0.355 C  
HETATM   30  N   UNL     1     -10.596  18.664  67.960  1.00  0.00    -0.346 NA 
HETATM   31  H   UNL     1     -11.112  16.572  67.858  1.00  0.00     0.000 HD 
ENDBRANCH  24  25
ENDBRANCH  22  24
BRANCH  23  32
HETATM   32  C   UNL     1     -10.837  13.563  65.631  1.00  0.00    -0.292 A  
HETATM   33  C   UNL     1     -12.402  12.169  63.752  1.00  0.00    -0.532 A  
HETATM   34  F   UNL     1     -13.158  11.483  62.888  1.00  0.00    -0.517 F  
HETATM   35  C   UNL     1     -12.206  13.838  65.500  1.00  0.00    -0.470 A  
HETATM   36  C   UNL     1     -11.045  11.899  63.844  1.00  0.00    -0.483 A  
HETATM   37  C   UNL     1     -12.985  13.139  64.566  1.00  0.00    -0.046 A  
HETATM   38  C   UNL     1     -10.267  12.594  64.774  1.00  0.00    -0.307 A  
ENDBRANCH  23  32
ENDBRANCH  17  18
ENDBRANCH   2  17
TORSDOF 6
ENDMDL
MODEL      161
REMARK 921   NORMALIZED FREE ENERGY PREDICTED BY IDOCK:   -5.59 KCAL/MOL
REMARK 922        TOTAL FREE ENERGY PREDICTED BY IDOCK:   -9.69 KCAL/MOL
REMARK 923 INTER-LIGAND FREE ENERGY PREDICTED BY IDOCK:   -8.42 KCAL/MOL
REMARK 924 INTRA-LIGAND FREE ENERGY PREDICTED BY IDOCK:   -1.27 KCAL/MOL
REMARK 927      BINDING AFFINITY PREDICTED BY RF-SCORE:    0.00 PKD
ROOT
HETATM    1  C   UNL     1     -13.923   7.975  71.405  1.00  0.00    -0.367 C  
HETATM    2  C   UNL     1     -12.636   8.684  71.851  1.00  0.00    -0.359 C  
ENDROOT
BRANCH   2   3
HETATM    3  C   UNL     1     -12.404  10.031  71.145  1.00  0.00    -0.477 A  
HETATM    4  C   UNL     1     -11.716  10.124  69.920  1.00  0.00    -0.248 A  
HETATM    5  C   UNL     1     -12.868  11.225  71.726  1.00  0.00    -0.466 A  
HETATM    6  F   UNL     1     -11.345  10.664  67.002  1.00  0.00    -0.327 F  
HETATM    7  F   UNL     1     -10.583  12.646  67.464  1.00  0.00    -0.214 F  
HETATM    8  C   UNL     1     -12.653  12.475  71.110  1.00  0.00    -0.349 A  
HETATM    9  C   UNL     1     -13.130  13.760  71.748  1.00  0.00    -0.379 C  
HETATM   10  C   UNL     1     -11.963  12.528  69.887  1.00  0.00    -0.371 A  
HETATM   11  F   UNL     1      -9.472  10.884  68.083  1.00  0.00    -0.148 F  
HETATM   12  F   UNL     1     -13.807  13.574  72.916  1.00  0.00    -0.569 F  
HETATM   13  F   UNL     1     -12.107  14.608  72.038  1.00  0.00    -0.369 F  
HETATM   14  F   UNL     1     -13.975  14.460  70.938  1.00  0.00    -0.351 F  
HETATM   15  C   UNL     1     -10.730  11.393  67.976  1.00  0.00    -0.200 C  
HETATM   16  C   UNL     1     -11.487  11.357  69.284  1.00  0.00    -0.370 A  
ENDBRANCH   2   3
BRANCH   2  17
HETATM   17  O   UNL     1     -11.494   7.793  71.911  1.00  0.00    -0.255 OA 
BRANCH  17  18
HETATM   18  C   UNL     1     -10.227   8.371  71.567  1.00  0.00    -0.228 C  
HETATM   19  C   UNL     1      -8.193   6.933  73.017  1.00  0.00    -0.107 C  
HETATM   20  C   UNL     1      -9.266   7.824  73.632  1.00  0.00    -0.284 C  
HETATM   21  O   UNL     1      -9.592   8.898  72.742  1.00  0.00    -0.151 OA 
HETATM   22  N   UNL     1      -8.600   6.315  71.722  1.00  0.00    -0.132 NA 
HETATM   23  C   UNL     1      -9.167   7.411  70.844  1.00  0.00    -0.154 C  
BRANCH  22  24
HETATM   24  C   UNL     1      -7.386   5.726  71.091  1.00  0.00    -0.082 C  
BRANCH  24  25
HETATM   25  C   UNL     1      -7.312   4.232  71.310  1.00  0.00    -0.051 C  
HETATM   26  N   UNL     1      -6.945   3.727  72.502  1.00  0.00    -0.041 NA 
HETATM   27  N   UNL     1      -7.595   3.333  70.407  1.00  0.00    -0.044 NA 
HETATM   28  O   UNL     1      -6.810   1.543  73.244  1.00  0.00    -0.017 OA 
HETATM   29  C   UNL     1      -7.022   2.374  72.381  1.00  0.00    -0.027 C  
HETATM   30  N   UNL     1      -7.408   2.145  71.066  1.00  0.00    -0.033 NA 
HETATM   31  H   UNL     1      -7.887   3.480  69.440  1.00  0.00     0.000 HD 
ENDBRANCH  24  25
ENDBRANCH  22  24
BRANCH  23  32
HETATM   32  C   UNL     1      -9.573   6.932  69.447  1.00  0.00    -0.147 A  
HETATM   33  C   UNL     1     -10.597   6.057  66.975  1.00  0.00    -0.316 A  
HETATM   34  F   UNL     1     -11.115   5.663  65.806  1.00  0.00    -0.055 F  
HETATM   35  C   UNL     1      -9.459   7.736  68.304  1.00  0.00    -0.150 A  
HETATM   36  C   UNL     1     -10.697   5.232  68.085  1.00  0.00     0.023 A  
HETATM   37  C   UNL     1      -9.974   7.300  67.074  1.00  0.00    -0.293 A  
HETATM   38  C   UNL     1     -10.185   5.664  69.312  1.00  0.00    -0.309 A  
ENDBRANCH  23  32
ENDBRANCH  17  18
ENDBRANCH   2  17
TORSDOF 6
ENDMDL
MODEL      162
REMARK 921   NORMALIZED FREE ENERGY PREDICTED BY IDOCK:   -5.59 KCAL/MOL
REMARK 922        TOTAL FREE ENERGY PREDICTED BY IDOCK:   -9.69 KCAL/MOL
REMARK 923 INTER-LIGAND FREE ENERGY PREDICTED BY IDOCK:   -9.26 KCAL/MOL
REMARK 924 INTRA-LIGAND FREE ENERGY PREDICTED BY IDOCK:   -0.43 KCAL/MOL
REMARK 927      BINDING AFFINITY PREDICTED BY RF-SCORE:    0.00 PKD
ROOT
HETATM    1  C   UNL     1     -11.458  14.517  65.075  1.00  0.00    -0.382 C  
HETATM    2  C   UNL     1     -11.498  14.989  66.535  1.00  0.00    -0.239 C  
ENDROOT
BRANCH   2   3
HETATM    3  C   UNL     1     -10.308  15.883  66.923  1.00  0.00    -0.291 A  
HETATM    4  C   UNL     1      -9.062  15.346  67.300  1.00  0.00    -0.218 A  
HETATM    5  C   UNL     1     -10.443  17.283  66.924  1.00  0.00    -0.272 A  
HETATM    6  F   UNL     1      -6.138  14.756  67.089  1.00  0.00    -0.021 F  
HETATM    7  F   UNL     1      -5.703  16.426  68.411  1.00  0.00    -0.099 F  
HETATM    8  C   UNL     1      -9.374  18.125  67.293  1.00  0.00    -0.252 A  
HETATM    9  C   UNL     1      -9.529  19.628  67.318  1.00  0.00    -0.341 C  
HETATM   10  C   UNL     1      -8.146  17.553  67.663  1.00  0.00    -0.211 A  
HETATM   11  F   UNL     1      -6.799  14.705  69.159  1.00  0.00    -0.097 F  
HETATM   12  F   UNL     1     -10.757  20.061  66.914  1.00  0.00    -0.549 F  
HETATM   13  F   UNL     1      -9.337  20.151  68.560  1.00  0.00    -0.339 F  
HETATM   14  F   UNL     1      -8.631  20.258  66.508  1.00  0.00    -0.338 F  
HETATM   15  C   UNL     1      -6.670  15.525  68.080  1.00  0.00    -0.140 C  
HETATM   16  C   UNL     1      -7.979  16.162  67.672  1.00  0.00    -0.162 A  
ENDBRANCH   2   3
BRANCH   2  17
HETATM   17  O   UNL     1     -11.820  13.922  67.463  1.00  0.00    -0.356 OA 
BRANCH  17  18
HETATM   18  C   UNL     1     -10.753  13.489  68.317  1.00  0.00    -0.258 C  
HETATM   19  C   UNL     1     -11.820  11.491  70.099  1.00  0.00    -0.356 C  
HETATM   20  C   UNL     1     -12.199  12.967  70.085  1.00  0.00    -0.272 C  
HETATM   21  O   UNL     1     -11.076  13.765  69.689  1.00  0.00    -0.166 OA 
HETATM   22  N   UNL     1     -11.370  10.977  68.774  1.00  0.00    -0.258 NA 
HETATM   23  C   UNL     1     -10.338  11.943  68.229  1.00  0.00    -0.201 C  
BRANCH  22  24
HETATM   24  C   UNL     1     -10.757   9.634  68.984  1.00  0.00    -0.211 C  
BRANCH  24  25
HETATM   25  C   UNL     1     -11.267   8.980  70.247  1.00  0.00    -0.205 C  
HETATM   26  N   UNL     1     -10.433   8.702  71.265  1.00  0.00    -0.223 NA 
HETATM   27  N   UNL     1     -12.511   8.649  70.462  1.00  0.00    -0.343 NA 
HETATM   28  O   UNL     1     -10.843   7.813  73.358  1.00  0.00    -0.341 OA 
HETATM   29  C   UNL     1     -11.202   8.166  72.251  1.00  0.00    -0.359 C  
HETATM   30  N   UNL     1     -12.489   8.121  71.728  1.00  0.00    -0.317 NA 
HETATM   31  H   UNL     1     -13.311   8.757  69.838  1.00  0.00     0.000 HD 
ENDBRANCH  24  25
ENDBRANCH  22  24
BRANCH  23  32
HETATM   32  C   UNL     1      -9.735  11.509  66.890  1.00  0.00    -0.205 A  
HETATM   33  C   UNL     1      -8.551  10.458  64.562  1.00  0.00    -0.180 A  
HETATM   34  F   UNL     1      -8.001   9.923  63.466  1.00  0.00    -0.130 F  
HETATM   35  C   UNL     1     -10.514  11.229  65.759  1.00  0.00    -0.310 A  
HETATM   36  C   UNL     1      -7.755  10.752  65.658  1.00  0.00    -0.057 A  
HETATM   37  C   UNL     1      -9.924  10.701  64.601  1.00  0.00    -0.401 A  
HETATM   38  C   UNL     1      -8.341  11.278  66.813  1.00  0.00    -0.156 A  
ENDBRANCH  23  32
ENDBRANCH  17  18
ENDBRANCH   2  17
TORSDOF 6
ENDMDL
MODEL      163
REMARK 921   NORMALIZED FREE ENERGY PREDICTED BY IDOCK:   -5.59 KCAL/MOL
REMARK 922        TOTAL FREE ENERGY PREDICTED BY IDOCK:   -9.69 KCAL/MOL
REMARK 923 INTER-LIGAND FREE ENERGY PREDICTED BY IDOCK:   -9.71 KCAL/MOL
REMARK 924 INTRA-LIGAND FREE ENERGY PREDICTED BY IDOCK:    0.02 KCAL/MOL
REMARK 927      BINDING AFFINITY PREDICTED BY RF-SCORE:    0.00 PKD
ROOT
HETATM    1  C   UNL     1      -7.640  12.249  68.016  1.00  0.00    -0.126 C  
HETATM    2  C   UNL     1      -9.088  12.123  67.522  1.00  0.00    -0.180 C  
ENDROOT
BRANCH   2   3
HETATM    3  C   UNL     1      -9.785  10.834  67.991  1.00  0.00    -0.174 A  
HETATM    4  C   UNL     1     -10.608  10.803  69.133  1.00  0.00    -0.254 A  
HETATM    5  C   UNL     1      -9.598   9.631  67.287  1.00  0.00    -0.203 A  
HETATM    6  F   UNL     1     -13.141  10.511  70.695  1.00  0.00    -0.412 F  
HETATM    7  F   UNL     1     -12.639   8.440  71.127  1.00  0.00    -0.308 F  
HETATM    8  C   UNL     1     -10.208   8.431  67.706  1.00  0.00    -0.283 A  
HETATM    9  C   UNL     1      -9.986   7.134  66.962  1.00  0.00    -0.217 C  
HETATM   10  C   UNL     1     -11.025   8.439  68.849  1.00  0.00     0.115 A  
HETATM   11  F   UNL     1     -11.407  10.045  71.921  1.00  0.00    -0.325 F  
HETATM   12  F   UNL     1      -9.198   7.261  65.858  1.00  0.00    -0.179 F  
HETATM   13  F   UNL     1      -9.396   6.184  67.738  1.00  0.00    -0.115 F  
HETATM   14  F   UNL     1     -11.153   6.580  66.522  1.00  0.00    -0.372 F  
HETATM   15  C   UNL     1     -12.093   9.648  70.814  1.00  0.00    -0.248 C  
HETATM   16  C   UNL     1     -11.230   9.620  69.573  1.00  0.00    -0.144 A  
ENDBRANCH   2   3
BRANCH   2  17
HETATM   17  O   UNL     1      -9.234  12.448  66.116  1.00  0.00    -0.198 OA 
BRANCH  17  18
HETATM   18  C   UNL     1      -9.943  13.659  65.821  1.00  0.00    -0.261 C  
HETATM   19  C   UNL     1     -12.245  13.764  67.552  1.00  0.00    -0.227 C  
HETATM   20  C   UNL     1     -12.015  12.754  66.433  1.00  0.00    -0.375 C  
HETATM   21  O   UNL     1     -11.271  13.354  65.366  1.00  0.00    -0.287 OA 
HETATM   22  N   UNL     1     -10.984  14.293  68.147  1.00  0.00    -0.240 NA 
HETATM   23  C   UNL     1     -10.081  14.724  67.010  1.00  0.00    -0.245 C  
BRANCH  22  24
HETATM   24  C   UNL     1     -11.334  15.465  69.000  1.00  0.00    -0.316 C  
BRANCH  24  25
HETATM   25  C   UNL     1     -12.319  15.092  70.084  1.00  0.00    -0.333 C  
HETATM   26  N   UNL     1     -12.162  13.963  70.799  1.00  0.00    -0.358 NA 
HETATM   27  N   UNL     1     -13.360  15.803  70.419  1.00  0.00    -0.724 NA 
HETATM   28  O   UNL     1     -13.377  13.113  72.571  1.00  0.00    -0.534 OA 
HETATM   29  C   UNL     1     -13.176  13.944  71.707  1.00  0.00    -0.376 C  
HETATM   30  N   UNL     1     -13.923  15.086  71.443  1.00  0.00    -0.461 NA 
HETATM   31  H   UNL     1     -13.679  16.684  70.016  1.00  0.00     0.000 HD 
ENDBRANCH  24  25
ENDBRANCH  22  24
BRANCH  23  32
HETATM   32  C   UNL     1      -8.764  15.352  67.475  1.00  0.00    -0.186 A  
HETATM   33  C   UNL     1      -6.452  16.764  68.240  1.00  0.00    -0.141 A  
HETATM   34  F   UNL     1      -5.376  17.466  68.613  1.00  0.00    -0.137 F  
HETATM   35  C   UNL     1      -8.401  15.446  68.826  1.00  0.00    -0.182 A  
HETATM   36  C   UNL     1      -6.775  16.663  66.896  1.00  0.00    -0.247 A  
HETATM   37  C   UNL     1      -7.250  16.153  69.206  1.00  0.00    -0.225 A  
HETATM   38  C   UNL     1      -7.921  15.958  66.515  1.00  0.00    -0.231 A  
ENDBRANCH  23  32
ENDBRANCH  17  18
ENDBRANCH   2  17
TORSDOF 6
ENDMDL
MODEL      164
REMARK 921   NORMALIZED FREE ENERGY PREDICTED BY IDOCK:   -5.59 KCAL/MOL
REMARK 922        TOTAL FREE ENERGY PREDICTED BY IDOCK:   -9.68 KCAL/MOL
REMARK 923 INTER-LIGAND FREE ENERGY PREDICTED BY IDOCK:   -8.66 KCAL/MOL
REMARK 924 INTRA-LIGAND FREE ENERGY PREDICTED BY IDOCK:   -1.02 KCAL/MOL
REMARK 927      BINDING AFFINITY PREDICTED BY RF-SCORE:    0.00 PKD
ROOT
HETATM    1  C   UNL     1      -7.514   9.226  70.221  1.00  0.00    -0.113 C  
HETATM    2  C   UNL     1      -8.136   9.736  68.913  1.00  0.00    -0.101 C  
ENDROOT
BRANCH   2   3
HETATM    3  C   UNL     1      -9.490  10.438  69.113  1.00  0.00    -0.220 A  
HETATM    4  C   UNL     1     -10.443   9.975  70.039  1.00  0.00    -0.337 A  
HETATM    5  C   UNL     1      -9.819  11.572  68.347  1.00  0.00    -0.204 A  
HETATM    6  F   UNL     1     -12.172  10.040  72.478  1.00  0.00    -0.135 F  
HETATM    7  F   UNL     1     -13.838  10.759  71.280  1.00  0.00    -0.075 F  
HETATM    8  C   UNL     1     -11.060  12.224  68.496  1.00  0.00    -0.290 A  
HETATM    9  C   UNL     1     -11.424  13.426  67.655  1.00  0.00    -0.319 C  
HETATM   10  C   UNL     1     -11.986  11.733  69.432  1.00  0.00    -0.361 A  
HETATM   11  F   UNL     1     -13.035   8.769  70.939  1.00  0.00    -0.205 F  
HETATM   12  F   UNL     1     -10.435  13.821  66.804  1.00  0.00    -0.262 F  
HETATM   13  F   UNL     1     -12.520  13.208  66.880  1.00  0.00    -0.365 F  
HETATM   14  F   UNL     1     -11.718  14.521  68.413  1.00  0.00    -0.298 F  
HETATM   15  C   UNL     1     -12.675  10.053  71.211  1.00  0.00    -0.399 C  
HETATM   16  C   UNL     1     -11.688  10.606  70.208  1.00  0.00    -0.433 A  
ENDBRANCH   2   3
BRANCH   2  17
HETATM   17  O   UNL     1      -8.079   8.758  67.844  1.00  0.00    -0.106 OA 
BRANCH  17  18
HETATM   18  C   UNL     1      -9.342   8.325  67.320  1.00  0.00    -0.147 C  
HETATM   19  C   UNL     1      -8.825   6.190  65.454  1.00  0.00    -0.004 C  
HETATM   20  C   UNL     1      -8.415   7.648  65.278  1.00  0.00    -0.076 C  
HETATM   21  O   UNL     1      -9.375   8.513  65.897  1.00  0.00    -0.209 OA 
HETATM   22  N   UNL     1      -8.933   5.768  66.881  1.00  0.00    -0.113 NA 
HETATM   23  C   UNL     1      -9.762   6.806  67.609  1.00  0.00    -0.126 C  
BRANCH  22  24
HETATM   24  C   UNL     1      -9.616   4.444  66.919  1.00  0.00    -0.199 C  
BRANCH  24  25
HETATM   25  C   UNL     1     -10.034   3.992  65.539  1.00  0.00    -0.168 C  
HETATM   26  N   UNL     1      -9.224   3.221  64.790  1.00  0.00    -0.138 NA 
HETATM   27  N   UNL     1     -11.173   4.285  64.973  1.00  0.00    -1.020 NA 
HETATM   28  O   UNL     1      -9.541   2.264  62.711  1.00  0.00    -0.090 OA 
HETATM   29  C   UNL     1      -9.903   2.959  63.641  1.00  0.00    -0.138 C  
HETATM   30  N   UNL     1     -11.105   3.646  63.762  1.00  0.00    -0.276 NA 
HETATM   31  H   UNL     1     -11.934   4.855  65.345  1.00  0.00     0.000 HD 
ENDBRANCH  24  25
ENDBRANCH  22  24
BRANCH  23  32
HETATM   32  C   UNL     1     -10.012   6.470  69.082  1.00  0.00    -0.163 A  
HETATM   33  C   UNL     1     -10.668   5.655  71.696  1.00  0.00    -0.251 A  
HETATM   34  F   UNL     1     -10.984   5.232  72.924  1.00  0.00    -0.246 F  
HETATM   35  C   UNL     1      -9.059   5.834  69.890  1.00  0.00    -0.159 A  
HETATM   36  C   UNL     1     -11.619   6.306  70.926  1.00  0.00    -0.338 A  
HETATM   37  C   UNL     1      -9.388   5.425  71.191  1.00  0.00    -0.186 A  
HETATM   38  C   UNL     1     -11.293   6.715  69.630  1.00  0.00    -0.387 A  
ENDBRANCH  23  32
ENDBRANCH  17  18
ENDBRANCH   2  17
TORSDOF 6
ENDMDL
MODEL      165
REMARK 921   NORMALIZED FREE ENERGY PREDICTED BY IDOCK:   -5.58 KCAL/MOL
REMARK 922        TOTAL FREE ENERGY PREDICTED BY IDOCK:   -9.68 KCAL/MOL
REMARK 923 INTER-LIGAND FREE ENERGY PREDICTED BY IDOCK:   -7.18 KCAL/MOL
REMARK 924 INTRA-LIGAND FREE ENERGY PREDICTED BY IDOCK:   -2.50 KCAL/MOL
REMARK 927      BINDING AFFINITY PREDICTED BY RF-SCORE:    0.00 PKD
ROOT
HETATM    1  C   UNL     1     -12.387  11.548  63.827  1.00  0.00    -0.097 C  
HETATM    2  C   UNL     1     -11.049  12.032  64.404  1.00  0.00    -0.342 C  
ENDROOT
BRANCH   2   3
HETATM    3  C   UNL     1     -10.141  10.888  64.886  1.00  0.00    -0.374 A  
HETATM    4  C   UNL     1     -10.608   9.875  65.746  1.00  0.00     0.127 A  
HETATM    5  C   UNL     1      -8.794  10.834  64.485  1.00  0.00    -0.143 A  
HETATM    6  F   UNL     1     -11.375   7.109  66.584  1.00  0.00    -0.331 F  
HETATM    7  F   UNL     1      -9.421   6.841  67.497  1.00  0.00    -0.126 F  
HETATM    8  C   UNL     1      -7.935   9.808  64.927  1.00  0.00    -0.133 A  
HETATM    9  C   UNL     1      -6.481   9.766  64.515  1.00  0.00    -0.112 C  
HETATM   10  C   UNL     1      -8.437   8.814  65.784  1.00  0.00    -0.161 A  
HETATM   11  F   UNL     1     -10.800   8.316  68.299  1.00  0.00    -0.214 F  
HETATM   12  F   UNL     1      -6.123  10.767  63.663  1.00  0.00    -0.115 F  
HETATM   13  F   UNL     1      -5.636   9.856  65.577  1.00  0.00    -0.048 F  
HETATM   14  F   UNL     1      -6.154   8.605  63.879  1.00  0.00    -0.069 F  
HETATM   15  C   UNL     1     -10.330   7.788  67.135  1.00  0.00    -0.319 C  
HETATM   16  C   UNL     1      -9.773   8.840  66.202  1.00  0.00    -0.320 A  
ENDBRANCH   2   3
BRANCH   2  17
HETATM   17  O   UNL     1     -11.200  13.150  65.314  1.00  0.00    -0.288 OA 
BRANCH  17  18
HETATM   18  C   UNL     1      -9.987  13.803  65.714  1.00  0.00    -0.275 C  
HETATM   19  C   UNL     1     -10.717  16.144  67.229  1.00  0.00    -0.277 C  
HETATM   20  C   UNL     1     -10.980  15.925  65.744  1.00  0.00    -0.177 C  
HETATM   21  O   UNL     1      -9.938  15.129  65.166  1.00  0.00    -0.323 OA 
HETATM   22  N   UNL     1     -10.649  14.880  68.017  1.00  0.00    -0.245 NA 
HETATM   23  C   UNL     1      -9.719  13.931  67.289  1.00  0.00    -0.245 C  
BRANCH  22  24
HETATM   24  C   UNL     1     -10.101  15.205  69.364  1.00  0.00    -0.240 C  
BRANCH  24  25
HETATM   25  C   UNL     1      -8.716  15.802  69.274  1.00  0.00    -0.261 C  
HETATM   26  N   UNL     1      -7.630  15.078  69.598  1.00  0.00    -0.185 NA 
HETATM   27  N   UNL     1      -8.456  17.019  68.880  1.00  0.00    -0.232 NA 
HETATM   28  O   UNL     1      -5.380  15.596  69.499  1.00  0.00    -0.102 OA 
HETATM   29  C   UNL     1      -6.555  15.881  69.369  1.00  0.00    -0.173 C  
HETATM   30  N   UNL     1      -7.088  17.092  68.942  1.00  0.00    -0.223 NA 
HETATM   31  H   UNL     1      -9.114  17.744  68.593  1.00  0.00     0.000 HD 
ENDBRANCH  24  25
ENDBRANCH  22  24
BRANCH  23  32
HETATM   32  C   UNL     1      -9.501  12.603  68.020  1.00  0.00    -0.209 A  
HETATM   33  C   UNL     1      -8.928  10.309  69.549  1.00  0.00    -0.157 A  
HETATM   34  F   UNL     1      -8.655   9.242  70.308  1.00  0.00    -0.136 F  
HETATM   35  C   UNL     1     -10.515  11.954  68.739  1.00  0.00    -0.207 A  
HETATM   36  C   UNL     1      -7.914  10.916  68.825  1.00  0.00    -0.139 A  
HETATM   37  C   UNL     1     -10.227  10.814  69.504  1.00  0.00    -0.146 A  
HETATM   38  C   UNL     1      -8.199  12.053  68.062  1.00  0.00    -0.156 A  
ENDBRANCH  23  32
ENDBRANCH  17  18
ENDBRANCH   2  17
TORSDOF 6
ENDMDL
MODEL      166
REMARK 921   NORMALIZED FREE ENERGY PREDICTED BY IDOCK:   -5.57 KCAL/MOL
REMARK 922        TOTAL FREE ENERGY PREDICTED BY IDOCK:   -9.65 KCAL/MOL
REMARK 923 INTER-LIGAND FREE ENERGY PREDICTED BY IDOCK:   -8.24 KCAL/MOL
REMARK 924 INTRA-LIGAND FREE ENERGY PREDICTED BY IDOCK:   -1.41 KCAL/MOL
REMARK 927      BINDING AFFINITY PREDICTED BY RF-SCORE:    0.00 PKD
ROOT
HETATM    1  C   UNL     1     -10.654   8.453  68.079  1.00  0.00    -0.191 C  
HETATM    2  C   UNL     1      -9.712   9.393  68.845  1.00  0.00    -0.164 C  
ENDROOT
BRANCH   2   3
HETATM    3  C   UNL     1      -9.263   8.834  70.206  1.00  0.00    -0.191 A  
HETATM    4  C   UNL     1      -7.972   9.060  70.718  1.00  0.00    -0.172 A  
HETATM    5  C   UNL     1     -10.145   8.054  70.977  1.00  0.00    -0.213 A  
HETATM    6  F   UNL     1      -5.898  10.132  72.587  1.00  0.00     0.209 F  
HETATM    7  F   UNL     1      -5.878   8.239  73.655  1.00  0.00    -0.062 F  
HETATM    8  C   UNL     1      -9.754   7.513  72.219  1.00  0.00    -0.203 A  
HETATM    9  C   UNL     1     -10.694   6.655  73.034  1.00  0.00    -0.270 C  
HETATM   10  C   UNL     1      -8.457   7.761  72.698  1.00  0.00    -0.182 A  
HETATM   11  F   UNL     1      -5.199   8.330  71.593  1.00  0.00    -0.033 F  
HETATM   12  F   UNL     1     -11.929   6.510  72.476  1.00  0.00    -0.296 F  
HETATM   13  F   UNL     1     -10.217   5.395  73.223  1.00  0.00    -0.174 F  
HETATM   14  F   UNL     1     -10.910   7.161  74.282  1.00  0.00    -0.249 F  
HETATM   15  C   UNL     1      -6.151   8.801  72.444  1.00  0.00    -0.066 C  
HETATM   16  C   UNL     1      -7.556   8.533  71.954  1.00  0.00    -0.139 A  
ENDBRANCH   2   3
BRANCH   2  17
HETATM   17  O   UNL     1     -10.167  10.770  68.842  1.00  0.00    -0.186 OA 
BRANCH  17  18
HETATM   18  C   UNL     1     -11.219  11.083  67.920  1.00  0.00    -0.310 C  
HETATM   19  C   UNL     1     -11.438  13.954  67.789  1.00  0.00    -0.323 C  
HETATM   20  C   UNL     1     -11.756  13.089  69.003  1.00  0.00    -0.329 C  
HETATM   21  O   UNL     1     -12.259  11.813  68.588  1.00  0.00    -0.405 OA 
HETATM   22  N   UNL     1     -10.414  13.358  66.883  1.00  0.00    -0.271 NA 
HETATM   23  C   UNL     1     -10.813  11.921  66.616  1.00  0.00    -0.276 C  
BRANCH  22  24
HETATM   24  C   UNL     1     -10.414  14.137  65.612  1.00  0.00    -0.321 C  
BRANCH  24  25
HETATM   25  C   UNL     1      -9.865  15.531  65.813  1.00  0.00    -0.357 C  
HETATM   26  N   UNL     1     -10.605  16.613  65.512  1.00  0.00    -0.515 NA 
HETATM   27  N   UNL     1      -8.679  15.802  66.286  1.00  0.00    -0.332 NA 
HETATM   28  O   UNL     1     -10.163  18.867  65.766  1.00  0.00    -0.531 OA 
HETATM   29  C   UNL     1      -9.849  17.695  65.844  1.00  0.00    -0.073 C  
HETATM   30  N   UNL     1      -8.646  17.173  66.305  1.00  0.00    -0.400 NA 
HETATM   31  H   UNL     1      -7.950  15.149  66.574  1.00  0.00     0.000 HD 
ENDBRANCH  24  25
ENDBRANCH  22  24
BRANCH  23  32
HETATM   32  C   UNL     1      -9.880  11.195  65.642  1.00  0.00    -0.280 A  
HETATM   33  C   UNL     1      -8.134   9.654  64.060  1.00  0.00    -0.152 A  
HETATM   34  F   UNL     1      -7.319   8.889  63.325  1.00  0.00    -0.096 F  
HETATM   35  C   UNL     1     -10.333  10.594  64.459  1.00  0.00    -0.352 A  
HETATM   36  C   UNL     1      -7.655  10.260  65.211  1.00  0.00    -0.143 A  
HETATM   37  C   UNL     1      -9.463   9.823  63.674  1.00  0.00    -0.034 A  
HETATM   38  C   UNL     1      -8.520  11.030  65.994  1.00  0.00    -0.158 A  
ENDBRANCH  23  32
ENDBRANCH  17  18
ENDBRANCH   2  17
TORSDOF 6
ENDMDL
MODEL      167
REMARK 921   NORMALIZED FREE ENERGY PREDICTED BY IDOCK:   -5.57 KCAL/MOL
REMARK 922        TOTAL FREE ENERGY PREDICTED BY IDOCK:   -9.65 KCAL/MOL
REMARK 923 INTER-LIGAND FREE ENERGY PREDICTED BY IDOCK:   -8.18 KCAL/MOL
REMARK 924 INTRA-LIGAND FREE ENERGY PREDICTED BY IDOCK:   -1.47 KCAL/MOL
REMARK 927      BINDING AFFINITY PREDICTED BY RF-SCORE:    0.00 PKD
ROOT
HETATM    1  C   UNL     1      -6.823   9.016  70.229  1.00  0.00    -0.049 C  
HETATM    2  C   UNL     1      -8.194   9.447  69.688  1.00  0.00    -0.136 C  
ENDROOT
BRANCH   2   3
HETATM    3  C   UNL     1      -9.374   8.907  70.514  1.00  0.00    -0.240 A  
HETATM    4  C   UNL     1      -9.289   7.705  71.242  1.00  0.00    -0.161 A  
HETATM    5  C   UNL     1     -10.595   9.606  70.547  1.00  0.00    -0.369 A  
HETATM    6  F   UNL     1      -9.228   5.948  73.661  1.00  0.00    -0.131 F  
HETATM    7  F   UNL     1     -11.346   5.527  73.412  1.00  0.00    -0.309 F  
HETATM    8  C   UNL     1     -11.699   9.125  71.280  1.00  0.00    -0.396 A  
HETATM    9  C   UNL     1     -13.017   9.864  71.295  1.00  0.00    -0.395 C  
HETATM   10  C   UNL     1     -11.576   7.921  71.996  1.00  0.00    -0.357 A  
HETATM   11  F   UNL     1      -9.921   4.853  71.915  1.00  0.00    -0.205 F  
HETATM   12  F   UNL     1     -13.002  11.027  70.586  1.00  0.00    -0.366 F  
HETATM   13  F   UNL     1     -14.035   9.123  70.780  1.00  0.00    -0.239 F  
HETATM   14  F   UNL     1     -13.408  10.205  72.556  1.00  0.00    -0.461 F  
HETATM   15  C   UNL     1     -10.225   5.898  72.733  1.00  0.00    -0.185 C  
HETATM   16  C   UNL     1     -10.374   7.202  71.982  1.00  0.00    -0.214 A  
ENDBRANCH   2   3
BRANCH   2  17
HETATM   17  O   UNL     1      -8.304   9.299  68.250  1.00  0.00    -0.118 OA 
BRANCH  17  18
HETATM   18  C   UNL     1      -7.286   9.943  67.472  1.00  0.00    -0.090 C  
HETATM   19  C   UNL     1      -7.755   9.283  64.706  1.00  0.00    -0.111 C  
HETATM   20  C   UNL     1      -7.339   8.305  65.799  1.00  0.00    -0.072 C  
HETATM   21  O   UNL     1      -6.511   8.962  66.766  1.00  0.00    -0.062 OA 
HETATM   22  N   UNL     1      -8.528  10.452  65.215  1.00  0.00    -0.165 NA 
HETATM   23  C   UNL     1      -7.775  11.026  66.396  1.00  0.00    -0.146 C  
BRANCH  22  24
HETATM   24  C   UNL     1      -8.613  11.460  64.120  1.00  0.00     0.540 C  
BRANCH  24  25
HETATM   25  C   UNL     1     -10.022  11.976  63.944  1.00  0.00    -0.318 C  
HETATM   26  N   UNL     1     -11.033  11.137  63.653  1.00  0.00    -0.282 NA 
HETATM   27  N   UNL     1     -10.376  13.227  64.064  1.00  0.00    -0.690 NA 
HETATM   28  O   UNL     1     -13.298  11.522  63.410  1.00  0.00    -0.304 OA 
HETATM   29  C   UNL     1     -12.159  11.900  63.606  1.00  0.00    -0.477 C  
HETATM   30  N   UNL     1     -11.729  13.200  63.843  1.00  0.00    -0.440 NA 
HETATM   31  H   UNL     1      -9.787  14.033  64.273  1.00  0.00     0.000 HD 
ENDBRANCH  24  25
ENDBRANCH  22  24
BRANCH  23  32
HETATM   32  C   UNL     1      -8.423  12.281  66.988  1.00  0.00    -0.181 A  
HETATM   33  C   UNL     1      -9.564  14.718  67.816  1.00  0.00    -0.209 A  
HETATM   34  F   UNL     1     -10.120  15.881  68.173  1.00  0.00    -0.219 F  
HETATM   35  C   UNL     1      -9.788  12.360  67.297  1.00  0.00    -0.207 A  
HETATM   36  C   UNL     1      -8.206  14.660  67.543  1.00  0.00    -0.203 A  
HETATM   37  C   UNL     1     -10.356  13.576  67.705  1.00  0.00    -0.241 A  
HETATM   38  C   UNL     1      -7.638  13.449  67.136  1.00  0.00     0.030 A  
ENDBRANCH  23  32
ENDBRANCH  17  18
ENDBRANCH   2  17
TORSDOF 6
ENDMDL
MODEL      168
REMARK 921   NORMALIZED FREE ENERGY PREDICTED BY IDOCK:   -5.55 KCAL/MOL
REMARK 922        TOTAL FREE ENERGY PREDICTED BY IDOCK:   -9.63 KCAL/MOL
REMARK 923 INTER-LIGAND FREE ENERGY PREDICTED BY IDOCK:   -7.63 KCAL/MOL
REMARK 924 INTRA-LIGAND FREE ENERGY PREDICTED BY IDOCK:   -2.00 KCAL/MOL
REMARK 927      BINDING AFFINITY PREDICTED BY RF-SCORE:    0.00 PKD
ROOT
HETATM    1  C   UNL     1     -11.314   9.986  69.694  1.00  0.00    -0.253 C  
HETATM    2  C   UNL     1     -10.923  11.353  69.114  1.00  0.00    -0.236 C  
ENDROOT
BRANCH   2   3
HETATM    3  C   UNL     1      -9.511  11.377  68.503  1.00  0.00    -0.183 A  
HETATM    4  C   UNL     1      -9.103  10.448  67.527  1.00  0.00    -0.142 A  
HETATM    5  C   UNL     1      -8.572  12.334  68.927  1.00  0.00     0.252 A  
HETATM    6  F   UNL     1      -8.214   9.491  64.837  1.00  0.00    -0.118 F  
HETATM    7  F   UNL     1      -6.144   9.551  65.497  1.00  0.00    -0.058 F  
HETATM    8  C   UNL     1      -7.265  12.368  68.399  1.00  0.00    -0.110 A  
HETATM    9  C   UNL     1      -6.250  13.381  68.874  1.00  0.00    -0.090 C  
HETATM   10  C   UNL     1      -6.895  11.425  67.425  1.00  0.00    -0.101 A  
HETATM   11  F   UNL     1      -7.535   8.152  66.409  1.00  0.00    -0.080 F  
HETATM   12  F   UNL     1      -6.737  14.255  69.799  1.00  0.00    -0.126 F  
HETATM   13  F   UNL     1      -5.160  12.799  69.444  1.00  0.00    -0.071 F  
HETATM   14  F   UNL     1      -5.769  14.151  67.856  1.00  0.00    -0.113 F  
HETATM   15  C   UNL     1      -7.424   9.427  65.945  1.00  0.00    -0.099 C  
HETATM   16  C   UNL     1      -7.807  10.459  66.983  1.00  0.00    -0.112 A  
ENDBRANCH   2   3
BRANCH   2  17
HETATM   17  O   UNL     1     -11.252  12.455  69.997  1.00  0.00    -0.000 OA 
BRANCH  17  18
HETATM   18  C   UNL     1     -12.305  13.323  69.555  1.00  0.00    -0.068 C  
HETATM   19  C   UNL     1     -11.602  16.009  70.328  1.00  0.00    -0.324 C  
HETATM   20  C   UNL     1     -11.940  14.866  71.279  1.00  0.00    -0.340 C  
HETATM   21  O   UNL     1     -12.900  13.987  70.679  1.00  0.00    -0.316 OA 
HETATM   22  N   UNL     1     -11.024  15.555  69.031  1.00  0.00    -0.241 NA 
HETATM   23  C   UNL     1     -11.911  14.453  68.489  1.00  0.00    -0.334 C  
BRANCH  22  24
HETATM   24  C   UNL     1     -11.018  16.717  68.097  1.00  0.00    -0.327 C  
BRANCH  24  25
HETATM   25  C   UNL     1      -9.683  17.425  68.097  1.00  0.00    -0.291 C  
HETATM   26  N   UNL     1      -9.604  18.748  68.330  1.00  0.00    -0.334 NA 
HETATM   27  N   UNL     1      -8.533  16.843  67.890  1.00  0.00    -0.200 NA 
HETATM   28  O   UNL     1      -7.773  20.147  68.506  1.00  0.00    -0.198 OA 
HETATM   29  C   UNL     1      -8.280  19.060  68.303  1.00  0.00    -0.329 C  
HETATM   30  N   UNL     1      -7.629  17.868  68.007  1.00  0.00    -0.231 NA 
HETATM   31  H   UNL     1      -8.350  15.860  67.689  1.00  0.00     0.000 HD 
ENDBRANCH  24  25
ENDBRANCH  22  24
BRANCH  23  32
HETATM   32  C   UNL     1     -11.472  13.928  67.119  1.00  0.00    -0.370 A  
HETATM   33  C   UNL     1     -10.877  13.133  64.485  1.00  0.00    -0.383 A  
HETATM   34  F   UNL     1     -10.604  12.791  63.221  1.00  0.00    -0.372 F  
HETATM   35  C   UNL     1     -10.241  14.259  66.536  1.00  0.00    -0.277 A  
HETATM   36  C   UNL     1     -12.091  12.770  65.048  1.00  0.00    -0.491 A  
HETATM   37  C   UNL     1      -9.947  13.865  65.222  1.00  0.00    -0.266 A  
HETATM   38  C   UNL     1     -12.385  13.161  66.358  1.00  0.00    -0.300 A  
ENDBRANCH  23  32
ENDBRANCH  17  18
ENDBRANCH   2  17
TORSDOF 6
ENDMDL
MODEL      169
REMARK 921   NORMALIZED FREE ENERGY PREDICTED BY IDOCK:   -5.54 KCAL/MOL
REMARK 922        TOTAL FREE ENERGY PREDICTED BY IDOCK:   -9.62 KCAL/MOL
REMARK 923 INTER-LIGAND FREE ENERGY PREDICTED BY IDOCK:   -7.93 KCAL/MOL
REMARK 924 INTRA-LIGAND FREE ENERGY PREDICTED BY IDOCK:   -1.69 KCAL/MOL
REMARK 927      BINDING AFFINITY PREDICTED BY RF-SCORE:    0.00 PKD
ROOT
HETATM    1  C   UNL     1      -8.951   8.278  65.383  1.00  0.00    -0.062 C  
HETATM    2  C   UNL     1      -9.611   9.334  66.282  1.00  0.00    -0.248 C  
ENDROOT
BRANCH   2   3
HETATM    3  C   UNL     1     -10.055   8.783  67.648  1.00  0.00    -0.273 A  
HETATM    4  C   UNL     1     -10.847   9.535  68.536  1.00  0.00    -0.175 A  
HETATM    5  C   UNL     1      -9.658   7.496  68.056  1.00  0.00    -0.156 A  
HETATM    6  F   UNL     1     -13.268  10.248  70.140  1.00  0.00    -0.297 F  
HETATM    7  F   UNL     1     -12.391   9.300  71.889  1.00  0.00    -0.373 F  
HETATM    8  C   UNL     1     -10.034   6.974  69.310  1.00  0.00    -0.163 A  
HETATM    9  C   UNL     1      -9.586   5.601  69.758  1.00  0.00    -0.159 C  
HETATM   10  C   UNL     1     -10.827   7.754  70.170  1.00  0.00    -0.248 A  
HETATM   11  F   UNL     1     -11.466  11.071  71.035  1.00  0.00    -0.338 F  
HETATM   12  F   UNL     1      -8.846   4.935  68.828  1.00  0.00    -0.092 F  
HETATM   13  F   UNL     1      -8.824   5.644  70.884  1.00  0.00    -0.131 F  
HETATM   14  F   UNL     1     -10.636   4.782  70.052  1.00  0.00    -0.318 F  
HETATM   15  C   UNL     1     -12.078   9.900  70.707  1.00  0.00    -0.308 C  
HETATM   16  C   UNL     1     -11.237   9.039  69.792  1.00  0.00    -0.041 A  
ENDBRANCH   2   3
BRANCH   2  17
HETATM   17  O   UNL     1     -10.585  10.144  65.577  1.00  0.00    -0.111 OA 
BRANCH  17  18
HETATM   18  C   UNL     1     -10.106  11.393  65.060  1.00  0.00    -0.274 C  
HETATM   19  C   UNL     1     -11.885  13.461  65.993  1.00  0.00    -0.383 C  
HETATM   20  C   UNL     1     -12.245  12.348  65.015  1.00  0.00    -0.399 C  
HETATM   21  O   UNL     1     -11.105  11.994  64.222  1.00  0.00    -0.310 OA 
HETATM   22  N   UNL     1     -10.794  13.092  66.941  1.00  0.00    -0.263 NA 
HETATM   23  C   UNL     1      -9.660  12.497  66.132  1.00  0.00    -0.228 C  
BRANCH  22  24
HETATM   24  C   UNL     1     -10.340  14.336  67.626  1.00  0.00    -0.248 C  
BRANCH  24  25
HETATM   25  C   UNL     1     -11.207  14.661  68.821  1.00  0.00    -0.267 C  
HETATM   26  N   UNL     1     -11.554  13.706  69.702  1.00  0.00    -0.285 NA 
HETATM   27  N   UNL     1     -11.669  15.849  69.102  1.00  0.00    -0.380 NA 
HETATM   28  O   UNL     1     -12.762  13.827  71.669  1.00  0.00    -0.340 OA 
HETATM   29  C   UNL     1     -12.287  14.326  70.666  1.00  0.00    -0.361 C  
HETATM   30  N   UNL     1     -12.367  15.655  70.267  1.00  0.00    -0.400 NA 
HETATM   31  H   UNL     1     -11.542  16.716  68.580  1.00  0.00     0.000 HD 
ENDBRANCH  24  25
ENDBRANCH  22  24
BRANCH  23  32
HETATM   32  C   UNL     1      -8.434  12.127  66.972  1.00  0.00    -0.183 A  
HETATM   33  C   UNL     1      -6.323  11.199  68.587  1.00  0.00    -0.044 A  
HETATM   34  F   UNL     1      -5.328  10.721  69.343  1.00  0.00    -0.039 F  
HETATM   35  C   UNL     1      -7.193  11.803  66.406  1.00  0.00     0.211 A  
HETATM   36  C   UNL     1      -7.532  11.538  69.175  1.00  0.00    -0.025 A  
HETATM   37  C   UNL     1      -6.143  11.337  67.211  1.00  0.00    -0.076 A  
HETATM   38  C   UNL     1      -8.579  12.003  68.374  1.00  0.00    -0.147 A  
ENDBRANCH  23  32
ENDBRANCH  17  18
ENDBRANCH   2  17
TORSDOF 6
ENDMDL
MODEL      170
REMARK 921   NORMALIZED FREE ENERGY PREDICTED BY IDOCK:   -5.54 KCAL/MOL
REMARK 922        TOTAL FREE ENERGY PREDICTED BY IDOCK:   -9.62 KCAL/MOL
REMARK 923 INTER-LIGAND FREE ENERGY PREDICTED BY IDOCK:   -7.98 KCAL/MOL
REMARK 924 INTRA-LIGAND FREE ENERGY PREDICTED BY IDOCK:   -1.64 KCAL/MOL
REMARK 927      BINDING AFFINITY PREDICTED BY RF-SCORE:    0.00 PKD
ROOT
HETATM    1  C   UNL     1      -6.538  13.408  67.453  1.00  0.00    -0.038 C  
HETATM    2  C   UNL     1      -7.729  12.470  67.700  1.00  0.00    -0.151 C  
ENDROOT
BRANCH   2   3
HETATM    3  C   UNL     1      -9.094  13.159  67.534  1.00  0.00    -0.205 A  
HETATM    4  C   UNL     1      -9.687  13.903  68.572  1.00  0.00    -0.202 A  
HETATM    5  C   UNL     1      -9.803  13.044  66.324  1.00  0.00    -0.278 A  
HETATM    6  F   UNL     1     -10.738  16.329  69.969  1.00  0.00    -0.284 F  
HETATM    7  F   UNL     1     -12.751  15.840  69.308  1.00  0.00    -0.154 F  
HETATM    8  C   UNL     1     -11.064  13.649  66.151  1.00  0.00    -0.299 A  
HETATM    9  C   UNL     1     -11.836  13.504  64.859  1.00  0.00    -0.374 C  
HETATM   10  C   UNL     1     -11.624  14.385  67.209  1.00  0.00    -0.401 A  
HETATM   11  F   UNL     1     -11.713  14.525  70.692  1.00  0.00    -0.306 F  
HETATM   12  F   UNL     1     -11.177  12.791  63.903  1.00  0.00    -0.367 F  
HETATM   13  F   UNL     1     -13.033  12.882  65.035  1.00  0.00    -0.537 F  
HETATM   14  F   UNL     1     -12.125  14.709  64.289  1.00  0.00    -0.448 F  
HETATM   15  C   UNL     1     -11.534  15.293  69.582  1.00  0.00    -0.305 C  
HETATM   16  C   UNL     1     -10.944  14.517  68.426  1.00  0.00    -0.255 A  
ENDBRANCH   2   3
BRANCH   2  17
HETATM   17  O   UNL     1      -7.567  11.658  68.890  1.00  0.00    -0.129 OA 
BRANCH  17  18
HETATM   18  C   UNL     1      -6.679  10.538  68.771  1.00  0.00    -0.054 C  
HETATM   19  C   UNL     1      -6.114   9.587  71.432  1.00  0.00    -0.034 C  
HETATM   20  C   UNL     1      -5.686  10.931  70.856  1.00  0.00    -0.062 C  
HETATM   21  O   UNL     1      -5.444  10.814  69.448  1.00  0.00    -0.038 OA 
HETATM   22  N   UNL     1      -7.362   9.045  70.821  1.00  0.00    -0.093 NA 
HETATM   23  C   UNL     1      -7.214   9.129  69.316  1.00  0.00    -0.065 C  
BRANCH  22  24
HETATM   24  C   UNL     1      -7.504   7.624  71.246  1.00  0.00    -0.079 C  
BRANCH  24  25
HETATM   25  C   UNL     1      -8.797   7.392  71.995  1.00  0.00    -0.124 C  
HETATM   26  N   UNL     1      -9.843   6.796  71.395  1.00  0.00    -0.179 NA 
HETATM   27  N   UNL     1      -9.004   7.724  73.240  1.00  0.00    -0.203 NA 
HETATM   28  O   UNL     1     -11.915   6.189  72.220  1.00  0.00    -0.318 OA 
HETATM   29  C   UNL     1     -10.818   6.701  72.340  1.00  0.00    -0.235 C  
HETATM   30  N   UNL     1     -10.287   7.301  73.475  1.00  0.00    -0.354 NA 
HETATM   31  H   UNL     1      -8.364   8.187  73.885  1.00  0.00     0.000 HD 
ENDBRANCH  24  25
ENDBRANCH  22  24
BRANCH  23  32
HETATM   32  C   UNL     1      -8.404   8.545  68.548  1.00  0.00    -0.123 A  
HETATM   33  C   UNL     1     -10.591   7.255  67.332  1.00  0.00    -0.300 A  
HETATM   34  F   UNL     1     -11.642   6.631  66.791  1.00  0.00    -0.407 F  
HETATM   35  C   UNL     1      -9.666   9.156  68.521  1.00  0.00    -0.166 A  
HETATM   36  C   UNL     1      -9.347   6.643  67.322  1.00  0.00    -0.144 A  
HETATM   37  C   UNL     1     -10.756   8.510  67.919  1.00  0.00    -0.148 A  
HETATM   38  C   UNL     1      -8.260   7.286  67.921  1.00  0.00    -0.119 A  
ENDBRANCH  23  32
ENDBRANCH  17  18
ENDBRANCH   2  17
TORSDOF 6
ENDMDL
MODEL      171
REMARK 921   NORMALIZED FREE ENERGY PREDICTED BY IDOCK:   -5.51 KCAL/MOL
REMARK 922        TOTAL FREE ENERGY PREDICTED BY IDOCK:   -9.58 KCAL/MOL
REMARK 923 INTER-LIGAND FREE ENERGY PREDICTED BY IDOCK:  -10.16 KCAL/MOL
REMARK 924 INTRA-LIGAND FREE ENERGY PREDICTED BY IDOCK:    0.59 KCAL/MOL
REMARK 927      BINDING AFFINITY PREDICTED BY RF-SCORE:    0.00 PKD
ROOT
HETATM    1  C   UNL     1      -9.972  14.504  67.470  1.00  0.00    -0.224 C  
HETATM    2  C   UNL     1      -9.973  13.143  68.181  1.00  0.00    -0.234 C  
ENDROOT
BRANCH   2   3
HETATM    3  C   UNL     1     -10.994  13.054  69.328  1.00  0.00    -0.122 A  
HETATM    4  C   UNL     1     -11.447  11.819  69.832  1.00  0.00    -0.285 A  
HETATM    5  C   UNL     1     -11.522  14.226  69.900  1.00  0.00    -0.301 A  
HETATM    6  F   UNL     1     -11.819   9.631  71.835  1.00  0.00    -0.432 F  
HETATM    7  F   UNL     1     -13.764  10.444  72.365  1.00  0.00    -0.427 F  
HETATM    8  C   UNL     1     -12.473  14.174  70.940  1.00  0.00    -0.436 A  
HETATM    9  C   UNL     1     -13.057  15.434  71.536  1.00  0.00    -0.467 C  
HETATM   10  C   UNL     1     -12.900  12.923  71.417  1.00  0.00    -0.377 A  
HETATM   11  F   UNL     1     -13.429   9.638  70.375  1.00  0.00    -0.115 F  
HETATM   12  F   UNL     1     -12.545  16.580  71.008  1.00  0.00    -0.037 F  
HETATM   13  F   UNL     1     -14.405  15.512  71.368  1.00  0.00    -0.549 F  
HETATM   14  F   UNL     1     -12.846  15.519  72.881  1.00  0.00    -0.384 F  
HETATM   15  C   UNL     1     -12.850  10.382  71.357  1.00  0.00    -0.452 C  
HETATM   16  C   UNL     1     -12.394  11.738  70.868  1.00  0.00    -0.420 A  
ENDBRANCH   2   3
BRANCH   2  17
HETATM   17  O   UNL     1      -8.638  12.663  68.480  1.00  0.00    -0.146 OA 
BRANCH  17  18
HETATM   18  C   UNL     1      -8.123  11.652  67.602  1.00  0.00    -0.140 C  
HETATM   19  C   UNL     1      -8.839   9.089  68.710  1.00  0.00    -0.137 C  
HETATM   20  C   UNL     1      -7.871  10.090  69.330  1.00  0.00    -0.141 C  
HETATM   21  O   UNL     1      -7.186  10.821  68.305  1.00  0.00    -0.079 OA 
HETATM   22  N   UNL     1      -9.886   9.722  67.856  1.00  0.00    -0.145 NA 
HETATM   23  C   UNL     1      -9.193  10.681  66.910  1.00  0.00    -0.155 C  
BRANCH  22  24
HETATM   24  C   UNL     1     -10.567   8.642  67.087  1.00  0.00    -0.234 C  
BRANCH  24  25
HETATM   25  C   UNL     1      -9.586   7.599  66.601  1.00  0.00    -0.206 C  
HETATM   26  N   UNL     1      -9.452   6.426  67.246  1.00  0.00    -0.121 NA 
HETATM   27  N   UNL     1      -8.820   7.731  65.553  1.00  0.00    -0.356 NA 
HETATM   28  O   UNL     1      -8.155   4.575  66.764  1.00  0.00    -0.102 OA 
HETATM   29  C   UNL     1      -8.535   5.708  66.541  1.00  0.00    -0.114 C  
HETATM   30  N   UNL     1      -8.137   6.542  65.503  1.00  0.00    -0.121 NA 
HETATM   31  H   UNL     1      -8.746   8.528  64.920  1.00  0.00     0.000 HD 
ENDBRANCH  24  25
ENDBRANCH  22  24
BRANCH  23  32
HETATM   32  C   UNL     1     -10.143  11.363  65.921  1.00  0.00    -0.286 A  
HETATM   33  C   UNL     1     -11.926  12.352  63.980  1.00  0.00    -0.460 A  
HETATM   34  F   UNL     1     -12.793  12.788  63.059  1.00  0.00    -0.340 F  
HETATM   35  C   UNL     1     -11.392  11.878  66.297  1.00  0.00    -0.394 A  
HETATM   36  C   UNL     1     -10.687  11.873  63.585  1.00  0.00    -0.502 A  
HETATM   37  C   UNL     1     -12.281  12.367  65.328  1.00  0.00    -0.418 A  
HETATM   38  C   UNL     1      -9.799  11.386  64.550  1.00  0.00    -0.302 A  
ENDBRANCH  23  32
ENDBRANCH  17  18
ENDBRANCH   2  17
TORSDOF 6
ENDMDL
MODEL      172
REMARK 921   NORMALIZED FREE ENERGY PREDICTED BY IDOCK:   -5.49 KCAL/MOL
REMARK 922        TOTAL FREE ENERGY PREDICTED BY IDOCK:   -9.55 KCAL/MOL
REMARK 923 INTER-LIGAND FREE ENERGY PREDICTED BY IDOCK:   -8.69 KCAL/MOL
REMARK 924 INTRA-LIGAND FREE ENERGY PREDICTED BY IDOCK:   -0.86 KCAL/MOL
REMARK 927      BINDING AFFINITY PREDICTED BY RF-SCORE:    0.00 PKD
ROOT
HETATM    1  C   UNL     1     -13.443   9.724  71.929  1.00  0.00    -0.485 C  
HETATM    2  C   UNL     1     -12.082  10.168  71.372  1.00  0.00    -0.382 C  
ENDROOT
BRANCH   2   3
HETATM    3  C   UNL     1     -12.120  11.546  70.691  1.00  0.00    -0.450 A  
HETATM    4  C   UNL     1     -11.539  11.773  69.428  1.00  0.00    -0.386 A  
HETATM    5  C   UNL     1     -12.734  12.637  71.333  1.00  0.00    -0.347 A  
HETATM    6  F   UNL     1     -11.455  12.418  66.510  1.00  0.00    -0.327 F  
HETATM    7  F   UNL     1     -10.998  14.491  66.978  1.00  0.00    -0.287 F  
HETATM    8  C   UNL     1     -12.767  13.916  70.740  1.00  0.00    -0.383 A  
HETATM    9  C   UNL     1     -13.404  15.093  71.443  1.00  0.00    -0.467 C  
HETATM   10  C   UNL     1     -12.177  14.104  69.479  1.00  0.00    -0.351 A  
HETATM   11  F   UNL     1      -9.576  12.925  67.478  1.00  0.00    -0.185 F  
HETATM   12  F   UNL     1     -13.963  14.778  72.645  1.00  0.00    -0.490 F  
HETATM   13  F   UNL     1     -12.517  16.094  71.692  1.00  0.00    -0.469 F  
HETATM   14  F   UNL     1     -14.404  15.659  70.707  1.00  0.00    -0.329 F  
HETATM   15  C   UNL     1     -10.905  13.221  67.463  1.00  0.00    -0.263 C  
HETATM   16  C   UNL     1     -11.558  13.038  68.815  1.00  0.00    -0.350 A  
ENDBRANCH   2   3
BRANCH   2  17
HETATM   17  O   UNL     1     -11.404   9.116  70.640  1.00  0.00    -0.260 OA 
BRANCH  17  18
HETATM   18  C   UNL     1     -10.769   8.105  71.435  1.00  0.00    -0.232 C  
HETATM   19  C   UNL     1     -10.799   5.655  69.917  1.00  0.00    -0.300 C  
HETATM   20  C   UNL     1     -12.022   6.374  70.476  1.00  0.00    -0.147 C  
HETATM   21  O   UNL     1     -11.692   7.038  71.702  1.00  0.00    -0.267 OA 
HETATM   22  N   UNL     1      -9.655   6.566  69.622  1.00  0.00    -0.147 NA 
HETATM   23  C   UNL     1      -9.438   7.444  70.837  1.00  0.00    -0.165 C  
BRANCH  22  24
HETATM   24  C   UNL     1      -8.450   5.725  69.372  1.00  0.00    -0.112 C  
BRANCH  24  25
HETATM   25  C   UNL     1      -8.280   4.665  70.436  1.00  0.00    -0.075 C  
HETATM   26  N   UNL     1      -7.341   4.790  71.391  1.00  0.00    -0.066 NA 
HETATM   27  N   UNL     1      -9.003   3.582  70.529  1.00  0.00    -0.083 NA 
HETATM   28  O   UNL     1      -6.845   3.456  73.212  1.00  0.00    -0.036 OA 
HETATM   29  C   UNL     1      -7.477   3.707  72.203  1.00  0.00    -0.057 C  
HETATM   30  N   UNL     1      -8.502   2.955  71.640  1.00  0.00    -0.064 NA 
HETATM   31  H   UNL     1      -9.761   3.275  69.919  1.00  0.00     0.000 HD 
ENDBRANCH  24  25
ENDBRANCH  22  24
BRANCH  23  32
HETATM   32  C   UNL     1      -8.245   8.394  70.704  1.00  0.00    -0.117 A  
HETATM   33  C   UNL     1      -6.221  10.348  70.582  1.00  0.00    -0.083 A  
HETATM   34  F   UNL     1      -5.273  11.291  70.558  1.00  0.00    -0.069 F  
HETATM   35  C   UNL     1      -7.068   8.248  71.451  1.00  0.00    -0.067 A  
HETATM   36  C   UNL     1      -7.364  10.502  69.813  1.00  0.00    -0.139 A  
HETATM   37  C   UNL     1      -6.062   9.225  71.393  1.00  0.00    -0.072 A  
HETATM   38  C   UNL     1      -8.367   9.530  69.869  1.00  0.00    -0.180 A  
ENDBRANCH  23  32
ENDBRANCH  17  18
ENDBRANCH   2  17
TORSDOF 6
ENDMDL
MODEL      173
REMARK 921   NORMALIZED FREE ENERGY PREDICTED BY IDOCK:   -5.49 KCAL/MOL
REMARK 922        TOTAL FREE ENERGY PREDICTED BY IDOCK:   -9.55 KCAL/MOL
REMARK 923 INTER-LIGAND FREE ENERGY PREDICTED BY IDOCK:   -9.84 KCAL/MOL
REMARK 924 INTRA-LIGAND FREE ENERGY PREDICTED BY IDOCK:    0.29 KCAL/MOL
REMARK 927      BINDING AFFINITY PREDICTED BY RF-SCORE:    0.00 PKD
ROOT
HETATM    1  C   UNL     1     -12.575  10.774  69.891  1.00  0.00    -0.199 C  
HETATM    2  C   UNL     1     -11.768  11.817  69.103  1.00  0.00    -0.325 C  
ENDROOT
BRANCH   2   3
HETATM    3  C   UNL     1     -11.782  13.214  69.747  1.00  0.00    -0.350 A  
HETATM    4  C   UNL     1     -11.141  14.317  69.152  1.00  0.00    -0.291 A  
HETATM    5  C   UNL     1     -12.433  13.421  70.977  1.00  0.00    -0.437 A  
HETATM    6  F   UNL     1     -10.920  16.988  67.825  1.00  0.00    -0.350 F  
HETATM    7  F   UNL     1     -10.499  17.911  69.748  1.00  0.00    -0.178 F  
HETATM    8  C   UNL     1     -12.446  14.686  71.599  1.00  0.00    -0.410 A  
HETATM    9  C   UNL     1     -13.124  14.902  72.932  1.00  0.00    -0.488 C  
HETATM   10  C   UNL     1     -11.796  15.765  70.974  1.00  0.00    -0.460 A  
HETATM   11  F   UNL     1      -9.093  16.491  68.895  1.00  0.00    -0.217 F  
HETATM   12  F   UNL     1     -13.739  13.788  73.421  1.00  0.00    -0.006 F  
HETATM   13  F   UNL     1     -12.257  15.307  73.898  1.00  0.00    -0.525 F  
HETATM   14  F   UNL     1     -14.091  15.862  72.875  1.00  0.00    -0.647 F  
HETATM   15  C   UNL     1     -10.422  16.734  69.068  1.00  0.00    -0.336 C  
HETATM   16  C   UNL     1     -11.138  15.590  69.750  1.00  0.00    -0.300 A  
ENDBRANCH   2   3
BRANCH   2  17
HETATM   17  O   UNL     1     -12.029  11.772  67.678  1.00  0.00    -0.599 OA 
BRANCH  17  18
HETATM   18  C   UNL     1     -11.051  11.089  66.881  1.00  0.00    -0.213 C  
HETATM   19  C   UNL     1      -8.755  12.815  66.652  1.00  0.00    -0.058 C  
HETATM   20  C   UNL     1     -10.134  13.081  66.058  1.00  0.00    -0.284 C  
HETATM   21  O   UNL     1     -10.765  11.847  65.696  1.00  0.00    -0.263 OA 
HETATM   22  N   UNL     1      -8.786  11.967  67.878  1.00  0.00    -0.167 NA 
HETATM   23  C   UNL     1      -9.649  10.758  67.583  1.00  0.00    -0.158 C  
BRANCH  22  24
HETATM   24  C   UNL     1      -7.390  11.542  68.180  1.00  0.00    -0.094 C  
BRANCH  24  25
HETATM   25  C   UNL     1      -6.651  11.126  66.929  1.00  0.00    -0.124 C  
HETATM   26  N   UNL     1      -6.986  10.001  66.272  1.00  0.00    -0.099 NA 
HETATM   27  N   UNL     1      -5.670  11.796  66.388  1.00  0.00    -0.486 NA 
HETATM   28  O   UNL     1      -6.174   9.097  64.306  1.00  0.00    -0.074 OA 
HETATM   29  C   UNL     1      -6.172   9.939  65.184  1.00  0.00    -0.100 C  
HETATM   30  N   UNL     1      -5.345  11.052  65.282  1.00  0.00    -0.206 NA 
HETATM   31  H   UNL     1      -5.246  12.665  66.710  1.00  0.00     0.000 HD 
ENDBRANCH  24  25
ENDBRANCH  22  24
BRANCH  23  32
HETATM   32  C   UNL     1      -9.723   9.758  68.740  1.00  0.00    -0.165 A  
HETATM   33  C   UNL     1      -9.646   7.768  70.730  1.00  0.00    -0.165 A  
HETATM   34  F   UNL     1      -9.571   6.819  71.670  1.00  0.00    -0.162 F  
HETATM   35  C   UNL     1      -9.308  10.069  70.043  1.00  0.00    -0.165 A  
HETATM   36  C   UNL     1     -10.086   7.441  69.457  1.00  0.00    -0.187 A  
HETATM   37  C   UNL     1      -9.266   9.075  71.032  1.00  0.00    -0.331 A  
HETATM   38  C   UNL     1     -10.129   8.430  68.470  1.00  0.00    -0.218 A  
ENDBRANCH  23  32
ENDBRANCH  17  18
ENDBRANCH   2  17
TORSDOF 6
ENDMDL
MODEL      174
REMARK 921   NORMALIZED FREE ENERGY PREDICTED BY IDOCK:   -5.48 KCAL/MOL
REMARK 922        TOTAL FREE ENERGY PREDICTED BY IDOCK:   -9.53 KCAL/MOL
REMARK 923 INTER-LIGAND FREE ENERGY PREDICTED BY IDOCK:   -8.68 KCAL/MOL
REMARK 924 INTRA-LIGAND FREE ENERGY PREDICTED BY IDOCK:   -0.85 KCAL/MOL
REMARK 927      BINDING AFFINITY PREDICTED BY RF-SCORE:    0.00 PKD
ROOT
HETATM    1  C   UNL     1     -11.904  10.203  70.642  1.00  0.00    -0.431 C  
HETATM    2  C   UNL     1     -11.266  10.930  69.450  1.00  0.00    -0.272 C  
ENDROOT
BRANCH   2   3
HETATM    3  C   UNL     1     -10.046  10.196  68.867  1.00  0.00    -0.211 A  
HETATM    4  C   UNL     1      -8.787  10.815  68.750  1.00  0.00    -0.163 A  
HETATM    5  C   UNL     1     -10.167   8.869  68.415  1.00  0.00    -0.231 A  
HETATM    6  F   UNL     1      -5.885  11.283  69.300  1.00  0.00    -0.044 F  
HETATM    7  F   UNL     1      -5.361  10.114  67.544  1.00  0.00    -0.038 F  
HETATM    8  C   UNL     1      -9.071   8.178  67.860  1.00  0.00    -0.136 A  
HETATM    9  C   UNL     1      -9.209   6.761  67.351  1.00  0.00    -0.127 C  
HETATM   10  C   UNL     1      -7.829   8.828  67.759  1.00  0.00    -0.102 A  
HETATM   11  F   UNL     1      -6.431  11.992  67.319  1.00  0.00    -0.092 F  
HETATM   12  F   UNL     1     -10.453   6.233  67.528  1.00  0.00    -0.159 F  
HETATM   13  F   UNL     1      -8.942   6.657  66.021  1.00  0.00    -0.150 F  
HETATM   14  F   UNL     1      -8.351   5.901  67.970  1.00  0.00    -0.109 F  
HETATM   15  C   UNL     1      -6.353  10.872  68.089  1.00  0.00    -0.057 C  
HETATM   16  C   UNL     1      -7.677  10.149  68.200  1.00  0.00    -0.088 A  
ENDBRANCH   2   3
BRANCH   2  17
HETATM   17  O   UNL     1     -11.101  12.352  69.680  1.00  0.00    -0.094 OA 
BRANCH  17  18
HETATM   18  C   UNL     1     -12.250  13.169  69.415  1.00  0.00    -0.137 C  
HETATM   19  C   UNL     1     -11.553  15.889  70.068  1.00  0.00    -0.344 C  
HETATM   20  C   UNL     1     -11.680  14.738  71.059  1.00  0.00    -0.306 C  
HETATM   21  O   UNL     1     -12.684  13.814  70.623  1.00  0.00    -0.313 OA 
HETATM   22  N   UNL     1     -11.173  15.453  68.693  1.00  0.00    -0.289 NA 
HETATM   23  C   UNL     1     -12.085  14.309  68.301  1.00  0.00    -0.243 C  
BRANCH  22  24
HETATM   24  C   UNL     1     -11.372  16.609  67.772  1.00  0.00     0.058 C  
BRANCH  24  25
HETATM   25  C   UNL     1     -10.256  17.621  67.899  1.00  0.00    -0.357 C  
HETATM   26  N   UNL     1     -10.285  18.770  67.200  1.00  0.00    -0.363 NA 
HETATM   27  N   UNL     1      -9.213  17.485  68.672  1.00  0.00    -0.280 NA 
HETATM   28  O   UNL     1      -8.844  20.576  67.198  1.00  0.00    -0.344 OA 
HETATM   29  C   UNL     1      -9.175  19.466  67.568  1.00  0.00    -0.308 C  
HETATM   30  N   UNL     1      -8.509  18.644  68.469  1.00  0.00    -0.335 NA 
HETATM   31  H   UNL     1      -8.978  16.702  69.283  1.00  0.00     0.000 HD 
ENDBRANCH  24  25
ENDBRANCH  22  24
BRANCH  23  32
HETATM   32  C   UNL     1     -11.852  13.796  66.877  1.00  0.00    -0.447 A  
HETATM   33  C   UNL     1     -11.563  12.608  64.342  1.00  0.00    -0.357 A  
HETATM   34  F   UNL     1     -11.461  12.026  63.141  1.00  0.00    -0.427 F  
HETATM   35  C   UNL     1     -12.490  14.346  65.756  1.00  0.00    -0.334 A  
HETATM   36  C   UNL     1     -10.900  12.062  65.429  1.00  0.00    -0.336 A  
HETATM   37  C   UNL     1     -12.348  13.750  64.494  1.00  0.00    -0.399 A  
HETATM   38  C   UNL     1     -11.040  12.654  66.688  1.00  0.00    -0.314 A  
ENDBRANCH  23  32
ENDBRANCH  17  18
ENDBRANCH   2  17
TORSDOF 6
ENDMDL
MODEL      175
REMARK 921   NORMALIZED FREE ENERGY PREDICTED BY IDOCK:   -5.47 KCAL/MOL
REMARK 922        TOTAL FREE ENERGY PREDICTED BY IDOCK:   -9.52 KCAL/MOL
REMARK 923 INTER-LIGAND FREE ENERGY PREDICTED BY IDOCK:   -8.14 KCAL/MOL
REMARK 924 INTRA-LIGAND FREE ENERGY PREDICTED BY IDOCK:   -1.39 KCAL/MOL
REMARK 927      BINDING AFFINITY PREDICTED BY RF-SCORE:    0.00 PKD
ROOT
HETATM    1  C   UNL     1     -12.591  11.273  69.882  1.00  0.00    -0.129 C  
HETATM    2  C   UNL     1     -11.568  11.303  68.737  1.00  0.00    -0.316 C  
ENDROOT
BRANCH   2   3
HETATM    3  C   UNL     1     -10.234  10.624  69.091  1.00  0.00    -0.238 A  
HETATM    4  C   UNL     1     -10.094   9.794  70.220  1.00  0.00    -0.323 A  
HETATM    5  C   UNL     1      -9.097  10.833  68.289  1.00  0.00    -0.157 A  
HETATM    6  F   UNL     1      -9.634   7.257  71.734  1.00  0.00    -0.151 F  
HETATM    7  F   UNL     1      -7.542   7.788  71.993  1.00  0.00    -0.068 F  
HETATM    8  C   UNL     1      -7.858  10.238  68.600  1.00  0.00    -0.101 A  
HETATM    9  C   UNL     1      -6.631  10.484  67.752  1.00  0.00    -0.061 C  
HETATM   10  C   UNL     1      -7.757   9.415  69.735  1.00  0.00    -0.110 A  
HETATM   11  F   UNL     1      -9.091   8.991  72.928  1.00  0.00    -0.123 F  
HETATM   12  F   UNL     1      -6.863  11.277  66.668  1.00  0.00    -0.115 F  
HETATM   13  F   UNL     1      -5.628  11.084  68.448  1.00  0.00    -0.044 F  
HETATM   14  F   UNL     1      -6.100   9.329  67.258  1.00  0.00    -0.053 F  
HETATM   15  C   UNL     1      -8.780   8.317  71.786  1.00  0.00    -0.164 C  
HETATM   16  C   UNL     1      -8.870   9.188  70.554  1.00  0.00    -0.263 A  
ENDBRANCH   2   3
BRANCH   2  17
HETATM   17  O   UNL     1     -11.470  12.604  68.103  1.00  0.00    -0.269 OA 
BRANCH  17  18
HETATM   18  C   UNL     1     -10.674  12.664  66.912  1.00  0.00    -0.242 C  
HETATM   19  C   UNL     1     -11.885  14.600  65.153  1.00  0.00    -0.351 C  
HETATM   20  C   UNL     1     -12.494  13.265  65.565  1.00  0.00    -0.474 C  
HETATM   21  O   UNL     1     -11.464  12.291  65.773  1.00  0.00    -0.338 OA 
HETATM   22  N   UNL     1     -10.949  15.167  66.166  1.00  0.00    -0.335 NA 
HETATM   23  C   UNL     1      -9.986  14.071  66.572  1.00  0.00    -0.284 C  
BRANCH  22  24
HETATM   24  C   UNL     1     -10.209  16.294  65.530  1.00  0.00    -0.298 C  
BRANCH  24  25
HETATM   25  C   UNL     1     -10.319  17.563  66.343  1.00  0.00    -0.334 C  
HETATM   26  N   UNL     1      -9.701  18.691  65.948  1.00  0.00    -0.479 NA 
HETATM   27  N   UNL     1     -11.002  17.681  67.449  1.00  0.00    -0.160 NA 
HETATM   28  O   UNL     1      -9.711  20.818  66.851  1.00  0.00    -0.377 OA 
HETATM   29  C   UNL     1     -10.031  19.645  66.860  1.00  0.00    -0.400 C  
HETATM   30  N   UNL     1     -10.824  18.995  67.798  1.00  0.00    -0.355 NA 
HETATM   31  H   UNL     1     -11.541  16.965  67.937  1.00  0.00     0.000 HD 
ENDBRANCH  24  25
ENDBRANCH  22  24
BRANCH  23  32
HETATM   32  C   UNL     1      -8.918  14.529  67.569  1.00  0.00    -0.191 A  
HETATM   33  C   UNL     1      -7.051  15.158  69.581  1.00  0.00    -0.193 A  
HETATM   34  F   UNL     1      -6.162  15.419  70.546  1.00  0.00    -0.138 F  
HETATM   35  C   UNL     1      -7.544  14.355  67.346  1.00  0.00    -0.196 A  
HETATM   36  C   UNL     1      -8.402  15.364  69.816  1.00  0.00    -0.006 A  
HETATM   37  C   UNL     1      -6.616  14.665  68.351  1.00  0.00    -0.102 A  
HETATM   38  C   UNL     1      -9.329  15.056  68.815  1.00  0.00    -0.200 A  
ENDBRANCH  23  32
ENDBRANCH  17  18
ENDBRANCH   2  17
TORSDOF 6
ENDMDL
MODEL      176
REMARK 921   NORMALIZED FREE ENERGY PREDICTED BY IDOCK:   -5.47 KCAL/MOL
REMARK 922        TOTAL FREE ENERGY PREDICTED BY IDOCK:   -9.52 KCAL/MOL
REMARK 923 INTER-LIGAND FREE ENERGY PREDICTED BY IDOCK:  -10.07 KCAL/MOL
REMARK 924 INTRA-LIGAND FREE ENERGY PREDICTED BY IDOCK:    0.55 KCAL/MOL
REMARK 927      BINDING AFFINITY PREDICTED BY RF-SCORE:    0.00 PKD
ROOT
HETATM    1  C   UNL     1     -11.373  14.608  70.426  1.00  0.00    -0.232 C  
HETATM    2  C   UNL     1     -11.109  14.755  68.920  1.00  0.00    -0.252 C  
ENDROOT
BRANCH   2   3
HETATM    3  C   UNL     1     -10.194  15.942  68.573  1.00  0.00    -0.226 A  
HETATM    4  C   UNL     1     -10.651  17.043  67.824  1.00  0.00    -0.350 A  
HETATM    5  C   UNL     1      -8.850  15.946  68.989  1.00  0.00    -0.243 A  
HETATM    6  F   UNL     1     -11.403  19.887  67.286  1.00  0.00    -0.437 F  
HETATM    7  F   UNL     1      -9.440  20.246  66.425  1.00  0.00    -0.441 F  
HETATM    8  C   UNL     1      -7.984  17.012  68.669  1.00  0.00    -0.258 A  
HETATM    9  C   UNL     1      -6.534  17.004  69.095  1.00  0.00    -0.221 C  
HETATM   10  C   UNL     1      -8.476  18.095  67.921  1.00  0.00    -0.259 A  
HETATM   11  F   UNL     1     -10.816  18.872  65.455  1.00  0.00    -0.516 F  
HETATM   12  F   UNL     1      -6.186  15.914  69.836  1.00  0.00    -0.155 F  
HETATM   13  F   UNL     1      -5.680  17.027  68.037  1.00  0.00    -0.111 F  
HETATM   14  F   UNL     1      -6.210  18.087  69.857  1.00  0.00    -0.239 F  
HETATM   15  C   UNL     1     -10.355  19.268  66.673  1.00  0.00    -0.438 C  
HETATM   16  C   UNL     1      -9.809  18.119  67.491  1.00  0.00    -0.317 A  
ENDBRANCH   2   3
BRANCH   2  17
HETATM   17  O   UNL     1     -12.313  14.626  68.122  1.00  0.00    -0.134 OA 
BRANCH  17  18
HETATM   18  C   UNL     1     -12.350  13.514  67.216  1.00  0.00    -0.133 C  
HETATM   19  C   UNL     1      -9.970  13.632  65.595  1.00  0.00    -0.243 C  
HETATM   20  C   UNL     1     -11.115  14.638  65.574  1.00  0.00    -0.345 C  
HETATM   21  O   UNL     1     -12.358  13.984  65.860  1.00  0.00    -0.444 OA 
HETATM   22  N   UNL     1      -9.805  12.943  66.907  1.00  0.00    -0.230 NA 
HETATM   23  C   UNL     1     -11.167  12.440  67.340  1.00  0.00    -0.297 C  
BRANCH  22  24
HETATM   24  C   UNL     1      -8.872  11.797  66.712  1.00  0.00    -0.191 C  
BRANCH  24  25
HETATM   25  C   UNL     1      -7.473  12.133  67.174  1.00  0.00    -0.129 C  
HETATM   26  N   UNL     1      -7.237  12.504  68.445  1.00  0.00    -0.103 NA 
HETATM   27  N   UNL     1      -6.409  12.086  66.419  1.00  0.00    -0.436 NA 
HETATM   28  O   UNL     1      -5.260  12.993  69.538  1.00  0.00    -0.075 OA 
HETATM   29  C   UNL     1      -5.892  12.689  68.544  1.00  0.00    -0.060 C  
HETATM   30  N   UNL     1      -5.395  12.446  67.269  1.00  0.00    -0.247 NA 
HETATM   31  H   UNL     1      -6.347  11.839  65.431  1.00  0.00     0.000 HD 
ENDBRANCH  24  25
ENDBRANCH  22  24
BRANCH  23  32
HETATM   32  C   UNL     1     -11.142  11.650  68.652  1.00  0.00    -0.287 A  
HETATM   33  C   UNL     1     -11.318  10.038  70.953  1.00  0.00    -0.361 A  
HETATM   34  F   UNL     1     -11.411   9.242  72.024  1.00  0.00    -0.415 F  
HETATM   35  C   UNL     1     -10.086  10.800  69.009  1.00  0.00    -0.225 A  
HETATM   36  C   UNL     1     -12.365  10.890  70.637  1.00  0.00    -0.470 A  
HETATM   37  C   UNL     1     -10.177   9.994  70.153  1.00  0.00    -0.297 A  
HETATM   38  C   UNL     1     -12.276  11.694  69.496  1.00  0.00    -0.257 A  
ENDBRANCH  23  32
ENDBRANCH  17  18
ENDBRANCH   2  17
TORSDOF 6
ENDMDL
MODEL      177
REMARK 921   NORMALIZED FREE ENERGY PREDICTED BY IDOCK:   -5.46 KCAL/MOL
REMARK 922        TOTAL FREE ENERGY PREDICTED BY IDOCK:   -9.51 KCAL/MOL
REMARK 923 INTER-LIGAND FREE ENERGY PREDICTED BY IDOCK:   -8.43 KCAL/MOL
REMARK 924 INTRA-LIGAND FREE ENERGY PREDICTED BY IDOCK:   -1.09 KCAL/MOL
REMARK 927      BINDING AFFINITY PREDICTED BY RF-SCORE:    0.00 PKD
ROOT
HETATM    1  C   UNL     1     -11.657  14.468  65.531  1.00  0.00    -0.350 C  
HETATM    2  C   UNL     1     -11.626  14.762  67.038  1.00  0.00    -0.339 C  
ENDROOT
BRANCH   2   3
HETATM    3  C   UNL     1     -10.380  15.548  67.482  1.00  0.00    -0.271 A  
HETATM    4  C   UNL     1     -10.453  16.889  67.902  1.00  0.00    -0.344 A  
HETATM    5  C   UNL     1      -9.113  14.936  67.463  1.00  0.00    -0.186 A  
HETATM    6  F   UNL     1     -10.277  19.197  69.796  1.00  0.00    -0.247 F  
HETATM    7  F   UNL     1      -8.274  19.638  69.075  1.00  0.00    -0.383 F  
HETATM    8  C   UNL     1      -7.952  15.638  67.847  1.00  0.00    -0.151 A  
HETATM    9  C   UNL     1      -6.589  14.988  67.802  1.00  0.00    -0.169 C  
HETATM   10  C   UNL     1      -8.064  16.976  68.261  1.00  0.00    -0.228 A  
HETATM   11  F   UNL     1      -9.978  19.845  67.742  1.00  0.00    -0.437 F  
HETATM   12  F   UNL     1      -6.615  13.683  67.409  1.00  0.00    -0.170 F  
HETATM   13  F   UNL     1      -5.738  15.620  66.948  1.00  0.00     0.043 F  
HETATM   14  F   UNL     1      -5.969  14.996  69.016  1.00  0.00    -0.093 F  
HETATM   15  C   UNL     1      -9.453  19.056  68.720  1.00  0.00    -0.382 C  
HETATM   16  C   UNL     1      -9.311  17.613  68.290  1.00  0.00    -0.290 A  
ENDBRANCH   2   3
BRANCH   2  17
HETATM   17  O   UNL     1     -11.970  13.607  67.844  1.00  0.00    -0.358 OA 
BRANCH  17  18
HETATM   18  C   UNL     1     -10.915  13.069  68.654  1.00  0.00    -0.265 C  
HETATM   19  C   UNL     1     -12.016  10.889  70.183  1.00  0.00    -0.352 C  
HETATM   20  C   UNL     1     -12.385  12.360  70.334  1.00  0.00    -0.227 C  
HETATM   21  O   UNL     1     -11.253  13.189  70.044  1.00  0.00     0.008 OA 
HETATM   22  N   UNL     1     -11.554  10.527  68.812  1.00  0.00    -0.227 NA 
HETATM   23  C   UNL     1     -10.510  11.541  68.393  1.00  0.00    -0.207 C  
BRANCH  22  24
HETATM   24  C   UNL     1     -10.953   9.164  68.873  1.00  0.00     0.017 C  
BRANCH  24  25
HETATM   25  C   UNL     1     -10.118   8.979  70.119  1.00  0.00    -0.193 C  
HETATM   26  N   UNL     1      -8.821   9.339  70.141  1.00  0.00    -0.193 NA 
HETATM   27  N   UNL     1     -10.559   8.484  71.243  1.00  0.00    -0.220 NA 
HETATM   28  O   UNL     1      -7.269   9.305  71.852  1.00  0.00    -0.326 OA 
HETATM   29  C   UNL     1      -8.377   9.085  71.402  1.00  0.00    -0.070 C  
HETATM   30  N   UNL     1      -9.465   8.534  72.069  1.00  0.00    -0.269 NA 
HETATM   31  H   UNL     1     -11.496   8.141  71.457  1.00  0.00     0.000 HD 
ENDBRANCH  24  25
ENDBRANCH  22  24
BRANCH  23  32
HETATM   32  C   UNL     1      -9.894  11.258  67.020  1.00  0.00    -0.217 A  
HETATM   33  C   UNL     1      -8.713  10.464  64.591  1.00  0.00    -0.187 A  
HETATM   34  F   UNL     1      -8.168  10.051  63.441  1.00  0.00    -0.135 F  
HETATM   35  C   UNL     1     -10.650  11.219  65.840  1.00  0.00    -0.309 A  
HETATM   36  C   UNL     1      -7.938  10.520  65.738  1.00  0.00    -0.158 A  
HETATM   37  C   UNL     1     -10.061  10.820  64.631  1.00  0.00    -0.410 A  
HETATM   38  C   UNL     1      -8.523  10.919  66.944  1.00  0.00    -0.135 A  
ENDBRANCH  23  32
ENDBRANCH  17  18
ENDBRANCH   2  17
TORSDOF 6
ENDMDL
MODEL      178
REMARK 921   NORMALIZED FREE ENERGY PREDICTED BY IDOCK:   -5.46 KCAL/MOL
REMARK 922        TOTAL FREE ENERGY PREDICTED BY IDOCK:   -9.51 KCAL/MOL
REMARK 923 INTER-LIGAND FREE ENERGY PREDICTED BY IDOCK:   -8.82 KCAL/MOL
REMARK 924 INTRA-LIGAND FREE ENERGY PREDICTED BY IDOCK:   -0.68 KCAL/MOL
REMARK 927      BINDING AFFINITY PREDICTED BY RF-SCORE:    0.00 PKD
ROOT
HETATM    1  C   UNL     1     -10.521  10.875  66.244  1.00  0.00    -0.304 C  
HETATM    2  C   UNL     1     -11.525  11.326  67.314  1.00  0.00    -0.186 C  
ENDROOT
BRANCH   2   3
HETATM    3  C   UNL     1     -11.392  12.812  67.690  1.00  0.00    -0.359 A  
HETATM    4  C   UNL     1     -10.856  13.763  66.801  1.00  0.00    -0.284 A  
HETATM    5  C   UNL     1     -11.796  13.260  68.961  1.00  0.00    -0.365 A  
HETATM    6  F   UNL     1     -10.840  16.151  65.002  1.00  0.00    -0.389 F  
HETATM    7  F   UNL     1     -10.048  17.368  66.620  1.00  0.00    -0.268 F  
HETATM    8  C   UNL     1     -11.668  14.612  69.340  1.00  0.00    -0.355 A  
HETATM    9  C   UNL     1     -12.079  15.087  70.714  1.00  0.00    -0.322 C  
HETATM   10  C   UNL     1     -11.129  15.533  68.425  1.00  0.00    -0.315 A  
HETATM   11  F   UNL     1      -8.854  15.752  65.791  1.00  0.00    -0.342 F  
HETATM   12  F   UNL     1     -12.610  14.107  71.498  1.00  0.00    -0.361 F  
HETATM   13  F   UNL     1     -11.037  15.608  71.418  1.00  0.00    -0.377 F  
HETATM   14  F   UNL     1     -13.021  16.072  70.664  1.00  0.00    -0.441 F  
HETATM   15  C   UNL     1     -10.121  16.089  66.158  1.00  0.00    -0.327 C  
HETATM   16  C   UNL     1     -10.717  15.117  67.153  1.00  0.00    -0.310 A  
ENDBRANCH   2   3
BRANCH   2  17
HETATM   17  O   UNL     1     -11.622  10.396  68.423  1.00  0.00    -0.277 OA 
BRANCH  17  18
HETATM   18  C   UNL     1     -10.718  10.622  69.513  1.00  0.00    -0.251 C  
HETATM   19  C   UNL     1     -11.093   8.486  71.411  1.00  0.00    -0.265 C  
HETATM   20  C   UNL     1     -12.115   9.563  71.067  1.00  0.00    -0.318 C  
HETATM   21  O   UNL     1     -11.453  10.789  70.735  1.00  0.00    -0.306 OA 
HETATM   22  N   UNL     1     -10.149   8.181  70.298  1.00  0.00    -0.190 NA 
HETATM   23  C   UNL     1      -9.608   9.496  69.777  1.00  0.00    -0.216 C  
BRANCH  22  24
HETATM   24  C   UNL     1      -9.040   7.351  70.848  1.00  0.00    -0.154 C  
BRANCH  24  25
HETATM   25  C   UNL     1      -9.370   5.876  70.797  1.00  0.00    -0.160 C  
HETATM   26  N   UNL     1      -9.097   5.146  69.701  1.00  0.00    -0.112 NA 
HETATM   27  N   UNL     1      -9.915   5.202  71.773  1.00  0.00    -0.180 NA 
HETATM   28  O   UNL     1      -9.356   2.888  69.283  1.00  0.00    -0.143 OA 
HETATM   29  C   UNL     1      -9.470   3.870  69.992  1.00  0.00    -0.192 C  
HETATM   30  N   UNL     1      -9.996   3.927  71.277  1.00  0.00    -0.156 NA 
HETATM   31  H   UNL     1     -10.211   5.544  72.688  1.00  0.00     0.000 HD 
ENDBRANCH  24  25
ENDBRANCH  22  24
BRANCH  23  32
HETATM   32  C   UNL     1      -8.569   9.336  68.663  1.00  0.00    -0.127 A  
HETATM   33  C   UNL     1      -6.472   8.954  66.825  1.00  0.00    -0.064 A  
HETATM   34  F   UNL     1      -5.463   8.742  65.972  1.00  0.00    -0.035 F  
HETATM   35  C   UNL     1      -8.662   8.349  67.672  1.00  0.00    -0.137 A  
HETATM   36  C   UNL     1      -6.368   9.954  67.778  1.00  0.00    -0.055 A  
HETATM   37  C   UNL     1      -7.614   8.157  66.759  1.00  0.00    -0.094 A  
HETATM   38  C   UNL     1      -7.411  10.148  68.689  1.00  0.00    -0.084 A  
ENDBRANCH  23  32
ENDBRANCH  17  18
ENDBRANCH   2  17
TORSDOF 6
ENDMDL
MODEL      179
REMARK 921   NORMALIZED FREE ENERGY PREDICTED BY IDOCK:   -5.45 KCAL/MOL
REMARK 922        TOTAL FREE ENERGY PREDICTED BY IDOCK:   -9.49 KCAL/MOL
REMARK 923 INTER-LIGAND FREE ENERGY PREDICTED BY IDOCK:  -10.85 KCAL/MOL
REMARK 924 INTRA-LIGAND FREE ENERGY PREDICTED BY IDOCK:    1.36 KCAL/MOL
REMARK 927      BINDING AFFINITY PREDICTED BY RF-SCORE:    0.00 PKD
ROOT
HETATM    1  C   UNL     1      -8.420  13.735  68.457  1.00  0.00    -0.117 C  
HETATM    2  C   UNL     1      -9.590  14.709  68.260  1.00  0.00    -0.208 C  
ENDROOT
BRANCH   2   3
HETATM    3  C   UNL     1      -9.159  16.185  68.234  1.00  0.00    -0.190 A  
HETATM    4  C   UNL     1      -9.939  17.181  67.616  1.00  0.00    -0.283 A  
HETATM    5  C   UNL     1      -7.944  16.579  68.823  1.00  0.00    -0.236 A  
HETATM    6  F   UNL     1     -11.653  19.625  67.443  1.00  0.00    -0.328 F  
HETATM    7  F   UNL     1      -9.909  20.814  66.923  1.00  0.00    -0.576 F  
HETATM    8  C   UNL     1      -7.515  17.922  68.797  1.00  0.00    -0.271 A  
HETATM    9  C   UNL     1      -6.197  18.339  69.408  1.00  0.00    -0.257 C  
HETATM   10  C   UNL     1      -8.321  18.888  68.172  1.00  0.00    -0.341 A  
HETATM   11  F   UNL     1     -10.610  19.266  65.569  1.00  0.00    -0.506 F  
HETATM   12  F   UNL     1      -5.520  17.318  70.006  1.00  0.00    -0.172 F  
HETATM   13  F   UNL     1      -5.343  18.870  68.492  1.00  0.00    -0.183 F  
HETATM   14  F   UNL     1      -6.349  19.294  70.370  1.00  0.00    -0.243 F  
HETATM   15  C   UNL     1     -10.412  19.549  66.886  1.00  0.00    -0.477 C  
HETATM   16  C   UNL     1      -9.536  18.527  67.576  1.00  0.00    -0.291 A  
ENDBRANCH   2   3
BRANCH   2  17
HETATM   17  O   UNL     1     -10.731  14.395  69.099  1.00  0.00    -0.248 OA 
BRANCH  17  18
HETATM   18  C   UNL     1     -11.805  13.691  68.460  1.00  0.00    -0.371 C  
HETATM   19  C   UNL     1     -10.838  12.751  65.913  1.00  0.00    -0.269 C  
HETATM   20  C   UNL     1     -11.044  14.209  66.307  1.00  0.00    -0.318 C  
HETATM   21  O   UNL     1     -12.142  14.329  67.219  1.00  0.00    -0.411 OA 
HETATM   22  N   UNL     1     -10.541  11.857  67.070  1.00  0.00    -0.220 NA 
HETATM   23  C   UNL     1     -11.567  12.138  68.147  1.00  0.00    -0.337 C  
BRANCH  22  24
HETATM   24  C   UNL     1     -10.657  10.446  66.603  1.00  0.00    -0.178 C  
BRANCH  24  25
HETATM   25  C   UNL     1      -9.515  10.066  65.689  1.00  0.00    -0.220 C  
HETATM   26  N   UNL     1      -8.238  10.180  66.096  1.00  0.00    -0.122 NA 
HETATM   27  N   UNL     1      -9.656   9.601  64.477  1.00  0.00    -0.431 NA 
HETATM   28  O   UNL     1      -6.258   9.618  65.046  1.00  0.00    -0.077 OA 
HETATM   29  C   UNL     1      -7.470   9.722  65.071  1.00  0.00    -0.127 C  
HETATM   30  N   UNL     1      -8.366   9.386  64.064  1.00  0.00    -0.163 NA 
HETATM   31  H   UNL     1     -10.520   9.437  63.960  1.00  0.00     0.000 HD 
ENDBRANCH  24  25
ENDBRANCH  22  24
BRANCH  23  32
HETATM   32  C   UNL     1     -11.425  11.242  69.381  1.00  0.00    -0.370 A  
HETATM   33  C   UNL     1     -11.379   9.432  71.537  1.00  0.00    -0.394 A  
HETATM   34  F   UNL     1     -11.367   8.543  72.536  1.00  0.00    -0.410 F  
HETATM   35  C   UNL     1     -10.302  10.433  69.608  1.00  0.00    -0.261 A  
HETATM   36  C   UNL     1     -12.489  10.240  71.349  1.00  0.00    -0.528 A  
HETATM   37  C   UNL     1     -10.283   9.528  70.680  1.00  0.00    -0.364 A  
HETATM   38  C   UNL     1     -12.511  11.143  70.282  1.00  0.00    -0.354 A  
ENDBRANCH  23  32
ENDBRANCH  17  18
ENDBRANCH   2  17
TORSDOF 6
ENDMDL
MODEL      180
REMARK 921   NORMALIZED FREE ENERGY PREDICTED BY IDOCK:   -5.44 KCAL/MOL
REMARK 922        TOTAL FREE ENERGY PREDICTED BY IDOCK:   -9.48 KCAL/MOL
REMARK 923 INTER-LIGAND FREE ENERGY PREDICTED BY IDOCK:   -8.05 KCAL/MOL
REMARK 924 INTRA-LIGAND FREE ENERGY PREDICTED BY IDOCK:   -1.42 KCAL/MOL
REMARK 927      BINDING AFFINITY PREDICTED BY RF-SCORE:    0.00 PKD
ROOT
HETATM    1  C   UNL     1     -11.617  10.416  69.121  1.00  0.00    -0.234 C  
HETATM    2  C   UNL     1     -10.515  11.460  68.890  1.00  0.00    -0.193 C  
ENDROOT
BRANCH   2   3
HETATM    3  C   UNL     1     -10.941  12.892  69.257  1.00  0.00    -0.119 A  
HETATM    4  C   UNL     1     -11.832  13.159  70.314  1.00  0.00    -0.299 A  
HETATM    5  C   UNL     1     -10.455  13.986  68.518  1.00  0.00    -0.251 A  
HETATM    6  F   UNL     1     -12.723  14.223  72.962  1.00  0.00    -0.462 F  
HETATM    7  F   UNL     1     -13.510  15.999  71.986  1.00  0.00    -0.509 F  
HETATM    8  C   UNL     1     -10.844  15.307  68.820  1.00  0.00    -0.254 A  
HETATM    9  C   UNL     1     -10.341  16.480  68.010  1.00  0.00    -0.294 C  
HETATM   10  C   UNL     1     -11.734  15.536  69.883  1.00  0.00    -0.368 A  
HETATM   11  F   UNL     1     -14.395  14.056  71.583  1.00  0.00    -0.448 F  
HETATM   12  F   UNL     1      -9.466  16.133  67.025  1.00  0.00    -0.211 F  
HETATM   13  F   UNL     1     -11.348  17.159  67.396  1.00  0.00    -0.098 F  
HETATM   14  F   UNL     1      -9.688  17.400  68.777  1.00  0.00    -0.255 F  
HETATM   15  C   UNL     1     -13.205  14.688  71.776  1.00  0.00    -0.350 C  
HETATM   16  C   UNL     1     -12.236  14.467  70.636  1.00  0.00    -0.414 A  
ENDBRANCH   2   3
BRANCH   2  17
HETATM   17  O   UNL     1      -9.850  11.302  67.611  1.00  0.00    -0.172 OA 
BRANCH  17  18
HETATM   18  C   UNL     1     -10.575  10.573  66.612  1.00  0.00    -0.198 C  
HETATM   19  C   UNL     1      -8.941  10.489  64.239  1.00  0.00    -0.216 C  
HETATM   20  C   UNL     1      -9.572  11.738  64.843  1.00  0.00    -0.112 C  
HETATM   21  O   UNL     1     -10.818  11.411  65.471  1.00  0.00    -0.272 OA 
HETATM   22  N   UNL     1      -8.655   9.421  65.239  1.00  0.00    -0.151 NA 
HETATM   23  C   UNL     1      -9.903   9.221  66.073  1.00  0.00    -0.293 C  
BRANCH  22  24
HETATM   24  C   UNL     1      -8.326   8.170  64.497  1.00  0.00    -0.058 C  
BRANCH  24  25
HETATM   25  C   UNL     1      -7.210   7.402  65.166  1.00  0.00    -0.066 C  
HETATM   26  N   UNL     1      -7.238   6.058  65.226  1.00  0.00    -0.068 NA 
HETATM   27  N   UNL     1      -6.158   7.946  65.715  1.00  0.00    -0.038 NA 
HETATM   28  O   UNL     1      -5.700   4.549  66.062  1.00  0.00    -0.020 OA 
HETATM   29  C   UNL     1      -6.085   5.682  65.844  1.00  0.00    -0.029 C  
HETATM   30  N   UNL     1      -5.435   6.869  66.159  1.00  0.00    -0.022 NA 
HETATM   31  H   UNL     1      -5.928   8.936  65.793  1.00  0.00     0.000 HD 
ENDBRANCH  24  25
ENDBRANCH  22  24
BRANCH  23  32
HETATM   32  C   UNL     1      -9.778   8.101  67.110  1.00  0.00    -0.259 A  
HETATM   33  C   UNL     1      -9.627   6.241  69.218  1.00  0.00    -0.133 A  
HETATM   34  F   UNL     1      -9.585   5.375  70.237  1.00  0.00    -0.179 F  
HETATM   35  C   UNL     1     -10.660   7.013  67.164  1.00  0.00    -0.412 A  
HETATM   36  C   UNL     1      -8.726   7.293  69.172  1.00  0.00    -0.136 A  
HETATM   37  C   UNL     1     -10.586   6.089  68.217  1.00  0.00    -0.325 A  
HETATM   38  C   UNL     1      -8.798   8.215  68.123  1.00  0.00    -0.132 A  
ENDBRANCH  23  32
ENDBRANCH  17  18
ENDBRANCH   2  17
TORSDOF 6
ENDMDL
MODEL      181
REMARK 921   NORMALIZED FREE ENERGY PREDICTED BY IDOCK:   -5.43 KCAL/MOL
REMARK 922        TOTAL FREE ENERGY PREDICTED BY IDOCK:   -9.46 KCAL/MOL
REMARK 923 INTER-LIGAND FREE ENERGY PREDICTED BY IDOCK:   -8.60 KCAL/MOL
REMARK 924 INTRA-LIGAND FREE ENERGY PREDICTED BY IDOCK:   -0.86 KCAL/MOL
REMARK 927      BINDING AFFINITY PREDICTED BY RF-SCORE:    0.00 PKD
ROOT
HETATM    1  C   UNL     1     -10.243   8.794  66.864  1.00  0.00    -0.357 C  
HETATM    2  C   UNL     1      -9.295   9.329  67.947  1.00  0.00    -0.129 C  
ENDROOT
BRANCH   2   3
HETATM    3  C   UNL     1      -9.852   9.181  69.374  1.00  0.00    -0.173 A  
HETATM    4  C   UNL     1     -11.112   9.691  69.741  1.00  0.00    -0.247 A  
HETATM    5  C   UNL     1      -9.093   8.537  70.367  1.00  0.00    -0.164 A  
HETATM    6  F   UNL     1     -13.965   9.605  70.633  1.00  0.00    -0.294 F  
HETATM    7  F   UNL     1     -13.336   9.965  72.683  1.00  0.00    -0.422 F  
HETATM    8  C   UNL     1      -9.570   8.404  71.687  1.00  0.00    -0.288 A  
HETATM    9  C   UNL     1      -8.743   7.733  72.760  1.00  0.00    -0.156 C  
HETATM   10  C   UNL     1     -10.833   8.925  72.016  1.00  0.00    -0.404 A  
HETATM   11  F   UNL     1     -13.033  11.495  71.170  1.00  0.00    -0.440 F  
HETATM   12  F   UNL     1      -7.551   7.248  72.311  1.00  0.00    -0.081 F  
HETATM   13  F   UNL     1      -8.444   8.573  73.788  1.00  0.00    -0.293 F  
HETATM   14  F   UNL     1      -9.386   6.671  73.324  1.00  0.00    -0.133 F  
HETATM   15  C   UNL     1     -12.968  10.152  71.385  1.00  0.00    -0.429 C  
HETATM   16  C   UNL     1     -11.612   9.573  71.049  1.00  0.00    -0.419 A  
ENDBRANCH   2   3
BRANCH   2  17
HETATM   17  O   UNL     1      -8.734  10.624  67.615  1.00  0.00    -0.121 OA 
BRANCH  17  18
HETATM   18  C   UNL     1      -9.456  11.765  68.099  1.00  0.00    -0.193 C  
HETATM   19  C   UNL     1      -7.749  14.067  67.797  1.00  0.00    -0.172 C  
HETATM   20  C   UNL     1      -7.507  12.894  68.740  1.00  0.00    -0.047 C  
HETATM   21  O   UNL     1      -8.754  12.360  69.201  1.00  0.00     0.375 OA 
HETATM   22  N   UNL     1      -8.540  13.706  66.586  1.00  0.00    -0.019 NA 
HETATM   23  C   UNL     1      -9.758  12.931  67.042  1.00  0.00    -0.230 C  
BRANCH  22  24
HETATM   24  C   UNL     1      -8.956  14.969  65.913  1.00  0.00     0.162 C  
BRANCH  24  25
HETATM   25  C   UNL     1      -9.648  15.910  66.872  1.00  0.00    -0.229 C  
HETATM   26  N   UNL     1      -8.940  16.769  67.627  1.00  0.00    -0.209 NA 
HETATM   27  N   UNL     1     -10.940  15.980  67.042  1.00  0.00    -0.221 NA 
HETATM   28  O   UNL     1      -9.628  18.401  69.111  1.00  0.00    -0.211 OA 
HETATM   29  C   UNL     1      -9.850  17.491  68.337  1.00  0.00    -0.325 C  
HETATM   30  N   UNL     1     -11.088  16.973  67.976  1.00  0.00    -0.253 NA 
HETATM   31  H   UNL     1     -11.668  15.428  66.587  1.00  0.00     0.000 HD 
ENDBRANCH  24  25
ENDBRANCH  22  24
BRANCH  23  32
HETATM   32  C   UNL     1     -10.705  12.544  65.902  1.00  0.00    -0.294 A  
HETATM   33  C   UNL     1     -12.479  12.121  63.757  1.00  0.00    -0.514 A  
HETATM   34  F   UNL     1     -13.306  11.951  62.721  1.00  0.00    -0.247 F  
HETATM   35  C   UNL     1     -10.264  11.923  64.725  1.00  0.00    -0.314 A  
HETATM   36  C   UNL     1     -12.945  12.713  64.921  1.00  0.00    -0.121 A  
HETATM   37  C   UNL     1     -11.148  11.716  63.656  1.00  0.00    -0.506 A  
HETATM   38  C   UNL     1     -12.066  12.919  65.988  1.00  0.00    -0.484 A  
ENDBRANCH  23  32
ENDBRANCH  17  18
ENDBRANCH   2  17
TORSDOF 6
ENDMDL
MODEL      182
REMARK 921   NORMALIZED FREE ENERGY PREDICTED BY IDOCK:   -5.43 KCAL/MOL
REMARK 922        TOTAL FREE ENERGY PREDICTED BY IDOCK:   -9.46 KCAL/MOL
REMARK 923 INTER-LIGAND FREE ENERGY PREDICTED BY IDOCK:  -10.20 KCAL/MOL
REMARK 924 INTRA-LIGAND FREE ENERGY PREDICTED BY IDOCK:    0.73 KCAL/MOL
REMARK 927      BINDING AFFINITY PREDICTED BY RF-SCORE:    0.00 PKD
ROOT
HETATM    1  C   UNL     1      -7.861  14.181  67.271  1.00  0.00    -0.154 C  
HETATM    2  C   UNL     1      -9.095  15.085  67.134  1.00  0.00    -0.215 C  
ENDROOT
BRANCH   2   3
HETATM    3  C   UNL     1      -8.747  16.568  66.921  1.00  0.00    -0.233 A  
HETATM    4  C   UNL     1      -9.607  17.604  67.332  1.00  0.00    -0.267 A  
HETATM    5  C   UNL     1      -7.546  16.929  66.283  1.00  0.00    -0.312 A  
HETATM    6  F   UNL     1     -10.498  19.978  68.917  1.00  0.00    -0.531 F  
HETATM    7  F   UNL     1      -9.845  21.295  67.315  1.00  0.00    -0.600 F  
HETATM    8  C   UNL     1      -7.210  18.280  66.058  1.00  0.00    -0.298 A  
HETATM    9  C   UNL     1      -5.932  18.666  65.350  1.00  0.00    -0.245 C  
HETATM   10  C   UNL     1      -8.093  19.287  66.483  1.00  0.00    -0.310 A  
HETATM   11  F   UNL     1     -11.487  19.912  66.982  1.00  0.00    -0.353 F  
HETATM   12  F   UNL     1      -5.150  17.603  65.010  1.00  0.00    -0.123 F  
HETATM   13  F   UNL     1      -6.162  19.347  64.195  1.00  0.00    -0.312 F  
HETATM   14  F   UNL     1      -5.142  19.478  66.108  1.00  0.00    -0.154 F  
HETATM   15  C   UNL     1     -10.267  20.026  67.575  1.00  0.00    -0.411 C  
HETATM   16  C   UNL     1      -9.296  18.959  67.121  1.00  0.00    -0.328 A  
ENDBRANCH   2   3
BRANCH   2  17
HETATM   17  O   UNL     1     -10.110  14.807  68.132  1.00  0.00    -0.215 OA 
BRANCH  17  18
HETATM   18  C   UNL     1     -11.311  14.187  67.652  1.00  0.00    -0.319 C  
HETATM   19  C   UNL     1     -10.821  13.318  64.947  1.00  0.00    -0.345 C  
HETATM   20  C   UNL     1     -10.878  14.766  65.423  1.00  0.00    -0.363 C  
HETATM   21  O   UNL     1     -11.807  14.897  66.506  1.00  0.00    -0.279 OA 
HETATM   22  N   UNL     1     -10.392  12.359  66.005  1.00  0.00    -0.245 NA 
HETATM   23  C   UNL     1     -11.214  12.640  67.246  1.00  0.00    -0.298 C  
BRANCH  22  24
HETATM   24  C   UNL     1     -10.660  10.978  65.511  1.00  0.00    -0.200 C  
BRANCH  24  25
HETATM   25  C   UNL     1      -9.383  10.258  65.146  1.00  0.00    -0.226 C  
HETATM   26  N   UNL     1      -9.269   8.928  65.313  1.00  0.00    -0.150 NA 
HETATM   27  N   UNL     1      -8.322  10.833  64.648  1.00  0.00    -0.363 NA 
HETATM   28  O   UNL     1      -7.546   7.480  64.791  1.00  0.00    -0.088 OA 
HETATM   29  C   UNL     1      -8.032   8.593  64.855  1.00  0.00    -0.138 C  
HETATM   30  N   UNL     1      -7.448   9.792  64.465  1.00  0.00    -0.129 NA 
HETATM   31  H   UNL     1      -8.177  11.822  64.443  1.00  0.00     0.000 HD 
ENDBRANCH  24  25
ENDBRANCH  22  24
BRANCH  23  32
HETATM   32  C   UNL     1     -10.924  11.682  68.405  1.00  0.00    -0.265 A  
HETATM   33  C   UNL     1     -10.548   9.720  70.389  1.00  0.00    -0.304 A  
HETATM   34  F   UNL     1     -10.368   8.761  71.304  1.00  0.00    -0.239 F  
HETATM   35  C   UNL     1      -9.644  11.175  68.673  1.00  0.00    -0.200 A  
HETATM   36  C   UNL     1     -11.819  10.225  70.163  1.00  0.00    -0.343 A  
HETATM   37  C   UNL     1      -9.459  10.195  69.659  1.00  0.00    -0.226 A  
HETATM   38  C   UNL     1     -12.006  11.202  69.181  1.00  0.00    -0.413 A  
ENDBRANCH  23  32
ENDBRANCH  17  18
ENDBRANCH   2  17
TORSDOF 6
ENDMDL
MODEL      183
REMARK 921   NORMALIZED FREE ENERGY PREDICTED BY IDOCK:   -5.41 KCAL/MOL
REMARK 922        TOTAL FREE ENERGY PREDICTED BY IDOCK:   -9.44 KCAL/MOL
REMARK 923 INTER-LIGAND FREE ENERGY PREDICTED BY IDOCK:   -9.10 KCAL/MOL
REMARK 924 INTRA-LIGAND FREE ENERGY PREDICTED BY IDOCK:   -0.35 KCAL/MOL
REMARK 927      BINDING AFFINITY PREDICTED BY RF-SCORE:    0.00 PKD
ROOT
HETATM    1  C   UNL     1     -10.476   7.756  66.716  1.00  0.00    -0.318 C  
HETATM    2  C   UNL     1      -9.486   7.921  67.879  1.00  0.00    -0.145 C  
ENDROOT
BRANCH   2   3
HETATM    3  C   UNL     1     -10.087   7.562  69.249  1.00  0.00    -0.188 A  
HETATM    4  C   UNL     1      -9.649   6.446  69.987  1.00  0.00    -0.171 A  
HETATM    5  C   UNL     1     -11.118   8.345  69.798  1.00  0.00    -0.062 A  
HETATM    6  F   UNL     1      -8.377   4.970  72.256  1.00  0.00    -0.112 F  
HETATM    7  F   UNL     1     -10.330   4.675  73.163  1.00  0.00    -0.175 F  
HETATM    8  C   UNL     1     -11.700   8.028  71.042  1.00  0.00    -0.295 A  
HETATM    9  C   UNL     1     -12.825   8.856  71.619  1.00  0.00    -0.349 C  
HETATM   10  C   UNL     1     -11.236   6.907  71.751  1.00  0.00    -0.284 A  
HETATM   11  F   UNL     1      -9.865   3.739  71.257  1.00  0.00    -0.227 F  
HETATM   12  F   UNL     1     -13.167   9.929  70.852  1.00  0.00    -0.403 F  
HETATM   13  F   UNL     1     -13.967   8.137  71.789  1.00  0.00    -0.363 F  
HETATM   14  F   UNL     1     -12.521   9.363  72.848  1.00  0.00    -0.223 F  
HETATM   15  C   UNL     1      -9.707   4.888  71.970  1.00  0.00    -0.166 C  
HETATM   16  C   UNL     1     -10.211   6.107  71.231  1.00  0.00    -0.252 A  
ENDBRANCH   2   3
BRANCH   2  17
HETATM   17  O   UNL     1      -8.747   9.168  67.816  1.00  0.00    -0.121 OA 
BRANCH  17  18
HETATM   18  C   UNL     1      -9.338  10.283  68.497  1.00  0.00    -0.155 C  
HETATM   19  C   UNL     1      -7.300  12.299  68.797  1.00  0.00    -0.083 C  
HETATM   20  C   UNL     1      -7.311  10.933  69.474  1.00  0.00    -0.093 C  
HETATM   21  O   UNL     1      -8.657  10.520  69.739  1.00  0.00    -0.065 OA 
HETATM   22  N   UNL     1      -8.025  12.325  67.494  1.00  0.00    -0.155 NA 
HETATM   23  C   UNL     1      -9.377  11.676  67.705  1.00  0.00    -0.178 C  
BRANCH  22  24
HETATM   24  C   UNL     1      -8.196  13.750  67.091  1.00  0.00    -0.108 C  
BRANCH  24  25
HETATM   25  C   UNL     1      -9.080  14.502  68.059  1.00  0.00    -0.185 C  
HETATM   26  N   UNL     1     -10.261  15.010  67.662  1.00  0.00    -0.235 NA 
HETATM   27  N   UNL     1      -8.798  14.709  69.316  1.00  0.00    -0.397 NA 
HETATM   28  O   UNL     1     -11.907  16.116  68.847  1.00  0.00    -0.338 OA 
HETATM   29  C   UNL     1     -10.820  15.578  68.765  1.00  0.00    -0.256 C  
HETATM   30  N   UNL     1      -9.888  15.400  69.780  1.00  0.00    -0.260 NA 
HETATM   31  H   UNL     1      -7.965  14.424  69.832  1.00  0.00     0.000 HD 
ENDBRANCH  24  25
ENDBRANCH  22  24
BRANCH  23  32
HETATM   32  C   UNL     1     -10.266  11.688  66.458  1.00  0.00    -0.249 A  
HETATM   33  C   UNL     1     -11.894  12.003  64.183  1.00  0.00    -0.373 A  
HETATM   34  F   UNL     1     -12.648  12.185  63.092  1.00  0.00    -0.621 F  
HETATM   35  C   UNL     1      -9.810  11.288  65.194  1.00  0.00    -0.298 A  
HETATM   36  C   UNL     1     -12.379  12.381  65.425  1.00  0.00    -0.308 A  
HETATM   37  C   UNL     1     -10.620  11.449  64.060  1.00  0.00    -0.444 A  
HETATM   38  C   UNL     1     -11.573  12.220  66.556  1.00  0.00    -0.440 A  
ENDBRANCH  23  32
ENDBRANCH  17  18
ENDBRANCH   2  17
TORSDOF 6
ENDMDL
MODEL      184
REMARK 921   NORMALIZED FREE ENERGY PREDICTED BY IDOCK:   -5.41 KCAL/MOL
REMARK 922        TOTAL FREE ENERGY PREDICTED BY IDOCK:   -9.44 KCAL/MOL
REMARK 923 INTER-LIGAND FREE ENERGY PREDICTED BY IDOCK:   -7.92 KCAL/MOL
REMARK 924 INTRA-LIGAND FREE ENERGY PREDICTED BY IDOCK:   -1.52 KCAL/MOL
REMARK 927      BINDING AFFINITY PREDICTED BY RF-SCORE:    0.00 PKD
ROOT
HETATM    1  C   UNL     1     -12.591  10.945  70.173  1.00  0.00    -0.304 C  
HETATM    2  C   UNL     1     -11.762  10.898  68.881  1.00  0.00    -0.306 C  
ENDROOT
BRANCH   2   3
HETATM    3  C   UNL     1     -10.510  10.011  68.989  1.00  0.00    -0.233 A  
HETATM    4  C   UNL     1      -9.817   9.555  67.852  1.00  0.00    -0.186 A  
HETATM    5  C   UNL     1     -10.031   9.613  70.251  1.00  0.00    -0.326 A  
HETATM    6  F   UNL     1      -7.535   9.300  65.936  1.00  0.00    -0.090 F  
HETATM    7  F   UNL     1      -6.902   7.472  66.928  1.00  0.00    -0.061 F  
HETATM    8  C   UNL     1      -8.897   8.786  70.379  1.00  0.00    -0.185 A  
HETATM    9  C   UNL     1      -8.398   8.339  71.735  1.00  0.00    -0.148 C  
HETATM   10  C   UNL     1      -8.229   8.351  69.222  1.00  0.00    -0.116 A  
HETATM   11  F   UNL     1      -8.805   7.536  65.881  1.00  0.00    -0.158 F  
HETATM   12  F   UNL     1      -9.112   8.847  72.778  1.00  0.00    -0.269 F  
HETATM   13  F   UNL     1      -8.429   6.987  71.881  1.00  0.00    -0.109 F  
HETATM   14  F   UNL     1      -7.104   8.707  71.959  1.00  0.00    -0.091 F  
HETATM   15  C   UNL     1      -7.988   8.261  66.693  1.00  0.00    -0.098 C  
HETATM   16  C   UNL     1      -8.683   8.728  67.952  1.00  0.00    -0.136 A  
ENDBRANCH   2   3
BRANCH   2  17
HETATM   17  O   UNL     1     -11.564  12.208  68.292  1.00  0.00    -0.283 OA 
BRANCH  17  18
HETATM   18  C   UNL     1     -11.036  12.224  66.958  1.00  0.00    -0.287 C  
HETATM   19  C   UNL     1     -11.837  14.708  65.734  1.00  0.00    -0.274 C  
HETATM   20  C   UNL     1     -12.769  13.573  66.144  1.00  0.00    -0.171 C  
HETATM   21  O   UNL     1     -12.107  12.310  66.006  1.00  0.00    -0.623 OA 
HETATM   22  N   UNL     1     -10.590  14.779  66.550  1.00  0.00    -0.293 NA 
HETATM   23  C   UNL     1      -9.993  13.389  66.607  1.00  0.00    -0.277 C  
BRANCH  22  24
HETATM   24  C   UNL     1      -9.649  15.716  65.872  1.00  0.00    -0.350 C  
BRANCH  24  25
HETATM   25  C   UNL     1      -9.741  17.111  66.446  1.00  0.00    -0.292 C  
HETATM   26  N   UNL     1      -8.646  17.884  66.558  1.00  0.00    -0.275 NA 
HETATM   27  N   UNL     1     -10.844  17.674  66.858  1.00  0.00    -0.127 NA 
HETATM   28  O   UNL     1      -8.400  20.065  67.280  1.00  0.00    -0.308 OA 
HETATM   29  C   UNL     1      -9.071  19.074  67.062  1.00  0.00    -0.294 C  
HETATM   30  N   UNL     1     -10.437  18.920  67.262  1.00  0.00    -0.416 NA 
HETATM   31  H   UNL     1     -11.786  17.281  66.875  1.00  0.00     0.000 HD 
ENDBRANCH  24  25
ENDBRANCH  22  24
BRANCH  23  32
HETATM   32  C   UNL     1      -8.664  13.320  67.364  1.00  0.00    -0.206 A  
HETATM   33  C   UNL     1      -6.379  13.133  68.998  1.00  0.00    -0.099 A  
HETATM   34  F   UNL     1      -5.311  13.016  69.795  1.00  0.00    -0.076 F  
HETATM   35  C   UNL     1      -7.723  12.301  67.159  1.00  0.00    -0.134 A  
HETATM   36  C   UNL     1      -7.281  14.165  69.204  1.00  0.00    -0.086 A  
HETATM   37  C   UNL     1      -6.587  12.207  67.976  1.00  0.00    -0.069 A  
HETATM   38  C   UNL     1      -8.414  14.261  68.390  1.00  0.00    -0.166 A  
ENDBRANCH  23  32
ENDBRANCH  17  18
ENDBRANCH   2  17
TORSDOF 6
ENDMDL
MODEL      185
REMARK 921   NORMALIZED FREE ENERGY PREDICTED BY IDOCK:   -5.38 KCAL/MOL
REMARK 922        TOTAL FREE ENERGY PREDICTED BY IDOCK:   -9.39 KCAL/MOL
REMARK 923 INTER-LIGAND FREE ENERGY PREDICTED BY IDOCK:   -6.69 KCAL/MOL
REMARK 924 INTRA-LIGAND FREE ENERGY PREDICTED BY IDOCK:   -2.70 KCAL/MOL
REMARK 927      BINDING AFFINITY PREDICTED BY RF-SCORE:    0.00 PKD
ROOT
HETATM    1  C   UNL     1      -6.907  14.136  68.832  1.00  0.00    -0.106 C  
HETATM    2  C   UNL     1      -7.512  12.787  68.419  1.00  0.00    -0.124 C  
ENDROOT
BRANCH   2   3
HETATM    3  C   UNL     1      -9.028  12.847  68.167  1.00  0.00    -0.202 A  
HETATM    4  C   UNL     1      -9.566  13.340  66.963  1.00  0.00    -0.243 A  
HETATM    5  C   UNL     1      -9.929  12.420  69.159  1.00  0.00     0.339 A  
HETATM    6  F   UNL     1     -11.033  13.245  64.358  1.00  0.00    -0.324 F  
HETATM    7  F   UNL     1     -12.830  13.974  65.341  1.00  0.00    -0.484 F  
HETATM    8  C   UNL     1     -11.323  12.482  68.963  1.00  0.00    -0.342 A  
HETATM    9  C   UNL     1     -12.290  12.045  70.039  1.00  0.00    -0.108 C  
HETATM   10  C   UNL     1     -11.824  12.978  67.747  1.00  0.00    -0.395 A  
HETATM   11  F   UNL     1     -11.073  15.246  65.207  1.00  0.00    -0.324 F  
HETATM   12  F   UNL     1     -11.683  11.560  71.159  1.00  0.00    -0.259 F  
HETATM   13  F   UNL     1     -13.095  13.059  70.458  1.00  0.00    -0.123 F  
HETATM   14  F   UNL     1     -13.129  11.057  69.616  1.00  0.00    -0.121 F  
HETATM   15  C   UNL     1     -11.471  13.963  65.431  1.00  0.00    -0.312 C  
HETATM   16  C   UNL     1     -10.953  13.413  66.740  1.00  0.00    -0.298 A  
ENDBRANCH   2   3
BRANCH   2  17
HETATM   17  O   UNL     1      -7.048  11.686  69.242  1.00  0.00    -0.109 OA 
BRANCH  17  18
HETATM   18  C   UNL     1      -6.172  10.748  68.601  1.00  0.00    -0.043 C  
HETATM   19  C   UNL     1      -6.418   8.237  69.994  1.00  0.00    -0.035 C  
HETATM   20  C   UNL     1      -5.829   9.521  70.567  1.00  0.00    -0.056 C  
HETATM   21  O   UNL     1      -5.187  10.278  69.534  1.00  0.00    -0.038 OA 
HETATM   22  N   UNL     1      -7.436   8.470  68.930  1.00  0.00    -0.089 NA 
HETATM   23  C   UNL     1      -6.854   9.457  67.940  1.00  0.00    -0.075 C  
BRANCH  22  24
HETATM   24  C   UNL     1      -7.707   7.167  68.258  1.00  0.00    -0.120 C  
BRANCH  24  25
HETATM   25  C   UNL     1      -8.865   6.438  68.901  1.00  0.00    -0.125 C  
HETATM   26  N   UNL     1     -10.034   7.065  69.126  1.00  0.00    -0.162 NA 
HETATM   27  N   UNL     1      -8.842   5.187  69.270  1.00  0.00    -0.095 NA 
HETATM   28  O   UNL     1     -12.031   6.278  69.981  1.00  0.00    -0.256 OA 
HETATM   29  C   UNL     1     -10.866   6.133  69.666  1.00  0.00    -0.356 C  
HETATM   30  N   UNL     1     -10.102   4.976  69.768  1.00  0.00    -0.252 NA 
HETATM   31  H   UNL     1      -8.070   4.523  69.204  1.00  0.00     0.000 HD 
ENDBRANCH  24  25
ENDBRANCH  22  24
BRANCH  23  32
HETATM   32  C   UNL     1      -7.771   9.747  66.748  1.00  0.00    -0.098 A  
HETATM   33  C   UNL     1      -9.358  10.027  64.440  1.00  0.00    -0.290 A  
HETATM   34  F   UNL     1     -10.116  10.122  63.342  1.00  0.00    -0.269 F  
HETATM   35  C   UNL     1      -9.169   9.705  66.836  1.00  0.00    -0.172 A  
HETATM   36  C   UNL     1      -7.978  10.099  64.330  1.00  0.00    -0.153 A  
HETATM   37  C   UNL     1      -9.959   9.841  65.684  1.00  0.00    -0.352 A  
HETATM   38  C   UNL     1      -7.189   9.964  65.477  1.00  0.00    -0.122 A  
ENDBRANCH  23  32
ENDBRANCH  17  18
ENDBRANCH   2  17
TORSDOF 6
ENDMDL
MODEL      186
REMARK 921   NORMALIZED FREE ENERGY PREDICTED BY IDOCK:   -5.37 KCAL/MOL
REMARK 922        TOTAL FREE ENERGY PREDICTED BY IDOCK:   -9.38 KCAL/MOL
REMARK 923 INTER-LIGAND FREE ENERGY PREDICTED BY IDOCK:   -8.47 KCAL/MOL
REMARK 924 INTRA-LIGAND FREE ENERGY PREDICTED BY IDOCK:   -0.91 KCAL/MOL
REMARK 927      BINDING AFFINITY PREDICTED BY RF-SCORE:    0.00 PKD
ROOT
HETATM    1  C   UNL     1     -12.370   9.473  71.522  1.00  0.00    -0.465 C  
HETATM    2  C   UNL     1     -11.218   9.784  70.556  1.00  0.00    -0.315 C  
ENDROOT
BRANCH   2   3
HETATM    3  C   UNL     1     -11.446  11.055  69.720  1.00  0.00    -0.387 A  
HETATM    4  C   UNL     1     -11.766  12.291  70.312  1.00  0.00    -0.223 A  
HETATM    5  C   UNL     1     -11.356  11.006  68.317  1.00  0.00    -0.366 A  
HETATM    6  F   UNL     1     -11.376  15.147  71.108  1.00  0.00    -0.313 F  
HETATM    7  F   UNL     1     -12.535  15.789  69.385  1.00  0.00    -0.327 F  
HETATM    8  C   UNL     1     -11.579  12.150  67.525  1.00  0.00    -0.413 A  
HETATM    9  C   UNL     1     -11.506  12.090  66.016  1.00  0.00    -0.338 C  
HETATM   10  C   UNL     1     -11.895  13.368  68.151  1.00  0.00    -0.396 A  
HETATM   11  F   UNL     1     -13.489  14.654  70.974  1.00  0.00    -0.398 F  
HETATM   12  F   UNL     1     -11.167  10.863  65.531  1.00  0.00    -0.175 F  
HETATM   13  F   UNL     1     -12.688  12.415  65.424  1.00  0.00    -0.479 F  
HETATM   14  F   UNL     1     -10.586  12.957  65.505  1.00  0.00    -0.268 F  
HETATM   15  C   UNL     1     -12.346  14.745  70.240  1.00  0.00    -0.345 C  
HETATM   16  C   UNL     1     -11.993  13.449  69.546  1.00  0.00    -0.377 A  
ENDBRANCH   2   3
BRANCH   2  17
HETATM   17  O   UNL     1     -10.766   8.616  69.825  1.00  0.00    -0.228 OA 
BRANCH  17  18
HETATM   18  C   UNL     1      -9.345   8.442  69.735  1.00  0.00    -0.158 C  
HETATM   19  C   UNL     1      -8.532   6.758  71.928  1.00  0.00    -0.116 C  
HETATM   20  C   UNL     1      -9.096   8.169  72.048  1.00  0.00    -0.180 C  
HETATM   21  O   UNL     1      -8.710   8.957  70.915  1.00  0.00    -0.172 OA 
HETATM   22  N   UNL     1      -8.999   6.030  70.713  1.00  0.00    -0.148 NA 
HETATM   23  C   UNL     1      -8.811   6.946  69.523  1.00  0.00    -0.133 C  
BRANCH  22  24
HETATM   24  C   UNL     1      -8.162   4.806  70.559  1.00  0.00    -0.090 C  
BRANCH  24  25
HETATM   25  C   UNL     1      -8.934   3.555  70.910  1.00  0.00    -0.096 C  
HETATM   26  N   UNL     1      -9.218   3.256  72.191  1.00  0.00    -0.105 NA 
HETATM   27  N   UNL     1      -9.385   2.692  70.041  1.00  0.00    -0.134 NA 
HETATM   28  O   UNL     1     -10.437   1.519  73.105  1.00  0.00    -0.098 OA 
HETATM   29  C   UNL     1      -9.948   2.107  72.160  1.00  0.00    -0.160 C  
HETATM   30  N   UNL     1     -10.025   1.759  70.817  1.00  0.00     0.032 NA 
HETATM   31  H   UNL     1      -9.286   2.707  69.026  1.00  0.00     0.000 HD 
ENDBRANCH  24  25
ENDBRANCH  22  24
BRANCH  23  32
HETATM   32  C   UNL     1      -9.192   6.305  68.186  1.00  0.00    -0.110 A  
HETATM   33  C   UNL     1      -9.676   4.934  65.774  1.00  0.00    -0.169 A  
HETATM   34  F   UNL     1      -9.895   4.250  64.646  1.00  0.00    -0.162 F  
HETATM   35  C   UNL     1     -10.390   5.602  67.993  1.00  0.00    -0.258 A  
HETATM   36  C   UNL     1      -8.496   5.644  65.930  1.00  0.00    -0.136 A  
HETATM   37  C   UNL     1     -10.628   4.916  66.793  1.00  0.00    -0.156 A  
HETATM   38  C   UNL     1      -8.257   6.329  67.125  1.00  0.00    -0.109 A  
ENDBRANCH  23  32
ENDBRANCH  17  18
ENDBRANCH   2  17
TORSDOF 6
ENDMDL
MODEL      187
REMARK 921   NORMALIZED FREE ENERGY PREDICTED BY IDOCK:   -5.32 KCAL/MOL
REMARK 922        TOTAL FREE ENERGY PREDICTED BY IDOCK:   -9.32 KCAL/MOL
REMARK 923 INTER-LIGAND FREE ENERGY PREDICTED BY IDOCK:   -6.63 KCAL/MOL
REMARK 924 INTRA-LIGAND FREE ENERGY PREDICTED BY IDOCK:   -2.69 KCAL/MOL
REMARK 927      BINDING AFFINITY PREDICTED BY RF-SCORE:    0.00 PKD
ROOT
HETATM    1  C   UNL     1      -5.397   8.718  71.096  1.00  0.00    -0.033 C  
HETATM    2  C   UNL     1      -6.640   9.375  70.478  1.00  0.00    -0.084 C  
ENDROOT
BRANCH   2   3
HETATM    3  C   UNL     1      -7.956   8.677  70.863  1.00  0.00    -0.137 A  
HETATM    4  C   UNL     1      -8.003   7.316  71.220  1.00  0.00    -0.098 A  
HETATM    5  C   UNL     1      -9.167   9.392  70.849  1.00  0.00    -0.242 A  
HETATM    6  F   UNL     1      -8.411   4.948  73.000  1.00  0.00    -0.105 F  
HETATM    7  F   UNL     1     -10.428   4.709  72.223  1.00  0.00    -0.243 F  
HETATM    8  C   UNL     1     -10.390   8.773  71.179  1.00  0.00    -0.315 A  
HETATM    9  C   UNL     1     -11.695   9.536  71.139  1.00  0.00    -0.363 C  
HETATM   10  C   UNL     1     -10.398   7.413  71.531  1.00  0.00    -0.216 A  
HETATM   11  F   UNL     1      -8.717   4.421  70.913  1.00  0.00    -0.091 F  
HETATM   12  F   UNL     1     -11.552  10.851  70.809  1.00  0.00    -0.384 F  
HETATM   13  F   UNL     1     -12.575   9.016  70.242  1.00  0.00     0.105 F  
HETATM   14  F   UNL     1     -12.340   9.525  72.341  1.00  0.00    -0.391 F  
HETATM   15  C   UNL     1      -9.197   5.206  71.917  1.00  0.00    -0.137 C  
HETATM   16  C   UNL     1      -9.209   6.674  71.553  1.00  0.00    -0.146 A  
ENDBRANCH   2   3
BRANCH   2  17
HETATM   17  O   UNL     1      -6.472   9.685  69.071  1.00  0.00    -0.045 OA 
BRANCH  17  18
HETATM   18  C   UNL     1      -7.588  10.318  68.430  1.00  0.00    -0.092 C  
HETATM   19  C   UNL     1      -6.826  10.876  65.707  1.00  0.00     0.014 C  
HETATM   20  C   UNL     1      -6.228  11.522  66.952  1.00  0.00    -0.143 C  
HETATM   21  O   UNL     1      -7.218  11.631  67.981  1.00  0.00    -0.075 OA 
HETATM   22  N   UNL     1      -7.357   9.503  65.944  1.00  0.00    -0.095 NA 
HETATM   23  C   UNL     1      -8.233   9.552  67.178  1.00  0.00    -0.113 C  
BRANCH  22  24
HETATM   24  C   UNL     1      -8.164   9.110  64.755  1.00  0.00    -0.149 C  
BRANCH  24  25
HETATM   25  C   UNL     1      -8.979  10.268  64.226  1.00  0.00    -0.234 C  
HETATM   26  N   UNL     1     -10.118  10.645  64.835  1.00  0.00    -0.318 NA 
HETATM   27  N   UNL     1      -8.661  10.985  63.183  1.00  0.00    -0.406 NA 
HETATM   28  O   UNL     1     -11.562  12.394  64.394  1.00  0.00    -0.321 OA 
HETATM   29  C   UNL     1     -10.576  11.726  64.147  1.00  0.00    -0.353 C  
HETATM   30  N   UNL     1      -9.669  11.912  63.111  1.00  0.00    -0.366 NA 
HETATM   31  H   UNL     1      -7.854  10.881  62.568  1.00  0.00     0.000 HD 
ENDBRANCH  24  25
ENDBRANCH  22  24
BRANCH  23  32
HETATM   32  C   UNL     1      -8.903   8.216  67.511  1.00  0.00    -0.137 A  
HETATM   33  C   UNL     1     -10.252   5.768  67.852  1.00  0.00    -0.187 A  
HETATM   34  F   UNL     1     -10.886   4.597  67.976  1.00  0.00     0.110 F  
HETATM   35  C   UNL     1      -8.185   7.023  67.672  1.00  0.00    -0.117 A  
HETATM   36  C   UNL     1     -10.985   6.937  67.722  1.00  0.00    -0.280 A  
HETATM   37  C   UNL     1      -8.858   5.803  67.837  1.00  0.00    -0.108 A  
HETATM   38  C   UNL     1     -10.316   8.154  67.557  1.00  0.00    -0.330 A  
ENDBRANCH  23  32
ENDBRANCH  17  18
ENDBRANCH   2  17
TORSDOF 6
ENDMDL
MODEL      188
REMARK 921   NORMALIZED FREE ENERGY PREDICTED BY IDOCK:   -5.31 KCAL/MOL
REMARK 922        TOTAL FREE ENERGY PREDICTED BY IDOCK:   -9.31 KCAL/MOL
REMARK 923 INTER-LIGAND FREE ENERGY PREDICTED BY IDOCK:   -9.72 KCAL/MOL
REMARK 924 INTRA-LIGAND FREE ENERGY PREDICTED BY IDOCK:    0.41 KCAL/MOL
REMARK 927      BINDING AFFINITY PREDICTED BY RF-SCORE:    0.00 PKD
ROOT
HETATM    1  C   UNL     1     -13.041  10.676  70.463  1.00  0.00    -0.177 C  
HETATM    2  C   UNL     1     -12.014  11.448  69.622  1.00  0.00    -0.348 C  
ENDROOT
BRANCH   2   3
HETATM    3  C   UNL     1     -11.873  12.923  70.032  1.00  0.00    -0.356 A  
HETATM    4  C   UNL     1     -12.421  13.422  71.230  1.00  0.00    -0.368 A  
HETATM    5  C   UNL     1     -11.194  13.829  69.197  1.00  0.00    -0.307 A  
HETATM    6  F   UNL     1     -12.421  14.607  73.976  1.00  0.00    -0.610 F  
HETATM    7  F   UNL     1     -12.742  16.582  73.126  1.00  0.00    -0.472 F  
HETATM    8  C   UNL     1     -11.066  15.191  69.539  1.00  0.00    -0.287 A  
HETATM    9  C   UNL     1     -10.358  16.168  68.628  1.00  0.00    -0.252 C  
HETATM   10  C   UNL     1     -11.625  15.652  70.742  1.00  0.00    -0.412 A  
HETATM   11  F   UNL     1     -14.274  15.054  72.929  1.00  0.00    -0.447 F  
HETATM   12  F   UNL     1      -9.838  15.595  67.506  1.00  0.00    -0.222 F  
HETATM   13  F   UNL     1     -11.178  17.164  68.195  1.00  0.00    -0.361 F  
HETATM   14  F   UNL     1      -9.313  16.790  69.244  1.00  0.00    -0.260 F  
HETATM   15  C   UNL     1     -12.928  15.254  72.888  1.00  0.00    -0.463 C  
HETATM   16  C   UNL     1     -12.307  14.776  71.595  1.00  0.00    -0.409 A  
ENDBRANCH   2   3
BRANCH   2  17
HETATM   17  O   UNL     1     -12.145  11.193  68.201  1.00  0.00    -0.633 OA 
BRANCH  17  18
HETATM   18  C   UNL     1     -11.228  10.241  67.645  1.00  0.00    -0.158 C  
HETATM   19  C   UNL     1      -8.660  11.532  67.425  1.00  0.00    -0.145 C  
HETATM   20  C   UNL     1      -9.912  11.896  66.635  1.00  0.00    -0.199 C  
HETATM   21  O   UNL     1     -10.708  10.727  66.398  1.00  0.00    -0.234 OA 
HETATM   22  N   UNL     1      -8.949  10.927  68.757  1.00  0.00    -0.168 NA 
HETATM   23  C   UNL     1      -9.973   9.830  68.555  1.00  0.00    -0.160 C  
BRANCH  22  24
HETATM   24  C   UNL     1      -7.680  10.354  69.288  1.00  0.00    -0.140 C  
BRANCH  24  25
HETATM   25  C   UNL     1      -7.135   9.272  68.384  1.00  0.00    -0.072 C  
HETATM   26  N   UNL     1      -6.481   9.584  67.251  1.00  0.00    -0.069 NA 
HETATM   27  N   UNL     1      -7.237   7.991  68.615  1.00  0.00    -0.079 NA 
HETATM   28  O   UNL     1      -5.436   8.240  65.688  1.00  0.00    -0.032 OA 
HETATM   29  C   UNL     1      -6.090   8.402  66.700  1.00  0.00    -0.053 C  
HETATM   30  N   UNL     1      -6.586   7.421  67.550  1.00  0.00    -0.059 NA 
HETATM   31  H   UNL     1      -7.691   7.525  69.400  1.00  0.00     0.000 HD 
ENDBRANCH  24  25
ENDBRANCH  22  24
BRANCH  23  32
HETATM   32  C   UNL     1     -10.323   9.070  69.838  1.00  0.00    -0.219 A  
HETATM   33  C   UNL     1     -10.804   7.454  72.092  1.00  0.00    -0.235 A  
HETATM   34  F   UNL     1     -10.995   6.671  73.159  1.00  0.00    -0.250 F  
HETATM   35  C   UNL     1      -9.844   9.448  71.100  1.00  0.00    -0.287 A  
HETATM   36  C   UNL     1     -11.311   7.072  70.859  1.00  0.00    -0.334 A  
HETATM   37  C   UNL     1     -10.081   8.639  72.222  1.00  0.00    -0.363 A  
HETATM   38  C   UNL     1     -11.077   7.877  69.740  1.00  0.00    -0.079 A  
ENDBRANCH  23  32
ENDBRANCH  17  18
ENDBRANCH   2  17
TORSDOF 6
ENDMDL
MODEL      189
REMARK 921   NORMALIZED FREE ENERGY PREDICTED BY IDOCK:   -5.26 KCAL/MOL
REMARK 922        TOTAL FREE ENERGY PREDICTED BY IDOCK:   -9.24 KCAL/MOL
REMARK 923 INTER-LIGAND FREE ENERGY PREDICTED BY IDOCK:   -7.57 KCAL/MOL
REMARK 924 INTRA-LIGAND FREE ENERGY PREDICTED BY IDOCK:   -1.68 KCAL/MOL
REMARK 927      BINDING AFFINITY PREDICTED BY RF-SCORE:    0.00 PKD
ROOT
HETATM    1  C   UNL     1      -6.950  10.601  70.114  1.00  0.00    -0.073 C  
HETATM    2  C   UNL     1      -7.844   9.433  69.672  1.00  0.00    -0.105 C  
ENDROOT
BRANCH   2   3
HETATM    3  C   UNL     1      -8.961   9.103  70.677  1.00  0.00    -0.292 A  
HETATM    4  C   UNL     1      -8.776   8.181  71.725  1.00  0.00    -0.199 A  
HETATM    5  C   UNL     1     -10.222   9.714  70.559  1.00  0.00    -0.351 A  
HETATM    6  F   UNL     1      -8.528   7.236  74.551  1.00  0.00    -0.181 F  
HETATM    7  F   UNL     1     -10.620   6.647  74.540  1.00  0.00    -0.339 F  
HETATM    8  C   UNL     1     -11.270   9.417  71.455  1.00  0.00    -0.452 A  
HETATM    9  C   UNL     1     -12.633  10.055  71.312  1.00  0.00    -0.393 C  
HETATM   10  C   UNL     1     -11.048   8.492  72.489  1.00  0.00    -0.328 A  
HETATM   11  F   UNL     1      -9.200   5.633  73.245  1.00  0.00    -0.132 F  
HETATM   12  F   UNL     1     -12.715  10.952  70.289  1.00  0.00    -0.368 F  
HETATM   13  F   UNL     1     -13.616   9.141  71.090  1.00  0.00    -0.367 F  
HETATM   14  F   UNL     1     -13.007  10.737  72.432  1.00  0.00    -0.495 F  
HETATM   15  C   UNL     1      -9.547   6.858  73.729  1.00  0.00    -0.225 C  
HETATM   16  C   UNL     1      -9.803   7.866  72.632  1.00  0.00    -0.316 A  
ENDBRANCH   2   3
BRANCH   2  17
HETATM   17  O   UNL     1      -7.085   8.303  69.172  1.00  0.00    -0.061 OA 
BRANCH  17  18
HETATM   18  C   UNL     1      -6.409   8.503  67.923  1.00  0.00    -0.057 C  
HETATM   19  C   UNL     1      -6.437   5.994  66.505  1.00  0.00    -0.046 C  
HETATM   20  C   UNL     1      -5.688   6.278  67.802  1.00  0.00    -0.009 C  
HETATM   21  O   UNL     1      -5.261   7.645  67.841  1.00  0.00    -0.027 OA 
HETATM   22  N   UNL     1      -7.656   6.835  66.323  1.00  0.00    -0.084 NA 
HETATM   23  C   UNL     1      -7.269   8.274  66.590  1.00  0.00    -0.081 C  
BRANCH  22  24
HETATM   24  C   UNL     1      -8.117   6.678  64.915  1.00  0.00    -0.115 C  
BRANCH  24  25
HETATM   25  C   UNL     1      -8.867   5.381  64.714  1.00  0.00    -0.020 C  
HETATM   26  N   UNL     1      -8.499   4.513  63.755  1.00  0.00    -0.116 NA 
HETATM   27  N   UNL     1      -9.889   4.995  65.429  1.00  0.00    -0.362 NA 
HETATM   28  O   UNL     1      -9.317   2.421  63.211  1.00  0.00    -0.091 OA 
HETATM   29  C   UNL     1      -9.336   3.446  63.867  1.00  0.00    -0.126 C  
HETATM   30  N   UNL     1     -10.207   3.771  64.899  1.00  0.00    -0.155 NA 
HETATM   31  H   UNL     1     -10.342   5.487  66.199  1.00  0.00     0.000 HD 
ENDBRANCH  24  25
ENDBRANCH  22  24
BRANCH  23  32
HETATM   32  C   UNL     1      -8.414   9.269  66.378  1.00  0.00    -0.128 A  
HETATM   33  C   UNL     1     -10.522  11.132  66.280  1.00  0.00    -0.259 A  
HETATM   34  F   UNL     1     -11.508  12.036  66.264  1.00  0.00    -0.349 F  
HETATM   35  C   UNL     1      -8.236  10.514  65.758  1.00  0.00    -0.160 A  
HETATM   36  C   UNL     1     -10.731   9.898  66.875  1.00  0.00    -0.195 A  
HETATM   37  C   UNL     1      -9.286  11.443  65.714  1.00  0.00    -0.247 A  
HETATM   38  C   UNL     1      -9.686   8.970  66.920  1.00  0.00    -0.260 A  
ENDBRANCH  23  32
ENDBRANCH  17  18
ENDBRANCH   2  17
TORSDOF 6
ENDMDL
MODEL      190
REMARK 921   NORMALIZED FREE ENERGY PREDICTED BY IDOCK:   -5.24 KCAL/MOL
REMARK 922        TOTAL FREE ENERGY PREDICTED BY IDOCK:   -9.21 KCAL/MOL
REMARK 923 INTER-LIGAND FREE ENERGY PREDICTED BY IDOCK:   -7.74 KCAL/MOL
REMARK 924 INTRA-LIGAND FREE ENERGY PREDICTED BY IDOCK:   -1.46 KCAL/MOL
REMARK 927      BINDING AFFINITY PREDICTED BY RF-SCORE:    0.00 PKD
ROOT
HETATM    1  C   UNL     1      -8.962   8.419  65.438  1.00  0.00    -0.103 C  
HETATM    2  C   UNL     1      -9.619   9.454  66.363  1.00  0.00    -0.224 C  
ENDROOT
BRANCH   2   3
HETATM    3  C   UNL     1     -10.080   8.867  67.708  1.00  0.00    -0.263 A  
HETATM    4  C   UNL     1      -9.735   7.563  68.112  1.00  0.00    -0.167 A  
HETATM    5  C   UNL     1     -10.886   9.628  68.575  1.00  0.00    -0.202 A  
HETATM    6  F   UNL     1      -8.426   5.449  69.775  1.00  0.00    -0.094 F  
HETATM    7  F   UNL     1     -10.262   5.206  70.915  1.00  0.00    -0.252 F  
HETATM    8  C   UNL     1     -11.338   9.108  69.805  1.00  0.00     0.011 A  
HETATM    9  C   UNL     1     -12.224   9.918  70.723  1.00  0.00    -0.291 C  
HETATM   10  C   UNL     1     -10.972   7.803  70.175  1.00  0.00    -0.246 A  
HETATM   11  F   UNL     1     -10.217   4.686  68.805  1.00  0.00    -0.225 F  
HETATM   12  F   UNL     1     -12.486  11.174  70.266  1.00  0.00    -0.346 F  
HETATM   13  F   UNL     1     -13.435   9.332  70.927  1.00  0.00    -0.292 F  
HETATM   14  F   UNL     1     -11.678  10.081  71.962  1.00  0.00    -0.363 F  
HETATM   15  C   UNL     1      -9.778   5.608  69.706  1.00  0.00    -0.167 C  
HETATM   16  C   UNL     1     -10.172   7.020  69.334  1.00  0.00    -0.197 A  
ENDBRANCH   2   3
BRANCH   2  17
HETATM   17  O   UNL     1     -10.579  10.295  65.675  1.00  0.00    -0.134 OA 
BRANCH  17  18
HETATM   18  C   UNL     1     -10.072  11.533  65.158  1.00  0.00    -0.268 C  
HETATM   19  C   UNL     1     -11.837  13.633  66.042  1.00  0.00    -0.385 C  
HETATM   20  C   UNL     1     -12.195  12.518  65.066  1.00  0.00    -0.456 C  
HETATM   21  O   UNL     1     -11.046  12.142  64.297  1.00  0.00    -0.305 OA 
HETATM   22  N   UNL     1     -10.770  13.256  67.013  1.00  0.00    -0.259 NA 
HETATM   23  C   UNL     1      -9.630  12.638  66.231  1.00  0.00    -0.244 C  
BRANCH  22  24
HETATM   24  C   UNL     1     -10.311  14.498  67.698  1.00  0.00    -0.237 C  
BRANCH  24  25
HETATM   25  C   UNL     1     -11.018  14.700  69.018  1.00  0.00    -0.258 C  
HETATM   26  N   UNL     1     -12.203  15.333  69.076  1.00  0.00    -0.189 NA 
HETATM   27  N   UNL     1     -10.568  14.288  70.173  1.00  0.00    -0.276 NA 
HETATM   28  O   UNL     1     -13.615  15.742  70.859  1.00  0.00    -0.538 OA 
HETATM   29  C   UNL     1     -12.583  15.310  70.383  1.00  0.00    -0.375 C  
HETATM   30  N   UNL     1     -11.545  14.675  71.054  1.00  0.00    -0.271 NA 
HETATM   31  H   UNL     1      -9.697  13.796  70.372  1.00  0.00     0.000 HD 
ENDBRANCH  24  25
ENDBRANCH  22  24
BRANCH  23  32
HETATM   32  C   UNL     1      -8.425  12.256  67.096  1.00  0.00    -0.184 A  
HETATM   33  C   UNL     1      -6.361  11.313  68.762  1.00  0.00    -0.051 A  
HETATM   34  F   UNL     1      -5.390  10.828  69.544  1.00  0.00    -0.038 F  
HETATM   35  C   UNL     1      -7.186  11.886  66.555  1.00  0.00     0.180 A  
HETATM   36  C   UNL     1      -7.568  11.698  69.325  1.00  0.00     0.121 A  
HETATM   37  C   UNL     1      -6.160  11.413  67.386  1.00  0.00    -0.074 A  
HETATM   38  C   UNL     1      -8.592  12.171  68.498  1.00  0.00    -0.079 A  
ENDBRANCH  23  32
ENDBRANCH  17  18
ENDBRANCH   2  17
TORSDOF 6
ENDMDL
MODEL      191
REMARK 921   NORMALIZED FREE ENERGY PREDICTED BY IDOCK:   -5.23 KCAL/MOL
REMARK 922        TOTAL FREE ENERGY PREDICTED BY IDOCK:   -9.19 KCAL/MOL
REMARK 923 INTER-LIGAND FREE ENERGY PREDICTED BY IDOCK:   -8.01 KCAL/MOL
REMARK 924 INTRA-LIGAND FREE ENERGY PREDICTED BY IDOCK:   -1.18 KCAL/MOL
REMARK 927      BINDING AFFINITY PREDICTED BY RF-SCORE:    0.00 PKD
ROOT
HETATM    1  C   UNL     1      -8.681   9.130  62.707  1.00  0.00    -0.190 C  
HETATM    2  C   UNL     1      -8.887   9.441  64.197  1.00  0.00    -0.182 C  
ENDROOT
BRANCH   2   3
HETATM    3  C   UNL     1      -8.705   8.215  65.108  1.00  0.00    -0.047 A  
HETATM    4  C   UNL     1      -9.503   8.006  66.249  1.00  0.00    -0.241 A  
HETATM    5  C   UNL     1      -7.706   7.265  64.826  1.00  0.00    -0.115 A  
HETATM    6  F   UNL     1     -11.525   6.652  67.987  1.00  0.00    -0.289 F  
HETATM    7  F   UNL     1      -9.930   5.614  69.038  1.00  0.00    -0.163 F  
HETATM    8  C   UNL     1      -7.504   6.142  65.654  1.00  0.00    -0.082 A  
HETATM    9  C   UNL     1      -6.415   5.135  65.364  1.00  0.00    -0.036 C  
HETATM   10  C   UNL     1      -8.321   5.967  66.784  1.00  0.00    -0.109 A  
HETATM   11  F   UNL     1     -10.096   7.777  69.178  1.00  0.00    -0.176 F  
HETATM   12  F   UNL     1      -5.710   5.402  64.228  1.00  0.00    -0.015 F  
HETATM   13  F   UNL     1      -5.498   5.057  66.366  1.00  0.00    -0.013 F  
HETATM   14  F   UNL     1      -6.903   3.872  65.208  1.00  0.00    -0.047 F  
HETATM   15  C   UNL     1     -10.204   6.733  68.311  1.00  0.00    -0.175 C  
HETATM   16  C   UNL     1      -9.323   6.895  67.092  1.00  0.00    -0.162 A  
ENDBRANCH   2   3
BRANCH   2  17
HETATM   17  O   UNL     1     -10.066  10.248  64.446  1.00  0.00    -0.324 OA 
BRANCH  17  18
HETATM   18  C   UNL     1      -9.937  11.650  64.175  1.00  0.00    -0.277 C  
HETATM   19  C   UNL     1     -12.541  12.843  64.495  1.00  0.00    -0.350 C  
HETATM   20  C   UNL     1     -12.144  11.844  63.414  1.00  0.00    -0.432 C  
HETATM   21  O   UNL     1     -10.766  12.015  63.060  1.00  0.00    -0.294 OA 
HETATM   22  N   UNL     1     -11.751  12.707  65.752  1.00  0.00    -0.396 NA 
HETATM   23  C   UNL     1     -10.285  12.654  65.374  1.00  0.00    -0.284 C  
BRANCH  22  24
HETATM   24  C   UNL     1     -12.021  13.905  66.597  1.00  0.00    -0.442 C  
BRANCH  24  25
HETATM   25  C   UNL     1     -11.530  15.174  65.939  1.00  0.00    -0.159 C  
HETATM   26  N   UNL     1     -10.696  16.008  66.586  1.00  0.00    -0.289 NA 
HETATM   27  N   UNL     1     -11.848  15.556  64.732  1.00  0.00    -0.180 NA 
HETATM   28  O   UNL     1      -9.668  17.958  65.893  1.00  0.00    -0.530 OA 
HETATM   29  C   UNL     1     -10.415  17.016  65.715  1.00  0.00    -0.251 C  
HETATM   30  N   UNL     1     -11.156  16.730  64.574  1.00  0.00    -1.039 NA 
HETATM   31  H   UNL     1     -12.463  15.092  64.064  1.00  0.00     0.000 HD 
ENDBRANCH  24  25
ENDBRANCH  22  24
BRANCH  23  32
HETATM   32  C   UNL     1      -9.342  12.578  66.578  1.00  0.00    -0.233 A  
HETATM   33  C   UNL     1      -7.528  12.174  68.693  1.00  0.00    -0.105 A  
HETATM   34  F   UNL     1      -6.642  11.963  69.673  1.00  0.00    -0.106 F  
HETATM   35  C   UNL     1      -8.204  13.388  66.705  1.00  0.00     0.167 A  
HETATM   36  C   UNL     1      -8.659  11.378  68.604  1.00  0.00    -0.126 A  
HETATM   37  C   UNL     1      -7.299  13.183  67.757  1.00  0.00    -0.143 A  
HETATM   38  C   UNL     1      -9.563  11.581  67.557  1.00  0.00    -0.179 A  
ENDBRANCH  23  32
ENDBRANCH  17  18
ENDBRANCH   2  17
TORSDOF 6
ENDMDL
MODEL      192
REMARK 921   NORMALIZED FREE ENERGY PREDICTED BY IDOCK:   -5.22 KCAL/MOL
REMARK 922        TOTAL FREE ENERGY PREDICTED BY IDOCK:   -9.18 KCAL/MOL
REMARK 923 INTER-LIGAND FREE ENERGY PREDICTED BY IDOCK:   -8.45 KCAL/MOL
REMARK 924 INTRA-LIGAND FREE ENERGY PREDICTED BY IDOCK:   -0.72 KCAL/MOL
REMARK 927      BINDING AFFINITY PREDICTED BY RF-SCORE:    0.00 PKD
ROOT
HETATM    1  C   UNL     1     -12.539  11.512  69.619  1.00  0.00     0.048 C  
HETATM    2  C   UNL     1     -11.339  11.098  68.755  1.00  0.00    -0.277 C  
ENDROOT
BRANCH   2   3
HETATM    3  C   UNL     1     -10.722   9.751  69.169  1.00  0.00    -0.242 A  
HETATM    4  C   UNL     1     -10.486   9.420  70.517  1.00  0.00    -0.335 A  
HETATM    5  C   UNL     1     -10.357   8.809  68.191  1.00  0.00    -0.266 A  
HETATM    6  F   UNL     1     -10.818   7.924  73.085  1.00  0.00    -0.393 F  
HETATM    7  F   UNL     1      -9.103   6.685  72.587  1.00  0.00    -0.134 F  
HETATM    8  C   UNL     1      -9.772   7.574  68.540  1.00  0.00    -0.159 A  
HETATM    9  C   UNL     1      -9.358   6.573  67.487  1.00  0.00    -0.122 C  
HETATM   10  C   UNL     1      -9.553   7.278  69.896  1.00  0.00    -0.163 A  
HETATM   11  F   UNL     1      -8.838   8.812  72.945  1.00  0.00    -0.279 F  
HETATM   12  F   UNL     1      -9.646   6.964  66.214  1.00  0.00    -0.207 F  
HETATM   13  F   UNL     1      -8.021   6.318  67.508  1.00  0.00    -0.103 F  
HETATM   14  F   UNL     1      -9.968   5.365  67.649  1.00  0.00    -0.136 F  
HETATM   15  C   UNL     1      -9.665   7.904  72.358  1.00  0.00    -0.213 C  
HETATM   16  C   UNL     1      -9.905   8.197  70.894  1.00  0.00    -0.203 A  
ENDBRANCH   2   3
BRANCH   2  17
HETATM   17  O   UNL     1     -10.404  12.184  68.533  1.00  0.00    -0.220 OA 
BRANCH  17  18
HETATM   18  C   UNL     1      -9.723  12.180  67.271  1.00  0.00    -0.191 C  
HETATM   19  C   UNL     1     -11.199  13.889  65.480  1.00  0.00    -0.307 C  
HETATM   20  C   UNL     1     -11.689  12.567  66.057  1.00  0.00    -0.417 C  
HETATM   21  O   UNL     1     -10.589  11.668  66.246  1.00  0.00    -0.241 OA 
HETATM   22  N   UNL     1     -10.211  14.591  66.350  1.00  0.00    -0.279 NA 
HETATM   23  C   UNL     1      -9.153  13.585  66.751  1.00  0.00    -0.212 C  
BRANCH  22  24
HETATM   24  C   UNL     1      -9.598  15.693  65.555  1.00  0.00    -0.202 C  
BRANCH  24  25
HETATM   25  C   UNL     1     -10.009  17.051  66.076  1.00  0.00    -0.269 C  
HETATM   26  N   UNL     1      -9.942  17.335  67.389  1.00  0.00    -0.270 NA 
HETATM   27  N   UNL     1     -10.438  18.034  65.331  1.00  0.00    -0.564 NA 
HETATM   28  O   UNL     1     -10.380  19.291  68.538  1.00  0.00    -0.393 OA 
HETATM   29  C   UNL     1     -10.335  18.632  67.518  1.00  0.00    -0.411 C  
HETATM   30  N   UNL     1     -10.659  19.045  66.231  1.00  0.00    -0.432 NA 
HETATM   31  H   UNL     1     -10.576  18.047  64.321  1.00  0.00     0.000 HD 
ENDBRANCH  24  25
ENDBRANCH  22  24
BRANCH  23  32
HETATM   32  C   UNL     1      -8.028  14.182  67.602  1.00  0.00    -0.187 A  
HETATM   33  C   UNL     1      -6.063  15.118  69.387  1.00  0.00    -0.112 A  
HETATM   34  F   UNL     1      -5.128  15.527  70.253  1.00  0.00    -0.102 F  
HETATM   35  C   UNL     1      -6.674  13.879  67.394  1.00  0.00     0.007 A  
HETATM   36  C   UNL     1      -7.391  15.453  69.599  1.00  0.00    -0.177 A  
HETATM   37  C   UNL     1      -5.697  14.343  68.287  1.00  0.00    -0.118 A  
HETATM   38  C   UNL     1      -8.367  14.992  68.710  1.00  0.00    -0.174 A  
ENDBRANCH  23  32
ENDBRANCH  17  18
ENDBRANCH   2  17
TORSDOF 6
ENDMDL
MODEL      193
REMARK 921   NORMALIZED FREE ENERGY PREDICTED BY IDOCK:   -5.22 KCAL/MOL
REMARK 922        TOTAL FREE ENERGY PREDICTED BY IDOCK:   -9.18 KCAL/MOL
REMARK 923 INTER-LIGAND FREE ENERGY PREDICTED BY IDOCK:   -8.25 KCAL/MOL
REMARK 924 INTRA-LIGAND FREE ENERGY PREDICTED BY IDOCK:   -0.93 KCAL/MOL
REMARK 927      BINDING AFFINITY PREDICTED BY RF-SCORE:    0.00 PKD
ROOT
HETATM    1  C   UNL     1     -11.976   9.989  69.813  1.00  0.00    -0.027 C  
HETATM    2  C   UNL     1     -10.798  10.918  69.488  1.00  0.00    -0.238 C  
ENDROOT
BRANCH   2   3
HETATM    3  C   UNL     1     -11.214  12.384  69.278  1.00  0.00    -0.264 A  
HETATM    4  C   UNL     1     -10.953  13.070  68.076  1.00  0.00    -0.274 A  
HETATM    5  C   UNL     1     -11.864  13.090  70.306  1.00  0.00    -0.294 A  
HETATM    6  F   UNL     1     -11.585  14.485  65.518  1.00  0.00    -0.331 F  
HETATM    7  F   UNL     1     -11.410  16.400  66.532  1.00  0.00    -0.010 F  
HETATM    8  C   UNL     1     -12.240  14.440  70.148  1.00  0.00    -0.401 A  
HETATM    9  C   UNL     1     -12.915  15.205  71.263  1.00  0.00    -0.407 C  
HETATM   10  C   UNL     1     -11.964  15.092  68.934  1.00  0.00    -0.287 A  
HETATM   11  F   UNL     1      -9.665  15.123  66.313  1.00  0.00    -0.237 F  
HETATM   12  F   UNL     1     -13.152  14.457  72.378  1.00  0.00    -0.367 F  
HETATM   13  F   UNL     1     -12.184  16.275  71.677  1.00  0.00    -0.470 F  
HETATM   14  F   UNL     1     -14.127  15.706  70.891  1.00  0.00    -0.478 F  
HETATM   15  C   UNL     1     -10.999  15.102  66.583  1.00  0.00    -0.318 C  
HETATM   16  C   UNL     1     -11.318  14.416  67.892  1.00  0.00    -0.322 A  
ENDBRANCH   2   3
BRANCH   2  17
HETATM   17  O   UNL     1      -9.901  10.363  68.492  1.00  0.00    -0.157 OA 
BRANCH  17  18
HETATM   18  C   UNL     1     -10.401   9.239  67.754  1.00  0.00    -0.237 C  
HETATM   19  C   UNL     1      -8.232   8.213  66.157  1.00  0.00    -0.117 C  
HETATM   20  C   UNL     1      -8.906   9.569  65.980  1.00  0.00    -0.156 C  
HETATM   21  O   UNL     1     -10.290   9.487  66.344  1.00  0.00    -0.240 OA 
HETATM   22  N   UNL     1      -8.283   7.699  67.556  1.00  0.00    -0.120 NA 
HETATM   23  C   UNL     1      -9.712   7.821  68.042  1.00  0.00    -0.154 C  
BRANCH  22  24
HETATM   24  C   UNL     1      -7.867   6.268  67.536  1.00  0.00    -0.105 C  
BRANCH  24  25
HETATM   25  C   UNL     1      -8.217   5.603  66.225  1.00  0.00    -0.108 C  
HETATM   26  N   UNL     1      -9.432   5.059  66.030  1.00  0.00    -0.155 NA 
HETATM   27  N   UNL     1      -7.413   5.509  65.201  1.00  0.00    -0.072 NA 
HETATM   28  O   UNL     1     -10.362   4.060  64.166  1.00  0.00    -0.209 OA 
HETATM   29  C   UNL     1      -9.438   4.590  64.753  1.00  0.00    -0.121 C  
HETATM   30  N   UNL     1      -8.168   4.860  64.258  1.00  0.00    -0.115 NA 
HETATM   31  H   UNL     1      -6.451   5.840  65.121  1.00  0.00     0.000 HD 
ENDBRANCH  24  25
ENDBRANCH  22  24
BRANCH  23  32
HETATM   32  C   UNL     1      -9.931   7.268  69.453  1.00  0.00    -0.170 A  
HETATM   33  C   UNL     1     -10.243   5.993  71.944  1.00  0.00    -0.200 A  
HETATM   34  F   UNL     1     -10.360   5.365  73.119  1.00  0.00    -0.184 F  
HETATM   35  C   UNL     1      -9.137   7.639  70.548  1.00  0.00    -0.151 A  
HETATM   36  C   UNL     1     -11.059   5.628  70.885  1.00  0.00    -0.200 A  
HETATM   37  C   UNL     1      -9.291   6.999  71.787  1.00  0.00    -0.150 A  
HETATM   38  C   UNL     1     -10.908   6.264  69.649  1.00  0.00    -0.403 A  
ENDBRANCH  23  32
ENDBRANCH  17  18
ENDBRANCH   2  17
TORSDOF 6
ENDMDL
MODEL      194
REMARK 921   NORMALIZED FREE ENERGY PREDICTED BY IDOCK:   -5.20 KCAL/MOL
REMARK 922        TOTAL FREE ENERGY PREDICTED BY IDOCK:   -9.16 KCAL/MOL
REMARK 923 INTER-LIGAND FREE ENERGY PREDICTED BY IDOCK:   -8.44 KCAL/MOL
REMARK 924 INTRA-LIGAND FREE ENERGY PREDICTED BY IDOCK:   -0.72 KCAL/MOL
REMARK 927      BINDING AFFINITY PREDICTED BY RF-SCORE:    0.00 PKD
ROOT
HETATM    1  C   UNL     1      -8.828   9.535  63.540  1.00  0.00    -0.235 C  
HETATM    2  C   UNL     1      -9.240   9.719  65.008  1.00  0.00    -0.249 C  
ENDROOT
BRANCH   2   3
HETATM    3  C   UNL     1      -9.265   8.404  65.806  1.00  0.00    -0.175 A  
HETATM    4  C   UNL     1      -8.642   7.232  65.335  1.00  0.00    -0.047 A  
HETATM    5  C   UNL     1      -9.937   8.336  67.040  1.00  0.00    -0.325 A  
HETATM    6  F   UNL     1      -6.668   4.987  65.296  1.00  0.00    -0.043 F  
HETATM    7  F   UNL     1      -8.110   3.698  66.289  1.00  0.00    -0.092 F  
HETATM    8  C   UNL     1      -9.991   7.140  67.783  1.00  0.00    -0.192 A  
HETATM    9  C   UNL     1     -10.735   7.062  69.097  1.00  0.00    -0.218 C  
HETATM   10  C   UNL     1      -9.357   5.991  67.282  1.00  0.00    -0.115 A  
HETATM   11  F   UNL     1      -8.508   4.429  64.281  1.00  0.00    -0.097 F  
HETATM   12  F   UNL     1     -11.284   8.246  69.488  1.00  0.00    -0.168 F  
HETATM   13  F   UNL     1     -11.758   6.166  69.064  1.00  0.00    -0.426 F  
HETATM   14  F   UNL     1      -9.932   6.669  70.126  1.00  0.00    -0.173 F  
HETATM   15  C   UNL     1      -8.003   4.797  65.491  1.00  0.00    -0.095 C  
HETATM   16  C   UNL     1      -8.681   6.026  66.056  1.00  0.00    -0.154 A  
ENDBRANCH   2   3
BRANCH   2  17
HETATM   17  O   UNL     1     -10.398  10.578  65.164  1.00  0.00    -0.304 OA 
BRANCH  17  18
HETATM   18  C   UNL     1     -10.195  11.967  64.867  1.00  0.00    -0.271 C  
HETATM   19  C   UNL     1     -12.599  13.376  65.603  1.00  0.00    -0.438 C  
HETATM   20  C   UNL     1     -12.472  12.356  64.478  1.00  0.00    -0.435 C  
HETATM   21  O   UNL     1     -11.161  12.411  63.902  1.00  0.00    -0.347 OA 
HETATM   22  N   UNL     1     -11.628  13.162  66.715  1.00  0.00    -0.347 NA 
HETATM   23  C   UNL     1     -10.254  12.986  66.102  1.00  0.00    -0.284 C  
BRANCH  22  24
HETATM   24  C   UNL     1     -11.652  14.371  67.586  1.00  0.00    -0.370 C  
BRANCH  24  25
HETATM   25  C   UNL     1     -10.989  15.553  66.918  1.00  0.00    -0.268 C  
HETATM   26  N   UNL     1     -10.407  16.522  67.648  1.00  0.00    -0.284 NA 
HETATM   27  N   UNL     1     -10.913  15.731  65.627  1.00  0.00    -0.285 NA 
HETATM   28  O   UNL     1      -9.228  18.402  67.004  1.00  0.00    -0.263 OA 
HETATM   29  C   UNL     1      -9.875  17.402  66.757  1.00  0.00    -0.296 C  
HETATM   30  N   UNL     1     -10.217  16.906  65.505  1.00  0.00    -0.614 NA 
HETATM   31  H   UNL     1     -11.284  15.138  64.885  1.00  0.00     0.000 HD 
ENDBRANCH  24  25
ENDBRANCH  22  24
BRANCH  23  32
HETATM   32  C   UNL     1      -9.136  12.820  67.136  1.00  0.00    -0.219 A  
HETATM   33  C   UNL     1      -7.019  12.257  68.904  1.00  0.00    -0.098 A  
HETATM   34  F   UNL     1      -5.994  11.973  69.715  1.00  0.00    -0.084 F  
HETATM   35  C   UNL     1      -7.988  13.625  67.152  1.00  0.00    -0.060 A  
HETATM   36  C   UNL     1      -8.155  11.462  68.926  1.00  0.00    -0.067 A  
HETATM   37  C   UNL     1      -6.933  13.341  68.031  1.00  0.00    -0.120 A  
HETATM   38  C   UNL     1      -9.208  11.744  68.051  1.00  0.00    -0.181 A  
ENDBRANCH  23  32
ENDBRANCH  17  18
ENDBRANCH   2  17
TORSDOF 6
ENDMDL
MODEL      195
REMARK 921   NORMALIZED FREE ENERGY PREDICTED BY IDOCK:   -5.19 KCAL/MOL
REMARK 922        TOTAL FREE ENERGY PREDICTED BY IDOCK:   -9.14 KCAL/MOL
REMARK 923 INTER-LIGAND FREE ENERGY PREDICTED BY IDOCK:   -7.04 KCAL/MOL
REMARK 924 INTRA-LIGAND FREE ENERGY PREDICTED BY IDOCK:   -2.10 KCAL/MOL
REMARK 927      BINDING AFFINITY PREDICTED BY RF-SCORE:    0.00 PKD
ROOT
HETATM    1  C   UNL     1      -6.483  14.351  67.827  1.00  0.00    -0.181 C  
HETATM    2  C   UNL     1      -7.636  13.342  67.721  1.00  0.00    -0.161 C  
ENDROOT
BRANCH   2   3
HETATM    3  C   UNL     1      -9.021  14.004  67.623  1.00  0.00    -0.194 A  
HETATM    4  C   UNL     1      -9.729  14.427  68.764  1.00  0.00    -0.190 A  
HETATM    5  C   UNL     1      -9.631  14.189  66.369  1.00  0.00    -0.310 A  
HETATM    6  F   UNL     1     -11.012  16.362  70.648  1.00  0.00    -0.322 F  
HETATM    7  F   UNL     1     -12.941  15.998  69.713  1.00  0.00    -0.082 F  
HETATM    8  C   UNL     1     -10.908  14.775  66.251  1.00  0.00    -0.322 A  
HETATM    9  C   UNL     1     -11.572  14.951  64.905  1.00  0.00    -0.395 C  
HETATM   10  C   UNL     1     -11.584  15.187  67.412  1.00  0.00    -0.251 A  
HETATM   11  F   UNL     1     -11.937  14.400  70.791  1.00  0.00    -0.323 F  
HETATM   12  F   UNL     1     -10.807  14.537  63.856  1.00  0.00     0.047 F  
HETATM   13  F   UNL     1     -12.743  14.264  64.809  1.00  0.00    -0.414 F  
HETATM   14  F   UNL     1     -11.884  16.252  64.644  1.00  0.00    -0.206 F  
HETATM   15  C   UNL     1     -11.719  15.439  69.938  1.00  0.00    -0.336 C  
HETATM   16  C   UNL     1     -11.004  15.015  68.675  1.00  0.00    -0.261 A  
ENDBRANCH   2   3
BRANCH   2  17
HETATM   17  O   UNL     1      -7.519  12.251  68.669  1.00  0.00    -0.111 OA 
BRANCH  17  18
HETATM   18  C   UNL     1      -7.090  10.993  68.129  1.00  0.00    -0.074 C  
HETATM   19  C   UNL     1      -7.761   8.949  70.049  1.00  0.00    -0.078 C  
HETATM   20  C   UNL     1      -6.730  10.055  70.246  1.00  0.00    -0.137 C  
HETATM   21  O   UNL     1      -6.116  10.392  68.996  1.00  0.00    -0.041 OA 
HETATM   22  N   UNL     1      -8.860   9.318  69.111  1.00  0.00    -0.137 NA 
HETATM   23  C   UNL     1      -8.228   9.896  67.861  1.00  0.00    -0.113 C  
BRANCH  22  24
HETATM   24  C   UNL     1      -9.617   8.078  68.778  1.00  0.00    -0.149 C  
BRANCH  24  25
HETATM   25  C   UNL     1      -8.715   7.012  68.199  1.00  0.00    -0.127 C  
HETATM   26  N   UNL     1      -8.794   6.673  66.900  1.00  0.00    -0.115 NA 
HETATM   27  N   UNL     1      -7.808   6.359  68.874  1.00  0.00    -0.108 NA 
HETATM   28  O   UNL     1      -7.544   5.189  65.644  1.00  0.00    -0.083 OA 
HETATM   29  C   UNL     1      -7.833   5.732  66.694  1.00  0.00    -0.101 C  
HETATM   30  N   UNL     1      -7.243   5.533  67.936  1.00  0.00    -0.071 NA 
HETATM   31  H   UNL     1      -7.575   6.443  69.864  1.00  0.00     0.000 HD 
ENDBRANCH  24  25
ENDBRANCH  22  24
BRANCH  23  32
HETATM   32  C   UNL     1      -9.241  10.264  66.774  1.00  0.00    -0.180 A  
HETATM   33  C   UNL     1     -11.074  11.220  64.862  1.00  0.00    -0.113 A  
HETATM   34  F   UNL     1     -11.923  11.707  63.951  1.00  0.00    -0.461 F  
HETATM   35  C   UNL     1      -8.951  10.180  65.404  1.00  0.00    -0.208 A  
HETATM   36  C   UNL     1     -11.395  11.291  66.209  1.00  0.00    -0.057 A  
HETATM   37  C   UNL     1      -9.864  10.660  64.453  1.00  0.00    -0.395 A  
HETATM   38  C   UNL     1     -10.487  10.812  67.158  1.00  0.00    -0.285 A  
ENDBRANCH  23  32
ENDBRANCH  17  18
ENDBRANCH   2  17
TORSDOF 6
ENDMDL
MODEL      196
REMARK 921   NORMALIZED FREE ENERGY PREDICTED BY IDOCK:   -5.18 KCAL/MOL
REMARK 922        TOTAL FREE ENERGY PREDICTED BY IDOCK:   -9.13 KCAL/MOL
REMARK 923 INTER-LIGAND FREE ENERGY PREDICTED BY IDOCK:   -7.13 KCAL/MOL
REMARK 924 INTRA-LIGAND FREE ENERGY PREDICTED BY IDOCK:   -2.00 KCAL/MOL
REMARK 927      BINDING AFFINITY PREDICTED BY RF-SCORE:    0.00 PKD
ROOT
HETATM    1  C   UNL     1      -7.866   8.040  72.987  1.00  0.00    -0.199 C  
HETATM    2  C   UNL     1      -8.187   7.846  71.498  1.00  0.00    -0.109 C  
ENDROOT
BRANCH   2   3
HETATM    3  C   UNL     1      -9.169   8.891  70.943  1.00  0.00    -0.286 A  
HETATM    4  C   UNL     1      -8.814   9.773  69.904  1.00  0.00    -0.248 A  
HETATM    5  C   UNL     1     -10.464   9.002  71.481  1.00  0.00    -0.410 A  
HETATM    6  F   UNL     1      -8.900  10.991  67.174  1.00  0.00    -0.136 F  
HETATM    7  F   UNL     1     -10.221  12.552  67.910  1.00  0.00    -0.199 F  
HETATM    8  C   UNL     1     -11.379   9.963  71.004  1.00  0.00    -0.460 A  
HETATM    9  C   UNL     1     -12.761  10.099  71.600  1.00  0.00    -0.447 C  
HETATM   10  C   UNL     1     -10.989  10.826  69.965  1.00  0.00    -0.280 A  
HETATM   11  F   UNL     1      -8.181  12.419  68.648  1.00  0.00    -0.142 F  
HETATM   12  F   UNL     1     -13.028   9.190  72.580  1.00  0.00    -0.461 F  
HETATM   13  F   UNL     1     -12.971  11.323  72.156  1.00  0.00    -0.553 F  
HETATM   14  F   UNL     1     -13.746   9.940  70.671  1.00  0.00    -0.377 F  
HETATM   15  C   UNL     1      -9.262  11.667  68.301  1.00  0.00    -0.187 C  
HETATM   16  C   UNL     1      -9.707  10.740  69.409  1.00  0.00    -0.088 A  
ENDBRANCH   2   3
BRANCH   2  17
HETATM   17  O   UNL     1      -8.469   6.464  71.159  1.00  0.00    -0.122 OA 
BRANCH  17  18
HETATM   18  C   UNL     1      -7.611   5.870  70.176  1.00  0.00    -0.090 C  
HETATM   19  C   UNL     1      -8.563   3.192  69.694  1.00  0.00    -0.066 C  
HETATM   20  C   UNL     1      -7.951   3.701  70.994  1.00  0.00    -0.062 C  
HETATM   21  O   UNL     1      -6.968   4.708  70.721  1.00  0.00    -0.035 OA 
HETATM   22  N   UNL     1      -9.240   4.255  68.896  1.00  0.00    -0.132 NA 
HETATM   23  C   UNL     1      -8.292   5.431  68.793  1.00  0.00    -0.097 C  
BRANCH  22  24
HETATM   24  C   UNL     1      -9.526   3.703  67.542  1.00  0.00    -0.191 C  
BRANCH  24  25
HETATM   25  C   UNL     1      -8.297   3.076  66.924  1.00  0.00    -0.092 C  
HETATM   26  N   UNL     1      -7.345   3.838  66.357  1.00  0.00    -0.071 NA 
HETATM   27  N   UNL     1      -8.052   1.794  66.895  1.00  0.00    -0.071 NA 
HETATM   28  O   UNL     1      -5.314   3.270  65.413  1.00  0.00    -0.009 OA 
HETATM   29  C   UNL     1      -6.371   2.984  65.943  1.00  0.00    -0.028 C  
HETATM   30  N   UNL     1      -6.836   1.715  66.267  1.00  0.00    -0.040 NA 
HETATM   31  H   UNL     1      -8.628   1.033  67.255  1.00  0.00     0.000 HD 
ENDBRANCH  24  25
ENDBRANCH  22  24
BRANCH  23  32
HETATM   32  C   UNL     1      -8.832   6.584  67.941  1.00  0.00    -0.114 A  
HETATM   33  C   UNL     1      -9.766   8.537  66.141  1.00  0.00    -0.189 A  
HETATM   34  F   UNL     1     -10.223   9.436  65.262  1.00  0.00    -0.300 F  
HETATM   35  C   UNL     1     -10.185   6.950  67.926  1.00  0.00    -0.212 A  
HETATM   36  C   UNL     1      -8.419   8.212  66.155  1.00  0.00    -0.143 A  
HETATM   37  C   UNL     1     -10.650   7.920  67.026  1.00  0.00    -0.381 A  
HETATM   38  C   UNL     1      -7.953   7.245  67.052  1.00  0.00    -0.109 A  
ENDBRANCH  23  32
ENDBRANCH  17  18
ENDBRANCH   2  17
TORSDOF 6
ENDMDL
MODEL      197
REMARK 921   NORMALIZED FREE ENERGY PREDICTED BY IDOCK:   -5.17 KCAL/MOL
REMARK 922        TOTAL FREE ENERGY PREDICTED BY IDOCK:   -9.12 KCAL/MOL
REMARK 923 INTER-LIGAND FREE ENERGY PREDICTED BY IDOCK:  -10.99 KCAL/MOL
REMARK 924 INTRA-LIGAND FREE ENERGY PREDICTED BY IDOCK:    1.87 KCAL/MOL
REMARK 927      BINDING AFFINITY PREDICTED BY RF-SCORE:    0.00 PKD
ROOT
HETATM    1  C   UNL     1      -8.612  12.923  68.127  1.00  0.00    -0.188 C  
HETATM    2  C   UNL     1      -9.681  12.592  67.074  1.00  0.00    -0.213 C  
ENDROOT
BRANCH   2   3
HETATM    3  C   UNL     1      -9.560  11.166  66.508  1.00  0.00    -0.222 A  
HETATM    4  C   UNL     1      -9.033  10.913  65.228  1.00  0.00    -0.202 A  
HETATM    5  C   UNL     1      -9.998  10.064  67.265  1.00  0.00    -0.245 A  
HETATM    6  F   UNL     1      -7.099   9.864  63.203  1.00  0.00    -0.109 F  
HETATM    7  F   UNL     1      -8.337   8.098  62.930  1.00  0.00    -0.172 F  
HETATM    8  C   UNL     1      -9.917   8.749  66.764  1.00  0.00    -0.338 A  
HETATM    9  C   UNL     1     -10.410   7.568  67.568  1.00  0.00    -0.252 C  
HETATM   10  C   UNL     1      -9.384   8.535  65.482  1.00  0.00    -0.039 A  
HETATM   11  F   UNL     1      -9.092  10.054  62.357  1.00  0.00    -0.203 F  
HETATM   12  F   UNL     1     -10.880   7.902  68.803  1.00  0.00    -0.204 F  
HETATM   13  F   UNL     1     -11.423   6.903  66.949  1.00  0.00    -0.456 F  
HETATM   14  F   UNL     1      -9.434   6.640  67.782  1.00  0.00    -0.124 F  
HETATM   15  C   UNL     1      -8.377   9.404  63.316  1.00  0.00    -0.187 C  
HETATM   16  C   UNL     1      -8.941   9.611  64.703  1.00  0.00    -0.274 A  
ENDBRANCH   2   3
BRANCH   2  17
HETATM   17  O   UNL     1      -9.857  13.650  66.099  1.00  0.00    -0.293 OA 
BRANCH  17  18
HETATM   18  C   UNL     1     -11.070  14.407  66.206  1.00  0.00    -0.331 C  
HETATM   19  C   UNL     1     -12.139  13.972  68.847  1.00  0.00    -0.316 C  
HETATM   20  C   UNL     1     -12.020  12.922  67.748  1.00  0.00    -0.283 C  
HETATM   21  O   UNL     1     -12.178  13.529  66.460  1.00  0.00    -0.407 OA 
HETATM   22  N   UNL     1     -11.119  15.055  68.750  1.00  0.00    -0.249 NA 
HETATM   23  C   UNL     1     -11.110  15.557  67.321  1.00  0.00    -0.271 C  
BRANCH  22  24
HETATM   24  C   UNL     1     -11.520  16.150  69.678  1.00  0.00    -0.290 C  
BRANCH  24  25
HETATM   25  C   UNL     1     -12.313  15.623  70.853  1.00  0.00    -0.429 C  
HETATM   26  N   UNL     1     -11.700  15.282  72.001  1.00  0.00    -0.417 NA 
HETATM   27  N   UNL     1     -13.609  15.467  70.865  1.00  0.00    -0.818 NA 
HETATM   28  O   UNL     1     -12.560  14.544  74.014  1.00  0.00    -0.414 OA 
HETATM   29  C   UNL     1     -12.684  14.894  72.856  1.00  0.00    -0.435 C  
HETATM   30  N   UNL     1     -13.863  14.996  72.127  1.00  0.00    -0.431 NA 
HETATM   31  H   UNL     1     -14.274  15.653  70.114  1.00  0.00     0.000 HD 
ENDBRANCH  24  25
ENDBRANCH  22  24
BRANCH  23  32
HETATM   32  C   UNL     1     -10.147  16.724  67.085  1.00  0.00    -0.282 A  
HETATM   33  C   UNL     1      -8.401  18.811  66.363  1.00  0.00    -0.280 A  
HETATM   34  F   UNL     1      -7.593  19.809  65.988  1.00  0.00    -0.271 F  
HETATM   35  C   UNL     1     -10.498  18.060  67.322  1.00  0.00    -0.390 A  
HETATM   36  C   UNL     1      -8.019  17.497  66.143  1.00  0.00    -0.261 A  
HETATM   37  C   UNL     1      -9.629  19.099  66.958  1.00  0.00    -0.378 A  
HETATM   38  C   UNL     1      -8.884  16.460  66.506  1.00  0.00    -0.316 A  
ENDBRANCH  23  32
ENDBRANCH  17  18
ENDBRANCH   2  17
TORSDOF 6
ENDMDL
MODEL      198
REMARK 921   NORMALIZED FREE ENERGY PREDICTED BY IDOCK:   -5.17 KCAL/MOL
REMARK 922        TOTAL FREE ENERGY PREDICTED BY IDOCK:   -9.12 KCAL/MOL
REMARK 923 INTER-LIGAND FREE ENERGY PREDICTED BY IDOCK:   -7.82 KCAL/MOL
REMARK 924 INTRA-LIGAND FREE ENERGY PREDICTED BY IDOCK:   -1.30 KCAL/MOL
REMARK 927      BINDING AFFINITY PREDICTED BY RF-SCORE:    0.00 PKD
ROOT
HETATM    1  C   UNL     1     -11.801  11.970  65.985  1.00  0.00    -0.223 C  
HETATM    2  C   UNL     1     -10.471  11.698  66.702  1.00  0.00    -0.233 C  
ENDROOT
BRANCH   2   3
HETATM    3  C   UNL     1     -10.608  10.752  67.908  1.00  0.00    -0.258 A  
HETATM    4  C   UNL     1     -11.581  10.950  68.906  1.00  0.00    -0.378 A  
HETATM    5  C   UNL     1      -9.737   9.657  68.051  1.00  0.00    -0.167 A  
HETATM    6  F   UNL     1     -14.010  10.349  70.543  1.00  0.00     0.015 F  
HETATM    7  F   UNL     1     -12.757   9.465  72.083  1.00  0.00    -0.406 F  
HETATM    8  C   UNL     1      -9.828   8.785  69.155  1.00  0.00    -0.181 A  
HETATM    9  C   UNL     1      -8.875   7.623  69.321  1.00  0.00    -0.136 C  
HETATM   10  C   UNL     1     -10.812   9.013  70.132  1.00  0.00    -0.261 A  
HETATM   11  F   UNL     1     -12.608  11.589  71.649  1.00  0.00    -0.426 F  
HETATM   12  F   UNL     1      -7.985   7.492  68.298  1.00  0.00    -0.113 F  
HETATM   13  F   UNL     1      -8.131   7.718  70.457  1.00  0.00    -0.096 F  
HETATM   14  F   UNL     1      -9.524   6.426  69.402  1.00  0.00    -0.139 F  
HETATM   15  C   UNL     1     -12.751  10.368  71.063  1.00  0.00    -0.394 C  
HETATM   16  C   UNL     1     -11.693  10.096  70.018  1.00  0.00    -0.294 A  
ENDBRANCH   2   3
BRANCH   2  17
HETATM   17  O   UNL     1      -9.695  12.903  66.925  1.00  0.00    -0.227 OA 
BRANCH  17  18
HETATM   18  C   UNL     1      -8.956  12.956  68.153  1.00  0.00    -0.202 C  
HETATM   19  C   UNL     1      -6.853  14.899  67.820  1.00  0.00    -0.174 C  
HETATM   20  C   UNL     1      -6.964  13.569  67.084  1.00  0.00     0.299 C  
HETATM   21  O   UNL     1      -7.588  12.587  67.921  1.00  0.00    -0.109 OA 
HETATM   22  N   UNL     1      -8.169  15.461  68.239  1.00  0.00    -0.142 NA 
HETATM   23  C   UNL     1      -8.944  14.358  68.930  1.00  0.00    -0.067 C  
BRANCH  22  24
HETATM   24  C   UNL     1      -7.911  16.581  69.188  1.00  0.00    -0.192 C  
BRANCH  24  25
HETATM   25  C   UNL     1      -8.344  17.910  68.612  1.00  0.00    -0.270 C  
HETATM   26  N   UNL     1      -7.540  18.598  67.782  1.00  0.00    -0.231 NA 
HETATM   27  N   UNL     1      -9.493  18.483  68.849  1.00  0.00    -0.289 NA 
HETATM   28  O   UNL     1      -7.879  20.579  66.643  1.00  0.00    -0.249 OA 
HETATM   29  C   UNL     1      -8.233  19.710  67.416  1.00  0.00    -0.298 C  
HETATM   30  N   UNL     1      -9.438  19.633  68.105  1.00  0.00    -0.347 NA 
HETATM   31  H   UNL     1     -10.252  18.153  69.445  1.00  0.00     0.000 HD 
ENDBRANCH  24  25
ENDBRANCH  22  24
BRANCH  23  32
HETATM   32  C   UNL     1     -10.302  14.809  69.475  1.00  0.00    -0.127 A  
HETATM   33  C   UNL     1     -12.858  15.354  70.522  1.00  0.00    -0.376 A  
HETATM   34  F   UNL     1     -14.068  15.582  71.044  1.00  0.00    -0.536 F  
HETATM   35  C   UNL     1     -10.443  15.508  70.683  1.00  0.00    -0.053 A  
HETATM   36  C   UNL     1     -12.745  14.685  69.313  1.00  0.00     0.273 A  
HETATM   37  C   UNL     1     -11.717  15.775  71.205  1.00  0.00    -0.496 A  
HETATM   38  C   UNL     1     -11.476  14.419  68.790  1.00  0.00    -0.319 A  
ENDBRANCH  23  32
ENDBRANCH  17  18
ENDBRANCH   2  17
TORSDOF 6
ENDMDL
MODEL      199
REMARK 921   NORMALIZED FREE ENERGY PREDICTED BY IDOCK:   -5.17 KCAL/MOL
REMARK 922        TOTAL FREE ENERGY PREDICTED BY IDOCK:   -9.12 KCAL/MOL
REMARK 923 INTER-LIGAND FREE ENERGY PREDICTED BY IDOCK:   -8.13 KCAL/MOL
REMARK 924 INTRA-LIGAND FREE ENERGY PREDICTED BY IDOCK:   -0.99 KCAL/MOL
REMARK 927      BINDING AFFINITY PREDICTED BY RF-SCORE:    0.00 PKD
ROOT
HETATM    1  C   UNL     1      -8.682  12.518  66.959  1.00  0.00    -0.205 C  
HETATM    2  C   UNL     1     -10.162  12.570  67.366  1.00  0.00    -0.213 C  
ENDROOT
BRANCH   2   3
HETATM    3  C   UNL     1     -10.541  13.849  68.132  1.00  0.00    -0.258 A  
HETATM    4  C   UNL     1     -11.406  13.827  69.243  1.00  0.00    -0.325 A  
HETATM    5  C   UNL     1     -10.035  15.097  67.722  1.00  0.00    -0.225 A  
HETATM    6  F   UNL     1     -12.222  14.119  72.105  1.00  0.00    -0.328 F  
HETATM    7  F   UNL     1     -12.973  16.116  71.689  1.00  0.00    -0.502 F  
HETATM    8  C   UNL     1     -10.381  16.287  68.393  1.00  0.00    -0.271 A  
HETATM    9  C   UNL     1      -9.857  17.629  67.936  1.00  0.00    -0.300 C  
HETATM   10  C   UNL     1     -11.246  16.226  69.499  1.00  0.00    -0.308 A  
HETATM   11  F   UNL     1     -13.921  14.388  70.774  1.00  0.00    -0.289 F  
HETATM   12  F   UNL     1      -9.008  17.554  66.873  1.00  0.00    -0.225 F  
HETATM   13  F   UNL     1     -10.853  18.477  67.563  1.00  0.00    -0.431 F  
HETATM   14  F   UNL     1      -9.165  18.278  68.916  1.00  0.00    -0.312 F  
HETATM   15  C   UNL     1     -12.710  14.912  71.109  1.00  0.00    -0.342 C  
HETATM   16  C   UNL     1     -11.767  14.999  69.931  1.00  0.00    -0.343 A  
ENDBRANCH   2   3
BRANCH   2  17
HETATM   17  O   UNL     1     -10.632  11.324  67.939  1.00  0.00    -0.180 OA 
BRANCH  17  18
HETATM   18  C   UNL     1      -9.652  10.546  68.641  1.00  0.00    -0.171 C  
HETATM   19  C   UNL     1     -10.965   8.178  69.629  1.00  0.00    -0.088 C  
HETATM   20  C   UNL     1     -11.238   9.607  70.087  1.00  0.00    -0.256 C  
HETATM   21  O   UNL     1     -10.040  10.389  70.015  1.00  0.00    -0.193 OA 
HETATM   22  N   UNL     1     -10.471   8.086  68.226  1.00  0.00    -0.191 NA 
HETATM   23  C   UNL     1      -9.342   9.083  68.066  1.00  0.00    -0.141 C  
BRANCH  22  24
HETATM   24  C   UNL     1      -9.968   6.700  68.005  1.00  0.00    -0.142 C  
BRANCH  24  25
HETATM   25  C   UNL     1      -9.467   6.078  69.288  1.00  0.00    -0.132 C  
HETATM   26  N   UNL     1     -10.236   5.222  69.986  1.00  0.00    -0.267 NA 
HETATM   27  N   UNL     1      -8.290   6.295  69.810  1.00  0.00    -0.124 NA 
HETATM   28  O   UNL     1      -9.796   4.012  71.905  1.00  0.00    -0.161 OA 
HETATM   29  C   UNL     1      -9.486   4.817  71.048  1.00  0.00    -0.164 C  
HETATM   30  N   UNL     1      -8.287   5.510  70.934  1.00  0.00    -0.118 NA 
HETATM   31  H   UNL     1      -7.549   6.904  69.463  1.00  0.00     0.000 HD 
ENDBRANCH  24  25
ENDBRANCH  22  24
BRANCH  23  32
HETATM   32  C   UNL     1      -8.689   9.056  66.681  1.00  0.00    -0.140 A  
HETATM   33  C   UNL     1      -7.449   8.717  64.176  1.00  0.00    -0.110 A  
HETATM   34  F   UNL     1      -6.877   8.521  62.983  1.00  0.00    -0.088 F  
HETATM   35  C   UNL     1      -9.407   9.270  65.496  1.00  0.00    -0.303 A  
HETATM   36  C   UNL     1      -6.710   8.526  65.333  1.00  0.00    -0.063 A  
HETATM   37  C   UNL     1      -8.789   9.097  64.249  1.00  0.00    -0.139 A  
HETATM   38  C   UNL     1      -7.324   8.698  66.577  1.00  0.00    -0.081 A  
ENDBRANCH  23  32
ENDBRANCH  17  18
ENDBRANCH   2  17
TORSDOF 6
ENDMDL
MODEL      200
REMARK 921   NORMALIZED FREE ENERGY PREDICTED BY IDOCK:   -5.16 KCAL/MOL
REMARK 922        TOTAL FREE ENERGY PREDICTED BY IDOCK:   -9.10 KCAL/MOL
REMARK 923 INTER-LIGAND FREE ENERGY PREDICTED BY IDOCK:   -8.22 KCAL/MOL
REMARK 924 INTRA-LIGAND FREE ENERGY PREDICTED BY IDOCK:   -0.88 KCAL/MOL
REMARK 927      BINDING AFFINITY PREDICTED BY RF-SCORE:    0.00 PKD
ROOT
HETATM    1  C   UNL     1     -10.659   6.600  66.568  1.00  0.00    -0.096 C  
HETATM    2  C   UNL     1      -9.645   6.900  67.682  1.00  0.00    -0.126 C  
ENDROOT
BRANCH   2   3
HETATM    3  C   UNL     1      -9.843   6.034  68.938  1.00  0.00    -0.173 A  
HETATM    4  C   UNL     1     -10.633   6.461  70.023  1.00  0.00    -0.291 A  
HETATM    5  C   UNL     1      -9.215   4.780  69.041  1.00  0.00    -0.174 A  
HETATM    6  F   UNL     1     -12.934   6.438  71.933  1.00  0.00    -0.372 F  
HETATM    7  F   UNL     1     -11.731   5.339  73.373  1.00  0.00    -0.320 F  
HETATM    8  C   UNL     1      -9.364   3.974  70.188  1.00  0.00    -0.240 A  
HETATM    9  C   UNL     1      -8.667   2.637  70.307  1.00  0.00    -0.071 C  
HETATM   10  C   UNL     1     -10.160   4.433  71.251  1.00  0.00    -0.202 A  
HETATM   11  F   UNL     1     -11.184   7.370  72.826  1.00  0.00    -0.287 F  
HETATM   12  F   UNL     1      -7.947   2.293  69.203  1.00  0.00    -0.046 F  
HETATM   13  F   UNL     1      -7.797   2.595  71.352  1.00  0.00    -0.042 F  
HETATM   14  F   UNL     1      -9.542   1.612  70.512  1.00  0.00    -0.163 F  
HETATM   15  C   UNL     1     -11.649   6.196  72.317  1.00  0.00    -0.313 C  
HETATM   16  C   UNL     1     -10.798   5.677  71.179  1.00  0.00    -0.288 A  
ENDBRANCH   2   3
BRANCH   2  17
HETATM   17  O   UNL     1      -9.465   8.320  67.912  1.00  0.00    -0.143 OA 
BRANCH  17  18
HETATM   18  C   UNL     1     -10.371   9.189  67.218  1.00  0.00    -0.270 C  
HETATM   19  C   UNL     1     -10.267  11.765  68.506  1.00  0.00    -0.210 C  
HETATM   20  C   UNL     1     -10.806  10.479  69.124  1.00  0.00    -0.237 C  
HETATM   21  O   UNL     1     -11.394   9.651  68.113  1.00  0.00    -0.038 OA 
HETATM   22  N   UNL     1      -9.219  11.536  67.470  1.00  0.00    -0.164 NA 
HETATM   23  C   UNL     1      -9.737  10.482  66.514  1.00  0.00    -0.192 C  
BRANCH  22  24
HETATM   24  C   UNL     1      -8.997  12.821  66.748  1.00  0.00    -0.188 C  
BRANCH  24  25
HETATM   25  C   UNL     1     -10.284  13.369  66.176  1.00  0.00    -0.301 C  
HETATM   26  N   UNL     1     -10.574  13.225  64.870  1.00  0.00    -0.344 NA 
HETATM   27  N   UNL     1     -11.197  13.996  66.866  1.00  0.00    -0.304 NA 
HETATM   28  O   UNL     1     -12.450  13.826  63.661  1.00  0.00    -0.718 OA 
HETATM   29  C   UNL     1     -11.803  13.781  64.690  1.00  0.00    -0.402 C  
HETATM   30  N   UNL     1     -12.167  14.274  65.938  1.00  0.00    -0.420 NA 
HETATM   31  H   UNL     1     -11.191  14.224  67.860  1.00  0.00     0.000 HD 
ENDBRANCH  24  25
ENDBRANCH  22  24
BRANCH  23  32
HETATM   32  C   UNL     1      -8.787  10.186  65.350  1.00  0.00    -0.196 A  
HETATM   33  C   UNL     1      -6.984   9.385  63.341  1.00  0.00    -0.097 A  
HETATM   34  F   UNL     1      -6.140   8.968  62.391  1.00  0.00    -0.093 F  
HETATM   35  C   UNL     1      -9.234   9.958  64.041  1.00  0.00    -0.302 A  
HETATM   36  C   UNL     1      -6.512   9.631  64.621  1.00  0.00    -0.099 A  
HETATM   37  C   UNL     1      -8.335   9.555  63.042  1.00  0.00    -0.175 A  
HETATM   38  C   UNL     1      -7.406  10.033  65.618  1.00  0.00    -0.127 A  
ENDBRANCH  23  32
ENDBRANCH  17  18
ENDBRANCH   2  17
TORSDOF 6
ENDMDL
MODEL      201
REMARK 921   NORMALIZED FREE ENERGY PREDICTED BY IDOCK:   -5.16 KCAL/MOL
REMARK 922        TOTAL FREE ENERGY PREDICTED BY IDOCK:   -9.10 KCAL/MOL
REMARK 923 INTER-LIGAND FREE ENERGY PREDICTED BY IDOCK:   -8.46 KCAL/MOL
REMARK 924 INTRA-LIGAND FREE ENERGY PREDICTED BY IDOCK:   -0.64 KCAL/MOL
REMARK 927      BINDING AFFINITY PREDICTED BY RF-SCORE:    0.00 PKD
ROOT
HETATM    1  C   UNL     1     -11.893  11.442  68.017  1.00  0.00    -0.273 C  
HETATM    2  C   UNL     1     -10.554  10.730  68.258  1.00  0.00    -0.200 C  
ENDROOT
BRANCH   2   3
HETATM    3  C   UNL     1     -10.711   9.302  68.808  1.00  0.00    -0.184 A  
HETATM    4  C   UNL     1     -10.319   8.169  68.069  1.00  0.00    -0.267 A  
HETATM    5  C   UNL     1     -11.275   9.090  70.079  1.00  0.00    -0.141 A  
HETATM    6  F   UNL     1      -8.724   5.728  67.408  1.00  0.00    -0.111 F  
HETATM    7  F   UNL     1     -10.255   4.479  68.315  1.00  0.00    -0.179 F  
HETATM    8  C   UNL     1     -11.448   7.791  70.599  1.00  0.00    -0.259 A  
HETATM    9  C   UNL     1     -12.078   7.564  71.954  1.00  0.00    -0.305 C  
HETATM   10  C   UNL     1     -11.044   6.685  69.833  1.00  0.00    -0.403 A  
HETATM   11  F   UNL     1     -10.709   5.629  66.527  1.00  0.00    -0.284 F  
HETATM   12  F   UNL     1     -12.403   8.714  72.609  1.00  0.00    -0.446 F  
HETATM   13  F   UNL     1     -13.226   6.837  71.880  1.00  0.00    -0.381 F  
HETATM   14  F   UNL     1     -11.259   6.876  72.800  1.00  0.00    -0.257 F  
HETATM   15  C   UNL     1     -10.050   5.686  67.717  1.00  0.00    -0.171 C  
HETATM   16  C   UNL     1     -10.480   6.863  68.564  1.00  0.00    -0.229 A  
ENDBRANCH   2   3
BRANCH   2  17
HETATM   17  O   UNL     1      -9.584  11.569  68.936  1.00  0.00    -0.146 OA 
BRANCH  17  18
HETATM   18  C   UNL     1      -8.508  12.065  68.128  1.00  0.00    -0.171 C  
HETATM   19  C   UNL     1      -6.887   9.811  67.357  1.00  0.00    -0.083 C  
HETATM   20  C   UNL     1      -7.052  10.348  68.774  1.00  0.00    -0.074 C  
HETATM   21  O   UNL     1      -7.248  11.767  68.748  1.00  0.00    -0.102 OA 
HETATM   22  N   UNL     1      -8.064  10.070  66.479  1.00  0.00    -0.117 NA 
HETATM   23  C   UNL     1      -8.432  11.532  66.618  1.00  0.00    -0.172 C  
BRANCH  22  24
HETATM   24  C   UNL     1      -7.666   9.771  65.074  1.00  0.00    -0.126 C  
BRANCH  24  25
HETATM   25  C   UNL     1      -7.671   8.285  64.798  1.00  0.00    -0.114 C  
HETATM   26  N   UNL     1      -6.519   7.610  64.627  1.00  0.00    -0.044 NA 
HETATM   27  N   UNL     1      -8.746   7.548  64.712  1.00  0.00    -0.350 NA 
HETATM   28  O   UNL     1      -6.119   5.360  64.291  1.00  0.00    -0.021 OA 
HETATM   29  C   UNL     1      -6.866   6.307  64.442  1.00  0.00    -0.042 C  
HETATM   30  N   UNL     1      -8.255   6.290  64.477  1.00  0.00    -0.103 NA 
HETATM   31  H   UNL     1      -9.719   7.840  64.800  1.00  0.00     0.000 HD 
ENDBRANCH  24  25
ENDBRANCH  22  24
BRANCH  23  32
HETATM   32  C   UNL     1      -9.595  11.962  65.719  1.00  0.00    -0.241 A  
HETATM   33  C   UNL     1     -11.536  12.913  63.916  1.00  0.00    -0.453 A  
HETATM   34  F   UNL     1     -12.432  13.364  63.030  1.00  0.00    -0.559 F  
HETATM   35  C   UNL     1     -10.244  11.082  64.842  1.00  0.00    -0.373 A  
HETATM   36  C   UNL     1     -10.928  13.799  64.791  1.00  0.00    -0.396 A  
HETATM   37  C   UNL     1     -11.209  11.558  63.941  1.00  0.00    -0.439 A  
HETATM   38  C   UNL     1      -9.967  13.326  65.690  1.00  0.00    -0.242 A  
ENDBRANCH  23  32
ENDBRANCH  17  18
ENDBRANCH   2  17
TORSDOF 6
ENDMDL
MODEL      202
REMARK 921   NORMALIZED FREE ENERGY PREDICTED BY IDOCK:   -5.13 KCAL/MOL
REMARK 922        TOTAL FREE ENERGY PREDICTED BY IDOCK:   -9.06 KCAL/MOL
REMARK 923 INTER-LIGAND FREE ENERGY PREDICTED BY IDOCK:   -8.12 KCAL/MOL
REMARK 924 INTRA-LIGAND FREE ENERGY PREDICTED BY IDOCK:   -0.94 KCAL/MOL
REMARK 927      BINDING AFFINITY PREDICTED BY RF-SCORE:    0.00 PKD
ROOT
HETATM    1  C   UNL     1     -11.400   9.373  70.152  1.00  0.00    -0.220 C  
HETATM    2  C   UNL     1     -10.331  10.045  69.277  1.00  0.00    -0.219 C  
ENDROOT
BRANCH   2   3
HETATM    3  C   UNL     1     -10.829  11.320  68.575  1.00  0.00    -0.245 A  
HETATM    4  C   UNL     1     -11.079  12.513  69.280  1.00  0.00    -0.203 A  
HETATM    5  C   UNL     1     -11.066  11.319  67.188  1.00  0.00    -0.364 A  
HETATM    6  F   UNL     1     -10.695  15.365  70.093  1.00  0.00    -0.252 F  
HETATM    7  F   UNL     1     -12.264  15.971  68.715  1.00  0.00    -0.358 F  
HETATM    8  C   UNL     1     -11.540  12.467  66.522  1.00  0.00    -0.447 A  
HETATM    9  C   UNL     1     -11.819  12.456  65.036  1.00  0.00    -0.388 C  
HETATM   10  C   UNL     1     -11.778  13.640  67.259  1.00  0.00    -0.416 A  
HETATM   11  F   UNL     1     -12.746  14.724  70.429  1.00  0.00    -0.363 F  
HETATM   12  F   UNL     1     -11.525  11.272  64.431  1.00  0.00    -0.346 F  
HETATM   13  F   UNL     1     -13.124  12.712  64.749  1.00  0.00    -0.513 F  
HETATM   14  F   UNL     1     -11.100  13.402  64.366  1.00  0.00    -0.333 F  
HETATM   15  C   UNL     1     -11.814  14.919  69.455  1.00  0.00    -0.325 C  
HETATM   16  C   UNL     1     -11.552  13.672  68.641  1.00  0.00    -0.364 A  
ENDBRANCH   2   3
BRANCH   2  17
HETATM   17  O   UNL     1      -9.610   9.102  68.445  1.00  0.00    -0.149 OA 
BRANCH  17  18
HETATM   18  C   UNL     1     -10.317   7.904  68.095  1.00  0.00    -0.200 C  
HETATM   19  C   UNL     1      -8.667   6.426  66.251  1.00  0.00    -0.143 C  
HETATM   20  C   UNL     1      -9.322   7.776  65.978  1.00  0.00    -0.037 C  
HETATM   21  O   UNL     1     -10.566   7.876  66.681  1.00  0.00    -0.276 OA 
HETATM   22  N   UNL     1      -8.371   6.187  67.693  1.00  0.00    -0.112 NA 
HETATM   23  C   UNL     1      -9.621   6.514  68.482  1.00  0.00    -0.123 C  
BRANCH  22  24
HETATM   24  C   UNL     1      -8.018   4.749  67.858  1.00  0.00    -0.089 C  
BRANCH  24  25
HETATM   25  C   UNL     1      -7.484   4.154  66.575  1.00  0.00    -0.084 C  
HETATM   26  N   UNL     1      -8.286   3.453  65.754  1.00  0.00    -0.101 NA 
HETATM   27  N   UNL     1      -6.252   4.270  66.159  1.00  0.00    -0.031 NA 
HETATM   28  O   UNL     1      -7.873   2.490  63.695  1.00  0.00    -0.067 OA 
HETATM   29  C   UNL     1      -7.521   3.100  64.686  1.00  0.00    -0.075 C  
HETATM   30  N   UNL     1      -6.253   3.598  64.963  1.00  0.00    -0.023 NA 
HETATM   31  H   UNL     1      -5.474   4.747  66.614  1.00  0.00     0.000 HD 
ENDBRANCH  24  25
ENDBRANCH  22  24
BRANCH  23  32
HETATM   32  C   UNL     1      -9.486   6.253  69.985  1.00  0.00    -0.167 A  
HETATM   33  C   UNL     1      -9.159   5.499  72.678  1.00  0.00    -0.138 A  
HETATM   34  F   UNL     1      -8.973   5.118  73.946  1.00  0.00    -0.117 F  
HETATM   35  C   UNL     1      -8.482   6.836  70.771  1.00  0.00    -0.133 A  
HETATM   36  C   UNL     1     -10.175   4.928  71.929  1.00  0.00    -0.267 A  
HETATM   37  C   UNL     1      -8.318   6.457  72.112  1.00  0.00    -0.108 A  
HETATM   38  C   UNL     1     -10.341   5.305  70.593  1.00  0.00    -0.324 A  
ENDBRANCH  23  32
ENDBRANCH  17  18
ENDBRANCH   2  17
TORSDOF 6
ENDMDL
MODEL      203
REMARK 921   NORMALIZED FREE ENERGY PREDICTED BY IDOCK:   -5.10 KCAL/MOL
REMARK 922        TOTAL FREE ENERGY PREDICTED BY IDOCK:   -9.03 KCAL/MOL
REMARK 923 INTER-LIGAND FREE ENERGY PREDICTED BY IDOCK:   -6.18 KCAL/MOL
REMARK 924 INTRA-LIGAND FREE ENERGY PREDICTED BY IDOCK:   -2.85 KCAL/MOL
REMARK 927      BINDING AFFINITY PREDICTED BY RF-SCORE:    0.00 PKD
ROOT
HETATM    1  C   UNL     1      -5.906   8.550  70.990  1.00  0.00    -0.034 C  
HETATM    2  C   UNL     1      -7.222   9.182  70.513  1.00  0.00    -0.097 C  
ENDROOT
BRANCH   2   3
HETATM    3  C   UNL     1      -8.464   8.346  70.864  1.00  0.00    -0.158 A  
HETATM    4  C   UNL     1      -8.427   6.940  70.922  1.00  0.00    -0.135 A  
HETATM    5  C   UNL     1      -9.694   8.979  71.124  1.00  0.00    -0.369 A  
HETATM    6  F   UNL     1      -8.562   4.231  72.180  1.00  0.00    -0.100 F  
HETATM    7  F   UNL     1     -10.641   4.049  71.571  1.00  0.00    -0.127 F  
HETATM    8  C   UNL     1     -10.853   8.238  71.430  1.00  0.00    -0.293 A  
HETATM    9  C   UNL     1     -12.178   8.918  71.684  1.00  0.00    -0.343 C  
HETATM   10  C   UNL     1     -10.777   6.835  71.480  1.00  0.00    -0.254 A  
HETATM   11  F   UNL     1      -9.073   4.140  70.069  1.00  0.00    -0.122 F  
HETATM   12  F   UNL     1     -12.116  10.278  71.633  1.00  0.00    -0.435 F  
HETATM   13  F   UNL     1     -13.132   8.551  70.786  1.00  0.00    -0.064 F  
HETATM   14  F   UNL     1     -12.690   8.617  72.912  1.00  0.00    -0.435 F  
HETATM   15  C   UNL     1      -9.468   4.667  71.260  1.00  0.00    -0.158 C  
HETATM   16  C   UNL     1      -9.568   6.176  71.225  1.00  0.00    -0.189 A  
ENDBRANCH   2   3
BRANCH   2  17
HETATM   17  O   UNL     1      -7.149   9.671  69.149  1.00  0.00    -0.059 OA 
BRANCH  17  18
HETATM   18  C   UNL     1      -8.390  10.095  68.567  1.00  0.00    -0.116 C  
HETATM   19  C   UNL     1      -7.817  11.079  65.919  1.00  0.00    -0.034 C  
HETATM   20  C   UNL     1      -7.360  11.717  67.226  1.00  0.00    -0.136 C  
HETATM   21  O   UNL     1      -8.333  11.495  68.254  1.00  0.00    -0.140 OA 
HETATM   22  N   UNL     1      -8.020   9.605  66.013  1.00  0.00    -0.107 NA 
HETATM   23  C   UNL     1      -8.865   9.331  67.240  1.00  0.00    -0.124 C  
BRANCH  22  24
HETATM   24  C   UNL     1      -8.737   9.159  64.785  1.00  0.00    -0.176 C  
BRANCH  24  25
HETATM   25  C   UNL     1      -7.994   8.049  64.077  1.00  0.00    -0.134 C  
HETATM   26  N   UNL     1      -6.687   8.172  63.783  1.00  0.00    -0.074 NA 
HETATM   27  N   UNL     1      -8.526   6.914  63.711  1.00  0.00    -0.331 NA 
HETATM   28  O   UNL     1      -5.207   6.685  62.815  1.00  0.00    -0.028 OA 
HETATM   29  C   UNL     1      -6.318   7.001  63.197  1.00  0.00    -0.044 C  
HETATM   30  N   UNL     1      -7.478   6.238  63.141  1.00  0.00    -0.064 NA 
HETATM   31  H   UNL     1      -9.491   6.604  63.823  1.00  0.00     0.000 HD 
ENDBRANCH  24  25
ENDBRANCH  22  24
BRANCH  23  32
HETATM   32  C   UNL     1      -9.211   7.852  67.432  1.00  0.00    -0.160 A  
HETATM   33  C   UNL     1      -9.998   5.151  67.534  1.00  0.00    -0.174 A  
HETATM   34  F   UNL     1     -10.370   3.866  67.544  1.00  0.00    -0.033 F  
HETATM   35  C   UNL     1      -8.259   6.828  67.327  1.00  0.00    -0.121 A  
HETATM   36  C   UNL     1     -10.955   6.145  67.668  1.00  0.00    -0.400 A  
HETATM   37  C   UNL     1      -8.653   5.483  67.374  1.00  0.00    -0.108 A  
HETATM   38  C   UNL     1     -10.564   7.486  67.622  1.00  0.00    -0.303 A  
ENDBRANCH  23  32
ENDBRANCH  17  18
ENDBRANCH   2  17
TORSDOF 6
ENDMDL
MODEL      204
REMARK 921   NORMALIZED FREE ENERGY PREDICTED BY IDOCK:   -5.09 KCAL/MOL
REMARK 922        TOTAL FREE ENERGY PREDICTED BY IDOCK:   -9.01 KCAL/MOL
REMARK 923 INTER-LIGAND FREE ENERGY PREDICTED BY IDOCK:   -7.98 KCAL/MOL
REMARK 924 INTRA-LIGAND FREE ENERGY PREDICTED BY IDOCK:   -1.04 KCAL/MOL
REMARK 927      BINDING AFFINITY PREDICTED BY RF-SCORE:    0.00 PKD
ROOT
HETATM    1  C   UNL     1     -12.657  11.529  69.891  1.00  0.00    -0.046 C  
HETATM    2  C   UNL     1     -11.514  11.286  68.895  1.00  0.00    -0.297 C  
ENDROOT
BRANCH   2   3
HETATM    3  C   UNL     1     -10.644  10.068  69.248  1.00  0.00    -0.249 A  
HETATM    4  C   UNL     1     -11.152   8.755  69.223  1.00  0.00     0.096 A  
HETATM    5  C   UNL     1      -9.300  10.242  69.626  1.00  0.00    -0.167 A  
HETATM    6  F   UNL     1     -11.433   5.927  68.293  1.00  0.00    -0.279 F  
HETATM    7  F   UNL     1     -10.095   5.271  69.876  1.00  0.00    -0.239 F  
HETATM    8  C   UNL     1      -8.485   9.145  69.972  1.00  0.00    -0.164 A  
HETATM    9  C   UNL     1      -7.049   9.336  70.403  1.00  0.00    -0.091 C  
HETATM   10  C   UNL     1      -9.027   7.849  69.935  1.00  0.00    -0.146 A  
HETATM   11  F   UNL     1     -12.028   6.130  70.374  1.00  0.00    -0.394 F  
HETATM   12  F   UNL     1      -6.635  10.634  70.373  1.00  0.00    -0.134 F  
HETATM   13  F   UNL     1      -6.823   8.899  71.671  1.00  0.00    -0.081 F  
HETATM   14  F   UNL     1      -6.174   8.650  69.613  1.00  0.00    -0.034 F  
HETATM   15  C   UNL     1     -10.968   6.258  69.530  1.00  0.00    -0.379 C  
HETATM   16  C   UNL     1     -10.361   7.643  69.564  1.00  0.00    -0.217 A  
ENDBRANCH   2   3
BRANCH   2  17
HETATM   17  O   UNL     1     -10.798  12.501  68.554  1.00  0.00    -0.227 OA 
BRANCH  17  18
HETATM   18  C   UNL     1     -10.014  12.452  67.354  1.00  0.00    -0.202 C  
HETATM   19  C   UNL     1     -11.201  14.273  65.462  1.00  0.00    -0.320 C  
HETATM   20  C   UNL     1     -11.835  12.987  65.981  1.00  0.00    -0.417 C  
HETATM   21  O   UNL     1     -10.824  12.009  66.254  1.00  0.00    -0.257 OA 
HETATM   22  N   UNL     1     -10.243  14.895  66.420  1.00  0.00    -0.274 NA 
HETATM   23  C   UNL     1      -9.299  13.813  66.900  1.00  0.00    -0.261 C  
BRANCH  22  24
HETATM   24  C   UNL     1      -9.485  15.953  65.692  1.00  0.00    -0.182 C  
BRANCH  24  25
HETATM   25  C   UNL     1      -9.798  17.331  66.228  1.00  0.00    -0.285 C  
HETATM   26  N   UNL     1      -9.699  17.599  67.543  1.00  0.00    -0.274 NA 
HETATM   27  N   UNL     1     -10.166  18.347  65.496  1.00  0.00    -0.462 NA 
HETATM   28  O   UNL     1      -9.991  19.571  68.712  1.00  0.00    -0.430 OA 
HETATM   29  C   UNL     1     -10.001  18.918  67.685  1.00  0.00    -0.349 C  
HETATM   30  N   UNL     1     -10.309  19.363  66.406  1.00  0.00    -0.444 NA 
HETATM   31  H   UNL     1     -10.312  18.378  64.487  1.00  0.00     0.000 HD 
ENDBRANCH  24  25
ENDBRANCH  22  24
BRANCH  23  32
HETATM   32  C   UNL     1      -8.211  14.321  67.850  1.00  0.00    -0.156 A  
HETATM   33  C   UNL     1      -6.323  15.076  69.797  1.00  0.00    -0.152 A  
HETATM   34  F   UNL     1      -5.427  15.398  70.736  1.00  0.00    -0.134 F  
HETATM   35  C   UNL     1      -6.851  14.030  67.674  1.00  0.00    -0.195 A  
HETATM   36  C   UNL     1      -7.658  15.399  69.982  1.00  0.00     0.154 A  
HETATM   37  C   UNL     1      -5.912  14.403  68.647  1.00  0.00    -0.085 A  
HETATM   38  C   UNL     1      -8.596  15.029  69.012  1.00  0.00    -0.205 A  
ENDBRANCH  23  32
ENDBRANCH  17  18
ENDBRANCH   2  17
TORSDOF 6
ENDMDL
MODEL      205
REMARK 921   NORMALIZED FREE ENERGY PREDICTED BY IDOCK:   -5.08 KCAL/MOL
REMARK 922        TOTAL FREE ENERGY PREDICTED BY IDOCK:   -8.99 KCAL/MOL
REMARK 923 INTER-LIGAND FREE ENERGY PREDICTED BY IDOCK:   -9.95 KCAL/MOL
REMARK 924 INTRA-LIGAND FREE ENERGY PREDICTED BY IDOCK:    0.96 KCAL/MOL
REMARK 927      BINDING AFFINITY PREDICTED BY RF-SCORE:    0.00 PKD
ROOT
HETATM    1  C   UNL     1      -7.638  14.282  67.501  1.00  0.00    -0.202 C  
HETATM    2  C   UNL     1      -8.974  13.642  67.095  1.00  0.00    -0.231 C  
ENDROOT
BRANCH   2   3
HETATM    3  C   UNL     1      -8.985  12.110  67.233  1.00  0.00    -0.184 A  
HETATM    4  C   UNL     1      -9.339  11.470  68.436  1.00  0.00    -0.194 A  
HETATM    5  C   UNL     1      -8.618  11.298  66.144  1.00  0.00    -0.156 A  
HETATM    6  F   UNL     1     -10.976   9.771  70.274  1.00  0.00    -0.247 F  
HETATM    7  F   UNL     1      -9.667   8.081  69.881  1.00  0.00    -0.175 F  
HETATM    8  C   UNL     1      -8.601   9.892  66.248  1.00  0.00    -0.137 A  
HETATM    9  C   UNL     1      -8.182   9.021  65.085  1.00  0.00    -0.145 C  
HETATM   10  C   UNL     1      -8.962   9.289  67.465  1.00  0.00    -0.127 A  
HETATM   11  F   UNL     1      -8.897   9.834  70.908  1.00  0.00    -0.217 F  
HETATM   12  F   UNL     1      -7.881   9.722  63.956  1.00  0.00    -0.119 F  
HETATM   13  F   UNL     1      -7.083   8.271  65.366  1.00  0.00    -0.063 F  
HETATM   14  F   UNL     1      -9.153   8.135  64.723  1.00  0.00     0.007 F  
HETATM   15  C   UNL     1      -9.710   9.442  69.889  1.00  0.00    -0.212 C  
HETATM   16  C   UNL     1      -9.331  10.070  68.567  1.00  0.00    -0.145 A  
ENDBRANCH   2   3
BRANCH   2  17
HETATM   17  O   UNL     1      -9.496  14.171  65.850  1.00  0.00    -0.219 OA 
BRANCH  17  18
HETATM   18  C   UNL     1     -10.689  14.961  65.955  1.00  0.00    -0.323 C  
HETATM   19  C   UNL     1     -12.152  14.029  68.256  1.00  0.00    -0.277 C  
HETATM   20  C   UNL     1     -11.901  13.238  66.977  1.00  0.00    -0.390 C  
HETATM   21  O   UNL     1     -11.847  14.120  65.849  1.00  0.00    -0.357 OA 
HETATM   22  N   UNL     1     -11.096  15.041  68.548  1.00  0.00    -0.260 NA 
HETATM   23  C   UNL     1     -10.860  15.841  67.283  1.00  0.00    -0.298 C  
BRANCH  22  24
HETATM   24  C   UNL     1     -11.599  15.931  69.633  1.00  0.00    -0.336 C  
BRANCH  24  25
HETATM   25  C   UNL     1     -12.572  15.211  70.538  1.00  0.00    -0.380 C  
HETATM   26  N   UNL     1     -12.156  14.223  71.351  1.00  0.00    -0.328 NA 
HETATM   27  N   UNL     1     -13.847  15.477  70.620  1.00  0.00    -0.834 NA 
HETATM   28  O   UNL     1     -13.300  12.973  72.922  1.00  0.00    -0.424 OA 
HETATM   29  C   UNL     1     -13.251  13.821  72.052  1.00  0.00    -0.432 C  
HETATM   30  N   UNL     1     -14.299  14.598  71.570  1.00  0.00    -0.467 NA 
HETATM   31  H   UNL     1     -14.382  16.174  70.101  1.00  0.00     0.000 HD 
ENDBRANCH  24  25
ENDBRANCH  22  24
BRANCH  23  32
HETATM   32  C   UNL     1      -9.838  16.969  67.451  1.00  0.00    -0.262 A  
HETATM   33  C   UNL     1      -8.188  19.226  67.781  1.00  0.00    -0.287 A  
HETATM   34  F   UNL     1      -7.431  20.314  67.962  1.00  0.00    -0.326 F  
HETATM   35  C   UNL     1      -9.024  17.097  68.586  1.00  0.00    -0.267 A  
HETATM   36  C   UNL     1      -8.963  19.110  66.638  1.00  0.00    -0.349 A  
HETATM   37  C   UNL     1      -8.206  18.224  68.751  1.00  0.00    -0.253 A  
HETATM   38  C   UNL     1      -9.779  17.987  66.471  1.00  0.00    -0.338 A  
ENDBRANCH  23  32
ENDBRANCH  17  18
ENDBRANCH   2  17
TORSDOF 6
ENDMDL
MODEL      206
REMARK 921   NORMALIZED FREE ENERGY PREDICTED BY IDOCK:   -5.06 KCAL/MOL
REMARK 922        TOTAL FREE ENERGY PREDICTED BY IDOCK:   -8.97 KCAL/MOL
REMARK 923 INTER-LIGAND FREE ENERGY PREDICTED BY IDOCK:  -10.52 KCAL/MOL
REMARK 924 INTRA-LIGAND FREE ENERGY PREDICTED BY IDOCK:    1.55 KCAL/MOL
REMARK 927      BINDING AFFINITY PREDICTED BY RF-SCORE:    0.00 PKD
ROOT
HETATM    1  C   UNL     1      -7.927   9.316  68.357  1.00  0.00    -0.102 C  
HETATM    2  C   UNL     1      -8.464  10.152  69.528  1.00  0.00    -0.168 C  
ENDROOT
BRANCH   2   3
HETATM    3  C   UNL     1      -9.444   9.383  70.430  1.00  0.00    -0.319 A  
HETATM    4  C   UNL     1     -10.731   9.872  70.722  1.00  0.00    -0.350 A  
HETATM    5  C   UNL     1      -9.062   8.159  71.009  1.00  0.00    -0.176 A  
HETATM    6  F   UNL     1     -13.721   9.936  70.715  1.00  0.00    -0.408 F  
HETATM    7  F   UNL     1     -13.749   8.988  72.671  1.00  0.00    -0.447 F  
HETATM    8  C   UNL     1      -9.933   7.442  71.855  1.00  0.00    -0.196 A  
HETATM    9  C   UNL     1      -9.513   6.140  72.496  1.00  0.00    -0.143 C  
HETATM   10  C   UNL     1     -11.211   7.961  72.123  1.00  0.00    -0.363 A  
HETATM   11  F   UNL     1     -12.920  10.984  72.443  1.00  0.00    -0.487 F  
HETATM   12  F   UNL     1      -8.263   5.730  72.139  1.00  0.00    -0.108 F  
HETATM   13  F   UNL     1      -9.512   6.205  73.855  1.00  0.00    -0.131 F  
HETATM   14  F   UNL     1     -10.346   5.109  72.174  1.00  0.00    -0.231 F  
HETATM   15  C   UNL     1     -12.986   9.761  71.848  1.00  0.00    -0.440 C  
HETATM   16  C   UNL     1     -11.620   9.178  71.563  1.00  0.00    -0.439 A  
ENDBRANCH   2   3
BRANCH   2  17
HETATM   17  O   UNL     1      -8.880  11.482  69.125  1.00  0.00     0.071 OA 
BRANCH  17  18
HETATM   18  C   UNL     1      -9.123  11.667  67.724  1.00  0.00    -0.175 C  
HETATM   19  C   UNL     1     -11.978  11.724  67.335  1.00  0.00     0.026 C  
HETATM   20  C   UNL     1     -11.163  10.518  67.789  1.00  0.00    -0.273 C  
HETATM   21  O   UNL     1      -9.858  10.550  67.200  1.00  0.00    -0.167 OA 
HETATM   22  N   UNL     1     -11.366  13.032  67.707  1.00  0.00    -0.275 NA 
HETATM   23  C   UNL     1      -9.910  12.996  67.295  1.00  0.00    -0.227 C  
BRANCH  22  24
HETATM   24  C   UNL     1     -12.085  14.105  66.963  1.00  0.00    -0.414 C  
BRANCH  24  25
HETATM   25  C   UNL     1     -12.230  13.766  65.498  1.00  0.00    -0.442 C  
HETATM   26  N   UNL     1     -12.654  12.550  65.110  1.00  0.00    -0.650 NA 
HETATM   27  N   UNL     1     -11.979  14.589  64.516  1.00  0.00    -0.494 NA 
HETATM   28  O   UNL     1     -13.089  11.698  63.006  1.00  0.00    -0.436 OA 
HETATM   29  C   UNL     1     -12.715  12.584  63.751  1.00  0.00    -0.311 C  
HETATM   30  N   UNL     1     -12.273  13.853  63.397  1.00  0.00    -0.650 NA 
HETATM   31  H   UNL     1     -11.645  15.551  64.569  1.00  0.00     0.000 HD 
ENDBRANCH  24  25
ENDBRANCH  22  24
BRANCH  23  32
HETATM   32  C   UNL     1      -9.162  14.306  67.560  1.00  0.00    -0.197 A  
HETATM   33  C   UNL     1      -8.010  16.850  67.910  1.00  0.00    -0.183 A  
HETATM   34  F   UNL     1      -7.498  18.075  68.080  1.00  0.00    -0.219 F  
HETATM   35  C   UNL     1      -9.006  14.847  68.844  1.00  0.00    -0.184 A  
HETATM   36  C   UNL     1      -8.128  16.326  66.632  1.00  0.00    -0.323 A  
HETATM   37  C   UNL     1      -8.436  16.116  69.017  1.00  0.00    -0.251 A  
HETATM   38  C   UNL     1      -8.696  15.060  66.458  1.00  0.00    -0.244 A  
ENDBRANCH  23  32
ENDBRANCH  17  18
ENDBRANCH   2  17
TORSDOF 6
ENDMDL
MODEL      207
REMARK 921   NORMALIZED FREE ENERGY PREDICTED BY IDOCK:   -5.04 KCAL/MOL
REMARK 922        TOTAL FREE ENERGY PREDICTED BY IDOCK:   -8.94 KCAL/MOL
REMARK 923 INTER-LIGAND FREE ENERGY PREDICTED BY IDOCK:   -7.83 KCAL/MOL
REMARK 924 INTRA-LIGAND FREE ENERGY PREDICTED BY IDOCK:   -1.11 KCAL/MOL
REMARK 927      BINDING AFFINITY PREDICTED BY RF-SCORE:    0.00 PKD
ROOT
HETATM    1  C   UNL     1      -9.936  11.048  67.131  1.00  0.00    -0.218 C  
HETATM    2  C   UNL     1     -11.087  10.850  68.128  1.00  0.00    -0.280 C  
ENDROOT
BRANCH   2   3
HETATM    3  C   UNL     1     -11.403  12.107  68.956  1.00  0.00    -0.329 A  
HETATM    4  C   UNL     1     -10.929  13.381  68.590  1.00  0.00    -0.288 A  
HETATM    5  C   UNL     1     -12.173  12.008  70.129  1.00  0.00    -0.309 A  
HETATM    6  F   UNL     1     -11.093  16.225  67.680  1.00  0.00    -0.324 F  
HETATM    7  F   UNL     1     -10.995  16.894  69.747  1.00  0.00    -0.319 F  
HETATM    8  C   UNL     1     -12.462  13.140  70.917  1.00  0.00    -0.407 A  
HETATM    9  C   UNL     1     -13.269  13.028  72.190  1.00  0.00    -0.457 C  
HETATM   10  C   UNL     1     -11.972  14.396  70.520  1.00  0.00    -0.395 A  
HETATM   11  F   UNL     1      -9.294  15.880  68.852  1.00  0.00    -0.185 F  
HETATM   12  F   UNL     1     -13.708  11.765  72.453  1.00  0.00    -0.490 F  
HETATM   13  F   UNL     1     -12.566  13.418  73.288  1.00  0.00     0.045 F  
HETATM   14  F   UNL     1     -14.385  13.811  72.169  1.00  0.00    -0.531 F  
HETATM   15  C   UNL     1     -10.654  15.867  68.920  1.00  0.00    -0.244 C  
HETATM   16  C   UNL     1     -11.202  14.527  69.358  1.00  0.00    -0.312 A  
ENDBRANCH   2   3
BRANCH   2  17
HETATM   17  O   UNL     1     -10.980   9.609  68.872  1.00  0.00    -0.202 OA 
BRANCH  17  18
HETATM   18  C   UNL     1      -9.760   9.417  69.601  1.00  0.00    -0.190 C  
HETATM   19  C   UNL     1      -9.965   6.902  70.994  1.00  0.00    -0.188 C  
HETATM   20  C   UNL     1     -10.801   8.146  71.271  1.00  0.00    -0.237 C  
HETATM   21  O   UNL     1     -10.037   9.329  71.008  1.00  0.00    -0.270 OA 
HETATM   22  N   UNL     1      -9.488   6.805  69.584  1.00  0.00    -0.147 NA 
HETATM   23  C   UNL     1      -8.876   8.139  69.210  1.00  0.00    -0.144 C  
BRANCH  22  24
HETATM   24  C   UNL     1      -8.458   5.730  69.519  1.00  0.00    -0.112 C  
BRANCH  24  25
HETATM   25  C   UNL     1      -8.503   4.993  68.200  1.00  0.00    -0.099 C  
HETATM   26  N   UNL     1      -7.370   4.610  67.585  1.00  0.00    -0.073 NA 
HETATM   27  N   UNL     1      -9.598   4.666  67.569  1.00  0.00    -0.153 NA 
HETATM   28  O   UNL     1      -7.036   3.401  65.644  1.00  0.00    -0.063 OA 
HETATM   29  C   UNL     1      -7.754   3.944  66.462  1.00  0.00    -0.089 C  
HETATM   30  N   UNL     1      -9.142   4.006  66.457  1.00  0.00    -0.130 NA 
HETATM   31  H   UNL     1     -10.563   4.855  67.840  1.00  0.00     0.000 HD 
ENDBRANCH  24  25
ENDBRANCH  22  24
BRANCH  23  32
HETATM   32  C   UNL     1      -8.282   8.169  67.799  1.00  0.00    -0.128 A  
HETATM   33  C   UNL     1      -7.039   7.983  65.279  1.00  0.00    -0.063 A  
HETATM   34  F   UNL     1      -6.450   7.855  64.085  1.00  0.00    -0.057 F  
HETATM   35  C   UNL     1      -9.040   7.913  66.648  1.00  0.00    -0.199 A  
HETATM   36  C   UNL     1      -6.271   8.264  66.398  1.00  0.00    -0.049 A  
HETATM   37  C   UNL     1      -8.419   7.816  65.394  1.00  0.00    -0.124 A  
HETATM   38  C   UNL     1      -6.889   8.362  67.649  1.00  0.00    -0.067 A  
ENDBRANCH  23  32
ENDBRANCH  17  18
ENDBRANCH   2  17
TORSDOF 6
ENDMDL
MODEL      208
REMARK 921   NORMALIZED FREE ENERGY PREDICTED BY IDOCK:   -5.01 KCAL/MOL
REMARK 922        TOTAL FREE ENERGY PREDICTED BY IDOCK:   -8.89 KCAL/MOL
REMARK 923 INTER-LIGAND FREE ENERGY PREDICTED BY IDOCK:   -7.23 KCAL/MOL
REMARK 924 INTRA-LIGAND FREE ENERGY PREDICTED BY IDOCK:   -1.66 KCAL/MOL
REMARK 927      BINDING AFFINITY PREDICTED BY RF-SCORE:    0.00 PKD
ROOT
HETATM    1  C   UNL     1      -7.304  10.612  66.152  1.00  0.00    -0.138 C  
HETATM    2  C   UNL     1      -8.521  10.419  67.068  1.00  0.00    -0.127 C  
ENDROOT
BRANCH   2   3
HETATM    3  C   UNL     1      -9.655  11.423  66.797  1.00  0.00    -0.207 A  
HETATM    4  C   UNL     1     -10.266  11.538  65.534  1.00  0.00    -0.303 A  
HETATM    5  C   UNL     1     -10.105  12.276  67.821  1.00  0.00    -0.202 A  
HETATM    6  F   UNL     1     -12.462  11.376  63.511  1.00  0.00    -0.463 F  
HETATM    7  F   UNL     1     -12.881  13.490  63.793  1.00  0.00    -0.230 F  
HETATM    8  C   UNL     1     -11.129  13.219  67.597  1.00  0.00    -0.292 A  
HETATM    9  C   UNL     1     -11.594  14.152  68.691  1.00  0.00    -0.317 C  
HETATM   10  C   UNL     1     -11.716  13.304  66.323  1.00  0.00    -0.412 A  
HETATM   11  F   UNL     1     -10.982  12.863  62.943  1.00  0.00    -0.190 F  
HETATM   12  F   UNL     1     -10.967  13.954  69.885  1.00  0.00    -0.188 F  
HETATM   13  F   UNL     1     -11.397  15.461  68.377  1.00  0.00    -0.274 F  
HETATM   14  F   UNL     1     -12.927  14.029  68.949  1.00  0.00     0.159 F  
HETATM   15  C   UNL     1     -11.898  12.554  63.901  1.00  0.00    -0.463 C  
HETATM   16  C   UNL     1     -11.290  12.469  65.283  1.00  0.00    -0.363 A  
ENDBRANCH   2   3
BRANCH   2  17
HETATM   17  O   UNL     1      -8.156  10.233  68.458  1.00  0.00    -0.101 OA 
BRANCH  17  18
HETATM   18  C   UNL     1      -7.162   9.231  68.718  1.00  0.00    -0.074 C  
HETATM   19  C   UNL     1      -7.244   8.634  71.537  1.00  0.00    -0.098 C  
HETATM   20  C   UNL     1      -6.811   9.958  70.917  1.00  0.00     0.054 C  
HETATM   21  O   UNL     1      -6.188   9.733  69.647  1.00  0.00    -0.042 OA 
HETATM   22  N   UNL     1      -8.221   7.876  70.703  1.00  0.00    -0.112 NA 
HETATM   23  C   UNL     1      -7.682   7.827  69.289  1.00  0.00    -0.100 C  
BRANCH  22  24
HETATM   24  C   UNL     1      -8.330   6.498  71.261  1.00  0.00    -0.125 C  
BRANCH  24  25
HETATM   25  C   UNL     1      -9.712   6.227  71.810  1.00  0.00    -0.153 C  
HETATM   26  N   UNL     1     -10.749   7.022  71.490  1.00  0.00    -0.221 NA 
HETATM   27  N   UNL     1     -10.015   5.235  72.603  1.00  0.00    -0.160 NA 
HETATM   28  O   UNL     1     -12.989   6.880  72.040  1.00  0.00    -0.264 OA 
HETATM   29  C   UNL     1     -11.840   6.487  72.104  1.00  0.00    -0.305 C  
HETATM   30  N   UNL     1     -11.362   5.389  72.808  1.00  0.00    -0.303 NA 
HETATM   31  H   UNL     1      -9.397   4.516  72.979  1.00  0.00     0.000 HD 
ENDBRANCH  24  25
ENDBRANCH  22  24
BRANCH  23  32
HETATM   32  C   UNL     1      -8.556   7.019  68.325  1.00  0.00    -0.129 A  
HETATM   33  C   UNL     1     -10.188   5.780  66.394  1.00  0.00    -0.139 A  
HETATM   34  F   UNL     1     -10.946   5.213  65.449  1.00  0.00    -0.101 F  
HETATM   35  C   UNL     1      -8.049   5.990  67.519  1.00  0.00    -0.102 A  
HETATM   36  C   UNL     1     -10.720   6.776  67.198  1.00  0.00    -0.441 A  
HETATM   37  C   UNL     1      -8.862   5.376  66.554  1.00  0.00    -0.118 A  
HETATM   38  C   UNL     1      -9.911   7.389  68.160  1.00  0.00    -0.190 A  
ENDBRANCH  23  32
ENDBRANCH  17  18
ENDBRANCH   2  17
TORSDOF 6
ENDMDL
MODEL      209
REMARK 921   NORMALIZED FREE ENERGY PREDICTED BY IDOCK:   -5.00 KCAL/MOL
REMARK 922        TOTAL FREE ENERGY PREDICTED BY IDOCK:   -8.89 KCAL/MOL
REMARK 923 INTER-LIGAND FREE ENERGY PREDICTED BY IDOCK:   -7.47 KCAL/MOL
REMARK 924 INTRA-LIGAND FREE ENERGY PREDICTED BY IDOCK:   -1.42 KCAL/MOL
REMARK 927      BINDING AFFINITY PREDICTED BY RF-SCORE:    0.00 PKD
ROOT
HETATM    1  C   UNL     1      -7.199  10.095  70.377  1.00  0.00    -0.063 C  
HETATM    2  C   UNL     1      -8.231   9.158  69.734  1.00  0.00    -0.128 C  
ENDROOT
BRANCH   2   3
HETATM    3  C   UNL     1      -9.447   8.878  70.633  1.00  0.00    -0.259 A  
HETATM    4  C   UNL     1     -10.564   9.735  70.669  1.00  0.00    -0.382 A  
HETATM    5  C   UNL     1      -9.464   7.747  71.469  1.00  0.00    -0.174 A  
HETATM    6  F   UNL     1     -13.408  10.571  70.279  1.00  0.00    -0.334 F  
HETATM    7  F   UNL     1     -13.835  10.096  72.357  1.00  0.00    -0.408 F  
HETATM    8  C   UNL     1     -10.557   7.476  72.317  1.00  0.00    -0.280 A  
HETATM    9  C   UNL     1     -10.564   6.273  73.233  1.00  0.00    -0.262 C  
HETATM   10  C   UNL     1     -11.655   8.353  72.325  1.00  0.00    -0.453 A  
HETATM   11  F   UNL     1     -12.468  11.714  71.871  1.00  0.00    -0.303 F  
HETATM   12  F   UNL     1      -9.457   5.487  73.115  1.00  0.00    -0.142 F  
HETATM   13  F   UNL     1     -10.640   6.620  74.547  1.00  0.00    -0.339 F  
HETATM   14  F   UNL     1     -11.628   5.451  73.005  1.00  0.00    -0.330 F  
HETATM   15  C   UNL     1     -12.832  10.453  71.508  1.00  0.00    -0.464 C  
HETATM   16  C   UNL     1     -11.667   9.489  71.505  1.00  0.00    -0.472 A  
ENDBRANCH   2   3
BRANCH   2  17
HETATM   17  O   UNL     1      -7.626   8.000  69.105  1.00  0.00    -0.093 OA 
BRANCH  17  18
HETATM   18  C   UNL     1      -6.567   8.271  68.176  1.00  0.00    -0.057 C  
HETATM   19  C   UNL     1      -5.893   5.789  66.875  1.00  0.00    -0.018 C  
HETATM   20  C   UNL     1      -5.680   6.110  68.350  1.00  0.00    -0.012 C  
HETATM   21  O   UNL     1      -5.402   7.505  68.521  1.00  0.00    -0.024 OA 
HETATM   22  N   UNL     1      -7.028   6.536  66.260  1.00  0.00    -0.064 NA 
HETATM   23  C   UNL     1      -6.874   7.997  66.628  1.00  0.00    -0.068 C  
BRANCH  22  24
HETATM   24  C   UNL     1      -6.944   6.366  64.782  1.00  0.00    -0.051 C  
BRANCH  24  25
HETATM   25  C   UNL     1      -7.802   5.218  64.303  1.00  0.00    -0.101 C  
HETATM   26  N   UNL     1      -9.034   5.020  64.807  1.00  0.00    -0.132 NA 
HETATM   27  N   UNL     1      -7.448   4.355  63.389  1.00  0.00    -0.054 NA 
HETATM   28  O   UNL     1     -10.657   3.465  64.272  1.00  0.00    -0.180 OA 
HETATM   29  C   UNL     1      -9.549   3.949  64.144  1.00  0.00    -0.165 C  
HETATM   30  N   UNL     1      -8.542   3.535  63.281  1.00  0.00    -0.089 NA 
HETATM   31  H   UNL     1      -6.568   4.304  62.877  1.00  0.00     0.000 HD 
ENDBRANCH  24  25
ENDBRANCH  22  24
BRANCH  23  32
HETATM   32  C   UNL     1      -7.942   8.903  66.008  1.00  0.00    -0.106 A  
HETATM   33  C   UNL     1      -9.872  10.413  64.622  1.00  0.00    -0.338 A  
HETATM   34  F   UNL     1     -10.800  11.098  63.945  1.00  0.00    -0.410 F  
HETATM   35  C   UNL     1      -9.288   8.872  66.401  1.00  0.00    -0.262 A  
HETATM   36  C   UNL     1      -8.544  10.481  64.231  1.00  0.00    -0.156 A  
HETATM   37  C   UNL     1     -10.249   9.622  65.707  1.00  0.00    -0.172 A  
HETATM   38  C   UNL     1      -7.585   9.735  64.922  1.00  0.00    -0.128 A  
ENDBRANCH  23  32
ENDBRANCH  17  18
ENDBRANCH   2  17
TORSDOF 6
ENDMDL
MODEL      210
REMARK 921   NORMALIZED FREE ENERGY PREDICTED BY IDOCK:   -5.00 KCAL/MOL
REMARK 922        TOTAL FREE ENERGY PREDICTED BY IDOCK:   -8.89 KCAL/MOL
REMARK 923 INTER-LIGAND FREE ENERGY PREDICTED BY IDOCK:   -8.10 KCAL/MOL
REMARK 924 INTRA-LIGAND FREE ENERGY PREDICTED BY IDOCK:   -0.79 KCAL/MOL
REMARK 927      BINDING AFFINITY PREDICTED BY RF-SCORE:    0.00 PKD
ROOT
HETATM    1  C   UNL     1      -8.959   8.413  65.444  1.00  0.00    -0.103 C  
HETATM    2  C   UNL     1      -9.581   9.402  66.441  1.00  0.00    -0.224 C  
ENDROOT
BRANCH   2   3
HETATM    3  C   UNL     1     -10.044   8.740  67.750  1.00  0.00    -0.261 A  
HETATM    4  C   UNL     1      -9.726   7.405  68.066  1.00  0.00    -0.161 A  
HETATM    5  C   UNL     1     -10.825   9.461  68.671  1.00  0.00    -0.149 A  
HETATM    6  F   UNL     1      -8.453   5.161  69.577  1.00  0.00    -0.089 F  
HETATM    7  F   UNL     1     -10.284   4.886  70.717  1.00  0.00    -0.273 F  
HETATM    8  C   UNL     1     -11.279   8.874  69.870  1.00  0.00    -0.076 A  
HETATM    9  C   UNL     1     -12.139   9.643  70.847  1.00  0.00    -0.300 C  
HETATM   10  C   UNL     1     -10.941   7.540  70.152  1.00  0.00    -0.267 A  
HETATM   11  F   UNL     1     -10.268   4.502  68.578  1.00  0.00    -0.191 F  
HETATM   12  F   UNL     1     -12.376  10.932  70.473  1.00  0.00    -0.342 F  
HETATM   13  F   UNL     1     -13.362   9.072  71.024  1.00  0.00    -0.290 F  
HETATM   14  F   UNL     1     -11.580   9.714  72.088  1.00  0.00    -0.392 F  
HETATM   15  C   UNL     1      -9.801   5.354  69.532  1.00  0.00    -0.196 C  
HETATM   16  C   UNL     1     -10.165   6.795  69.255  1.00  0.00    -0.197 A  
ENDBRANCH   2   3
BRANCH   2  17
HETATM   17  O   UNL     1     -10.525  10.309  65.819  1.00  0.00    -0.196 OA 
BRANCH  17  18
HETATM   18  C   UNL     1      -9.994  11.568  65.382  1.00  0.00    -0.248 C  
HETATM   19  C   UNL     1     -11.643  13.647  66.506  1.00  0.00    -0.366 C  
HETATM   20  C   UNL     1     -12.080  12.629  65.459  1.00  0.00    -0.458 C  
HETATM   21  O   UNL     1     -10.977  12.278  64.615  1.00  0.00    -0.284 OA 
HETATM   22  N   UNL     1     -10.553  13.156  67.397  1.00  0.00    -0.241 NA 
HETATM   23  C   UNL     1      -9.469  12.566  66.521  1.00  0.00    -0.240 C  
BRANCH  22  24
HETATM   24  C   UNL     1     -10.022  14.321  68.160  1.00  0.00    -0.230 C  
BRANCH  24  25
HETATM   25  C   UNL     1      -9.643  15.461  67.243  1.00  0.00    -0.211 C  
HETATM   26  N   UNL     1      -8.356  15.818  67.081  1.00  0.00    -0.183 NA 
HETATM   27  N   UNL     1     -10.491  16.169  66.547  1.00  0.00    -0.303 NA 
HETATM   28  O   UNL     1      -7.387  17.413  65.719  1.00  0.00    -0.417 OA 
HETATM   29  C   UNL     1      -8.353  16.831  66.173  1.00  0.00    -0.266 C  
HETATM   30  N   UNL     1      -9.691  17.051  65.867  1.00  0.00    -0.523 NA 
HETATM   31  H   UNL     1     -11.507  16.084  66.515  1.00  0.00     0.000 HD 
ENDBRANCH  24  25
ENDBRANCH  22  24
BRANCH  23  32
HETATM   32  C   UNL     1      -8.246  12.074  67.302  1.00  0.00    -0.173 A  
HETATM   33  C   UNL     1      -6.156  10.928  68.800  1.00  0.00    -0.039 A  
HETATM   34  F   UNL     1      -5.174  10.349  69.500  1.00  0.00    -0.038 F  
HETATM   35  C   UNL     1      -7.047  11.698  66.680  1.00  0.00    -0.025 A  
HETATM   36  C   UNL     1      -7.322  11.316  69.442  1.00  0.00    -0.027 A  
HETATM   37  C   UNL     1      -6.008  11.124  67.427  1.00  0.00    -0.057 A  
HETATM   38  C   UNL     1      -8.358  11.889  68.699  1.00  0.00    -0.058 A  
ENDBRANCH  23  32
ENDBRANCH  17  18
ENDBRANCH   2  17
TORSDOF 6
ENDMDL
MODEL      211
REMARK 921   NORMALIZED FREE ENERGY PREDICTED BY IDOCK:   -4.99 KCAL/MOL
REMARK 922        TOTAL FREE ENERGY PREDICTED BY IDOCK:   -8.88 KCAL/MOL
REMARK 923 INTER-LIGAND FREE ENERGY PREDICTED BY IDOCK:   -8.54 KCAL/MOL
REMARK 924 INTRA-LIGAND FREE ENERGY PREDICTED BY IDOCK:   -0.33 KCAL/MOL
REMARK 927      BINDING AFFINITY PREDICTED BY RF-SCORE:    0.00 PKD
ROOT
HETATM    1  C   UNL     1      -6.261   9.758  66.208  1.00  0.00    -0.069 C  
HETATM    2  C   UNL     1      -7.216  10.329  67.267  1.00  0.00    -0.089 C  
ENDROOT
BRANCH   2   3
HETATM    3  C   UNL     1      -8.240   9.304  67.783  1.00  0.00    -0.115 A  
HETATM    4  C   UNL     1      -8.480   8.087  67.118  1.00  0.00    -0.124 A  
HETATM    5  C   UNL     1      -8.986   9.572  68.945  1.00  0.00    -0.141 A  
HETATM    6  F   UNL     1      -8.519   5.122  66.726  1.00  0.00    -0.108 F  
HETATM    7  F   UNL     1     -10.594   5.062  67.371  1.00  0.00    -0.219 F  
HETATM    8  C   UNL     1      -9.945   8.660  69.431  1.00  0.00    -0.197 A  
HETATM    9  C   UNL     1     -10.764   8.961  70.665  1.00  0.00    -0.234 C  
HETATM   10  C   UNL     1     -10.157   7.454  68.741  1.00  0.00    -0.184 A  
HETATM   11  F   UNL     1     -10.057   6.090  65.533  1.00  0.00     0.165 F  
HETATM   12  F   UNL     1     -10.448  10.146  71.259  1.00  0.00    -0.206 F  
HETATM   13  F   UNL     1     -12.098   9.015  70.405  1.00  0.00    -0.187 F  
HETATM   14  F   UNL     1     -10.613   8.012  71.633  1.00  0.00    -0.234 F  
HETATM   15  C   UNL     1      -9.652   5.874  66.815  1.00  0.00    -0.148 C  
HETATM   16  C   UNL     1      -9.430   7.159  67.580  1.00  0.00    -0.141 A  
ENDBRANCH   2   3
BRANCH   2  17
HETATM   17  O   UNL     1      -7.745  11.629  66.904  1.00  0.00    -0.154 OA 
BRANCH  17  18
HETATM   18  C   UNL     1      -8.814  12.123  67.724  1.00  0.00    -0.172 C  
HETATM   19  C   UNL     1      -8.407  14.956  68.070  1.00  0.00    -0.147 C  
HETATM   20  C   UNL     1      -7.509  13.852  68.617  1.00  0.00    -0.122 C  
HETATM   21  O   UNL     1      -8.285  12.689  68.933  1.00  0.00     0.057 OA 
HETATM   22  N   UNL     1      -9.136  14.571  66.828  1.00  0.00    -0.257 NA 
HETATM   23  C   UNL     1      -9.780  13.221  67.068  1.00  0.00    -0.238 C  
BRANCH  22  24
HETATM   24  C   UNL     1     -10.182  15.601  66.570  1.00  0.00    -0.283 C  
BRANCH  24  25
HETATM   25  C   UNL     1      -9.600  16.996  66.560  1.00  0.00    -0.278 C  
HETATM   26  N   UNL     1      -9.988  17.911  67.467  1.00  0.00    -0.309 NA 
HETATM   27  N   UNL     1      -8.700  17.420  65.716  1.00  0.00    -0.480 NA 
HETATM   28  O   UNL     1      -9.272  20.078  67.832  1.00  0.00    -0.336 OA 
HETATM   29  C   UNL     1      -9.256  19.030  67.215  1.00  0.00    -0.286 C  
HETATM   30  N   UNL     1      -8.475  18.714  66.109  1.00  0.00    -0.472 NA 
HETATM   31  H   UNL     1      -8.267  16.910  64.946  1.00  0.00     0.000 HD 
ENDBRANCH  24  25
ENDBRANCH  22  24
BRANCH  23  32
HETATM   32  C   UNL     1     -10.622  12.723  65.890  1.00  0.00    -0.295 A  
HETATM   33  C   UNL     1     -12.229  12.089  63.667  1.00  0.00    -0.538 A  
HETATM   34  F   UNL     1     -12.980  11.821  62.593  1.00  0.00    -0.378 F  
HETATM   35  C   UNL     1     -10.063  12.118  64.756  1.00  0.00    -0.276 A  
HETATM   36  C   UNL     1     -12.811  12.663  64.787  1.00  0.00    -0.349 A  
HETATM   37  C   UNL     1     -10.864  11.806  63.648  1.00  0.00    -0.508 A  
HETATM   38  C   UNL     1     -12.014  12.973  65.893  1.00  0.00    -0.491 A  
ENDBRANCH  23  32
ENDBRANCH  17  18
ENDBRANCH   2  17
TORSDOF 6
ENDMDL
MODEL      212
REMARK 921   NORMALIZED FREE ENERGY PREDICTED BY IDOCK:   -4.96 KCAL/MOL
REMARK 922        TOTAL FREE ENERGY PREDICTED BY IDOCK:   -8.84 KCAL/MOL
REMARK 923 INTER-LIGAND FREE ENERGY PREDICTED BY IDOCK:   -8.98 KCAL/MOL
REMARK 924 INTRA-LIGAND FREE ENERGY PREDICTED BY IDOCK:    0.14 KCAL/MOL
REMARK 927      BINDING AFFINITY PREDICTED BY RF-SCORE:    0.00 PKD
ROOT
HETATM    1  C   UNL     1     -11.571   9.413  70.106  1.00  0.00    -0.117 C  
HETATM    2  C   UNL     1     -10.935  10.072  68.873  1.00  0.00    -0.207 C  
ENDROOT
BRANCH   2   3
HETATM    3  C   UNL     1     -11.384  11.527  68.658  1.00  0.00    -0.330 A  
HETATM    4  C   UNL     1     -11.748  12.364  69.730  1.00  0.00    -0.361 A  
HETATM    5  C   UNL     1     -11.458  12.061  67.358  1.00  0.00    -0.406 A  
HETATM    6  F   UNL     1     -11.542  14.680  71.610  1.00  0.00    -0.378 F  
HETATM    7  F   UNL     1     -12.956  15.797  70.393  1.00  0.00    -0.465 F  
HETATM    8  C   UNL     1     -11.884  13.385  67.130  1.00  0.00    -0.429 A  
HETATM    9  C   UNL     1     -11.987  13.949  65.731  1.00  0.00    -0.400 C  
HETATM   10  C   UNL     1     -12.238  14.191  68.225  1.00  0.00    -0.196 A  
HETATM   11  F   UNL     1     -13.598  13.998  71.430  1.00  0.00    -0.387 F  
HETATM   12  F   UNL     1     -11.592  13.081  64.759  1.00  0.00    -0.321 F  
HETATM   13  F   UNL     1     -13.257  14.319  65.411  1.00  0.00    -0.505 F  
HETATM   14  F   UNL     1     -11.223  15.065  65.563  1.00  0.00    -0.329 F  
HETATM   15  C   UNL     1     -12.566  14.534  70.723  1.00  0.00    -0.351 C  
HETATM   16  C   UNL     1     -12.176  13.688  69.531  1.00  0.00    -0.316 A  
ENDBRANCH   2   3
BRANCH   2  17
HETATM   17  O   UNL     1     -10.964   9.218  67.702  1.00  0.00    -0.204 OA 
BRANCH  17  18
HETATM   18  C   UNL     1      -9.715   8.619  67.329  1.00  0.00    -0.185 C  
HETATM   19  C   UNL     1      -7.847  10.753  66.814  1.00  0.00    -0.135 C  
HETATM   20  C   UNL     1      -9.090  10.437  65.990  1.00  0.00    -0.162 C  
HETATM   21  O   UNL     1      -9.350   9.028  66.002  1.00  0.00    -0.205 OA 
HETATM   22  N   UNL     1      -7.959  10.345  68.244  1.00  0.00    -0.108 NA 
HETATM   23  C   UNL     1      -8.459   8.916  68.280  1.00  0.00    -0.130 C  
BRANCH  22  24
HETATM   24  C   UNL     1      -6.602  10.430  68.856  1.00  0.00    -0.053 C  
BRANCH  24  25
HETATM   25  C   UNL     1      -6.399  11.742  69.579  1.00  0.00    -0.123 C  
HETATM   26  N   UNL     1      -6.595  12.914  68.950  1.00  0.00    -0.090 NA 
HETATM   27  N   UNL     1      -6.040  11.853  70.829  1.00  0.00    -0.532 NA 
HETATM   28  O   UNL     1      -6.483  15.087  69.728  1.00  0.00    -0.140 OA 
HETATM   29  C   UNL     1      -6.373  13.885  69.877  1.00  0.00    -0.115 C  
HETATM   30  N   UNL     1      -6.009  13.208  71.035  1.00  0.00    -0.226 NA 
HETATM   31  H   UNL     1      -5.833  11.108  71.495  1.00  0.00     0.000 HD 
ENDBRANCH  24  25
ENDBRANCH  22  24
BRANCH  23  32
HETATM   32  C   UNL     1      -8.564   8.336  69.693  1.00  0.00    -0.129 A  
HETATM   33  C   UNL     1      -8.526   7.102  72.224  1.00  0.00    -0.116 A  
HETATM   34  F   UNL     1      -8.468   6.515  73.424  1.00  0.00    -0.118 F  
HETATM   35  C   UNL     1      -8.279   9.082  70.845  1.00  0.00    -0.222 A  
HETATM   36  C   UNL     1      -8.836   6.348  71.103  1.00  0.00    -0.138 A  
HETATM   37  C   UNL     1      -8.256   8.465  72.105  1.00  0.00    -0.207 A  
HETATM   38  C   UNL     1      -8.860   6.961  69.847  1.00  0.00    -0.142 A  
ENDBRANCH  23  32
ENDBRANCH  17  18
ENDBRANCH   2  17
TORSDOF 6
ENDMDL
MODEL      213
REMARK 921   NORMALIZED FREE ENERGY PREDICTED BY IDOCK:   -4.90 KCAL/MOL
REMARK 922        TOTAL FREE ENERGY PREDICTED BY IDOCK:   -8.75 KCAL/MOL
REMARK 923 INTER-LIGAND FREE ENERGY PREDICTED BY IDOCK:   -9.25 KCAL/MOL
REMARK 924 INTRA-LIGAND FREE ENERGY PREDICTED BY IDOCK:    0.50 KCAL/MOL
REMARK 927      BINDING AFFINITY PREDICTED BY RF-SCORE:    0.00 PKD
ROOT
HETATM    1  C   UNL     1      -6.763  10.204  68.517  1.00  0.00    -0.057 C  
HETATM    2  C   UNL     1      -7.908  10.355  69.530  1.00  0.00    -0.155 C  
ENDROOT
BRANCH   2   3
HETATM    3  C   UNL     1      -8.572   9.019  69.906  1.00  0.00    -0.143 A  
HETATM    4  C   UNL     1      -9.409   8.891  71.030  1.00  0.00    -0.313 A  
HETATM    5  C   UNL     1      -8.338   7.869  69.130  1.00  0.00    -0.133 A  
HETATM    6  F   UNL     1     -11.954   8.426  72.531  1.00  0.00    -0.401 F  
HETATM    7  F   UNL     1     -11.395   6.348  72.839  1.00  0.00    -0.268 F  
HETATM    8  C   UNL     1      -8.918   6.628  69.462  1.00  0.00    -0.138 A  
HETATM    9  C   UNL     1      -8.647   5.387  68.642  1.00  0.00    -0.095 C  
HETATM   10  C   UNL     1      -9.750   6.539  70.591  1.00  0.00    -0.194 A  
HETATM   11  F   UNL     1     -10.223   7.934  73.752  1.00  0.00    -0.345 F  
HETATM   12  F   UNL     1      -7.848   5.608  67.561  1.00  0.00    -0.096 F  
HETATM   13  F   UNL     1      -8.039   4.408  69.365  1.00  0.00    -0.061 F  
HETATM   14  F   UNL     1      -9.790   4.829  68.150  1.00  0.00    -0.178 F  
HETATM   15  C   UNL     1     -10.881   7.589  72.611  1.00  0.00    -0.315 C  
HETATM   16  C   UNL     1     -10.001   7.665  71.384  1.00  0.00    -0.203 A  
ENDBRANCH   2   3
BRANCH   2  17
HETATM   17  O   UNL     1      -8.810  11.442  69.202  1.00  0.00     0.021 OA 
BRANCH  17  18
HETATM   18  C   UNL     1      -9.164  11.569  67.818  1.00  0.00    -0.165 C  
HETATM   19  C   UNL     1     -12.008  12.020  67.684  1.00  0.00    -0.079 C  
HETATM   20  C   UNL     1     -11.329  10.739  68.157  1.00  0.00    -0.308 C  
HETATM   21  O   UNL     1     -10.097  10.540  67.452  1.00  0.00    -0.182 OA 
HETATM   22  N   UNL     1     -11.185  13.245  67.896  1.00  0.00    -0.260 NA 
HETATM   23  C   UNL     1      -9.796  12.968  67.358  1.00  0.00    -0.215 C  
BRANCH  22  24
HETATM   24  C   UNL     1     -11.817  14.361  67.137  1.00  0.00    -0.410 C  
BRANCH  24  25
HETATM   25  C   UNL     1     -12.098  13.973  65.704  1.00  0.00    -0.417 C  
HETATM   26  N   UNL     1     -12.446  12.713  65.386  1.00  0.00    -0.655 NA 
HETATM   27  N   UNL     1     -12.041  14.790  64.687  1.00  0.00    -0.446 NA 
HETATM   28  O   UNL     1     -13.038  11.771  63.361  1.00  0.00    -0.622 OA 
HETATM   29  C   UNL     1     -12.666  12.706  64.043  1.00  0.00    -0.269 C  
HETATM   30  N   UNL     1     -12.390  14.001  63.621  1.00  0.00    -0.760 NA 
HETATM   31  H   UNL     1     -11.795  15.780  64.686  1.00  0.00     0.000 HD 
ENDBRANCH  24  25
ENDBRANCH  22  24
BRANCH  23  32
HETATM   32  C   UNL     1      -8.850  14.169  67.450  1.00  0.00    -0.211 A  
HETATM   33  C   UNL     1      -6.893  16.191  67.547  1.00  0.00    -0.165 A  
HETATM   34  F   UNL     1      -5.945  17.134  67.564  1.00  0.00    -0.120 F  
HETATM   35  C   UNL     1      -8.878  15.232  66.536  1.00  0.00    -0.335 A  
HETATM   36  C   UNL     1      -6.860  15.165  68.479  1.00  0.00    -0.108 A  
HETATM   37  C   UNL     1      -7.900  16.236  66.583  1.00  0.00    -0.310 A  
HETATM   38  C   UNL     1      -7.834  14.163  68.434  1.00  0.00    -0.143 A  
ENDBRANCH  23  32
ENDBRANCH  17  18
ENDBRANCH   2  17
TORSDOF 6
ENDMDL
MODEL      214
REMARK 921   NORMALIZED FREE ENERGY PREDICTED BY IDOCK:   -4.89 KCAL/MOL
REMARK 922        TOTAL FREE ENERGY PREDICTED BY IDOCK:   -8.74 KCAL/MOL
REMARK 923 INTER-LIGAND FREE ENERGY PREDICTED BY IDOCK:   -6.95 KCAL/MOL
REMARK 924 INTRA-LIGAND FREE ENERGY PREDICTED BY IDOCK:   -1.79 KCAL/MOL
REMARK 927      BINDING AFFINITY PREDICTED BY RF-SCORE:    0.00 PKD
ROOT
HETATM    1  C   UNL     1      -6.458  14.327  67.802  1.00  0.00    -0.181 C  
HETATM    2  C   UNL     1      -7.502  13.201  67.766  1.00  0.00    -0.150 C  
ENDROOT
BRANCH   2   3
HETATM    3  C   UNL     1      -8.945  13.710  67.612  1.00  0.00    -0.202 A  
HETATM    4  C   UNL     1      -9.497  14.024  66.356  1.00  0.00    -0.278 A  
HETATM    5  C   UNL     1      -9.756  13.894  68.747  1.00  0.00    -0.096 A  
HETATM    6  F   UNL     1     -11.331  13.759  64.009  1.00  0.00    -0.378 F  
HETATM    7  F   UNL     1     -12.627  15.291  64.846  1.00  0.00    -0.131 F  
HETATM    8  C   UNL     1     -11.076  14.377  68.637  1.00  0.00    -0.269 A  
HETATM    9  C   UNL     1     -11.938  14.598  69.859  1.00  0.00    -0.329 C  
HETATM   10  C   UNL     1     -11.593  14.678  67.366  1.00  0.00    -0.408 A  
HETATM   11  F   UNL     1     -10.611  15.800  64.213  1.00  0.00    -0.209 F  
HETATM   12  F   UNL     1     -11.334  14.245  71.028  1.00  0.00    -0.242 F  
HETATM   13  F   UNL     1     -12.310  15.898  70.006  1.00  0.00    -0.367 F  
HETATM   14  F   UNL     1     -13.099  13.883  69.812  1.00  0.00    -0.109 F  
HETATM   15  C   UNL     1     -11.342  14.838  64.841  1.00  0.00    -0.410 C  
HETATM   16  C   UNL     1     -10.810  14.507  66.217  1.00  0.00    -0.317 A  
ENDBRANCH   2   3
BRANCH   2  17
HETATM   17  O   UNL     1      -7.287  12.202  68.795  1.00  0.00    -0.109 OA 
BRANCH  17  18
HETATM   18  C   UNL     1      -6.694  10.970  68.360  1.00  0.00    -0.060 C  
HETATM   19  C   UNL     1      -7.430   8.931  70.260  1.00  0.00    -0.074 C  
HETATM   20  C   UNL     1      -6.525  10.126  70.539  1.00  0.00    -0.116 C  
HETATM   21  O   UNL     1      -5.789  10.479  69.361  1.00  0.00    -0.037 OA 
HETATM   22  N   UNL     1      -8.430   9.179  69.181  1.00  0.00    -0.129 NA 
HETATM   23  C   UNL     1      -7.696   9.773  67.997  1.00  0.00    -0.083 C  
BRANCH  22  24
HETATM   24  C   UNL     1      -9.037   7.870  68.806  1.00  0.00    -0.140 C  
BRANCH  24  25
HETATM   25  C   UNL     1      -7.988   6.875  68.366  1.00  0.00    -0.122 C  
HETATM   26  N   UNL     1      -7.882   6.510  67.075  1.00  0.00    -0.106 NA 
HETATM   27  N   UNL     1      -7.119   6.310  69.160  1.00  0.00    -0.075 NA 
HETATM   28  O   UNL     1      -6.373   5.118  66.014  1.00  0.00    -0.037 OA 
HETATM   29  C   UNL     1      -6.829   5.650  67.008  1.00  0.00    -0.064 C  
HETATM   30  N   UNL     1      -6.379   5.521  68.317  1.00  0.00    -0.036 NA 
HETATM   31  H   UNL     1      -7.014   6.428  70.167  1.00  0.00     0.000 HD 
ENDBRANCH  24  25
ENDBRANCH  22  24
BRANCH  23  32
HETATM   32  C   UNL     1      -8.592  10.024  66.781  1.00  0.00    -0.129 A  
HETATM   33  C   UNL     1     -10.246  10.766  64.627  1.00  0.00    -0.350 A  
HETATM   34  F   UNL     1     -11.013  11.153  63.602  1.00  0.00    -0.433 F  
HETATM   35  C   UNL     1      -8.126   9.936  65.461  1.00  0.00    -0.127 A  
HETATM   36  C   UNL     1     -10.740  10.836  65.920  1.00  0.00    -0.143 A  
HETATM   37  C   UNL     1      -8.950  10.310  64.389  1.00  0.00    -0.255 A  
HETATM   38  C   UNL     1      -9.920  10.463  66.990  1.00  0.00    -0.252 A  
ENDBRANCH  23  32
ENDBRANCH  17  18
ENDBRANCH   2  17
TORSDOF 6
ENDMDL
MODEL      215
REMARK 921   NORMALIZED FREE ENERGY PREDICTED BY IDOCK:   -4.87 KCAL/MOL
REMARK 922        TOTAL FREE ENERGY PREDICTED BY IDOCK:   -8.71 KCAL/MOL
REMARK 923 INTER-LIGAND FREE ENERGY PREDICTED BY IDOCK:   -8.62 KCAL/MOL
REMARK 924 INTRA-LIGAND FREE ENERGY PREDICTED BY IDOCK:   -0.09 KCAL/MOL
REMARK 927      BINDING AFFINITY PREDICTED BY RF-SCORE:    0.00 PKD
ROOT
HETATM    1  C   UNL     1      -7.191   9.721  70.643  1.00  0.00    -0.084 C  
HETATM    2  C   UNL     1      -8.108   8.738  69.900  1.00  0.00    -0.109 C  
ENDROOT
BRANCH   2   3
HETATM    3  C   UNL     1      -9.384   8.383  70.681  1.00  0.00    -0.182 A  
HETATM    4  C   UNL     1      -9.525   7.161  71.366  1.00  0.00    -0.162 A  
HETATM    5  C   UNL     1     -10.467   9.280  70.715  1.00  0.00    -0.343 A  
HETATM    6  F   UNL     1      -9.830   5.341  73.720  1.00  0.00    -0.143 F  
HETATM    7  F   UNL     1     -11.981   5.300  73.412  1.00  0.00    -0.244 F  
HETATM    8  C   UNL     1     -11.656   8.972  71.407  1.00  0.00    -0.396 A  
HETATM    9  C   UNL     1     -12.828   9.926  71.422  1.00  0.00    -0.405 C  
HETATM   10  C   UNL     1     -11.760   7.743  72.080  1.00  0.00    -0.368 A  
HETATM   11  F   UNL     1     -10.654   4.440  71.921  1.00  0.00    -0.239 F  
HETATM   12  F   UNL     1     -12.595  11.092  70.756  1.00  0.00    -0.385 F  
HETATM   13  F   UNL     1     -13.944   9.389  70.859  1.00  0.00    -0.358 F  
HETATM   14  F   UNL     1     -13.188  10.288  72.686  1.00  0.00    -0.359 F  
HETATM   15  C   UNL     1     -10.795   5.495  72.771  1.00  0.00    -0.263 C  
HETATM   16  C   UNL     1     -10.700   6.828  72.064  1.00  0.00    -0.245 A  
ENDBRANCH   2   3
BRANCH   2  17
HETATM   17  O   UNL     1      -7.385   7.622  69.321  1.00  0.00    -0.083 OA 
BRANCH  17  18
HETATM   18  C   UNL     1      -7.285   7.611  67.891  1.00  0.00    -0.094 C  
HETATM   19  C   UNL     1      -9.966   7.639  66.831  1.00  0.00    -0.255 C  
HETATM   20  C   UNL     1      -9.331   6.501  67.622  1.00  0.00    -0.118 C  
HETATM   21  O   UNL     1      -7.923   6.439  67.362  1.00  0.00    -0.113 OA 
HETATM   22  N   UNL     1      -9.404   8.981  67.160  1.00  0.00    -0.143 NA 
HETATM   23  C   UNL     1      -7.894   8.874  67.114  1.00  0.00    -0.096 C  
BRANCH  22  24
HETATM   24  C   UNL     1      -9.883   9.946  66.130  1.00  0.00    -0.260 C  
BRANCH  24  25
HETATM   25  C   UNL     1     -10.768  11.012  66.734  1.00  0.00    -0.266 C  
HETATM   26  N   UNL     1     -10.819  12.247  66.204  1.00  0.00    -0.269 NA 
HETATM   27  N   UNL     1     -11.538  10.838  67.774  1.00  0.00    -0.637 NA 
HETATM   28  O   UNL     1     -12.098  14.086  66.772  1.00  0.00    -0.428 OA 
HETATM   29  C   UNL     1     -11.727  12.941  66.943  1.00  0.00    -0.382 C  
HETATM   30  N   UNL     1     -12.149  12.056  67.928  1.00  0.00    -0.494 NA 
HETATM   31  H   UNL     1     -11.657   9.996  68.337  1.00  0.00     0.000 HD 
ENDBRANCH  24  25
ENDBRANCH  22  24
BRANCH  23  32
HETATM   32  C   UNL     1      -7.175  10.202  67.371  1.00  0.00    -0.088 A  
HETATM   33  C   UNL     1      -5.837  12.672  67.551  1.00  0.00    -0.140 A  
HETATM   34  F   UNL     1      -5.220  13.858  67.605  1.00  0.00    -0.099 F  
HETATM   35  C   UNL     1      -7.819  11.323  67.915  1.00  0.00    -0.116 A  
HETATM   36  C   UNL     1      -5.170  11.572  67.034  1.00  0.00    -0.098 A  
HETATM   37  C   UNL     1      -7.152  12.554  68.000  1.00  0.00    -0.103 A  
HETATM   38  C   UNL     1      -5.833  10.344  66.949  1.00  0.00    -0.052 A  
ENDBRANCH  23  32
ENDBRANCH  17  18
ENDBRANCH   2  17
TORSDOF 6
ENDMDL
MODEL      216
REMARK 921   NORMALIZED FREE ENERGY PREDICTED BY IDOCK:   -4.86 KCAL/MOL
REMARK 922        TOTAL FREE ENERGY PREDICTED BY IDOCK:   -8.70 KCAL/MOL
REMARK 923 INTER-LIGAND FREE ENERGY PREDICTED BY IDOCK:   -6.59 KCAL/MOL
REMARK 924 INTRA-LIGAND FREE ENERGY PREDICTED BY IDOCK:   -2.11 KCAL/MOL
REMARK 927      BINDING AFFINITY PREDICTED BY RF-SCORE:    0.00 PKD
ROOT
HETATM    1  C   UNL     1      -7.985   8.194  72.798  1.00  0.00    -0.209 C  
HETATM    2  C   UNL     1      -8.301   8.013  71.306  1.00  0.00    -0.117 C  
ENDROOT
BRANCH   2   3
HETATM    3  C   UNL     1      -9.236   9.097  70.743  1.00  0.00    -0.321 A  
HETATM    4  C   UNL     1     -10.561   9.249  71.193  1.00  0.00    -0.402 A  
HETATM    5  C   UNL     1      -8.784   9.966  69.733  1.00  0.00    -0.229 A  
HETATM    6  F   UNL     1     -12.883  10.587  72.520  1.00  0.00    -0.381 F  
HETATM    7  F   UNL     1     -13.562  11.325  70.591  1.00  0.00     0.115 F  
HETATM    8  C   UNL     1      -9.625  10.957  69.186  1.00  0.00    -0.125 A  
HETATM    9  C   UNL     1      -9.147  11.874  68.083  1.00  0.00    -0.190 C  
HETATM   10  C   UNL     1     -10.942  11.079  69.661  1.00  0.00    -0.286 A  
HETATM   11  F   UNL     1     -13.551   9.189  70.994  1.00  0.00    -0.328 F  
HETATM   12  F   UNL     1      -7.847  11.674  67.728  1.00  0.00    -0.109 F  
HETATM   13  F   UNL     1      -9.874  11.739  66.941  1.00  0.00    -0.199 F  
HETATM   14  F   UNL     1      -9.237  13.190  68.427  1.00  0.00    -0.193 F  
HETATM   15  C   UNL     1     -12.838  10.334  71.181  1.00  0.00    -0.408 C  
HETATM   16  C   UNL     1     -11.421  10.228  70.665  1.00  0.00    -0.435 A  
ENDBRANCH   2   3
BRANCH   2  17
HETATM   17  O   UNL     1      -8.637   6.644  70.965  1.00  0.00    -0.135 OA 
BRANCH  17  18
HETATM   18  C   UNL     1      -7.824   6.031  69.954  1.00  0.00    -0.104 C  
HETATM   19  C   UNL     1      -8.957   3.444  69.376  1.00  0.00    -0.116 C  
HETATM   20  C   UNL     1      -8.308   3.861  70.691  1.00  0.00    -0.069 C  
HETATM   21  O   UNL     1      -7.260   4.808  70.450  1.00  0.00    -0.047 OA 
HETATM   22  N   UNL     1      -9.564   4.580  68.624  1.00  0.00    -0.158 NA 
HETATM   23  C   UNL     1      -8.538   5.693  68.559  1.00  0.00    -0.107 C  
BRANCH  22  24
HETATM   24  C   UNL     1      -9.891   4.101  67.251  1.00  0.00    -0.123 C  
BRANCH  24  25
HETATM   25  C   UNL     1      -8.645   3.753  66.470  1.00  0.00    -0.113 C  
HETATM   26  N   UNL     1      -8.426   4.277  65.250  1.00  0.00    -0.113 NA 
HETATM   27  N   UNL     1      -7.701   2.955  66.893  1.00  0.00    -0.074 NA 
HETATM   28  O   UNL     1      -6.628   4.067  63.813  1.00  0.00    -0.039 OA 
HETATM   29  C   UNL     1      -7.216   3.804  64.845  1.00  0.00    -0.067 C  
HETATM   30  N   UNL     1      -6.788   2.967  65.869  1.00  0.00    -0.044 NA 
HETATM   31  H   UNL     1      -7.655   2.444  67.774  1.00  0.00     0.000 HD 
ENDBRANCH  24  25
ENDBRANCH  22  24
BRANCH  23  32
HETATM   32  C   UNL     1      -9.001   6.911  67.755  1.00  0.00    -0.117 A  
HETATM   33  C   UNL     1      -9.788   8.996  66.036  1.00  0.00    -0.242 A  
HETATM   34  F   UNL     1     -10.176   9.960  65.193  1.00  0.00    -0.397 F  
HETATM   35  C   UNL     1     -10.341   7.323  67.701  1.00  0.00    -0.290 A  
HETATM   36  C   UNL     1      -8.454   8.626  66.091  1.00  0.00    -0.140 A  
HETATM   37  C   UNL     1     -10.732   8.359  66.841  1.00  0.00    -0.163 A  
HETATM   38  C   UNL     1      -8.062   7.594  66.948  1.00  0.00    -0.116 A  
ENDBRANCH  23  32
ENDBRANCH  17  18
ENDBRANCH   2  17
TORSDOF 6
ENDMDL
MODEL      217
REMARK 921   NORMALIZED FREE ENERGY PREDICTED BY IDOCK:   -4.85 KCAL/MOL
REMARK 922        TOTAL FREE ENERGY PREDICTED BY IDOCK:   -8.68 KCAL/MOL
REMARK 923 INTER-LIGAND FREE ENERGY PREDICTED BY IDOCK:   -9.23 KCAL/MOL
REMARK 924 INTRA-LIGAND FREE ENERGY PREDICTED BY IDOCK:    0.55 KCAL/MOL
REMARK 927      BINDING AFFINITY PREDICTED BY RF-SCORE:    0.00 PKD
ROOT
HETATM    1  C   UNL     1     -11.696  14.238  70.635  1.00  0.00    -0.287 C  
HETATM    2  C   UNL     1     -11.204  14.282  69.181  1.00  0.00    -0.270 C  
ENDROOT
BRANCH   2   3
HETATM    3  C   UNL     1     -10.154  15.377  68.923  1.00  0.00    -0.219 A  
HETATM    4  C   UNL     1      -8.779  15.157  69.129  1.00  0.00    -0.216 A  
HETATM    5  C   UNL     1     -10.554  16.652  68.483  1.00  0.00    -0.338 A  
HETATM    6  F   UNL     1      -5.898  14.845  68.391  1.00  0.00    -0.083 F  
HETATM    7  F   UNL     1      -5.538  16.926  68.909  1.00  0.00    -0.126 F  
HETATM    8  C   UNL     1      -9.615  17.679  68.257  1.00  0.00    -0.306 A  
HETATM    9  C   UNL     1     -10.048  19.057  67.809  1.00  0.00    -0.379 C  
HETATM   10  C   UNL     1      -8.251  17.422  68.473  1.00  0.00    -0.268 A  
HETATM   11  F   UNL     1      -6.112  15.506  70.451  1.00  0.00    -0.155 F  
HETATM   12  F   UNL     1     -11.391  19.172  67.610  1.00  0.00    -0.422 F  
HETATM   13  F   UNL     1      -9.716  20.024  68.706  1.00  0.00    -0.401 F  
HETATM   14  F   UNL     1      -9.467  19.427  66.632  1.00  0.00    -0.311 F  
HETATM   15  C   UNL     1      -6.360  15.869  69.163  1.00  0.00    -0.146 C  
HETATM   16  C   UNL     1      -7.822  16.163  68.912  1.00  0.00    -0.213 A  
ENDBRANCH   2   3
BRANCH   2  17
HETATM   17  O   UNL     1     -12.286  14.200  68.218  1.00  0.00    -0.317 OA 
BRANCH  17  18
HETATM   18  C   UNL     1     -12.278  13.051  67.361  1.00  0.00    -0.097 C  
HETATM   19  C   UNL     1      -9.712  12.958  66.052  1.00  0.00    -0.223 C  
HETATM   20  C   UNL     1     -10.781  14.024  65.845  1.00  0.00    -0.293 C  
HETATM   21  O   UNL     1     -12.088  13.455  65.996  1.00  0.00    -0.396 OA 
HETATM   22  N   UNL     1      -9.755  12.324  67.401  1.00  0.00    -0.183 NA 
HETATM   23  C   UNL     1     -11.188  11.919  67.677  1.00  0.00    -0.276 C  
BRANCH  22  24
HETATM   24  C   UNL     1      -8.877  11.119  67.373  1.00  0.00    -0.139 C  
BRANCH  24  25
HETATM   25  C   UNL     1      -8.502  10.736  65.959  1.00  0.00    -0.169 C  
HETATM   26  N   UNL     1      -9.418  10.222  65.118  1.00  0.00    -0.228 NA 
HETATM   27  N   UNL     1      -7.311  10.872  65.443  1.00  0.00    -0.363 NA 
HETATM   28  O   UNL     1      -9.258   9.616  62.894  1.00  0.00    -0.266 OA 
HETATM   29  C   UNL     1      -8.779  10.030  63.932  1.00  0.00    -0.206 C  
HETATM   30  N   UNL     1      -7.464  10.420  64.158  1.00  0.00    -0.057 NA 
HETATM   31  H   UNL     1      -6.467  11.230  65.890  1.00  0.00     0.000 HD 
ENDBRANCH  24  25
ENDBRANCH  22  24
BRANCH  23  32
HETATM   32  C   UNL     1     -11.376  11.193  69.012  1.00  0.00    -0.343 A  
HETATM   33  C   UNL     1     -11.871   9.652  71.316  1.00  0.00    -0.381 A  
HETATM   34  F   UNL     1     -12.103   8.887  72.389  1.00  0.00    -0.417 F  
HETATM   35  C   UNL     1     -10.318  10.586  69.704  1.00  0.00    -0.231 A  
HETATM   36  C   UNL     1     -12.931  10.263  70.665  1.00  0.00    -0.338 A  
HETATM   37  C   UNL     1     -10.567   9.815  70.849  1.00  0.00    -0.344 A  
HETATM   38  C   UNL     1     -12.685  11.033  69.523  1.00  0.00     0.176 A  
ENDBRANCH  23  32
ENDBRANCH  17  18
ENDBRANCH   2  17
TORSDOF 6
ENDMDL
MODEL      218
REMARK 921   NORMALIZED FREE ENERGY PREDICTED BY IDOCK:   -4.83 KCAL/MOL
REMARK 922        TOTAL FREE ENERGY PREDICTED BY IDOCK:   -8.66 KCAL/MOL
REMARK 923 INTER-LIGAND FREE ENERGY PREDICTED BY IDOCK:   -7.84 KCAL/MOL
REMARK 924 INTRA-LIGAND FREE ENERGY PREDICTED BY IDOCK:   -0.82 KCAL/MOL
REMARK 927      BINDING AFFINITY PREDICTED BY RF-SCORE:    0.00 PKD
ROOT
HETATM    1  C   UNL     1      -5.732   9.843  65.890  1.00  0.00    -0.057 C  
HETATM    2  C   UNL     1      -6.675  10.392  66.971  1.00  0.00    -0.080 C  
ENDROOT
BRANCH   2   3
HETATM    3  C   UNL     1      -7.710   9.364  67.459  1.00  0.00    -0.091 A  
HETATM    4  C   UNL     1      -8.418   9.532  68.664  1.00  0.00    -0.119 A  
HETATM    5  C   UNL     1      -7.966   8.204  66.706  1.00  0.00    -0.103 A  
HETATM    6  F   UNL     1     -10.796   9.967  70.425  1.00  0.00    -0.286 F  
HETATM    7  F   UNL     1     -10.950   7.823  70.751  1.00  0.00    -0.233 F  
HETATM    8  C   UNL     1      -8.896   7.237  67.138  1.00  0.00    -0.125 A  
HETATM    9  C   UNL     1      -9.151   5.978  66.341  1.00  0.00    -0.150 C  
HETATM   10  C   UNL     1      -9.585   7.438  68.346  1.00  0.00    -0.149 A  
HETATM   11  F   UNL     1      -9.219   8.912  71.485  1.00  0.00    -0.254 F  
HETATM   12  F   UNL     1      -8.443   5.911  65.179  1.00  0.00    -0.140 F  
HETATM   13  F   UNL     1      -8.841   4.850  67.035  1.00  0.00    -0.109 F  
HETATM   14  F   UNL     1     -10.461   5.845  65.984  1.00  0.00    -0.146 F  
HETATM   15  C   UNL     1     -10.071   8.813  70.429  1.00  0.00    -0.192 C  
HETATM   16  C   UNL     1      -9.351   8.583  69.119  1.00  0.00    -0.153 A  
ENDBRANCH   2   3
BRANCH   2  17
HETATM   17  O   UNL     1      -7.188  11.710  66.653  1.00  0.00    -0.114 OA 
BRANCH  17  18
HETATM   18  C   UNL     1      -8.130  12.259  67.585  1.00  0.00    -0.165 C  
HETATM   19  C   UNL     1      -7.533  15.064  67.876  1.00  0.00    -0.137 C  
HETATM   20  C   UNL     1      -6.641  13.911  68.322  1.00  0.00    -0.110 C  
HETATM   21  O   UNL     1      -7.440  12.792  68.726  1.00  0.00    -0.111 OA 
HETATM   22  N   UNL     1      -8.416  14.724  66.724  1.00  0.00    -0.199 NA 
HETATM   23  C   UNL     1      -9.102  13.410  67.038  1.00  0.00    -0.243 C  
BRANCH  22  24
HETATM   24  C   UNL     1      -9.427  15.811  66.581  1.00  0.00    -0.257 C  
BRANCH  24  25
HETATM   25  C   UNL     1      -8.775  17.173  66.526  1.00  0.00    -0.261 C  
HETATM   26  N   UNL     1      -9.032  18.099  67.468  1.00  0.00    -0.255 NA 
HETATM   27  N   UNL     1      -7.933  17.558  65.606  1.00  0.00    -0.389 NA 
HETATM   28  O   UNL     1      -8.173  20.222  67.777  1.00  0.00    -0.297 OA 
HETATM   29  C   UNL     1      -8.267  19.180  67.156  1.00  0.00    -0.270 C  
HETATM   30  N   UNL     1      -7.606  18.835  65.984  1.00  0.00    -0.409 NA 
HETATM   31  H   UNL     1      -7.598  17.033  64.798  1.00  0.00     0.000 HD 
ENDBRANCH  24  25
ENDBRANCH  22  24
BRANCH  23  32
HETATM   32  C   UNL     1     -10.097  12.963  65.963  1.00  0.00    -0.290 A  
HETATM   33  C   UNL     1     -12.092  12.369  64.068  1.00  0.00    -0.475 A  
HETATM   34  F   UNL     1     -13.046  12.126  63.163  1.00  0.00    -0.533 F  
HETATM   35  C   UNL     1      -9.823  13.044  64.591  1.00  0.00    -0.028 A  
HETATM   36  C   UNL     1     -12.381  12.255  65.419  1.00  0.00    -0.168 A  
HETATM   37  C   UNL     1     -10.819  12.752  63.648  1.00  0.00    -0.361 A  
HETATM   38  C   UNL     1     -11.389  12.546  66.361  1.00  0.00    -0.379 A  
ENDBRANCH  23  32
ENDBRANCH  17  18
ENDBRANCH   2  17
TORSDOF 6
ENDMDL
MODEL      219
REMARK 921   NORMALIZED FREE ENERGY PREDICTED BY IDOCK:   -4.80 KCAL/MOL
REMARK 922        TOTAL FREE ENERGY PREDICTED BY IDOCK:   -8.62 KCAL/MOL
REMARK 923 INTER-LIGAND FREE ENERGY PREDICTED BY IDOCK:   -7.77 KCAL/MOL
REMARK 924 INTRA-LIGAND FREE ENERGY PREDICTED BY IDOCK:   -0.85 KCAL/MOL
REMARK 927      BINDING AFFINITY PREDICTED BY RF-SCORE:    0.00 PKD
ROOT
HETATM    1  C   UNL     1      -8.958   8.415  65.445  1.00  0.00    -0.103 C  
HETATM    2  C   UNL     1      -9.568   9.412  66.440  1.00  0.00    -0.224 C  
ENDROOT
BRANCH   2   3
HETATM    3  C   UNL     1     -10.019   8.761  67.759  1.00  0.00    -0.243 A  
HETATM    4  C   UNL     1     -10.862   9.425  68.670  1.00  0.00    -0.149 A  
HETATM    5  C   UNL     1      -9.578   7.469  68.099  1.00  0.00    -0.155 A  
HETATM    6  F   UNL     1     -13.347   9.939  70.253  1.00  0.00    -0.178 F  
HETATM    7  F   UNL     1     -12.471   8.922  71.963  1.00  0.00    -0.351 F  
HETATM    8  C   UNL     1      -9.961   6.856  69.309  1.00  0.00    -0.164 A  
HETATM    9  C   UNL     1      -9.466   5.478  69.684  1.00  0.00    -0.138 C  
HETATM   10  C   UNL     1     -10.804   7.549  70.194  1.00  0.00    -0.259 A  
HETATM   11  F   UNL     1     -11.601  10.778  71.241  1.00  0.00    -0.364 F  
HETATM   12  F   UNL     1      -8.677   4.900  68.735  1.00  0.00    -0.092 F  
HETATM   13  F   UNL     1      -8.732   5.482  70.830  1.00  0.00    -0.125 F  
HETATM   14  F   UNL     1     -10.486   4.600  69.901  1.00  0.00    -0.317 F  
HETATM   15  C   UNL     1     -12.157   9.606  70.828  1.00  0.00    -0.248 C  
HETATM   16  C   UNL     1     -11.260   8.837  69.884  1.00  0.00    -0.059 A  
ENDBRANCH   2   3
BRANCH   2  17
HETATM   17  O   UNL     1     -10.517  10.316  65.821  1.00  0.00    -0.196 OA 
BRANCH  17  18
HETATM   18  C   UNL     1      -9.987  11.570  65.368  1.00  0.00    -0.248 C  
HETATM   19  C   UNL     1     -11.619  13.663  66.492  1.00  0.00    -0.366 C  
HETATM   20  C   UNL     1     -12.071  12.637  65.459  1.00  0.00    -0.458 C  
HETATM   21  O   UNL     1     -10.977  12.276  64.605  1.00  0.00    -0.284 OA 
HETATM   22  N   UNL     1     -10.521  13.176  67.376  1.00  0.00    -0.241 NA 
HETATM   23  C   UNL     1      -9.447  12.576  66.493  1.00  0.00    -0.240 C  
BRANCH  22  24
HETATM   24  C   UNL     1      -9.978  14.346  68.123  1.00  0.00    -0.223 C  
BRANCH  24  25
HETATM   25  C   UNL     1      -9.608  15.478  67.194  1.00  0.00    -0.222 C  
HETATM   26  N   UNL     1      -8.322  15.831  67.013  1.00  0.00    -0.204 NA 
HETATM   27  N   UNL     1     -10.463  16.182  66.502  1.00  0.00    -0.303 NA 
HETATM   28  O   UNL     1      -7.367  17.414  65.627  1.00  0.00    -0.377 OA 
HETATM   29  C   UNL     1      -8.329  16.838  66.098  1.00  0.00    -0.266 C  
HETATM   30  N   UNL     1      -9.670  17.058  65.806  1.00  0.00    -0.547 NA 
HETATM   31  H   UNL     1     -11.480  16.100  66.483  1.00  0.00     0.000 HD 
ENDBRANCH  24  25
ENDBRANCH  22  24
BRANCH  23  32
HETATM   32  C   UNL     1      -8.218  12.087  67.264  1.00  0.00    -0.173 A  
HETATM   33  C   UNL     1      -6.114  10.949  68.749  1.00  0.00    -0.039 A  
HETATM   34  F   UNL     1      -5.126  10.372  69.442  1.00  0.00    -0.039 F  
HETATM   35  C   UNL     1      -7.026  11.705  66.633  1.00  0.00    -0.026 A  
HETATM   36  C   UNL     1      -7.272  11.343  69.400  1.00  0.00    -0.030 A  
HETATM   37  C   UNL     1      -5.980  11.134  67.373  1.00  0.00    -0.057 A  
HETATM   38  C   UNL     1      -8.315  11.913  68.664  1.00  0.00    -0.058 A  
ENDBRANCH  23  32
ENDBRANCH  17  18
ENDBRANCH   2  17
TORSDOF 6
ENDMDL
MODEL      220
REMARK 921   NORMALIZED FREE ENERGY PREDICTED BY IDOCK:   -4.80 KCAL/MOL
REMARK 922        TOTAL FREE ENERGY PREDICTED BY IDOCK:   -8.61 KCAL/MOL
REMARK 923 INTER-LIGAND FREE ENERGY PREDICTED BY IDOCK:   -7.05 KCAL/MOL
REMARK 924 INTRA-LIGAND FREE ENERGY PREDICTED BY IDOCK:   -1.57 KCAL/MOL
REMARK 927      BINDING AFFINITY PREDICTED BY RF-SCORE:    0.00 PKD
ROOT
HETATM    1  C   UNL     1      -5.592   6.973  68.043  1.00  0.00    -0.021 C  
HETATM    2  C   UNL     1      -6.912   7.616  68.490  1.00  0.00    -0.072 C  
ENDROOT
BRANCH   2   3
HETATM    3  C   UNL     1      -7.260   8.900  67.719  1.00  0.00    -0.084 A  
HETATM    4  C   UNL     1      -7.047  10.180  68.265  1.00  0.00    -0.075 A  
HETATM    5  C   UNL     1      -7.826   8.823  66.433  1.00  0.00    -0.099 A  
HETATM    6  F   UNL     1      -5.829  12.900  68.518  1.00  0.00    -0.057 F  
HETATM    7  F   UNL     1      -7.505  13.755  67.429  1.00  0.00    -0.155 F  
HETATM    8  C   UNL     1      -8.171   9.984  65.711  1.00  0.00    -0.130 A  
HETATM    9  C   UNL     1      -8.802   9.899  64.340  1.00  0.00    -0.217 C  
HETATM   10  C   UNL     1      -7.943  11.245  66.288  1.00  0.00    -0.086 A  
HETATM   11  F   UNL     1      -7.824  12.852  69.380  1.00  0.00     0.196 F  
HETATM   12  F   UNL     1      -8.947   8.625  63.880  1.00  0.00    -0.085 F  
HETATM   13  F   UNL     1     -10.042  10.456  64.302  1.00  0.00    -0.373 F  
HETATM   14  F   UNL     1      -8.072  10.554  63.391  1.00  0.00    -0.160 F  
HETATM   15  C   UNL     1      -7.142  12.701  68.212  1.00  0.00    -0.105 C  
HETATM   16  C   UNL     1      -7.383  11.354  67.567  1.00  0.00    -0.112 A  
ENDBRANCH   2   3
BRANCH   2  17
HETATM   17  O   UNL     1      -7.044   7.685  69.933  1.00  0.00    -0.060 OA 
BRANCH  17  18
HETATM   18  C   UNL     1      -7.550   6.507  70.575  1.00  0.00    -0.096 C  
HETATM   19  C   UNL     1      -9.431   7.353  72.589  1.00  0.00    -0.153 C  
HETATM   20  C   UNL     1      -7.929   7.614  72.605  1.00  0.00    -0.106 C  
HETATM   21  O   UNL     1      -7.230   6.533  71.975  1.00  0.00    -0.083 OA 
HETATM   22  N   UNL     1      -9.997   7.211  71.216  1.00  0.00    -0.189 NA 
HETATM   23  C   UNL     1      -9.125   6.236  70.454  1.00  0.00    -0.154 C  
BRANCH  22  24
HETATM   24  C   UNL     1     -11.382   6.673  71.343  1.00  0.00    -0.289 C  
BRANCH  24  25
HETATM   25  C   UNL     1     -12.382   7.769  71.631  1.00  0.00    -0.321 C  
HETATM   26  N   UNL     1     -12.024   9.064  71.563  1.00  0.00    -0.321 NA 
HETATM   27  N   UNL     1     -13.632   7.570  71.949  1.00  0.00    -0.512 NA 
HETATM   28  O   UNL     1     -13.267  10.993  71.834  1.00  0.00    -0.473 OA 
HETATM   29  C   UNL     1     -13.148   9.783  71.832  1.00  0.00    -0.446 C  
HETATM   30  N   UNL     1     -14.134   8.838  72.090  1.00  0.00    -0.450 NA 
HETATM   31  H   UNL     1     -14.120   6.681  72.065  1.00  0.00     0.000 HD 
ENDBRANCH  24  25
ENDBRANCH  22  24
BRANCH  23  32
HETATM   32  C   UNL     1      -9.625   5.942  69.037  1.00  0.00    -0.157 A  
HETATM   33  C   UNL     1     -10.701   5.181  66.549  1.00  0.00    -0.193 A  
HETATM   34  F   UNL     1     -11.246   4.810  65.385  1.00  0.00    -0.313 F  
HETATM   35  C   UNL     1     -10.479   6.805  68.336  1.00  0.00    -0.238 A  
HETATM   36  C   UNL     1      -9.837   4.321  67.209  1.00  0.00    -0.193 A  
HETATM   37  C   UNL     1     -11.018   6.423  67.099  1.00  0.00    -0.476 A  
HETATM   38  C   UNL     1      -9.299   4.700  68.442  1.00  0.00    -0.186 A  
ENDBRANCH  23  32
ENDBRANCH  17  18
ENDBRANCH   2  17
TORSDOF 6
ENDMDL
MODEL      221
REMARK 921   NORMALIZED FREE ENERGY PREDICTED BY IDOCK:   -4.77 KCAL/MOL
REMARK 922        TOTAL FREE ENERGY PREDICTED BY IDOCK:   -8.58 KCAL/MOL
REMARK 923 INTER-LIGAND FREE ENERGY PREDICTED BY IDOCK:   -7.97 KCAL/MOL
REMARK 924 INTRA-LIGAND FREE ENERGY PREDICTED BY IDOCK:   -0.60 KCAL/MOL
REMARK 927      BINDING AFFINITY PREDICTED BY RF-SCORE:    0.00 PKD
ROOT
HETATM    1  C   UNL     1     -11.493   8.863  70.252  1.00  0.00    -0.123 C  
HETATM    2  C   UNL     1     -11.046   9.796  69.117  1.00  0.00    -0.123 C  
ENDROOT
BRANCH   2   3
HETATM    3  C   UNL     1     -11.432  11.267  69.348  1.00  0.00    -0.370 A  
HETATM    4  C   UNL     1     -11.106  12.279  68.425  1.00  0.00    -0.283 A  
HETATM    5  C   UNL     1     -12.118  11.645  70.517  1.00  0.00    -0.458 A  
HETATM    6  F   UNL     1     -11.598  14.422  66.398  1.00  0.00    -0.332 F  
HETATM    7  F   UNL     1     -11.443  15.932  67.953  1.00  0.00    -0.339 F  
HETATM    8  C   UNL     1     -12.468  12.988  70.763  1.00  0.00    -0.384 A  
HETATM    9  C   UNL     1     -13.183  13.396  72.031  1.00  0.00    -0.438 C  
HETATM   10  C   UNL     1     -12.126  13.971  69.818  1.00  0.00    -0.405 A  
HETATM   11  F   UNL     1      -9.708  14.735  67.425  1.00  0.00    -0.208 F  
HETATM   12  F   UNL     1     -13.481  12.351  72.853  1.00  0.00    -0.288 F  
HETATM   13  F   UNL     1     -12.456  14.269  72.780  1.00  0.00    -0.364 F  
HETATM   14  F   UNL     1     -14.369  14.020  71.781  1.00  0.00    -0.471 F  
HETATM   15  C   UNL     1     -11.053  14.670  67.622  1.00  0.00    -0.304 C  
HETATM   16  C   UNL     1     -11.442  13.627  68.645  1.00  0.00    -0.342 A  
ENDBRANCH   2   3
BRANCH   2  17
HETATM   17  O   UNL     1     -11.337   9.262  67.801  1.00  0.00     0.167 OA 
BRANCH  17  18
HETATM   18  C   UNL     1     -10.222   8.714  67.085  1.00  0.00    -0.283 C  
HETATM   19  C   UNL     1      -8.716  10.918  66.000  1.00  0.00    -0.186 C  
HETATM   20  C   UNL     1     -10.127  10.514  65.588  1.00  0.00    -0.268 C  
HETATM   21  O   UNL     1     -10.290   9.095  65.702  1.00  0.00     0.115 OA 
HETATM   22  N   UNL     1      -8.376  10.554  67.405  1.00  0.00    -0.121 NA 
HETATM   23  C   UNL     1      -8.761   9.104  67.613  1.00  0.00    -0.120 C  
BRANCH  22  24
HETATM   24  C   UNL     1      -6.906  10.727  67.584  1.00  0.00    -0.073 C  
BRANCH  24  25
HETATM   25  C   UNL     1      -6.524  12.187  67.670  1.00  0.00    -0.110 C  
HETATM   26  N   UNL     1      -7.123  13.006  68.554  1.00  0.00    -0.099 NA 
HETATM   27  N   UNL     1      -5.610  12.761  66.936  1.00  0.00    -0.409 NA 
HETATM   28  O   UNL     1      -6.752  15.233  69.046  1.00  0.00    -0.109 OA 
HETATM   29  C   UNL     1      -6.530  14.222  68.408  1.00  0.00    -0.106 C  
HETATM   30  N   UNL     1      -5.605  14.057  67.383  1.00  0.00    -0.313 NA 
HETATM   31  H   UNL     1      -5.035  12.344  66.203  1.00  0.00     0.000 HD 
ENDBRANCH  24  25
ENDBRANCH  22  24
BRANCH  23  32
HETATM   32  C   UNL     1      -8.409   8.567  69.004  1.00  0.00    -0.118 A  
HETATM   33  C   UNL     1      -8.004   7.717  71.657  1.00  0.00    -0.097 A  
HETATM   34  F   UNL     1      -7.851   7.311  72.922  1.00  0.00    -0.090 F  
HETATM   35  C   UNL     1      -8.479   7.206  69.335  1.00  0.00    -0.134 A  
HETATM   36  C   UNL     1      -7.903   9.065  71.351  1.00  0.00    -0.088 A  
HETATM   37  C   UNL     1      -8.281   6.785  70.658  1.00  0.00    -0.120 A  
HETATM   38  C   UNL     1      -8.099   9.487  70.032  1.00  0.00    -0.176 A  
ENDBRANCH  23  32
ENDBRANCH  17  18
ENDBRANCH   2  17
TORSDOF 6
ENDMDL
MODEL      222
REMARK 921   NORMALIZED FREE ENERGY PREDICTED BY IDOCK:   -4.77 KCAL/MOL
REMARK 922        TOTAL FREE ENERGY PREDICTED BY IDOCK:   -8.57 KCAL/MOL
REMARK 923 INTER-LIGAND FREE ENERGY PREDICTED BY IDOCK:   -7.63 KCAL/MOL
REMARK 924 INTRA-LIGAND FREE ENERGY PREDICTED BY IDOCK:   -0.94 KCAL/MOL
REMARK 927      BINDING AFFINITY PREDICTED BY RF-SCORE:    0.00 PKD
ROOT
HETATM    1  C   UNL     1      -6.235   8.950  70.141  1.00  0.00    -0.037 C  
HETATM    2  C   UNL     1      -7.600   8.710  69.482  1.00  0.00    -0.088 C  
ENDROOT
BRANCH   2   3
HETATM    3  C   UNL     1      -7.802   7.262  69.003  1.00  0.00    -0.118 A  
HETATM    4  C   UNL     1      -7.208   6.168  69.661  1.00  0.00    -0.074 A  
HETATM    5  C   UNL     1      -8.587   6.994  67.867  1.00  0.00    -0.126 A  
HETATM    6  F   UNL     1      -7.098   3.641  71.256  1.00  0.00    -0.030 F  
HETATM    7  F   UNL     1      -6.952   2.486  69.420  1.00  0.00    -0.035 F  
HETATM    8  C   UNL     1      -8.774   5.679  67.395  1.00  0.00    -0.107 A  
HETATM    9  C   UNL     1      -9.596   5.395  66.159  1.00  0.00    -0.153 C  
HETATM   10  C   UNL     1      -8.165   4.612  68.078  1.00  0.00    -0.091 A  
HETATM   11  F   UNL     1      -5.348   3.840  69.981  1.00  0.00    -0.006 F  
HETATM   12  F   UNL     1     -10.154   6.507  65.603  1.00  0.00     0.231 F  
HETATM   13  F   UNL     1      -8.868   4.807  65.173  1.00  0.00    -0.129 F  
HETATM   14  F   UNL     1     -10.634   4.547  66.409  1.00  0.00    -0.285 F  
HETATM   15  C   UNL     1      -6.703   3.714  69.953  1.00  0.00    -0.034 C  
HETATM   16  C   UNL     1      -7.378   4.846  69.212  1.00  0.00    -0.056 A  
ENDBRANCH   2   3
BRANCH   2  17
HETATM   17  O   UNL     1      -7.958   9.748  68.534  1.00  0.00    -0.087 OA 
BRANCH  17  18
HETATM   18  C   UNL     1      -8.283  11.027  69.096  1.00  0.00    -0.045 C  
HETATM   19  C   UNL     1      -9.257  12.695  66.957  1.00  0.00    -0.212 C  
HETATM   20  C   UNL     1      -7.834  12.168  67.100  1.00  0.00    -0.160 C  
HETATM   21  O   UNL     1      -7.483  12.051  68.484  1.00  0.00    -0.107 OA 
HETATM   22  N   UNL     1     -10.284  11.820  67.592  1.00  0.00    -0.197 NA 
HETATM   23  C   UNL     1      -9.812  11.494  68.993  1.00  0.00     0.007 C  
BRANCH  22  24
HETATM   24  C   UNL     1     -11.566  12.578  67.644  1.00  0.00    -0.355 C  
BRANCH  24  25
HETATM   25  C   UNL     1     -12.037  12.973  66.263  1.00  0.00    -0.386 C  
HETATM   26  N   UNL     1     -12.093  14.267  65.897  1.00  0.00    -0.409 NA 
HETATM   27  N   UNL     1     -12.406  12.133  65.334  1.00  0.00    -0.479 NA 
HETATM   28  O   UNL     1     -12.654  15.246  63.880  1.00  0.00    -0.765 OA 
HETATM   29  C   UNL     1     -12.509  14.277  64.601  1.00  0.00    -0.351 C  
HETATM   30  N   UNL     1     -12.719  12.943  64.273  1.00  0.00    -0.693 NA 
HETATM   31  H   UNL     1     -12.450  11.115  65.386  1.00  0.00     0.000 HD 
ENDBRANCH  24  25
ENDBRANCH  22  24
BRANCH  23  32
HETATM   32  C   UNL     1     -10.804  10.647  69.795  1.00  0.00    -0.317 A  
HETATM   33  C   UNL     1     -12.398   8.998  71.427  1.00  0.00    -0.318 A  
HETATM   34  F   UNL     1     -13.132   8.222  72.233  1.00  0.00    -0.325 F  
HETATM   35  C   UNL     1     -11.763  11.206  70.653  1.00  0.00    -0.310 A  
HETATM   36  C   UNL     1     -11.477   8.420  70.568  1.00  0.00    -0.189 A  
HETATM   37  C   UNL     1     -12.553  10.383  71.469  1.00  0.00    -0.544 A  
HETATM   38  C   UNL     1     -10.688   9.238  69.754  1.00  0.00    -0.245 A  
ENDBRANCH  23  32
ENDBRANCH  17  18
ENDBRANCH   2  17
TORSDOF 6
ENDMDL
MODEL      223
REMARK 921   NORMALIZED FREE ENERGY PREDICTED BY IDOCK:   -4.70 KCAL/MOL
REMARK 922        TOTAL FREE ENERGY PREDICTED BY IDOCK:   -8.49 KCAL/MOL
REMARK 923 INTER-LIGAND FREE ENERGY PREDICTED BY IDOCK:   -7.36 KCAL/MOL
REMARK 924 INTRA-LIGAND FREE ENERGY PREDICTED BY IDOCK:   -1.13 KCAL/MOL
REMARK 927      BINDING AFFINITY PREDICTED BY RF-SCORE:    0.00 PKD
ROOT
HETATM    1  C   UNL     1      -8.494   9.043  63.894  1.00  0.00    -0.171 C  
HETATM    2  C   UNL     1      -8.919   9.192  65.362  1.00  0.00    -0.207 C  
ENDROOT
BRANCH   2   3
HETATM    3  C   UNL     1      -9.040   7.850  66.103  1.00  0.00    -0.210 A  
HETATM    4  C   UNL     1      -9.828   7.705  67.261  1.00  0.00    -0.245 A  
HETATM    5  C   UNL     1      -8.341   6.720  65.642  1.00  0.00    -0.147 A  
HETATM    6  F   UNL     1     -12.081   6.702  68.952  1.00  0.00     0.037 F  
HETATM    7  F   UNL     1     -10.788   5.153  69.761  1.00  0.00    -0.356 F  
HETATM    8  C   UNL     1      -8.420   5.482  66.312  1.00  0.00    -0.122 A  
HETATM    9  C   UNL     1      -7.648   4.275  65.830  1.00  0.00    -0.086 C  
HETATM   10  C   UNL     1      -9.217   5.375  67.464  1.00  0.00    -0.114 A  
HETATM   11  F   UNL     1     -10.367   7.244  70.174  1.00  0.00    -0.199 F  
HETATM   12  F   UNL     1      -6.934   4.499  64.691  1.00  0.00    -0.046 F  
HETATM   13  F   UNL     1      -6.753   3.827  66.751  1.00  0.00    -0.042 F  
HETATM   14  F   UNL     1      -8.460   3.215  65.555  1.00  0.00    -0.095 F  
HETATM   15  C   UNL     1     -10.777   6.392  69.195  1.00  0.00    -0.284 C  
HETATM   16  C   UNL     1      -9.924   6.482  67.949  1.00  0.00    -0.148 A  
ENDBRANCH   2   3
BRANCH   2  17
HETATM   17  O   UNL     1     -10.021  10.118  65.537  1.00  0.00    -0.274 OA 
BRANCH  17  18
HETATM   18  C   UNL     1      -9.664  11.497  65.699  1.00  0.00    -0.232 C  
HETATM   19  C   UNL     1     -12.037  12.922  66.504  1.00  0.00    -0.305 C  
HETATM   20  C   UNL     1     -11.812  12.256  65.151  1.00  0.00    -0.350 C  
HETATM   21  O   UNL     1     -10.425  12.312  64.794  1.00  0.00    -0.276 OA 
HETATM   22  N   UNL     1     -11.276  12.285  67.617  1.00  0.00    -0.271 NA 
HETATM   23  C   UNL     1      -9.840  12.124  67.163  1.00  0.00    -0.197 C  
BRANCH  22  24
HETATM   24  C   UNL     1     -11.344  13.190  68.799  1.00  0.00    -0.291 C  
BRANCH  24  25
HETATM   25  C   UNL     1     -10.521  14.440  68.592  1.00  0.00    -0.247 C  
HETATM   26  N   UNL     1     -10.778  15.274  67.567  1.00  0.00    -0.278 NA 
HETATM   27  N   UNL     1      -9.534  14.817  69.359  1.00  0.00    -0.412 NA 
HETATM   28  O   UNL     1      -9.824  17.296  66.985  1.00  0.00    -0.263 OA 
HETATM   29  C   UNL     1      -9.901  16.307  67.688  1.00  0.00    -0.238 C  
HETATM   30  N   UNL     1      -9.121  15.997  68.796  1.00  0.00    -0.210 NA 
HETATM   31  H   UNL     1      -9.160  14.345  70.183  1.00  0.00     0.000 HD 
ENDBRANCH  24  25
ENDBRANCH  22  24
BRANCH  23  32
HETATM   32  C   UNL     1      -8.919  11.535  68.236  1.00  0.00    -0.177 A  
HETATM   33  C   UNL     1      -7.237  10.200  70.057  1.00  0.00    -0.161 A  
HETATM   34  F   UNL     1      -6.423   9.545  70.892  1.00  0.00    -0.069 F  
HETATM   35  C   UNL     1      -7.579  11.922  68.384  1.00  0.00    -0.120 A  
HETATM   36  C   UNL     1      -8.565   9.816  69.948  1.00  0.00    -0.236 A  
HETATM   37  C   UNL     1      -6.741  11.253  69.289  1.00  0.00    -0.110 A  
HETATM   38  C   UNL     1      -9.401  10.482  69.047  1.00  0.00    -0.205 A  
ENDBRANCH  23  32
ENDBRANCH  17  18
ENDBRANCH   2  17
TORSDOF 6
ENDMDL
MODEL      224
REMARK 921   NORMALIZED FREE ENERGY PREDICTED BY IDOCK:   -4.70 KCAL/MOL
REMARK 922        TOTAL FREE ENERGY PREDICTED BY IDOCK:   -8.48 KCAL/MOL
REMARK 923 INTER-LIGAND FREE ENERGY PREDICTED BY IDOCK:   -6.71 KCAL/MOL
REMARK 924 INTRA-LIGAND FREE ENERGY PREDICTED BY IDOCK:   -1.77 KCAL/MOL
REMARK 927      BINDING AFFINITY PREDICTED BY RF-SCORE:    0.00 PKD
ROOT
HETATM    1  C   UNL     1     -11.818   7.510  70.448  1.00  0.00    -0.062 C  
HETATM    2  C   UNL     1     -11.054   8.704  71.038  1.00  0.00    -0.264 C  
ENDROOT
BRANCH   2   3
HETATM    3  C   UNL     1     -11.269  10.013  70.258  1.00  0.00    -0.379 A  
HETATM    4  C   UNL     1     -11.790  11.170  70.869  1.00  0.00    -0.237 A  
HETATM    5  C   UNL     1     -10.960  10.080  68.887  1.00  0.00    -0.244 A  
HETATM    6  F   UNL     1     -11.794  13.978  71.897  1.00  0.00    -0.244 F  
HETATM    7  F   UNL     1     -12.729  14.653  70.055  1.00  0.00    -0.359 F  
HETATM    8  C   UNL     1     -11.164  11.260  68.144  1.00  0.00    -0.351 A  
HETATM    9  C   UNL     1     -10.855  11.324  66.666  1.00  0.00    -0.273 C  
HETATM   10  C   UNL     1     -11.685  12.396  68.788  1.00  0.00    -0.379 A  
HETATM   11  F   UNL     1     -13.806  13.324  71.395  1.00  0.00    -0.272 F  
HETATM   12  F   UNL     1     -10.332  10.169  66.164  1.00  0.00    -0.292 F  
HETATM   13  F   UNL     1     -11.956  11.594  65.915  1.00  0.00    -0.262 F  
HETATM   14  F   UNL     1      -9.952  12.300  66.365  1.00  0.00    -0.212 F  
HETATM   15  C   UNL     1     -12.577  13.566  70.861  1.00  0.00    -0.337 C  
HETATM   16  C   UNL     1     -12.003  12.360  70.151  1.00  0.00    -0.376 A  
ENDBRANCH   2   3
BRANCH   2  17
HETATM   17  O   UNL     1      -9.680   8.383  71.374  1.00  0.00    -0.169 OA 
BRANCH  17  18
HETATM   18  C   UNL     1      -8.677   8.926  70.504  1.00  0.00    -0.186 C  
HETATM   19  C   UNL     1      -6.129   7.885  71.359  1.00  0.00    -0.035 C  
HETATM   20  C   UNL     1      -7.013   8.842  72.151  1.00  0.00     0.010 C  
HETATM   21  O   UNL     1      -7.736   9.702  71.262  1.00  0.00    -0.275 OA 
HETATM   22  N   UNL     1      -6.888   7.004  70.426  1.00  0.00    -0.056 NA 
HETATM   23  C   UNL     1      -7.834   7.879  69.631  1.00  0.00    -0.105 C  
BRANCH  22  24
HETATM   24  C   UNL     1      -5.909   6.345  69.516  1.00  0.00    -0.018 C  
BRANCH  24  25
HETATM   25  C   UNL     1      -5.874   4.848  69.726  1.00  0.00    -0.020 C  
HETATM   26  N   UNL     1      -6.498   4.284  70.776  1.00  0.00    -0.026 NA 
HETATM   27  N   UNL     1      -5.270   4.001  68.938  1.00  0.00    -0.010 NA 
HETATM   28  O   UNL     1      -6.749   2.066  71.374  1.00  0.00    -0.022 OA 
HETATM   29  C   UNL     1      -6.313   2.942  70.652  1.00  0.00    -0.023 C  
HETATM   30  N   UNL     1      -5.529   2.784  69.515  1.00  0.00    -0.016 NA 
HETATM   31  H   UNL     1      -4.732   4.197  68.093  1.00  0.00     0.000 HD 
ENDBRANCH  24  25
ENDBRANCH  22  24
BRANCH  23  32
HETATM   32  C   UNL     1      -8.642   7.114  68.578  1.00  0.00    -0.124 A  
HETATM   33  C   UNL     1     -10.361   5.749  66.816  1.00  0.00    -0.256 A  
HETATM   34  F   UNL     1     -11.207   5.125  65.988  1.00  0.00    -0.276 F  
HETATM   35  C   UNL     1      -8.906   7.627  67.300  1.00  0.00    -0.122 A  
HETATM   36  C   UNL     1     -10.095   5.207  68.064  1.00  0.00    -0.189 A  
HETATM   37  C   UNL     1      -9.767   6.948  66.425  1.00  0.00    -0.127 A  
HETATM   38  C   UNL     1      -9.237   5.882  68.938  1.00  0.00    -0.126 A  
ENDBRANCH  23  32
ENDBRANCH  17  18
ENDBRANCH   2  17
TORSDOF 6
ENDMDL
MODEL      225
REMARK 921   NORMALIZED FREE ENERGY PREDICTED BY IDOCK:   -4.67 KCAL/MOL
REMARK 922        TOTAL FREE ENERGY PREDICTED BY IDOCK:   -8.44 KCAL/MOL
REMARK 923 INTER-LIGAND FREE ENERGY PREDICTED BY IDOCK:   -6.45 KCAL/MOL
REMARK 924 INTRA-LIGAND FREE ENERGY PREDICTED BY IDOCK:   -1.99 KCAL/MOL
REMARK 927      BINDING AFFINITY PREDICTED BY RF-SCORE:    0.00 PKD
ROOT
HETATM    1  C   UNL     1      -8.588   8.031  73.427  1.00  0.00    -0.308 C  
HETATM    2  C   UNL     1      -7.943   8.133  72.037  1.00  0.00    -0.124 C  
ENDROOT
BRANCH   2   3
HETATM    3  C   UNL     1      -8.793   8.919  71.024  1.00  0.00    -0.285 A  
HETATM    4  C   UNL     1     -10.052   9.451  71.359  1.00  0.00    -0.263 A  
HETATM    5  C   UNL     1      -8.330   9.113  69.710  1.00  0.00    -0.136 A  
HETATM    6  F   UNL     1     -12.098  11.569  71.881  1.00  0.00    -0.037 F  
HETATM    7  F   UNL     1     -12.843  11.353  69.850  1.00  0.00    -0.173 F  
HETATM    8  C   UNL     1      -9.096   9.812  68.756  1.00  0.00    -0.136 A  
HETATM    9  C   UNL     1      -8.608   9.999  67.337  1.00  0.00    -0.125 C  
HETATM   10  C   UNL     1     -10.348  10.330  69.127  1.00  0.00    -0.241 A  
HETATM   11  F   UNL     1     -13.037   9.709  71.259  1.00  0.00    -0.368 F  
HETATM   12  F   UNL     1      -7.371   9.475  67.109  1.00  0.00    -0.084 F  
HETATM   13  F   UNL     1      -9.435   9.423  66.423  1.00  0.00    -0.185 F  
HETATM   14  F   UNL     1      -8.524  11.313  66.985  1.00  0.00    -0.132 F  
HETATM   15  C   UNL     1     -12.188  10.690  70.844  1.00  0.00    -0.395 C  
HETATM   16  C   UNL     1     -10.838  10.153  70.427  1.00  0.00    -0.365 A  
ENDBRANCH   2   3
BRANCH   2  17
HETATM   17  O   UNL     1      -7.406   6.869  71.571  1.00  0.00    -0.079 OA 
BRANCH  17  18
HETATM   18  C   UNL     1      -7.745   6.499  70.227  1.00  0.00    -0.098 C  
HETATM   19  C   UNL     1      -7.048   3.724  69.885  1.00  0.00    -0.042 C  
HETATM   20  C   UNL     1      -6.067   4.869  70.110  1.00  0.00    -0.021 C  
HETATM   21  O   UNL     1      -6.568   6.076  69.522  1.00  0.00    -0.040 OA 
HETATM   22  N   UNL     1      -8.395   3.967  70.477  1.00  0.00    -0.061 NA 
HETATM   23  C   UNL     1      -8.846   5.348  70.049  1.00  0.00    -0.126 C  
BRANCH  22  24
HETATM   24  C   UNL     1      -9.326   2.933  69.942  1.00  0.00    -0.143 C  
BRANCH  24  25
HETATM   25  C   UNL     1      -9.152   2.743  68.453  1.00  0.00    -0.167 C  
HETATM   26  N   UNL     1      -9.753   3.568  67.577  1.00  0.00    -0.115 NA 
HETATM   27  N   UNL     1      -8.427   1.807  67.903  1.00  0.00    -0.066 NA 
HETATM   28  O   UNL     1      -9.653   3.660  65.270  1.00  0.00    -0.162 OA 
HETATM   29  C   UNL     1      -9.365   3.157  66.339  1.00  0.00    -0.098 C  
HETATM   30  N   UNL     1      -8.556   2.048  66.559  1.00  0.00    -0.106 NA 
HETATM   31  H   UNL     1      -7.890   1.072  68.363  1.00  0.00     0.000 HD 
ENDBRANCH  24  25
ENDBRANCH  22  24
BRANCH  23  32
HETATM   32  C   UNL     1     -10.252   5.714  70.534  1.00  0.00    -0.297 A  
HETATM   33  C   UNL     1     -12.709   6.594  71.589  1.00  0.00    -0.228 A  
HETATM   34  F   UNL     1     -13.862   7.049  72.091  1.00  0.00    -0.309 F  
HETATM   35  C   UNL     1     -11.213   6.307  69.702  1.00  0.00    -0.506 A  
HETATM   36  C   UNL     1     -11.786   5.987  72.427  1.00  0.00    -0.322 A  
HETATM   37  C   UNL     1     -12.435   6.749  70.231  1.00  0.00     0.186 A  
HETATM   38  C   UNL     1     -10.567   5.546  71.902  1.00  0.00    -0.293 A  
ENDBRANCH  23  32
ENDBRANCH  17  18
ENDBRANCH   2  17
TORSDOF 6
ENDMDL
MODEL      226
REMARK 921   NORMALIZED FREE ENERGY PREDICTED BY IDOCK:   -4.65 KCAL/MOL
REMARK 922        TOTAL FREE ENERGY PREDICTED BY IDOCK:   -8.41 KCAL/MOL
REMARK 923 INTER-LIGAND FREE ENERGY PREDICTED BY IDOCK:   -6.93 KCAL/MOL
REMARK 924 INTRA-LIGAND FREE ENERGY PREDICTED BY IDOCK:   -1.48 KCAL/MOL
REMARK 927      BINDING AFFINITY PREDICTED BY RF-SCORE:    0.00 PKD
ROOT
HETATM    1  C   UNL     1     -13.072  10.742  69.850  1.00  0.00     0.327 C  
HETATM    2  C   UNL     1     -11.711  11.434  69.693  1.00  0.00    -0.345 C  
ENDROOT
BRANCH   2   3
HETATM    3  C   UNL     1     -11.752  12.941  69.998  1.00  0.00    -0.284 A  
HETATM    4  C   UNL     1     -12.337  13.450  71.173  1.00  0.00    -0.348 A  
HETATM    5  C   UNL     1     -11.210  13.863  69.085  1.00  0.00    -0.311 A  
HETATM    6  F   UNL     1     -12.441  14.817  73.830  1.00  0.00    -0.596 F  
HETATM    7  F   UNL     1     -13.026  16.671  72.857  1.00  0.00    -0.296 F  
HETATM    8  C   UNL     1     -11.250  15.251  69.329  1.00  0.00    -0.291 A  
HETATM    9  C   UNL     1     -10.690  16.243  68.335  1.00  0.00    -0.311 C  
HETATM   10  C   UNL     1     -11.842  15.723  70.513  1.00  0.00    -0.402 A  
HETATM   11  F   UNL     1     -14.353  14.951  72.806  1.00  0.00    -0.452 F  
HETATM   12  F   UNL     1     -10.121  15.662  67.242  1.00  0.00    -0.241 F  
HETATM   13  F   UNL     1     -11.638  17.094  67.858  1.00  0.00    -0.078 F  
HETATM   14  F   UNL     1      -9.722  17.033  68.880  1.00  0.00    -0.244 F  
HETATM   15  C   UNL     1     -13.045  15.316  72.716  1.00  0.00    -0.461 C  
HETATM   16  C   UNL     1     -12.391  14.829  71.442  1.00  0.00    -0.398 A  
ENDBRANCH   2   3
BRANCH   2  17
HETATM   17  O   UNL     1     -11.021  11.050  68.477  1.00  0.00    -0.193 OA 
BRANCH  17  18
HETATM   18  C   UNL     1      -9.976  10.079  68.626  1.00  0.00    -0.165 C  
HETATM   19  C   UNL     1      -9.693   8.710  66.105  1.00  0.00    -0.222 C  
HETATM   20  C   UNL     1     -10.903   8.637  67.029  1.00  0.00     0.046 C  
HETATM   21  O   UNL     1     -10.494   8.759  68.397  1.00  0.00    -0.207 OA 
HETATM   22  N   UNL     1      -8.932   9.988  66.218  1.00  0.00    -0.146 NA 
HETATM   23  C   UNL     1      -8.688  10.253  67.689  1.00  0.00    -0.121 C  
BRANCH  22  24
HETATM   24  C   UNL     1      -7.635   9.816  65.503  1.00  0.00    -0.118 C  
BRANCH  24  25
HETATM   25  C   UNL     1      -7.027   8.459  65.771  1.00  0.00    -0.067 C  
HETATM   26  N   UNL     1      -7.188   7.446  64.901  1.00  0.00    -0.064 NA 
HETATM   27  N   UNL     1      -6.311   8.159  66.821  1.00  0.00    -0.054 NA 
HETATM   28  O   UNL     1      -6.347   5.294  64.909  1.00  0.00    -0.032 OA 
HETATM   29  C   UNL     1      -6.491   6.393  65.408  1.00  0.00    -0.039 C  
HETATM   30  N   UNL     1      -5.969   6.848  66.613  1.00  0.00    -0.028 NA 
HETATM   31  H   UNL     1      -6.064   8.759  67.609  1.00  0.00     0.000 HD 
ENDBRANCH  24  25
ENDBRANCH  22  24
BRANCH  23  32
HETATM   32  C   UNL     1      -7.856  11.510  67.957  1.00  0.00    -0.126 A  
HETATM   33  C   UNL     1      -6.140  13.724  68.244  1.00  0.00    -0.111 A  
HETATM   34  F   UNL     1      -5.318  14.774  68.342  1.00  0.00    -0.086 F  
HETATM   35  C   UNL     1      -8.293  12.799  67.621  1.00  0.00    -0.175 A  
HETATM   36  C   UNL     1      -5.693  12.464  68.609  1.00  0.00    -0.054 A  
HETATM   37  C   UNL     1      -7.436  13.901  67.761  1.00  0.00    -0.174 A  
HETATM   38  C   UNL     1      -6.546  11.365  68.471  1.00  0.00    -0.062 A  
ENDBRANCH  23  32
ENDBRANCH  17  18
ENDBRANCH   2  17
TORSDOF 6
ENDMDL
MODEL      227
REMARK 921   NORMALIZED FREE ENERGY PREDICTED BY IDOCK:   -4.62 KCAL/MOL
REMARK 922        TOTAL FREE ENERGY PREDICTED BY IDOCK:   -8.37 KCAL/MOL
REMARK 923 INTER-LIGAND FREE ENERGY PREDICTED BY IDOCK:   -8.66 KCAL/MOL
REMARK 924 INTRA-LIGAND FREE ENERGY PREDICTED BY IDOCK:    0.29 KCAL/MOL
REMARK 927      BINDING AFFINITY PREDICTED BY RF-SCORE:    0.00 PKD
ROOT
HETATM    1  C   UNL     1     -12.025  11.204  67.576  1.00  0.00     0.297 C  
HETATM    2  C   UNL     1     -11.076  12.111  68.374  1.00  0.00    -0.245 C  
ENDROOT
BRANCH   2   3
HETATM    3  C   UNL     1      -9.822  11.382  68.887  1.00  0.00    -0.127 A  
HETATM    4  C   UNL     1      -9.904  10.236  69.700  1.00  0.00    -0.230 A  
HETATM    5  C   UNL     1      -8.541  11.864  68.563  1.00  0.00    -0.110 A  
HETATM    6  F   UNL     1      -9.588   7.356  70.442  1.00  0.00    -0.164 F  
HETATM    7  F   UNL     1      -7.724   7.820  71.460  1.00  0.00    -0.077 F  
HETATM    8  C   UNL     1      -7.375  11.227  69.034  1.00  0.00    -0.115 A  
HETATM    9  C   UNL     1      -5.999  11.761  68.706  1.00  0.00    -0.048 C  
HETATM   10  C   UNL     1      -7.496  10.085  69.843  1.00  0.00    -0.171 A  
HETATM   11  F   UNL     1      -9.600   8.623  72.208  1.00  0.00    -0.309 F  
HETATM   12  F   UNL     1      -6.014  12.855  67.895  1.00  0.00    -0.074 F  
HETATM   13  F   UNL     1      -5.303  12.125  69.817  1.00  0.00    -0.067 F  
HETATM   14  F   UNL     1      -5.222  10.839  68.069  1.00  0.00    -0.038 F  
HETATM   15  C   UNL     1      -8.910   8.361  71.064  1.00  0.00    -0.161 C  
HETATM   16  C   UNL     1      -8.757   9.581  70.184  1.00  0.00    -0.258 A  
ENDBRANCH   2   3
BRANCH   2  17
HETATM   17  O   UNL     1     -11.770  12.939  69.341  1.00  0.00    -0.292 OA 
BRANCH  17  18
HETATM   18  C   UNL     1     -12.064  14.280  68.923  1.00  0.00    -0.279 C  
HETATM   19  C   UNL     1      -9.798  15.923  69.614  1.00  0.00    -0.238 C  
HETATM   20  C   UNL     1     -10.736  15.236  70.600  1.00  0.00    -0.176 C  
HETATM   21  O   UNL     1     -12.060  15.160  70.058  1.00  0.00    -0.308 OA 
HETATM   22  N   UNL     1      -9.690  15.219  68.304  1.00  0.00    -0.208 NA 
HETATM   23  C   UNL     1     -11.095  14.923  67.820  1.00  0.00    -0.309 C  
BRANCH  22  24
HETATM   24  C   UNL     1      -8.998  16.129  67.348  1.00  0.00    -0.191 C  
BRANCH  24  25
HETATM   25  C   UNL     1      -9.765  17.416  67.148  1.00  0.00    -0.267 C  
HETATM   26  N   UNL     1     -10.049  17.865  65.912  1.00  0.00    -0.574 NA 
HETATM   27  N   UNL     1     -10.213  18.172  68.114  1.00  0.00    -0.370 NA 
HETATM   28  O   UNL     1     -11.262  19.703  65.211  1.00  0.00    -0.340 OA 
HETATM   29  C   UNL     1     -10.774  19.005  66.079  1.00  0.00    -0.337 C  
HETATM   30  N   UNL     1     -10.849  19.192  67.454  1.00  0.00    -0.481 NA 
HETATM   31  H   UNL     1     -10.114  18.036  69.120  1.00  0.00     0.000 HD 
ENDBRANCH  24  25
ENDBRANCH  22  24
BRANCH  23  32
HETATM   32  C   UNL     1     -11.143  14.252  66.444  1.00  0.00    -0.325 A  
HETATM   33  C   UNL     1     -11.168  12.768  64.052  1.00  0.00    -0.413 A  
HETATM   34  F   UNL     1     -11.194  12.032  62.935  1.00  0.00    -0.303 F  
HETATM   35  C   UNL     1     -12.331  14.093  65.717  1.00  0.00    -0.481 A  
HETATM   36  C   UNL     1      -9.975  12.934  64.739  1.00  0.00    -0.151 A  
HETATM   37  C   UNL     1     -12.343  13.350  64.527  1.00  0.00    -0.415 A  
HETATM   38  C   UNL     1      -9.962  13.675  65.925  1.00  0.00    -0.304 A  
ENDBRANCH  23  32
ENDBRANCH  17  18
ENDBRANCH   2  17
TORSDOF 6
ENDMDL
MODEL      228
REMARK 921   NORMALIZED FREE ENERGY PREDICTED BY IDOCK:   -4.59 KCAL/MOL
REMARK 922        TOTAL FREE ENERGY PREDICTED BY IDOCK:   -8.34 KCAL/MOL
REMARK 923 INTER-LIGAND FREE ENERGY PREDICTED BY IDOCK:   -8.28 KCAL/MOL
REMARK 924 INTRA-LIGAND FREE ENERGY PREDICTED BY IDOCK:   -0.06 KCAL/MOL
REMARK 927      BINDING AFFINITY PREDICTED BY RF-SCORE:    0.00 PKD
ROOT
HETATM    1  C   UNL     1      -8.578  11.761  67.143  1.00  0.00    -0.168 C  
HETATM    2  C   UNL     1      -9.933  11.106  67.449  1.00  0.00    -0.179 C  
ENDROOT
BRANCH   2   3
HETATM    3  C   UNL     1     -10.732  11.836  68.542  1.00  0.00    -0.251 A  
HETATM    4  C   UNL     1     -11.503  11.141  69.493  1.00  0.00    -0.374 A  
HETATM    5  C   UNL     1     -10.725  13.241  68.606  1.00  0.00    -0.281 A  
HETATM    6  F   UNL     1     -12.301  10.151  72.200  1.00  0.00    -0.421 F  
HETATM    7  F   UNL     1     -13.736  11.775  72.373  1.00  0.00    -0.490 F  
HETATM    8  C   UNL     1     -11.463  13.936  69.586  1.00  0.00    -0.310 A  
HETATM    9  C   UNL     1     -11.474  15.447  69.638  1.00  0.00    -0.320 C  
HETATM   10  C   UNL     1     -12.220  13.209  70.520  1.00  0.00    -0.405 A  
HETATM   11  F   UNL     1     -14.012  10.238  70.862  1.00  0.00    -0.146 F  
HETATM   12  F   UNL     1     -10.682  16.035  68.698  1.00  0.00    -0.232 F  
HETATM   13  F   UNL     1     -12.719  15.965  69.458  1.00  0.00    -0.215 F  
HETATM   14  F   UNL     1     -11.042  15.928  70.839  1.00  0.00    -0.306 F  
HETATM   15  C   UNL     1     -13.067  11.008  71.468  1.00  0.00    -0.396 C  
HETATM   16  C   UNL     1     -12.249  11.810  70.481  1.00  0.00    -0.438 A  
ENDBRANCH   2   3
BRANCH   2  17
HETATM   17  O   UNL     1      -9.844   9.665  67.581  1.00  0.00    -0.152 OA 
BRANCH  17  18
HETATM   18  C   UNL     1      -8.519   9.121  67.653  1.00  0.00    -0.116 C  
HETATM   19  C   UNL     1      -8.082   8.248  70.365  1.00  0.00    -0.108 C  
HETATM   20  C   UNL     1      -8.262   9.692  69.910  1.00  0.00    -0.174 C  
HETATM   21  O   UNL     1      -7.730   9.868  68.591  1.00  0.00    -0.078 OA 
HETATM   22  N   UNL     1      -8.765   7.256  69.486  1.00  0.00    -0.134 NA 
HETATM   23  C   UNL     1      -8.393   7.574  68.053  1.00  0.00    -0.124 C  
BRANCH  22  24
HETATM   24  C   UNL     1      -8.274   5.898  69.856  1.00  0.00    -0.117 C  
BRANCH  24  25
HETATM   25  C   UNL     1      -9.023   5.339  71.044  1.00  0.00    -0.138 C  
HETATM   26  N   UNL     1     -10.230   5.824  71.389  1.00  0.00    -0.208 NA 
HETATM   27  N   UNL     1      -8.593   4.369  71.804  1.00  0.00    -0.112 NA 
HETATM   28  O   UNL     1     -11.702   5.179  73.049  1.00  0.00    -0.303 OA 
HETATM   29  C   UNL     1     -10.644   5.088  72.456  1.00  0.00    -0.219 C  
HETATM   30  N   UNL     1      -9.606   4.201  72.714  1.00  0.00    -0.125 NA 
HETATM   31  H   UNL     1      -7.713   3.857  71.738  1.00  0.00     0.000 HD 
ENDBRANCH  24  25
ENDBRANCH  22  24
BRANCH  23  32
HETATM   32  C   UNL     1      -8.976   6.591  67.033  1.00  0.00    -0.121 A  
HETATM   33  C   UNL     1      -9.860   4.585  65.267  1.00  0.00    -0.169 A  
HETATM   34  F   UNL     1     -10.274   3.605  64.456  1.00  0.00    -0.174 F  
HETATM   35  C   UNL     1     -10.285   6.095  67.116  1.00  0.00    -0.246 A  
HETATM   36  C   UNL     1      -8.570   5.077  65.147  1.00  0.00    -0.148 A  
HETATM   37  C   UNL     1     -10.722   5.092  66.238  1.00  0.00    -0.272 A  
HETATM   38  C   UNL     1      -8.132   6.077  66.021  1.00  0.00    -0.113 A  
ENDBRANCH  23  32
ENDBRANCH  17  18
ENDBRANCH   2  17
TORSDOF 6
ENDMDL
MODEL      229
REMARK 921   NORMALIZED FREE ENERGY PREDICTED BY IDOCK:   -4.58 KCAL/MOL
REMARK 922        TOTAL FREE ENERGY PREDICTED BY IDOCK:   -8.32 KCAL/MOL
REMARK 923 INTER-LIGAND FREE ENERGY PREDICTED BY IDOCK:   -9.31 KCAL/MOL
REMARK 924 INTRA-LIGAND FREE ENERGY PREDICTED BY IDOCK:    0.98 KCAL/MOL
REMARK 927      BINDING AFFINITY PREDICTED BY RF-SCORE:    0.00 PKD
ROOT
HETATM    1  C   UNL     1     -11.766  14.200  70.525  1.00  0.00    -0.284 C  
HETATM    2  C   UNL     1     -11.140  14.184  69.123  1.00  0.00    -0.262 C  
ENDROOT
BRANCH   2   3
HETATM    3  C   UNL     1     -10.012  15.215  68.944  1.00  0.00    -0.227 A  
HETATM    4  C   UNL     1     -10.266  16.599  68.893  1.00  0.00    -0.284 A  
HETATM    5  C   UNL     1      -8.678  14.789  68.808  1.00  0.00    -0.178 A  
HETATM    6  F   UNL     1     -10.182  19.450  69.791  1.00  0.00    -0.326 F  
HETATM    7  F   UNL     1      -8.488  19.816  68.478  1.00  0.00    -0.365 F  
HETATM    8  C   UNL     1      -7.627  15.711  68.625  1.00  0.00    -0.143 A  
HETATM    9  C   UNL     1      -6.197  15.251  68.454  1.00  0.00    -0.106 C  
HETATM   10  C   UNL     1      -7.919  17.085  68.580  1.00  0.00    -0.249 A  
HETATM   11  F   UNL     1     -10.428  19.315  67.635  1.00  0.00    -0.417 F  
HETATM   12  F   UNL     1      -6.041  13.900  68.542  1.00  0.00    -0.077 F  
HETATM   13  F   UNL     1      -5.675  15.612  67.251  1.00  0.00    -0.138 F  
HETATM   14  F   UNL     1      -5.365  15.782  69.394  1.00  0.00    -0.104 F  
HETATM   15  C   UNL     1      -9.574  19.012  68.652  1.00  0.00    -0.403 C  
HETATM   16  C   UNL     1      -9.237  17.540  68.711  1.00  0.00    -0.227 A  
ENDBRANCH   2   3
BRANCH   2  17
HETATM   17  O   UNL     1     -12.130  14.136  68.065  1.00  0.00    -0.351 OA 
BRANCH  17  18
HETATM   18  C   UNL     1     -12.096  12.974  67.224  1.00  0.00    -0.245 C  
HETATM   19  C   UNL     1      -9.541  12.940  65.890  1.00  0.00    -0.124 C  
HETATM   20  C   UNL     1     -10.644  13.971  65.679  1.00  0.00    -0.307 C  
HETATM   21  O   UNL     1     -11.931  13.364  65.852  1.00  0.00    -0.366 OA 
HETATM   22  N   UNL     1      -9.551  12.326  67.249  1.00  0.00    -0.184 NA 
HETATM   23  C   UNL     1     -10.968  11.882  67.545  1.00  0.00    -0.247 C  
BRANCH  22  24
HETATM   24  C   UNL     1      -8.636  11.149  67.228  1.00  0.00    -0.140 C  
BRANCH  24  25
HETATM   25  C   UNL     1      -8.331  10.704  65.817  1.00  0.00    -0.162 C  
HETATM   26  N   UNL     1      -9.270  10.101  65.065  1.00  0.00    -0.197 NA 
HETATM   27  N   UNL     1      -7.183  10.866  65.218  1.00  0.00    -0.358 NA 
HETATM   28  O   UNL     1      -9.218   9.377  62.871  1.00  0.00    -0.187 OA 
HETATM   29  C   UNL     1      -8.697   9.871  63.853  1.00  0.00    -0.214 C  
HETATM   30  N   UNL     1      -7.392  10.335  63.971  1.00  0.00    -0.106 NA 
HETATM   31  H   UNL     1      -6.331  11.289  65.589  1.00  0.00     0.000 HD 
ENDBRANCH  24  25
ENDBRANCH  22  24
BRANCH  23  32
HETATM   32  C   UNL     1     -11.120  11.169  68.892  1.00  0.00    -0.293 A  
HETATM   33  C   UNL     1     -11.575   9.668  71.230  1.00  0.00    -0.393 A  
HETATM   34  F   UNL     1     -11.793   8.922  72.319  1.00  0.00    -0.404 F  
HETATM   35  C   UNL     1     -10.069  10.477  69.511  1.00  0.00    -0.208 A  
HETATM   36  C   UNL     1     -12.625  10.365  70.653  1.00  0.00    -0.435 A  
HETATM   37  C   UNL     1     -10.298   9.727  70.673  1.00  0.00    -0.330 A  
HETATM   38  C   UNL     1     -12.399  11.115  69.495  1.00  0.00    -0.262 A  
ENDBRANCH  23  32
ENDBRANCH  17  18
ENDBRANCH   2  17
TORSDOF 6
ENDMDL
MODEL      230
REMARK 921   NORMALIZED FREE ENERGY PREDICTED BY IDOCK:   -4.58 KCAL/MOL
REMARK 922        TOTAL FREE ENERGY PREDICTED BY IDOCK:   -8.32 KCAL/MOL
REMARK 923 INTER-LIGAND FREE ENERGY PREDICTED BY IDOCK:   -7.62 KCAL/MOL
REMARK 924 INTRA-LIGAND FREE ENERGY PREDICTED BY IDOCK:   -0.69 KCAL/MOL
REMARK 927      BINDING AFFINITY PREDICTED BY RF-SCORE:    0.00 PKD
ROOT
HETATM    1  C   UNL     1      -6.473  10.772  69.234  1.00  0.00    -0.067 C  
HETATM    2  C   UNL     1      -7.992  10.549  69.264  1.00  0.00    -0.154 C  
ENDROOT
BRANCH   2   3
HETATM    3  C   UNL     1      -8.444   9.562  70.354  1.00  0.00    -0.238 A  
HETATM    4  C   UNL     1      -9.804   9.313  70.619  1.00  0.00    -0.332 A  
HETATM    5  C   UNL     1      -7.490   8.885  71.136  1.00  0.00    -0.125 A  
HETATM    6  F   UNL     1     -12.336   7.730  70.772  1.00  0.00    -0.277 F  
HETATM    7  F   UNL     1     -11.957   7.322  72.873  1.00  0.00    -0.186 F  
HETATM    8  C   UNL     1      -7.876   7.989  72.154  1.00  0.00    -0.144 A  
HETATM    9  C   UNL     1      -6.852   7.282  73.011  1.00  0.00    -0.065 C  
HETATM   10  C   UNL     1      -9.244   7.765  72.390  1.00  0.00    -0.218 A  
HETATM   11  F   UNL     1     -12.341   9.356  72.214  1.00  0.00    -0.423 F  
HETATM   12  F   UNL     1      -5.563   7.562  72.668  1.00  0.00    -0.037 F  
HETATM   13  F   UNL     1      -6.967   7.598  74.329  1.00  0.00    -0.098 F  
HETATM   14  F   UNL     1      -6.966   5.925  72.944  1.00  0.00    -0.070 F  
HETATM   15  C   UNL     1     -11.693   8.209  71.874  1.00  0.00    -0.310 C  
HETATM   16  C   UNL     1     -10.217   8.425  71.628  1.00  0.00    -0.310 A  
ENDBRANCH   2   3
BRANCH   2  17
HETATM   17  O   UNL     1      -8.557  10.342  67.945  1.00  0.00    -0.117 OA 
BRANCH  17  18
HETATM   18  C   UNL     1      -8.664  11.508  67.117  1.00  0.00    -0.160 C  
HETATM   19  C   UNL     1      -9.916  10.710  64.647  1.00  0.00    -0.337 C  
HETATM   20  C   UNL     1      -8.538  10.274  65.130  1.00  0.00    -0.171 C  
HETATM   21  O   UNL     1      -7.927  11.317  65.900  1.00  0.00    -0.062 OA 
HETATM   22  N   UNL     1     -10.860  11.041  65.753  1.00  0.00    -0.155 NA 
HETATM   23  C   UNL     1     -10.143  11.972  66.709  1.00  0.00    -0.203 C  
BRANCH  22  24
HETATM   24  C   UNL     1     -12.044  11.724  65.160  1.00  0.00     0.213 C  
BRANCH  24  25
HETATM   25  C   UNL     1     -11.730  13.153  64.778  1.00  0.00    -0.347 C  
HETATM   26  N   UNL     1     -12.697  14.087  64.748  1.00  0.00    -0.683 NA 
HETATM   27  N   UNL     1     -10.542  13.594  64.465  1.00  0.00    -0.484 NA 
HETATM   28  O   UNL     1     -12.598  16.355  64.317  1.00  0.00     0.016 OA 
HETATM   29  C   UNL     1     -12.086  15.256  64.414  1.00  0.00    -0.252 C  
HETATM   30  N   UNL     1     -10.749  14.928  64.221  1.00  0.00     0.179 NA 
HETATM   31  H   UNL     1      -9.668  13.072  64.414  1.00  0.00     0.000 HD 
ENDBRANCH  24  25
ENDBRANCH  22  24
BRANCH  23  32
HETATM   32  C   UNL     1     -11.017  12.451  67.872  1.00  0.00    -0.266 A  
HETATM   33  C   UNL     1     -12.424  13.210  70.190  1.00  0.00    -0.122 A  
HETATM   34  F   UNL     1     -13.058  13.576  71.309  1.00  0.00    -0.394 F  
HETATM   35  C   UNL     1     -11.172  13.806  68.200  1.00  0.00    -0.298 A  
HETATM   36  C   UNL     1     -12.307  11.866  69.874  1.00  0.00    -0.168 A  
HETATM   37  C   UNL     1     -11.870  14.182  69.357  1.00  0.00    -0.378 A  
HETATM   38  C   UNL     1     -11.612  11.488  68.720  1.00  0.00    -0.379 A  
ENDBRANCH  23  32
ENDBRANCH  17  18
ENDBRANCH   2  17
TORSDOF 6
ENDMDL
MODEL      231
REMARK 921   NORMALIZED FREE ENERGY PREDICTED BY IDOCK:   -4.56 KCAL/MOL
REMARK 922        TOTAL FREE ENERGY PREDICTED BY IDOCK:   -8.30 KCAL/MOL
REMARK 923 INTER-LIGAND FREE ENERGY PREDICTED BY IDOCK:   -6.75 KCAL/MOL
REMARK 924 INTRA-LIGAND FREE ENERGY PREDICTED BY IDOCK:   -1.55 KCAL/MOL
REMARK 927      BINDING AFFINITY PREDICTED BY RF-SCORE:    0.00 PKD
ROOT
HETATM    1  C   UNL     1      -7.175  10.326  68.840  1.00  0.00    -0.086 C  
HETATM    2  C   UNL     1      -8.524   9.724  68.420  1.00  0.00    -0.114 C  
ENDROOT
BRANCH   2   3
HETATM    3  C   UNL     1      -9.736  10.484  68.987  1.00  0.00    -0.221 A  
HETATM    4  C   UNL     1     -10.605   9.907  69.932  1.00  0.00    -0.312 A  
HETATM    5  C   UNL     1     -10.018  11.792  68.552  1.00  0.00    -0.203 A  
HETATM    6  F   UNL     1     -11.960   9.557  72.575  1.00  0.00    -0.267 F  
HETATM    7  F   UNL     1     -13.667  10.693  71.852  1.00  0.00    -0.350 F  
HETATM    8  C   UNL     1     -11.132  12.505  69.041  1.00  0.00    -0.287 A  
HETATM    9  C   UNL     1     -11.449  13.901  68.555  1.00  0.00    -0.311 C  
HETATM   10  C   UNL     1     -11.977  11.896  69.985  1.00  0.00    -0.409 A  
HETATM   11  F   UNL     1     -13.183   8.772  70.957  1.00  0.00    -0.253 F  
HETATM   12  F   UNL     1     -10.543  14.390  67.661  1.00  0.00    -0.251 F  
HETATM   13  F   UNL     1     -12.661  13.976  67.940  1.00  0.00    -0.242 F  
HETATM   14  F   UNL     1     -11.492  14.808  69.571  1.00  0.00    -0.251 F  
HETATM   15  C   UNL     1     -12.626   9.916  71.441  1.00  0.00    -0.398 C  
HETATM   16  C   UNL     1     -11.723  10.595  70.436  1.00  0.00    -0.446 A  
ENDBRANCH   2   3
BRANCH   2  17
HETATM   17  O   UNL     1      -8.562   8.281  68.550  1.00  0.00    -0.131 OA 
BRANCH  17  18
HETATM   18  C   UNL     1      -7.305   7.604  68.414  1.00  0.00    -0.095 C  
HETATM   19  C   UNL     1      -7.861   4.813  67.963  1.00  0.00    -0.082 C  
HETATM   20  C   UNL     1      -8.149   5.584  69.246  1.00  0.00    -0.095 C  
HETATM   21  O   UNL     1      -7.167   6.610  69.440  1.00  0.00    -0.084 OA 
HETATM   22  N   UNL     1      -7.877   5.664  66.739  1.00  0.00    -0.100 NA 
HETATM   23  C   UNL     1      -7.019   6.883  67.012  1.00  0.00    -0.070 C  
BRANCH  22  24
HETATM   24  C   UNL     1      -7.299   4.870  65.617  1.00  0.00    -0.077 C  
BRANCH  24  25
HETATM   25  C   UNL     1      -8.303   3.890  65.054  1.00  0.00    -0.104 C  
HETATM   26  N   UNL     1      -9.489   4.313  64.580  1.00  0.00    -0.161 NA 
HETATM   27  N   UNL     1      -8.116   2.601  64.969  1.00  0.00    -0.082 NA 
HETATM   28  O   UNL     1     -11.215   3.156  63.569  1.00  0.00    -0.277 OA 
HETATM   29  C   UNL     1     -10.129   3.206  64.114  1.00  0.00    -0.155 C  
HETATM   30  N   UNL     1      -9.270   2.147  64.383  1.00  0.00    -0.124 NA 
HETATM   31  H   UNL     1      -7.305   2.059  65.268  1.00  0.00     0.000 HD 
ENDBRANCH  24  25
ENDBRANCH  22  24
BRANCH  23  32
HETATM   32  C   UNL     1      -6.889   7.825  65.812  1.00  0.00    -0.053 A  
HETATM   33  C   UNL     1      -6.803   9.753  63.762  1.00  0.00    -0.119 A  
HETATM   34  F   UNL     1      -6.761  10.697  62.816  1.00  0.00    -0.141 F  
HETATM   35  C   UNL     1      -5.669   8.397  65.422  1.00  0.00    -0.044 A  
HETATM   36  C   UNL     1      -8.018   9.183  64.111  1.00  0.00    -0.140 A  
HETATM   37  C   UNL     1      -5.629   9.361  64.404  1.00  0.00    -0.069 A  
HETATM   38  C   UNL     1      -8.060   8.222  65.125  1.00  0.00    -0.142 A  
ENDBRANCH  23  32
ENDBRANCH  17  18
ENDBRANCH   2  17
TORSDOF 6
ENDMDL
MODEL      232
REMARK 921   NORMALIZED FREE ENERGY PREDICTED BY IDOCK:   -4.56 KCAL/MOL
REMARK 922        TOTAL FREE ENERGY PREDICTED BY IDOCK:   -8.29 KCAL/MOL
REMARK 923 INTER-LIGAND FREE ENERGY PREDICTED BY IDOCK:   -7.13 KCAL/MOL
REMARK 924 INTRA-LIGAND FREE ENERGY PREDICTED BY IDOCK:   -1.16 KCAL/MOL
REMARK 927      BINDING AFFINITY PREDICTED BY RF-SCORE:    0.00 PKD
ROOT
HETATM    1  C   UNL     1     -11.679  17.825  67.670  1.00  0.00     1.491 C  
HETATM    2  C   UNL     1     -10.739  16.614  67.762  1.00  0.00    -0.327 C  
ENDROOT
BRANCH   2   3
HETATM    3  C   UNL     1      -9.262  17.000  67.952  1.00  0.00    -0.239 A  
HETATM    4  C   UNL     1      -8.692  18.115  67.308  1.00  0.00    -0.244 A  
HETATM    5  C   UNL     1      -8.427  16.223  68.775  1.00  0.00    -0.240 A  
HETATM    6  F   UNL     1      -7.421  20.812  67.079  1.00  0.00    -0.337 F  
HETATM    7  F   UNL     1      -5.459  19.882  66.982  1.00  0.00    -0.169 F  
HETATM    8  C   UNL     1      -7.065  16.543  68.952  1.00  0.00    -0.200 A  
HETATM    9  C   UNL     1      -6.163  15.693  69.818  1.00  0.00    -0.166 C  
HETATM   10  C   UNL     1      -6.532  17.664  68.294  1.00  0.00    -0.188 A  
HETATM   11  F   UNL     1      -6.897  19.553  65.386  1.00  0.00    -0.262 F  
HETATM   12  F   UNL     1      -6.803  14.652  70.421  1.00  0.00    -0.181 F  
HETATM   13  F   UNL     1      -5.134  15.145  69.116  1.00  0.00    -0.093 F  
HETATM   14  F   UNL     1      -5.586  16.407  70.826  1.00  0.00    -0.171 F  
HETATM   15  C   UNL     1      -6.780  19.659  66.738  1.00  0.00    -0.195 C  
HETATM   16  C   UNL     1      -7.337  18.456  67.467  1.00  0.00    -0.219 A  
ENDBRANCH   2   3
BRANCH   2  17
HETATM   17  O   UNL     1     -11.009  15.613  66.749  1.00  0.00    -0.310 OA 
BRANCH  17  18
HETATM   18  C   UNL     1     -12.156  14.783  66.975  1.00  0.00    -0.095 C  
HETATM   19  C   UNL     1     -11.283  12.039  66.856  1.00  0.00    -0.320 C  
HETATM   20  C   UNL     1     -11.302  13.020  65.690  1.00  0.00    -0.301 C  
HETATM   21  O   UNL     1     -12.389  13.943  65.835  1.00  0.00    -0.436 OA 
HETATM   22  N   UNL     1     -11.121  12.695  68.186  1.00  0.00    -0.234 NA 
HETATM   23  C   UNL     1     -12.118  13.832  68.265  1.00  0.00    -0.279 C  
BRANCH  22  24
HETATM   24  C   UNL     1     -11.413  11.681  69.238  1.00  0.00    -0.300 C  
BRANCH  24  25
HETATM   25  C   UNL     1     -10.612  10.415  69.031  1.00  0.00    -0.221 C  
HETATM   26  N   UNL     1      -9.276  10.412  69.182  1.00  0.00    -0.189 NA 
HETATM   27  N   UNL     1     -11.122   9.257  68.710  1.00  0.00    -0.453 NA 
HETATM   28  O   UNL     1      -7.741   8.689  69.049  1.00  0.00    -0.092 OA 
HETATM   29  C   UNL     1      -8.872   9.130  68.970  1.00  0.00    -0.139 C  
HETATM   30  N   UNL     1     -10.031   8.429  68.657  1.00  0.00    -0.179 NA 
HETATM   31  H   UNL     1     -12.101   9.024  68.539  1.00  0.00     0.000 HD 
ENDBRANCH  24  25
ENDBRANCH  22  24
BRANCH  23  32
HETATM   32  C   UNL     1     -12.111  14.564  69.610  1.00  0.00    -0.369 A  
HETATM   33  C   UNL     1     -12.270  15.693  72.184  1.00  0.00    -0.439 A  
HETATM   34  F   UNL     1     -12.346  16.193  73.423  1.00  0.00    -0.474 F  
HETATM   35  C   UNL     1     -10.967  14.667  70.415  1.00  0.00    -0.027 A  
HETATM   36  C   UNL     1     -13.409  15.627  71.398  1.00  0.00    -0.512 A  
HETATM   37  C   UNL     1     -11.049  15.226  71.699  1.00  0.00    -0.251 A  
HETATM   38  C   UNL     1     -13.330  15.071  70.118  1.00  0.00     0.227 A  
ENDBRANCH  23  32
ENDBRANCH  17  18
ENDBRANCH   2  17
TORSDOF 6
ENDMDL
MODEL      233
REMARK 921   NORMALIZED FREE ENERGY PREDICTED BY IDOCK:   -4.54 KCAL/MOL
REMARK 922        TOTAL FREE ENERGY PREDICTED BY IDOCK:   -8.27 KCAL/MOL
REMARK 923 INTER-LIGAND FREE ENERGY PREDICTED BY IDOCK:   -7.89 KCAL/MOL
REMARK 924 INTRA-LIGAND FREE ENERGY PREDICTED BY IDOCK:   -0.38 KCAL/MOL
REMARK 927      BINDING AFFINITY PREDICTED BY RF-SCORE:    0.00 PKD
ROOT
HETATM    1  C   UNL     1     -11.898  11.470  67.925  1.00  0.00    -0.255 C  
HETATM    2  C   UNL     1     -10.502  10.909  68.233  1.00  0.00    -0.179 C  
ENDROOT
BRANCH   2   3
HETATM    3  C   UNL     1     -10.531   9.500  68.848  1.00  0.00    -0.235 A  
HETATM    4  C   UNL     1     -10.705   9.290  70.229  1.00  0.00    -0.284 A  
HETATM    5  C   UNL     1     -10.364   8.367  68.030  1.00  0.00    -0.270 A  
HETATM    6  F   UNL     1     -12.070   8.368  72.725  1.00  0.00    -0.452 F  
HETATM    7  F   UNL     1     -10.886   6.544  72.701  1.00  0.00    -0.222 F  
HETATM    8  C   UNL     1     -10.368   7.064  68.569  1.00  0.00    -0.204 A  
HETATM    9  C   UNL     1     -10.164   5.849  67.693  1.00  0.00    -0.187 C  
HETATM   10  C   UNL     1     -10.546   6.894  69.953  1.00  0.00    -0.256 A  
HETATM   11  F   UNL     1      -9.916   8.466  73.001  1.00  0.00    -0.341 F  
HETATM   12  F   UNL     1     -10.029   6.143  66.370  1.00  0.00    -0.195 F  
HETATM   13  F   UNL     1      -9.054   5.141  68.036  1.00  0.00    -0.108 F  
HETATM   14  F   UNL     1     -11.203   4.970  67.773  1.00  0.00     0.211 F  
HETATM   15  C   UNL     1     -10.892   7.842  72.286  1.00  0.00    -0.283 C  
HETATM   16  C   UNL     1     -10.713   8.002  70.793  1.00  0.00    -0.236 A  
ENDBRANCH   2   3
BRANCH   2  17
HETATM   17  O   UNL     1      -9.642  11.873  68.893  1.00  0.00    -0.075 OA 
BRANCH  17  18
HETATM   18  C   UNL     1      -8.565  12.397  68.104  1.00  0.00    -0.185 C  
HETATM   19  C   UNL     1      -6.788  10.211  67.494  1.00  0.00    -0.077 C  
HETATM   20  C   UNL     1      -7.040  10.797  68.879  1.00  0.00    -0.082 C  
HETATM   21  O   UNL     1      -7.315  12.199  68.784  1.00  0.00    -0.109 OA 
HETATM   22  N   UNL     1      -7.942  10.364  66.563  1.00  0.00    -0.119 NA 
HETATM   23  C   UNL     1      -8.398  11.807  66.624  1.00  0.00    -0.136 C  
BRANCH  22  24
HETATM   24  C   UNL     1      -7.472  10.031  65.188  1.00  0.00    -0.139 C  
BRANCH  24  25
HETATM   25  C   UNL     1      -7.579   8.550  64.906  1.00  0.00    -0.098 C  
HETATM   26  N   UNL     1      -6.792   7.667  65.546  1.00  0.00    -0.048 NA 
HETATM   27  N   UNL     1      -8.416   8.013  64.060  1.00  0.00    -0.390 NA 
HETATM   28  O   UNL     1      -6.726   5.359  65.462  1.00  0.00    -0.040 OA 
HETATM   29  C   UNL     1      -7.164   6.435  65.104  1.00  0.00    -0.070 C  
HETATM   30  N   UNL     1      -8.161   6.670  64.164  1.00  0.00    -0.078 NA 
HETATM   31  H   UNL     1      -9.098   8.482  63.463  1.00  0.00     0.000 HD 
ENDBRANCH  24  25
ENDBRANCH  22  24
BRANCH  23  32
HETATM   32  C   UNL     1      -9.547  12.131  65.664  1.00  0.00    -0.177 A  
HETATM   33  C   UNL     1     -11.472  12.907  63.762  1.00  0.00    -0.459 A  
HETATM   34  F   UNL     1     -12.359  13.279  62.832  1.00  0.00    -0.577 F  
HETATM   35  C   UNL     1     -10.051  11.203  64.741  1.00  0.00    -0.351 A  
HETATM   36  C   UNL     1     -11.009  13.836  64.681  1.00  0.00    -0.406 A  
HETATM   37  C   UNL     1     -11.008  11.593  63.791  1.00  0.00    -0.495 A  
HETATM   38  C   UNL     1     -10.056  13.449  65.629  1.00  0.00    -0.285 A  
ENDBRANCH  23  32
ENDBRANCH  17  18
ENDBRANCH   2  17
TORSDOF 6
ENDMDL
MODEL      234
REMARK 921   NORMALIZED FREE ENERGY PREDICTED BY IDOCK:   -4.52 KCAL/MOL
REMARK 922        TOTAL FREE ENERGY PREDICTED BY IDOCK:   -8.23 KCAL/MOL
REMARK 923 INTER-LIGAND FREE ENERGY PREDICTED BY IDOCK:   -6.76 KCAL/MOL
REMARK 924 INTRA-LIGAND FREE ENERGY PREDICTED BY IDOCK:   -1.47 KCAL/MOL
REMARK 927      BINDING AFFINITY PREDICTED BY RF-SCORE:    0.00 PKD
ROOT
HETATM    1  C   UNL     1      -6.895  10.751  68.277  1.00  0.00    -0.067 C  
HETATM    2  C   UNL     1      -7.684  10.598  66.968  1.00  0.00    -0.117 C  
ENDROOT
BRANCH   2   3
HETATM    3  C   UNL     1      -9.141  11.080  67.072  1.00  0.00    -0.154 A  
HETATM    4  C   UNL     1      -9.897  10.926  68.249  1.00  0.00    -0.179 A  
HETATM    5  C   UNL     1      -9.768  11.683  65.966  1.00  0.00    -0.257 A  
HETATM    6  F   UNL     1     -11.414  11.781  70.681  1.00  0.00    -0.284 F  
HETATM    7  F   UNL     1     -13.281  11.606  69.580  1.00  0.00     0.393 F  
HETATM    8  C   UNL     1     -11.108  12.117  66.027  1.00  0.00    -0.354 A  
HETATM    9  C   UNL     1     -11.788  12.741  64.830  1.00  0.00    -0.374 C  
HETATM   10  C   UNL     1     -11.831  11.948  67.219  1.00  0.00    -0.222 A  
HETATM   11  F   UNL     1     -12.086   9.835  69.982  1.00  0.00    -0.206 F  
HETATM   12  F   UNL     1     -10.976  12.874  63.744  1.00  0.00    -0.387 F  
HETATM   13  F   UNL     1     -12.864  12.022  64.409  1.00  0.00    -0.490 F  
HETATM   14  F   UNL     1     -12.260  13.993  65.094  1.00  0.00    -0.361 F  
HETATM   15  C   UNL     1     -11.999  11.146  69.626  1.00  0.00    -0.359 C  
HETATM   16  C   UNL     1     -11.235  11.351  68.337  1.00  0.00    -0.324 A  
ENDBRANCH   2   3
BRANCH   2  17
HETATM   17  O   UNL     1      -7.485   9.306  66.339  1.00  0.00    -0.091 OA 
BRANCH  17  18
HETATM   18  C   UNL     1      -8.672   8.635  65.894  1.00  0.00    -0.172 C  
HETATM   19  C   UNL     1      -7.854   6.218  64.554  1.00  0.00    -0.115 C  
HETATM   20  C   UNL     1      -7.588   7.639  64.072  1.00  0.00    -0.114 C  
HETATM   21  O   UNL     1      -8.658   8.507  64.464  1.00  0.00    -0.137 OA 
HETATM   22  N   UNL     1      -7.984   6.104  66.035  1.00  0.00    -0.106 NA 
HETATM   23  C   UNL     1      -8.948   7.177  66.499  1.00  0.00    -0.151 C  
BRANCH  22  24
HETATM   24  C   UNL     1      -8.529   4.753  66.348  1.00  0.00    -0.110 C  
BRANCH  24  25
HETATM   25  C   UNL     1      -8.904   3.999  65.093  1.00  0.00    -0.127 C  
HETATM   26  N   UNL     1     -10.148   4.077  64.586  1.00  0.00    -0.206 NA 
HETATM   27  N   UNL     1      -8.089   3.244  64.408  1.00  0.00    -0.086 NA 
HETATM   28  O   UNL     1     -11.062   3.168  62.669  1.00  0.00    -0.131 OA 
HETATM   29  C   UNL     1     -10.143   3.329  63.449  1.00  0.00    -0.164 C  
HETATM   30  N   UNL     1      -8.861   2.801  63.364  1.00  0.00    -0.088 NA 
HETATM   31  H   UNL     1      -7.110   3.033  64.602  1.00  0.00     0.000 HD 
ENDBRANCH  24  25
ENDBRANCH  22  24
BRANCH  23  32
HETATM   32  C   UNL     1      -9.230   7.141  68.004  1.00  0.00    -0.130 A  
HETATM   33  C   UNL     1      -9.655   7.355  70.779  1.00  0.00    -0.170 A  
HETATM   34  F   UNL     1      -9.867   7.494  72.092  1.00  0.00    -0.175 F  
HETATM   35  C   UNL     1     -10.527   7.073  68.534  1.00  0.00    -0.226 A  
HETATM   36  C   UNL     1      -8.362   7.398  70.282  1.00  0.00    -0.134 A  
HETATM   37  C   UNL     1     -10.737   7.183  69.916  1.00  0.00    -0.258 A  
HETATM   38  C   UNL     1      -8.150   7.288  68.905  1.00  0.00    -0.128 A  
ENDBRANCH  23  32
ENDBRANCH  17  18
ENDBRANCH   2  17
TORSDOF 6
ENDMDL
MODEL      235
REMARK 921   NORMALIZED FREE ENERGY PREDICTED BY IDOCK:   -4.51 KCAL/MOL
REMARK 922        TOTAL FREE ENERGY PREDICTED BY IDOCK:   -8.22 KCAL/MOL
REMARK 923 INTER-LIGAND FREE ENERGY PREDICTED BY IDOCK:   -7.86 KCAL/MOL
REMARK 924 INTRA-LIGAND FREE ENERGY PREDICTED BY IDOCK:   -0.36 KCAL/MOL
REMARK 927      BINDING AFFINITY PREDICTED BY RF-SCORE:    0.00 PKD
ROOT
HETATM    1  C   UNL     1      -9.407  13.216  66.549  1.00  0.00    -0.222 C  
HETATM    2  C   UNL     1      -9.163  12.440  67.851  1.00  0.00    -0.192 C  
ENDROOT
BRANCH   2   3
HETATM    3  C   UNL     1     -10.277  12.631  68.895  1.00  0.00    -0.004 A  
HETATM    4  C   UNL     1     -10.919  11.540  69.510  1.00  0.00    -0.186 A  
HETATM    5  C   UNL     1     -10.699  13.924  69.252  1.00  0.00    -0.117 A  
HETATM    6  F   UNL     1     -11.723   9.716  71.740  1.00  0.00    -0.426 F  
HETATM    7  F   UNL     1     -13.589  10.809  71.964  1.00  0.00    -0.450 F  
HETATM    8  C   UNL     1     -11.731  14.128  70.191  1.00  0.00    -0.350 A  
HETATM    9  C   UNL     1     -12.201  15.518  70.555  1.00  0.00    -0.404 C  
HETATM   10  C   UNL     1     -12.348  13.014  70.785  1.00  0.00    -0.394 A  
HETATM   11  F   UNL     1     -13.195   9.694  70.140  1.00  0.00     0.085 F  
HETATM   12  F   UNL     1     -11.508  16.512  69.933  1.00  0.00    -0.285 F  
HETATM   13  F   UNL     1     -13.510  15.722  70.247  1.00  0.00    -0.242 F  
HETATM   14  F   UNL     1     -12.090  15.771  71.891  1.00  0.00    -0.358 F  
HETATM   15  C   UNL     1     -12.610  10.502  71.067  1.00  0.00    -0.400 C  
HETATM   16  C   UNL     1     -11.951  11.714  70.450  1.00  0.00    -0.448 A  
ENDBRANCH   2   3
BRANCH   2  17
HETATM   17  O   UNL     1      -7.804  12.575  68.341  1.00  0.00    -0.138 OA 
BRANCH  17  18
HETATM   18  C   UNL     1      -6.913  11.497  68.025  1.00  0.00    -0.077 C  
HETATM   19  C   UNL     1      -7.551   9.299  69.777  1.00  0.00    -0.082 C  
HETATM   20  C   UNL     1      -6.964  10.640  70.205  1.00  0.00    -0.065 C  
HETATM   21  O   UNL     1      -6.118  11.164  69.174  1.00  0.00    -0.042 OA 
HETATM   22  N   UNL     1      -8.376   9.377  68.538  1.00  0.00    -0.117 NA 
HETATM   23  C   UNL     1      -7.579  10.138  67.498  1.00  0.00    -0.091 C  
BRANCH  22  24
HETATM   24  C   UNL     1      -8.636   7.986  68.069  1.00  0.00    -0.129 C  
BRANCH  24  25
HETATM   25  C   UNL     1      -9.506   7.224  69.042  1.00  0.00    -0.147 C  
HETATM   26  N   UNL     1     -10.743   7.657  69.347  1.00  0.00    -0.216 NA 
HETATM   27  N   UNL     1      -9.158   6.118  69.642  1.00  0.00    -0.136 NA 
HETATM   28  O   UNL     1     -12.383   6.734  70.688  1.00  0.00    -0.359 OA 
HETATM   29  C   UNL     1     -11.268   6.738  70.202  1.00  0.00    -0.335 C  
HETATM   30  N   UNL     1     -10.261   5.799  70.392  1.00  0.00    -0.208 NA 
HETATM   31  H   UNL     1      -8.276   5.612  69.571  1.00  0.00     0.000 HD 
ENDBRANCH  24  25
ENDBRANCH  22  24
BRANCH  23  32
HETATM   32  C   UNL     1      -8.280  10.243  66.141  1.00  0.00    -0.138 A  
HETATM   33  C   UNL     1      -9.445  10.178  63.579  1.00  0.00    -0.260 A  
HETATM   34  F   UNL     1     -10.002  10.108  62.365  1.00  0.00    -0.250 F  
HETATM   35  C   UNL     1      -9.671  10.144  65.993  1.00  0.00    -0.285 A  
HETATM   36  C   UNL     1      -8.070  10.304  63.699  1.00  0.00    -0.149 A  
HETATM   37  C   UNL     1     -10.250  10.107  64.716  1.00  0.00    -0.122 A  
HETATM   38  C   UNL     1      -7.491  10.341  64.971  1.00  0.00    -0.120 A  
ENDBRANCH  23  32
ENDBRANCH  17  18
ENDBRANCH   2  17
TORSDOF 6
ENDMDL
MODEL      236
REMARK 921   NORMALIZED FREE ENERGY PREDICTED BY IDOCK:   -4.49 KCAL/MOL
REMARK 922        TOTAL FREE ENERGY PREDICTED BY IDOCK:   -8.20 KCAL/MOL
REMARK 923 INTER-LIGAND FREE ENERGY PREDICTED BY IDOCK:   -7.42 KCAL/MOL
REMARK 924 INTRA-LIGAND FREE ENERGY PREDICTED BY IDOCK:   -0.78 KCAL/MOL
REMARK 927      BINDING AFFINITY PREDICTED BY RF-SCORE:    0.00 PKD
ROOT
HETATM    1  C   UNL     1      -8.540   9.125  62.898  1.00  0.00    -0.203 C  
HETATM    2  C   UNL     1      -8.759   9.550  64.357  1.00  0.00    -0.208 C  
ENDROOT
BRANCH   2   3
HETATM    3  C   UNL     1      -8.523   8.414  65.367  1.00  0.00    -0.193 A  
HETATM    4  C   UNL     1      -9.134   7.153  65.230  1.00  0.00     0.384 A  
HETATM    5  C   UNL     1      -7.688   8.618  66.481  1.00  0.00    -0.095 A  
HETATM    6  F   UNL     1      -9.288   4.199  64.789  1.00  0.00    -0.133 F  
HETATM    7  F   UNL     1      -9.343   3.879  66.939  1.00  0.00    -0.142 F  
HETATM    8  C   UNL     1      -7.468   7.601  67.432  1.00  0.00    -0.100 A  
HETATM    9  C   UNL     1      -6.591   7.830  68.641  1.00  0.00    -0.057 C  
HETATM   10  C   UNL     1      -8.095   6.355  67.261  1.00  0.00    -0.113 A  
HETATM   11  F   UNL     1     -10.984   4.907  65.951  1.00  0.00    -0.336 F  
HETATM   12  F   UNL     1      -6.021   9.068  68.680  1.00  0.00    -0.042 F  
HETATM   13  F   UNL     1      -7.271   7.694  69.811  1.00  0.00    -0.069 F  
HETATM   14  F   UNL     1      -5.556   6.945  68.708  1.00  0.00    -0.015 F  
HETATM   15  C   UNL     1      -9.627   4.792  65.968  1.00  0.00    -0.180 C  
HETATM   16  C   UNL     1      -8.932   6.121  66.164  1.00  0.00    -0.164 A  
ENDBRANCH   2   3
BRANCH   2  17
HETATM   17  O   UNL     1      -9.971  10.323  64.542  1.00  0.00    -0.339 OA 
BRANCH  17  18
HETATM   18  C   UNL     1      -9.900  11.705  64.165  1.00  0.00    -0.242 C  
HETATM   19  C   UNL     1     -12.529  12.837  64.500  1.00  0.00    -0.428 C  
HETATM   20  C   UNL     1     -12.139  11.773  63.480  1.00  0.00    -0.379 C  
HETATM   21  O   UNL     1     -10.782  11.960  63.061  1.00  0.00    -0.288 OA 
HETATM   22  N   UNL     1     -11.688  12.820  65.732  1.00  0.00    -0.379 NA 
HETATM   23  C   UNL     1     -10.237  12.784  65.301  1.00  0.00    -0.279 C  
BRANCH  22  24
HETATM   24  C   UNL     1     -11.967  14.068  66.497  1.00  0.00    -0.444 C  
BRANCH  24  25
HETATM   25  C   UNL     1     -11.564  15.300  65.720  1.00  0.00    -0.015 C  
HETATM   26  N   UNL     1     -10.992  16.349  66.339  1.00  0.00    -0.053 NA 
HETATM   27  N   UNL     1     -11.717  15.450  64.433  1.00  0.00    -0.635 NA 
HETATM   28  O   UNL     1     -10.162  18.335  65.497  1.00  0.00    -0.530 OA 
HETATM   29  C   UNL     1     -10.717  17.260  65.367  1.00  0.00    -0.066 C  
HETATM   30  N   UNL     1     -11.193  16.694  64.190  1.00  0.00    -1.039 NA 
HETATM   31  H   UNL     1     -12.128  14.798  63.765  1.00  0.00     0.000 HD 
ENDBRANCH  24  25
ENDBRANCH  22  24
BRANCH  23  32
HETATM   32  C   UNL     1      -9.247  12.827  66.469  1.00  0.00    -0.190 A  
HETATM   33  C   UNL     1      -7.592  13.124  68.726  1.00  0.00    -0.033 A  
HETATM   34  F   UNL     1      -6.837  13.273  69.820  1.00  0.00    -0.064 F  
HETATM   35  C   UNL     1      -9.140  11.797  67.414  1.00  0.00    -0.175 A  
HETATM   36  C   UNL     1      -7.660  14.146  67.792  1.00  0.00    -0.175 A  
HETATM   37  C   UNL     1      -8.318  11.948  68.540  1.00  0.00    -0.118 A  
HETATM   38  C   UNL     1      -8.478  13.997  66.669  1.00  0.00     0.117 A  
ENDBRANCH  23  32
ENDBRANCH  17  18
ENDBRANCH   2  17
TORSDOF 6
ENDMDL
MODEL      237
REMARK 921   NORMALIZED FREE ENERGY PREDICTED BY IDOCK:   -4.49 KCAL/MOL
REMARK 922        TOTAL FREE ENERGY PREDICTED BY IDOCK:   -8.20 KCAL/MOL
REMARK 923 INTER-LIGAND FREE ENERGY PREDICTED BY IDOCK:   -7.53 KCAL/MOL
REMARK 924 INTRA-LIGAND FREE ENERGY PREDICTED BY IDOCK:   -0.67 KCAL/MOL
REMARK 927      BINDING AFFINITY PREDICTED BY RF-SCORE:    0.00 PKD
ROOT
HETATM    1  C   UNL     1     -10.880  17.139  65.151  1.00  0.00    -0.008 C  
HETATM    2  C   UNL     1     -10.533  15.733  65.662  1.00  0.00    -0.383 C  
ENDROOT
BRANCH   2   3
HETATM    3  C   UNL     1      -9.278  15.696  66.550  1.00  0.00    -0.325 A  
HETATM    4  C   UNL     1      -8.727  16.863  67.114  1.00  0.00    -0.219 A  
HETATM    5  C   UNL     1      -8.629  14.476  66.810  1.00  0.00    -0.163 A  
HETATM    6  F   UNL     1      -7.916  18.758  69.281  1.00  0.00    -0.257 F  
HETATM    7  F   UNL     1      -5.898  17.951  69.234  1.00  0.00    -0.184 F  
HETATM    8  C   UNL     1      -7.466  14.415  67.605  1.00  0.00    -0.191 A  
HETATM    9  C   UNL     1      -6.755  13.107  67.863  1.00  0.00    -0.138 C  
HETATM   10  C   UNL     1      -6.946  15.601  68.152  1.00  0.00    -0.127 A  
HETATM   11  F   UNL     1      -6.682  19.018  67.510  1.00  0.00    -0.198 F  
HETATM   12  F   UNL     1      -7.370  12.028  67.301  1.00  0.00    -0.115 F  
HETATM   13  F   UNL     1      -5.481  13.103  67.386  1.00  0.00    -0.117 F  
HETATM   14  F   UNL     1      -6.654  12.823  69.193  1.00  0.00    -0.087 F  
HETATM   15  C   UNL     1      -7.018  18.121  68.477  1.00  0.00    -0.246 C  
HETATM   16  C   UNL     1      -7.568  16.832  67.910  1.00  0.00    -0.177 A  
ENDBRANCH   2   3
BRANCH   2  17
HETATM   17  O   UNL     1     -10.606  14.723  64.623  1.00  0.00    -0.374 OA 
BRANCH  17  18
HETATM   18  C   UNL     1     -11.767  13.880  64.647  1.00  0.00    -0.397 C  
HETATM   19  C   UNL     1     -10.897  11.186  64.106  1.00  0.00    -0.285 C  
HETATM   20  C   UNL     1     -10.853  12.352  63.125  1.00  0.00    -0.031 C  
HETATM   21  O   UNL     1     -11.943  13.249  63.369  1.00  0.00    -0.519 OA 
HETATM   22  N   UNL     1     -10.803  11.604  65.535  1.00  0.00    -0.287 NA 
HETATM   23  C   UNL     1     -11.799  12.724  65.756  1.00  0.00    -0.434 C  
BRANCH  22  24
HETATM   24  C   UNL     1     -11.153  10.429  66.383  1.00  0.00     0.226 C  
BRANCH  24  25
HETATM   25  C   UNL     1     -10.029   9.420  66.427  1.00  0.00    -0.276 C  
HETATM   26  N   UNL     1      -9.714   8.788  67.572  1.00  0.00    -0.159 NA 
HETATM   27  N   UNL     1      -9.299   9.074  65.401  1.00  0.00    -0.412 NA 
HETATM   28  O   UNL     1      -8.156   7.139  68.012  1.00  0.00    -0.117 OA 
HETATM   29  C   UNL     1      -8.705   7.928  67.267  1.00  0.00    -0.131 C  
HETATM   30  N   UNL     1      -8.445   8.133  65.917  1.00  0.00    -0.134 NA 
HETATM   31  H   UNL     1      -9.351   9.422  64.444  1.00  0.00     0.000 HD 
ENDBRANCH  24  25
ENDBRANCH  22  24
BRANCH  23  32
HETATM   32  C   UNL     1     -11.859  13.216  67.205  1.00  0.00    -0.424 A  
HETATM   33  C   UNL     1     -11.682  14.168  69.848  1.00  0.00    -0.309 A  
HETATM   34  F   UNL     1     -11.569  14.646  71.092  1.00  0.00    -0.340 F  
HETATM   35  C   UNL     1     -12.503  14.404  67.579  1.00  0.00     0.176 A  
HETATM   36  C   UNL     1     -11.059  12.977  69.510  1.00  0.00    -0.052 A  
HETATM   37  C   UNL     1     -12.410  14.880  68.895  1.00  0.00    -0.032 A  
HETATM   38  C   UNL     1     -11.151  12.501  68.198  1.00  0.00    -0.282 A  
ENDBRANCH  23  32
ENDBRANCH  17  18
ENDBRANCH   2  17
TORSDOF 6
ENDMDL
MODEL      238
REMARK 921   NORMALIZED FREE ENERGY PREDICTED BY IDOCK:   -4.45 KCAL/MOL
REMARK 922        TOTAL FREE ENERGY PREDICTED BY IDOCK:   -8.14 KCAL/MOL
REMARK 923 INTER-LIGAND FREE ENERGY PREDICTED BY IDOCK:   -6.85 KCAL/MOL
REMARK 924 INTRA-LIGAND FREE ENERGY PREDICTED BY IDOCK:   -1.29 KCAL/MOL
REMARK 927      BINDING AFFINITY PREDICTED BY RF-SCORE:    0.00 PKD
ROOT
HETATM    1  C   UNL     1      -8.446   8.538  71.526  1.00  0.00    -0.221 C  
HETATM    2  C   UNL     1      -7.631   8.943  70.289  1.00  0.00    -0.077 C  
ENDROOT
BRANCH   2   3
HETATM    3  C   UNL     1      -8.204  10.165  69.552  1.00  0.00    -0.176 A  
HETATM    4  C   UNL     1      -7.375  11.134  68.954  1.00  0.00    -0.110 A  
HETATM    5  C   UNL     1      -9.595  10.356  69.472  1.00  0.00    -0.182 A  
HETATM    6  F   UNL     1      -6.151  12.721  66.735  1.00  0.00    -0.009 F  
HETATM    7  F   UNL     1      -7.592  14.313  67.075  1.00  0.00    -0.188 F  
HETATM    8  C   UNL     1     -10.148  11.477  68.819  1.00  0.00    -0.191 A  
HETATM    9  C   UNL     1     -11.642  11.694  68.755  1.00  0.00    -0.313 C  
HETATM   10  C   UNL     1      -9.289  12.422  68.233  1.00  0.00    -0.199 A  
HETATM   11  F   UNL     1      -6.122  13.834  68.602  1.00  0.00    -0.076 F  
HETATM   12  F   UNL     1     -12.367  10.697  69.336  1.00  0.00    -0.348 F  
HETATM   13  F   UNL     1     -12.028  12.845  69.369  1.00  0.00    -0.319 F  
HETATM   14  F   UNL     1     -12.100  11.786  67.474  1.00  0.00    -0.323 F  
HETATM   15  C   UNL     1      -6.957  13.273  67.685  1.00  0.00    -0.160 C  
HETATM   16  C   UNL     1      -7.899  12.261  68.297  1.00  0.00    -0.153 A  
ENDBRANCH   2   3
BRANCH   2  17
HETATM   17  O   UNL     1      -7.271   7.811  69.457  1.00  0.00    -0.075 OA 
BRANCH  17  18
HETATM   18  C   UNL     1      -8.141   7.543  68.349  1.00  0.00    -0.125 C  
HETATM   19  C   UNL     1      -7.154   5.186  67.016  1.00  0.00    -0.069 C  
HETATM   20  C   UNL     1      -6.445   6.534  67.087  1.00  0.00    -0.042 C  
HETATM   21  O   UNL     1      -7.403   7.599  67.118  1.00  0.00    -0.087 OA 
HETATM   22  N   UNL     1      -8.056   4.924  68.174  1.00  0.00    -0.086 NA 
HETATM   23  C   UNL     1      -8.928   6.147  68.368  1.00  0.00    -0.115 C  
BRANCH  22  24
HETATM   24  C   UNL     1      -8.898   3.739  67.844  1.00  0.00    -0.114 C  
BRANCH  24  25
HETATM   25  C   UNL     1      -9.400   3.791  66.419  1.00  0.00    -0.186 C  
HETATM   26  N   UNL     1      -8.701   3.222  65.420  1.00  0.00    -0.119 NA 
HETATM   27  N   UNL     1     -10.514   4.359  66.044  1.00  0.00    -0.456 NA 
HETATM   28  O   UNL     1      -9.178   3.009  63.169  1.00  0.00    -0.095 OA 
HETATM   29  C   UNL     1      -9.435   3.406  64.290  1.00  0.00    -0.143 C  
HETATM   30  N   UNL     1     -10.549   4.133  64.692  1.00  0.00    -0.216 NA 
HETATM   31  H   UNL     1     -11.195   4.853  66.619  1.00  0.00     0.000 HD 
ENDBRANCH  24  25
ENDBRANCH  22  24
BRANCH  23  32
HETATM   32  C   UNL     1      -9.957   5.997  69.492  1.00  0.00    -0.225 A  
HETATM   33  C   UNL     1     -11.657   5.862  71.732  1.00  0.00    -0.155 A  
HETATM   34  F   UNL     1     -12.451   5.833  72.808  1.00  0.00    -0.202 F  
HETATM   35  C   UNL     1     -11.180   6.684  69.501  1.00  0.00    -0.383 A  
HETATM   36  C   UNL     1     -10.466   5.153  71.737  1.00  0.00    -0.268 A  
HETATM   37  C   UNL     1     -12.024   6.619  70.619  1.00  0.00    -0.404 A  
HETATM   38  C   UNL     1      -9.624   5.216  70.623  1.00  0.00    -0.242 A  
ENDBRANCH  23  32
ENDBRANCH  17  18
ENDBRANCH   2  17
TORSDOF 6
ENDMDL
MODEL      239
REMARK 921   NORMALIZED FREE ENERGY PREDICTED BY IDOCK:   -4.38 KCAL/MOL
REMARK 922        TOTAL FREE ENERGY PREDICTED BY IDOCK:   -8.04 KCAL/MOL
REMARK 923 INTER-LIGAND FREE ENERGY PREDICTED BY IDOCK:   -6.46 KCAL/MOL
REMARK 924 INTRA-LIGAND FREE ENERGY PREDICTED BY IDOCK:   -1.58 KCAL/MOL
REMARK 927      BINDING AFFINITY PREDICTED BY RF-SCORE:    0.00 PKD
ROOT
HETATM    1  C   UNL     1      -7.699   9.726  70.329  1.00  0.00    -0.187 C  
HETATM    2  C   UNL     1      -7.584  10.187  68.868  1.00  0.00    -0.090 C  
ENDROOT
BRANCH   2   3
HETATM    3  C   UNL     1      -8.198  11.574  68.615  1.00  0.00    -0.124 A  
HETATM    4  C   UNL     1      -9.569  11.746  68.341  1.00  0.00    -0.191 A  
HETATM    5  C   UNL     1      -7.387  12.723  68.635  1.00  0.00    -0.099 A  
HETATM    6  F   UNL     1     -12.378  12.658  68.808  1.00  0.00    -0.269 F  
HETATM    7  F   UNL     1     -12.017  14.410  67.573  1.00  0.00    -0.370 F  
HETATM    8  C   UNL     1      -7.920  14.005  68.388  1.00  0.00    -0.143 A  
HETATM    9  C   UNL     1      -7.043  15.235  68.385  1.00  0.00    -0.111 C  
HETATM   10  C   UNL     1      -9.293  14.137  68.119  1.00  0.00    -0.206 A  
HETATM   11  F   UNL     1     -11.972  12.427  66.685  1.00  0.00    -0.433 F  
HETATM   12  F   UNL     1      -5.738  14.980  68.684  1.00  0.00    -0.082 F  
HETATM   13  F   UNL     1      -7.035  15.867  67.180  1.00  0.00    -0.190 F  
HETATM   14  F   UNL     1      -7.453  16.169  69.290  1.00  0.00    -0.193 F  
HETATM   15  C   UNL     1     -11.604  13.130  67.791  1.00  0.00    -0.337 C  
HETATM   16  C   UNL     1     -10.127  13.012  68.091  1.00  0.00    -0.237 A  
ENDBRANCH   2   3
BRANCH   2  17
HETATM   17  O   UNL     1      -7.943   9.150  67.921  1.00  0.00    -0.100 OA 
BRANCH  17  18
HETATM   18  C   UNL     1      -6.973   8.866  66.903  1.00  0.00    -0.078 C  
HETATM   19  C   UNL     1      -6.948   6.012  66.497  1.00  0.00    -0.067 C  
HETATM   20  C   UNL     1      -6.499   6.738  67.760  1.00  0.00    -0.050 C  
HETATM   21  O   UNL     1      -5.942   8.016  67.428  1.00  0.00    -0.047 OA 
HETATM   22  N   UNL     1      -7.987   6.750  65.722  1.00  0.00    -0.106 NA 
HETATM   23  C   UNL     1      -7.515   8.180  65.559  1.00  0.00    -0.081 C  
BRANCH  22  24
HETATM   24  C   UNL     1      -8.118   6.097  64.389  1.00  0.00    -0.102 C  
BRANCH  24  25
HETATM   25  C   UNL     1      -9.157   4.999  64.406  1.00  0.00     0.024 C  
HETATM   26  N   UNL     1      -8.955   3.848  63.738  1.00  0.00    -0.110 NA 
HETATM   27  N   UNL     1     -10.290   5.057  65.050  1.00  0.00    -0.286 NA 
HETATM   28  O   UNL     1     -10.237   1.931  63.605  1.00  0.00    -0.133 OA 
HETATM   29  C   UNL     1     -10.041   3.068  63.989  1.00  0.00    -0.157 C  
HETATM   30  N   UNL     1     -10.871   3.843  64.790  1.00  0.00    -0.118 NA 
HETATM   31  H   UNL     1     -10.657   5.825  65.614  1.00  0.00     0.000 HD 
ENDBRANCH  24  25
ENDBRANCH  22  24
BRANCH  23  32
HETATM   32  C   UNL     1      -8.458   9.048  64.722  1.00  0.00    -0.197 A  
HETATM   33  C   UNL     1     -10.087  10.876  63.332  1.00  0.00    -0.340 A  
HETATM   34  F   UNL     1     -10.832  11.771  62.673  1.00  0.00    -0.085 F  
HETATM   35  C   UNL     1      -8.284   9.255  63.347  1.00  0.00    -0.176 A  
HETATM   36  C   UNL     1     -10.297  10.670  64.686  1.00  0.00    -0.353 A  
HETATM   37  C   UNL     1      -9.093  10.169  62.656  1.00  0.00    -0.305 A  
HETATM   38  C   UNL     1      -9.492   9.759  65.376  1.00  0.00    -0.333 A  
ENDBRANCH  23  32
ENDBRANCH  17  18
ENDBRANCH   2  17
TORSDOF 6
ENDMDL
MODEL      240
REMARK 921   NORMALIZED FREE ENERGY PREDICTED BY IDOCK:   -4.37 KCAL/MOL
REMARK 922        TOTAL FREE ENERGY PREDICTED BY IDOCK:   -8.03 KCAL/MOL
REMARK 923 INTER-LIGAND FREE ENERGY PREDICTED BY IDOCK:   -7.86 KCAL/MOL
REMARK 924 INTRA-LIGAND FREE ENERGY PREDICTED BY IDOCK:   -0.17 KCAL/MOL
REMARK 927      BINDING AFFINITY PREDICTED BY RF-SCORE:    0.00 PKD
ROOT
HETATM    1  C   UNL     1      -7.174  11.286  67.477  1.00  0.00    -0.100 C  
HETATM    2  C   UNL     1      -8.480  10.550  67.142  1.00  0.00    -0.127 C  
ENDROOT
BRANCH   2   3
HETATM    3  C   UNL     1      -9.697  11.485  67.031  1.00  0.00    -0.202 A  
HETATM    4  C   UNL     1     -10.175  12.224  68.130  1.00  0.00    -0.212 A  
HETATM    5  C   UNL     1     -10.384  11.611  65.810  1.00  0.00    -0.292 A  
HETATM    6  F   UNL     1     -10.814  14.660  69.743  1.00  0.00    -0.251 F  
HETATM    7  F   UNL     1     -12.864  14.602  69.021  1.00  0.00    -0.020 F  
HETATM    8  C   UNL     1     -11.514  12.445  65.684  1.00  0.00    -0.412 A  
HETATM    9  C   UNL     1     -12.266  12.561  64.378  1.00  0.00    -0.449 C  
HETATM   10  C   UNL     1     -11.960  13.169  66.803  1.00  0.00    -0.434 A  
HETATM   11  F   UNL     1     -12.111  13.000  70.282  1.00  0.00    -0.380 F  
HETATM   12  F   UNL     1     -11.720  11.833  63.364  1.00  0.00    -0.489 F  
HETATM   13  F   UNL     1     -13.558  12.149  64.483  1.00  0.00    -0.223 F  
HETATM   14  F   UNL     1     -12.322  13.845  63.922  1.00  0.00    -0.482 F  
HETATM   15  C   UNL     1     -11.770  13.823  69.252  1.00  0.00    -0.327 C  
HETATM   16  C   UNL     1     -11.299  13.063  68.032  1.00  0.00    -0.327 A  
ENDBRANCH   2   3
BRANCH   2  17
HETATM   17  O   UNL     1      -8.670   9.351  67.934  1.00  0.00    -0.120 OA 
BRANCH  17  18
HETATM   18  C   UNL     1      -9.981   9.163  68.485  1.00  0.00    -0.174 C  
HETATM   19  C   UNL     1     -11.003   6.668  67.468  1.00  0.00    -0.338 C  
HETATM   20  C   UNL     1     -10.723   7.920  66.644  1.00  0.00     0.164 C  
HETATM   21  O   UNL     1     -10.953   9.095  67.431  1.00  0.00    -0.170 OA 
HETATM   22  N   UNL     1     -10.148   6.549  68.684  1.00  0.00    -0.153 NA 
HETATM   23  C   UNL     1     -10.197   7.875  69.414  1.00  0.00    -0.206 C  
BRANCH  22  24
HETATM   24  C   UNL     1     -10.713   5.468  69.540  1.00  0.00    -0.262 C  
BRANCH  24  25
HETATM   25  C   UNL     1      -9.764   4.298  69.659  1.00  0.00    -0.214 C  
HETATM   26  N   UNL     1      -9.142   4.029  70.822  1.00  0.00    -0.100 NA 
HETATM   27  N   UNL     1      -9.480   3.470  68.691  1.00  0.00    -0.164 NA 
HETATM   28  O   UNL     1      -7.722   2.306  71.415  1.00  0.00    -0.040 OA 
HETATM   29  C   UNL     1      -8.405   2.906  70.607  1.00  0.00    -0.052 C  
HETATM   30  N   UNL     1      -8.610   2.583  69.271  1.00  0.00    -0.066 NA 
HETATM   31  H   UNL     1      -9.824   3.480  67.730  1.00  0.00     0.000 HD 
ENDBRANCH  24  25
ENDBRANCH  22  24
BRANCH  23  32
HETATM   32  C   UNL     1      -9.409   7.883  70.728  1.00  0.00    -0.161 A  
HETATM   33  C   UNL     1      -8.132   7.674  73.228  1.00  0.00    -0.134 A  
HETATM   34  F   UNL     1      -7.530   7.535  74.414  1.00  0.00    -0.122 F  
HETATM   35  C   UNL     1      -8.063   7.501  70.810  1.00  0.00    -0.108 A  
HETATM   36  C   UNL     1      -9.456   8.079  73.171  1.00  0.00    -0.349 A  
HETATM   37  C   UNL     1      -7.428   7.394  72.056  1.00  0.00    -0.080 A  
HETATM   38  C   UNL     1     -10.090   8.187  71.930  1.00  0.00    -0.285 A  
ENDBRANCH  23  32
ENDBRANCH  17  18
ENDBRANCH   2  17
TORSDOF 6
ENDMDL
MODEL      241
REMARK 921   NORMALIZED FREE ENERGY PREDICTED BY IDOCK:   -4.37 KCAL/MOL
REMARK 922        TOTAL FREE ENERGY PREDICTED BY IDOCK:   -8.03 KCAL/MOL
REMARK 923 INTER-LIGAND FREE ENERGY PREDICTED BY IDOCK:   -9.46 KCAL/MOL
REMARK 924 INTRA-LIGAND FREE ENERGY PREDICTED BY IDOCK:    1.43 KCAL/MOL
REMARK 927      BINDING AFFINITY PREDICTED BY RF-SCORE:    0.00 PKD
ROOT
HETATM    1  C   UNL     1     -11.549  10.905  68.304  1.00  0.00    -0.335 C  
HETATM    2  C   UNL     1     -10.230  10.151  68.528  1.00  0.00    -0.174 C  
ENDROOT
BRANCH   2   3
HETATM    3  C   UNL     1     -10.427   8.696  68.985  1.00  0.00    -0.216 A  
HETATM    4  C   UNL     1     -10.141   7.603  68.144  1.00  0.00    -0.220 A  
HETATM    5  C   UNL     1     -10.923   8.418  70.272  1.00  0.00    -0.236 A  
HETATM    6  F   UNL     1      -8.720   5.143  67.211  1.00  0.00    -0.107 F  
HETATM    7  F   UNL     1     -10.256   3.906  68.126  1.00  0.00    -0.066 F  
HETATM    8  C   UNL     1     -11.131   7.095  70.711  1.00  0.00    -0.296 A  
HETATM    9  C   UNL     1     -11.687   6.798  72.084  1.00  0.00    -0.297 C  
HETATM   10  C   UNL     1     -10.833   6.030  69.844  1.00  0.00    -0.434 A  
HETATM   11  F   UNL     1     -10.758   5.204  66.457  1.00  0.00    -0.293 F  
HETATM   12  F   UNL     1     -11.910   7.912  72.838  1.00  0.00    -0.390 F  
HETATM   13  F   UNL     1     -12.873   6.135  72.034  1.00  0.00    -0.347 F  
HETATM   14  F   UNL     1     -10.854   6.012  72.824  1.00  0.00    -0.224 F  
HETATM   15  C   UNL     1     -10.025   5.143  67.602  1.00  0.00    -0.161 C  
HETATM   16  C   UNL     1     -10.339   6.273  68.556  1.00  0.00    -0.238 A  
ENDBRANCH   2   3
BRANCH   2  17
HETATM   17  O   UNL     1      -9.259  10.926  69.276  1.00  0.00    -0.117 OA 
BRANCH  17  18
HETATM   18  C   UNL     1      -8.235  11.566  68.503  1.00  0.00    -0.148 C  
HETATM   19  C   UNL     1      -8.791  11.046  65.723  1.00  0.00    -0.191 C  
HETATM   20  C   UNL     1      -8.388  10.006  66.762  1.00  0.00    -0.125 C  
HETATM   21  O   UNL     1      -7.514  10.589  67.736  1.00  0.00    -0.086 OA 
HETATM   22  N   UNL     1      -9.506  12.221  66.300  1.00  0.00    -0.237 NA 
HETATM   23  C   UNL     1      -8.705  12.713  67.487  1.00  0.00    -0.184 C  
BRANCH  22  24
HETATM   24  C   UNL     1      -9.576  13.278  65.252  1.00  0.00     0.167 C  
BRANCH  24  25
HETATM   25  C   UNL     1     -10.878  13.220  64.487  1.00  0.00    -0.394 C  
HETATM   26  N   UNL     1     -11.489  12.044  64.254  1.00  0.00    -0.353 NA 
HETATM   27  N   UNL     1     -11.509  14.259  64.011  1.00  0.00    -0.607 NA 
HETATM   28  O   UNL     1     -13.502  11.561  63.227  1.00  0.00    -0.231 OA 
HETATM   29  C   UNL     1     -12.640  12.338  63.590  1.00  0.00    -0.490 C  
HETATM   30  N   UNL     1     -12.627  13.719  63.430  1.00  0.00    -0.789 NA 
HETATM   31  H   UNL     1     -11.235  15.241  64.061  1.00  0.00     0.000 HD 
ENDBRANCH  24  25
ENDBRANCH  22  24
BRANCH  23  32
HETATM   32  C   UNL     1      -9.290  13.964  68.148  1.00  0.00    -0.203 A  
HETATM   33  C   UNL     1     -10.491  16.085  69.558  1.00  0.00    -0.286 A  
HETATM   34  F   UNL     1     -11.056  17.072  70.262  1.00  0.00    -0.260 F  
HETATM   35  C   UNL     1      -8.502  14.909  68.821  1.00  0.00    -0.172 A  
HETATM   36  C   UNL     1     -11.290  15.179  68.879  1.00  0.00    -0.314 A  
HETATM   37  C   UNL     1      -9.102  15.963  69.526  1.00  0.00    -0.158 A  
HETATM   38  C   UNL     1     -10.695  14.129  68.174  1.00  0.00    -0.251 A  
ENDBRANCH  23  32
ENDBRANCH  17  18
ENDBRANCH   2  17
TORSDOF 6
ENDMDL
MODEL      242
REMARK 921   NORMALIZED FREE ENERGY PREDICTED BY IDOCK:   -4.35 KCAL/MOL
REMARK 922        TOTAL FREE ENERGY PREDICTED BY IDOCK:   -8.01 KCAL/MOL
REMARK 923 INTER-LIGAND FREE ENERGY PREDICTED BY IDOCK:   -7.67 KCAL/MOL
REMARK 924 INTRA-LIGAND FREE ENERGY PREDICTED BY IDOCK:   -0.34 KCAL/MOL
REMARK 927      BINDING AFFINITY PREDICTED BY RF-SCORE:    0.00 PKD
ROOT
HETATM    1  C   UNL     1      -8.593  11.119  68.307  1.00  0.00    -0.146 C  
HETATM    2  C   UNL     1     -10.129  11.122  68.312  1.00  0.00    -0.185 C  
ENDROOT
BRANCH   2   3
HETATM    3  C   UNL     1     -10.737  12.361  68.990  1.00  0.00    -0.140 A  
HETATM    4  C   UNL     1     -10.386  13.670  68.607  1.00  0.00    -0.223 A  
HETATM    5  C   UNL     1     -11.662  12.213  70.040  1.00  0.00    -0.330 A  
HETATM    6  F   UNL     1     -10.786  16.410  67.478  1.00  0.00    -0.310 F  
HETATM    7  F   UNL     1     -11.105  17.192  69.481  1.00  0.00    -0.191 F  
HETATM    8  C   UNL     1     -12.221  13.331  70.691  1.00  0.00    -0.417 A  
HETATM    9  C   UNL     1     -13.195  13.170  71.836  1.00  0.00    -0.431 C  
HETATM   10  C   UNL     1     -11.848  14.622  70.281  1.00  0.00    -0.363 A  
HETATM   11  F   UNL     1      -9.164  16.388  68.926  1.00  0.00    -0.217 F  
HETATM   12  F   UNL     1     -13.496  11.872  72.122  1.00  0.00    -0.570 F  
HETATM   13  F   UNL     1     -12.732  13.712  72.994  1.00  0.00    -0.355 F  
HETATM   14  F   UNL     1     -14.389  13.781  71.591  1.00  0.00    -0.405 F  
HETATM   15  C   UNL     1     -10.503  16.183  68.792  1.00  0.00    -0.264 C  
HETATM   16  C   UNL     1     -10.928  14.803  69.240  1.00  0.00    -0.275 A  
ENDBRANCH   2   3
BRANCH   2  17
HETATM   17  O   UNL     1     -10.692   9.844  68.702  1.00  0.00    -0.215 OA 
BRANCH  17  18
HETATM   18  C   UNL     1      -9.847   9.000  69.496  1.00  0.00    -0.180 C  
HETATM   19  C   UNL     1     -11.403   6.708  70.291  1.00  0.00    -0.374 C  
HETATM   20  C   UNL     1     -11.639   8.146  70.739  1.00  0.00    -0.238 C  
HETATM   21  O   UNL     1     -10.395   8.854  70.815  1.00  0.00    -0.199 OA 
HETATM   22  N   UNL     1     -10.760   6.599  68.950  1.00  0.00    -0.242 NA 
HETATM   23  C   UNL     1      -9.563   7.526  68.934  1.00  0.00    -0.149 C  
BRANCH  22  24
HETATM   24  C   UNL     1     -10.320   5.187  68.764  1.00  0.00    -0.092 C  
BRANCH  24  25
HETATM   25  C   UNL     1      -9.401   4.738  69.877  1.00  0.00    -0.140 C  
HETATM   26  N   UNL     1      -9.790   3.796  70.755  1.00  0.00    -0.161 NA 
HETATM   27  N   UNL     1      -8.194   5.195  70.075  1.00  0.00    -0.082 NA 
HETATM   28  O   UNL     1      -8.656   2.793  72.501  1.00  0.00    -0.073 OA 
HETATM   29  C   UNL     1      -8.733   3.593  71.588  1.00  0.00    -0.090 C  
HETATM   30  N   UNL     1      -7.757   4.486  71.164  1.00  0.00    -0.074 NA 
HETATM   31  H   UNL     1      -7.695   5.910  69.545  1.00  0.00     0.000 HD 
ENDBRANCH  24  25
ENDBRANCH  22  24
BRANCH  23  32
HETATM   32  C   UNL     1      -8.760   7.472  67.631  1.00  0.00    -0.122 A  
HETATM   33  C   UNL     1      -7.492   7.545  65.118  1.00  0.00    -0.085 A  
HETATM   34  F   UNL     1      -6.902   7.616  63.920  1.00  0.00    -0.054 F  
HETATM   35  C   UNL     1      -7.509   8.087  67.482  1.00  0.00    -0.097 A  
HETATM   36  C   UNL     1      -8.717   6.908  65.245  1.00  0.00     0.068 A  
HETATM   37  C   UNL     1      -6.880   8.126  66.228  1.00  0.00    -0.058 A  
HETATM   38  C   UNL     1      -9.344   6.867  66.494  1.00  0.00    -0.197 A  
ENDBRANCH  23  32
ENDBRANCH  17  18
ENDBRANCH   2  17
TORSDOF 6
ENDMDL
MODEL      243
REMARK 921   NORMALIZED FREE ENERGY PREDICTED BY IDOCK:   -4.29 KCAL/MOL
REMARK 922        TOTAL FREE ENERGY PREDICTED BY IDOCK:   -7.93 KCAL/MOL
REMARK 923 INTER-LIGAND FREE ENERGY PREDICTED BY IDOCK:   -6.71 KCAL/MOL
REMARK 924 INTRA-LIGAND FREE ENERGY PREDICTED BY IDOCK:   -1.22 KCAL/MOL
REMARK 927      BINDING AFFINITY PREDICTED BY RF-SCORE:    0.00 PKD
ROOT
HETATM    1  C   UNL     1     -11.185   7.069  68.311  1.00  0.00     0.014 C  
HETATM    2  C   UNL     1     -10.058   7.817  69.037  1.00  0.00    -0.196 C  
ENDROOT
BRANCH   2   3
HETATM    3  C   UNL     1      -9.509   7.058  70.258  1.00  0.00    -0.165 A  
HETATM    4  C   UNL     1      -8.861   7.719  71.319  1.00  0.00    -0.144 A  
HETATM    5  C   UNL     1      -9.631   5.659  70.336  1.00  0.00    -0.217 A  
HETATM    6  F   UNL     1      -8.459   8.714  74.110  1.00  0.00    -0.260 F  
HETATM    7  F   UNL     1      -7.196   6.998  74.542  1.00  0.00    -0.098 F  
HETATM    8  C   UNL     1      -9.121   4.937  71.434  1.00  0.00    -0.177 A  
HETATM    9  C   UNL     1      -9.229   3.431  71.505  1.00  0.00    -0.123 C  
HETATM   10  C   UNL     1      -8.480   5.631  72.475  1.00  0.00    -0.117 A  
HETATM   11  F   UNL     1      -6.558   8.476  73.082  1.00  0.00    -0.107 F  
HETATM   12  F   UNL     1      -9.893   2.878  70.451  1.00  0.00    -0.223 F  
HETATM   13  F   UNL     1      -8.013   2.822  71.544  1.00  0.00    -0.051 F  
HETATM   14  F   UNL     1      -9.891   3.009  72.620  1.00  0.00    -0.159 F  
HETATM   15  C   UNL     1      -7.645   7.788  73.528  1.00  0.00    -0.132 C  
HETATM   16  C   UNL     1      -8.343   7.023  72.426  1.00  0.00    -0.120 A  
ENDBRANCH   2   3
BRANCH   2  17
HETATM   17  O   UNL     1     -10.355   9.221  69.242  1.00  0.00    -0.202 OA 
BRANCH  17  18
HETATM   18  C   UNL     1     -11.365   9.781  68.392  1.00  0.00     0.092 C  
HETATM   19  C   UNL     1     -11.621  12.572  69.064  1.00  0.00    -0.314 C  
HETATM   20  C   UNL     1     -11.985  11.399  69.968  1.00  0.00    -0.363 C  
HETATM   21  O   UNL     1     -12.448  10.292  69.184  1.00  0.00     0.016 OA 
HETATM   22  N   UNL     1     -10.545  12.256  68.081  1.00  0.00    -0.207 NA 
HETATM   23  C   UNL     1     -10.908  10.953  67.400  1.00  0.00    -0.279 C  
BRANCH  22  24
HETATM   24  C   UNL     1     -10.493  13.362  67.083  1.00  0.00    -0.249 C  
BRANCH  24  25
HETATM   25  C   UNL     1     -10.199  14.692  67.739  1.00  0.00    -0.229 C  
HETATM   26  N   UNL     1      -8.972  14.968  68.218  1.00  0.00    -0.169 NA 
HETATM   27  N   UNL     1     -11.066  15.656  67.886  1.00  0.00    -0.322 NA 
HETATM   28  O   UNL     1      -8.121  16.888  69.181  1.00  0.00    -0.202 OA 
HETATM   29  C   UNL     1      -9.029  16.240  68.697  1.00  0.00    -0.232 C  
HETATM   30  N   UNL     1     -10.344  16.646  68.501  1.00  0.00    -0.283 NA 
HETATM   31  H   UNL     1     -12.047  15.670  67.608  1.00  0.00     0.000 HD 
ENDBRANCH  24  25
ENDBRANCH  22  24
BRANCH  23  32
HETATM   32  C   UNL     1      -9.917  10.532  66.311  1.00  0.00    -0.276 A  
HETATM   33  C   UNL     1      -8.102  10.036  64.216  1.00  0.00    -0.156 A  
HETATM   34  F   UNL     1      -7.225   9.836  63.226  1.00  0.00    -0.106 F  
HETATM   35  C   UNL     1      -8.593  10.162  66.588  1.00  0.00    -0.130 A  
HETATM   36  C   UNL     1      -9.413  10.374  63.916  1.00  0.00    -0.354 A  
HETATM   37  C   UNL     1      -7.689   9.919  65.543  1.00  0.00    -0.124 A  
HETATM   38  C   UNL     1     -10.316  10.615  64.956  1.00  0.00    -0.341 A  
ENDBRANCH  23  32
ENDBRANCH  17  18
ENDBRANCH   2  17
TORSDOF 6
ENDMDL
MODEL      244
REMARK 921   NORMALIZED FREE ENERGY PREDICTED BY IDOCK:   -4.24 KCAL/MOL
REMARK 922        TOTAL FREE ENERGY PREDICTED BY IDOCK:   -7.86 KCAL/MOL
REMARK 923 INTER-LIGAND FREE ENERGY PREDICTED BY IDOCK:   -6.85 KCAL/MOL
REMARK 924 INTRA-LIGAND FREE ENERGY PREDICTED BY IDOCK:   -1.01 KCAL/MOL
REMARK 927      BINDING AFFINITY PREDICTED BY RF-SCORE:    0.00 PKD
ROOT
HETATM    1  C   UNL     1     -11.904   6.901  69.729  1.00  0.00    -0.068 C  
HETATM    2  C   UNL     1     -10.532   7.586  69.638  1.00  0.00    -0.234 C  
ENDROOT
BRANCH   2   3
HETATM    3  C   UNL     1      -9.475   6.963  70.566  1.00  0.00    -0.169 A  
HETATM    4  C   UNL     1      -8.854   7.700  71.592  1.00  0.00    -0.135 A  
HETATM    5  C   UNL     1      -9.085   5.622  70.395  1.00  0.00    -0.164 A  
HETATM    6  F   UNL     1      -8.146   8.462  74.396  1.00  0.00    -0.282 F  
HETATM    7  F   UNL     1      -6.306   7.314  74.246  1.00  0.00    -0.075 F  
HETATM    8  C   UNL     1      -8.105   5.031  71.219  1.00  0.00    -0.111 A  
HETATM    9  C   UNL     1      -7.669   3.597  71.019  1.00  0.00    -0.047 C  
HETATM   10  C   UNL     1      -7.507   5.797  72.234  1.00  0.00    -0.099 A  
HETATM   11  F   UNL     1      -6.594   9.073  73.002  1.00  0.00    -0.057 F  
HETATM   12  F   UNL     1      -8.339   2.953  70.022  1.00  0.00    -0.054 F  
HETATM   13  F   UNL     1      -6.347   3.493  70.711  1.00  0.00    -0.020 F  
HETATM   14  F   UNL     1      -7.850   2.838  72.137  1.00  0.00    -0.049 F  
HETATM   15  C   UNL     1      -7.234   7.982  73.504  1.00  0.00    -0.131 C  
HETATM   16  C   UNL     1      -7.874   7.135  72.427  1.00  0.00    -0.096 A  
ENDBRANCH   2   3
BRANCH   2  17
HETATM   17  O   UNL     1     -10.624   9.033  69.660  1.00  0.00    -0.219 OA 
BRANCH  17  18
HETATM   18  C   UNL     1     -11.195   9.644  68.495  1.00  0.00     0.050 C  
HETATM   19  C   UNL     1     -10.840  12.493  68.744  1.00  0.00    -0.239 C  
HETATM   20  C   UNL     1     -11.725  11.624  69.629  1.00  0.00    -0.350 C  
HETATM   21  O   UNL     1     -12.260  10.529  68.876  1.00  0.00    -0.282 OA 
HETATM   22  N   UNL     1      -9.679  11.762  68.158  1.00  0.00    -0.186 NA 
HETATM   23  C   UNL     1     -10.201  10.476  67.553  1.00  0.00    -0.206 C  
BRANCH  22  24
HETATM   24  C   UNL     1      -9.079  12.623  67.100  1.00  0.00    -0.210 C  
BRANCH  24  25
HETATM   25  C   UNL     1     -10.070  12.927  66.000  1.00  0.00    -0.285 C  
HETATM   26  N   UNL     1     -11.217  13.578  66.265  1.00  0.00    -0.294 NA 
HETATM   27  N   UNL     1      -9.907  12.608  64.744  1.00  0.00    -0.505 NA 
HETATM   28  O   UNL     1     -12.906  14.299  64.863  1.00  0.00    -0.680 OA 
HETATM   29  C   UNL     1     -11.853  13.728  65.071  1.00  0.00    -0.366 C  
HETATM   30  N   UNL     1     -11.034  13.101  64.139  1.00  0.00    -0.397 NA 
HETATM   31  H   UNL     1      -9.126  12.111  64.315  1.00  0.00     0.000 HD 
ENDBRANCH  24  25
ENDBRANCH  22  24
BRANCH  23  32
HETATM   32  C   UNL     1      -9.122   9.644  66.853  1.00  0.00    -0.160 A  
HETATM   33  C   UNL     1      -7.201   7.900  65.759  1.00  0.00    -0.071 A  
HETATM   34  F   UNL     1      -6.312   7.042  65.248  1.00  0.00    -0.034 F  
HETATM   35  C   UNL     1      -9.268   9.151  65.548  1.00  0.00    -0.287 A  
HETATM   36  C   UNL     1      -7.021   8.395  67.041  1.00  0.00    -0.074 A  
HETATM   37  C   UNL     1      -8.312   8.279  65.006  1.00  0.00    -0.158 A  
HETATM   38  C   UNL     1      -7.972   9.264  67.583  1.00  0.00    -0.103 A  
ENDBRANCH  23  32
ENDBRANCH  17  18
ENDBRANCH   2  17
TORSDOF 6
ENDMDL
MODEL      245
REMARK 921   NORMALIZED FREE ENERGY PREDICTED BY IDOCK:   -4.20 KCAL/MOL
REMARK 922        TOTAL FREE ENERGY PREDICTED BY IDOCK:   -7.81 KCAL/MOL
REMARK 923 INTER-LIGAND FREE ENERGY PREDICTED BY IDOCK:   -7.06 KCAL/MOL
REMARK 924 INTRA-LIGAND FREE ENERGY PREDICTED BY IDOCK:   -0.75 KCAL/MOL
REMARK 927      BINDING AFFINITY PREDICTED BY RF-SCORE:    0.00 PKD
ROOT
HETATM    1  C   UNL     1      -5.270  11.397  66.560  1.00  0.00    -0.127 C  
HETATM    2  C   UNL     1      -6.622  11.793  67.170  1.00  0.00    -0.143 C  
ENDROOT
BRANCH   2   3
HETATM    3  C   UNL     1      -7.809  11.005  66.591  1.00  0.00    -0.153 A  
HETATM    4  C   UNL     1      -8.165   9.729  67.070  1.00  0.00    -0.117 A  
HETATM    5  C   UNL     1      -8.571  11.544  65.538  1.00  0.00     0.181 A  
HETATM    6  F   UNL     1      -9.865   7.663  68.405  1.00  0.00    -0.153 F  
HETATM    7  F   UNL     1     -10.627   7.036  66.468  1.00  0.00    -0.305 F  
HETATM    8  C   UNL     1      -9.653  10.835  64.976  1.00  0.00    -0.305 A  
HETATM    9  C   UNL     1     -10.455  11.405  63.828  1.00  0.00    -0.399 C  
HETATM   10  C   UNL     1      -9.979   9.565  65.481  1.00  0.00    -0.209 A  
HETATM   11  F   UNL     1      -8.527   6.756  66.951  1.00  0.00    -0.110 F  
HETATM   12  F   UNL     1     -10.059  12.651  63.447  1.00  0.00    -0.377 F  
HETATM   13  F   UNL     1     -10.387  10.631  62.711  1.00  0.00    -0.270 F  
HETATM   14  F   UNL     1     -11.782  11.513  64.124  1.00  0.00    -0.402 F  
HETATM   15  C   UNL     1      -9.563   7.630  67.077  1.00  0.00    -0.175 C  
HETATM   16  C   UNL     1      -9.238   9.001  66.528  1.00  0.00    -0.226 A  
ENDBRANCH   2   3
BRANCH   2  17
HETATM   17  O   UNL     1      -6.798  13.230  67.264  1.00  0.00    -0.134 OA 
BRANCH  17  18
HETATM   18  C   UNL     1      -7.561  13.697  68.385  1.00  0.00    -0.132 C  
HETATM   19  C   UNL     1      -6.132  15.914  69.547  1.00  0.00    -0.152 C  
HETATM   20  C   UNL     1      -5.665  14.463  69.528  1.00  0.00    -0.095 C  
HETATM   21  O   UNL     1      -6.790  13.577  69.590  1.00  0.00    -0.029 OA 
HETATM   22  N   UNL     1      -7.026  16.268  68.408  1.00  0.00    -0.131 NA 
HETATM   23  C   UNL     1      -8.100  15.205  68.314  1.00  0.00    -0.138 C  
BRANCH  22  24
HETATM   24  C   UNL     1      -7.640  17.595  68.700  1.00  0.00    -0.276 C  
BRANCH  24  25
HETATM   25  C   UNL     1      -6.935  18.710  67.960  1.00  0.00    -0.234 C  
HETATM   26  N   UNL     1      -7.605  19.498  67.101  1.00  0.00    -0.240 NA 
HETATM   27  N   UNL     1      -5.670  19.004  68.089  1.00  0.00    -0.202 NA 
HETATM   28  O   UNL     1      -6.915  21.333  65.878  1.00  0.00     0.110 OA 
HETATM   29  C   UNL     1      -6.707  20.413  66.645  1.00  0.00    -0.246 C  
HETATM   30  N   UNL     1      -5.503  20.078  67.253  1.00  0.00    -0.165 NA 
HETATM   31  H   UNL     1      -4.971  18.544  68.673  1.00  0.00     0.000 HD 
ENDBRANCH  24  25
ENDBRANCH  22  24
BRANCH  23  32
HETATM   32  C   UNL     1      -9.137  15.473  67.220  1.00  0.00    -0.215 A  
HETATM   33  C   UNL     1     -10.898  16.214  65.151  1.00  0.00    -0.361 A  
HETATM   34  F   UNL     1     -11.704  16.582  64.149  1.00  0.00    -0.476 F  
HETATM   35  C   UNL     1      -9.220  14.709  66.046  1.00  0.00    -0.139 A  
HETATM   36  C   UNL     1     -10.854  16.970  66.312  1.00  0.00     0.034 A  
HETATM   37  C   UNL     1     -10.095  15.082  65.015  1.00  0.00    -0.289 A  
HETATM   38  C   UNL     1      -9.983  16.599  67.342  1.00  0.00    -0.265 A  
ENDBRANCH  23  32
ENDBRANCH  17  18
ENDBRANCH   2  17
TORSDOF 6
ENDMDL
MODEL      246
REMARK 921   NORMALIZED FREE ENERGY PREDICTED BY IDOCK:   -4.19 KCAL/MOL
REMARK 922        TOTAL FREE ENERGY PREDICTED BY IDOCK:   -7.79 KCAL/MOL
REMARK 923 INTER-LIGAND FREE ENERGY PREDICTED BY IDOCK:   -6.28 KCAL/MOL
REMARK 924 INTRA-LIGAND FREE ENERGY PREDICTED BY IDOCK:   -1.50 KCAL/MOL
REMARK 927      BINDING AFFINITY PREDICTED BY RF-SCORE:    0.00 PKD
ROOT
HETATM    1  C   UNL     1      -5.215  11.423  66.603  1.00  0.00    -0.124 C  
HETATM    2  C   UNL     1      -6.551  11.794  67.261  1.00  0.00    -0.132 C  
ENDROOT
BRANCH   2   3
HETATM    3  C   UNL     1      -7.758  11.060  66.652  1.00  0.00    -0.153 A  
HETATM    4  C   UNL     1      -8.560  11.642  65.651  1.00  0.00     0.200 A  
HETATM    5  C   UNL     1      -8.105   9.773  67.102  1.00  0.00    -0.116 A  
HETATM    6  F   UNL     1      -9.772  11.971  62.938  1.00  0.00    -0.385 F  
HETATM    7  F   UNL     1     -11.549  10.908  63.600  1.00  0.00    -0.107 F  
HETATM    8  C   UNL     1      -9.216   9.085  66.575  1.00  0.00    -0.226 A  
HETATM    9  C   UNL     1      -9.603   7.712  67.076  1.00  0.00    -0.175 C  
HETATM   10  C   UNL     1      -9.993   9.697  65.576  1.00  0.00    -0.279 A  
HETATM   11  F   UNL     1     -11.045  12.833  64.474  1.00  0.00    -0.304 F  
HETATM   12  F   UNL     1      -8.759   7.216  68.024  1.00  0.00    -0.125 F  
HETATM   13  F   UNL     1     -10.845   7.691  67.631  1.00  0.00    -0.297 F  
HETATM   14  F   UNL     1      -9.626   6.782  66.079  1.00  0.00    -0.166 F  
HETATM   15  C   UNL     1     -10.504  11.660  64.044  1.00  0.00    -0.367 C  
HETATM   16  C   UNL     1      -9.674  10.978  65.108  1.00  0.00    -0.302 A  
ENDBRANCH   2   3
BRANCH   2  17
HETATM   17  O   UNL     1      -6.707  13.223  67.452  1.00  0.00    -0.167 OA 
BRANCH  17  18
HETATM   18  C   UNL     1      -7.440  13.626  68.617  1.00  0.00    -0.113 C  
HETATM   19  C   UNL     1      -5.872  15.618  69.988  1.00  0.00    -0.150 C  
HETATM   20  C   UNL     1      -5.501  14.148  69.822  1.00  0.00    -0.096 C  
HETATM   21  O   UNL     1      -6.681  13.336  69.801  1.00  0.00    -0.015 OA 
HETATM   22  N   UNL     1      -6.739  16.142  68.894  1.00  0.00    -0.137 NA 
HETATM   23  C   UNL     1      -7.880  15.165  68.699  1.00  0.00    -0.140 C  
BRANCH  22  24
HETATM   24  C   UNL     1      -7.265  17.470  69.318  1.00  0.00    -0.088 C  
BRANCH  24  25
HETATM   25  C   UNL     1      -6.604  18.599  68.563  1.00  0.00    -0.236 C  
HETATM   26  N   UNL     1      -7.337  19.475  67.851  1.00  0.00    -0.267 NA 
HETATM   27  N   UNL     1      -5.319  18.826  68.540  1.00  0.00    -0.191 NA 
HETATM   28  O   UNL     1      -6.713  21.356  66.663  1.00  0.00    -0.394 OA 
HETATM   29  C   UNL     1      -6.457  20.377  67.337  1.00  0.00    -0.235 C  
HETATM   30  N   UNL     1      -5.204  19.947  67.758  1.00  0.00    -0.181 NA 
HETATM   31  H   UNL     1      -4.576  18.296  68.996  1.00  0.00     0.000 HD 
ENDBRANCH  24  25
ENDBRANCH  22  24
BRANCH  23  32
HETATM   32  C   UNL     1      -8.895  15.607  67.641  1.00  0.00    -0.181 A  
HETATM   33  C   UNL     1     -10.703  16.696  65.778  1.00  0.00    -0.204 A  
HETATM   34  F   UNL     1     -11.538  17.244  64.888  1.00  0.00     0.049 F  
HETATM   35  C   UNL     1      -8.665  15.475  66.264  1.00  0.00    -0.283 A  
HETATM   36  C   UNL     1     -10.967  16.816  67.133  1.00  0.00    -0.001 A  
HETATM   37  C   UNL     1      -9.564  16.022  65.337  1.00  0.00     0.051 A  
HETATM   38  C   UNL     1     -10.071  16.271  68.059  1.00  0.00    -0.245 A  
ENDBRANCH  23  32
ENDBRANCH  17  18
ENDBRANCH   2  17
TORSDOF 6
ENDMDL
MODEL      247
REMARK 921   NORMALIZED FREE ENERGY PREDICTED BY IDOCK:   -4.15 KCAL/MOL
REMARK 922        TOTAL FREE ENERGY PREDICTED BY IDOCK:   -7.74 KCAL/MOL
REMARK 923 INTER-LIGAND FREE ENERGY PREDICTED BY IDOCK:   -7.46 KCAL/MOL
REMARK 924 INTRA-LIGAND FREE ENERGY PREDICTED BY IDOCK:   -0.28 KCAL/MOL
REMARK 927      BINDING AFFINITY PREDICTED BY RF-SCORE:    0.00 PKD
ROOT
HETATM    1  C   UNL     1     -10.272  13.094  64.843  1.00  0.00    -0.306 C  
HETATM    2  C   UNL     1     -10.110  13.003  66.368  1.00  0.00    -0.279 C  
ENDROOT
BRANCH   2   3
HETATM    3  C   UNL     1      -9.448  14.245  66.988  1.00  0.00    -0.259 A  
HETATM    4  C   UNL     1     -10.039  15.521  66.916  1.00  0.00    -0.263 A  
HETATM    5  C   UNL     1      -8.206  14.136  67.639  1.00  0.00    -0.193 A  
HETATM    6  F   UNL     1     -11.336  18.018  67.929  1.00  0.00    -0.197 F  
HETATM    7  F   UNL     1      -9.408  19.023  67.925  1.00  0.00    -0.305 F  
HETATM    8  C   UNL     1      -7.568  15.261  68.200  1.00  0.00    -0.118 A  
HETATM    9  C   UNL     1      -6.222  15.147  68.878  1.00  0.00    -0.093 C  
HETATM   10  C   UNL     1      -8.189  16.519  68.109  1.00  0.00    -0.181 A  
HETATM   11  F   UNL     1     -10.302  18.379  66.051  1.00  0.00    -0.372 F  
HETATM   12  F   UNL     1      -5.737  13.874  68.924  1.00  0.00    -0.077 F  
HETATM   13  F   UNL     1      -5.264  15.892  68.262  1.00  0.00    -0.087 F  
HETATM   14  F   UNL     1      -6.252  15.579  70.171  1.00  0.00    -0.148 F  
HETATM   15  C   UNL     1     -10.105  18.006  67.346  1.00  0.00    -0.349 C  
HETATM   16  C   UNL     1      -9.425  16.660  67.466  1.00  0.00    -0.229 A  
ENDBRANCH   2   3
BRANCH   2  17
HETATM   17  O   UNL     1      -9.588  11.721  66.802  1.00  0.00    -0.192 OA 
BRANCH  17  18
HETATM   18  C   UNL     1     -10.375  10.573  66.458  1.00  0.00    -0.233 C  
HETATM   19  C   UNL     1      -8.674   8.256  66.674  1.00  0.00    -0.136 C  
HETATM   20  C   UNL     1      -8.526   9.379  65.654  1.00  0.00    -0.136 C  
HETATM   21  O   UNL     1      -9.811   9.914  65.313  1.00  0.00    -0.302 OA 
HETATM   22  N   UNL     1      -9.317   8.687  67.949  1.00  0.00    -0.141 NA 
HETATM   23  C   UNL     1     -10.569   9.462  67.597  1.00  0.00    -0.271 C  
BRANCH  22  24
HETATM   24  C   UNL     1      -9.669   7.463  68.724  1.00  0.00    -0.149 C  
BRANCH  24  25
HETATM   25  C   UNL     1      -8.439   6.779  69.274  1.00  0.00    -0.129 C  
HETATM   26  N   UNL     1      -7.467   7.486  69.878  1.00  0.00    -0.082 NA 
HETATM   27  N   UNL     1      -8.220   5.493  69.225  1.00  0.00    -0.094 NA 
HETATM   28  O   UNL     1      -5.518   6.803  70.914  1.00  0.00    -0.023 OA 
HETATM   29  C   UNL     1      -6.538   6.582  70.290  1.00  0.00    -0.048 C  
HETATM   30  N   UNL     1      -7.012   5.349  69.858  1.00  0.00    -0.059 NA 
HETATM   31  H   UNL     1      -8.808   4.767  68.814  1.00  0.00     0.000 HD 
ENDBRANCH  24  25
ENDBRANCH  22  24
BRANCH  23  32
HETATM   32  C   UNL     1     -11.374   9.918  68.817  1.00  0.00    -0.049 A  
HETATM   33  C   UNL     1     -12.598  10.771  71.205  1.00  0.00    -0.428 A  
HETATM   34  F   UNL     1     -13.148  11.198  72.347  1.00  0.00    -0.539 F  
HETATM   35  C   UNL     1     -12.019  11.161  68.882  1.00  0.00    -0.367 A  
HETATM   36  C   UNL     1     -11.990   9.526  71.158  1.00  0.00    -0.429 A  
HETATM   37  C   UNL     1     -12.625  11.587  70.074  1.00  0.00    -0.089 A  
HETATM   38  C   UNL     1     -11.387   9.100  69.971  1.00  0.00    -0.108 A  
ENDBRANCH  23  32
ENDBRANCH  17  18
ENDBRANCH   2  17
TORSDOF 6
ENDMDL
MODEL      248
REMARK 921   NORMALIZED FREE ENERGY PREDICTED BY IDOCK:   -4.10 KCAL/MOL
REMARK 922        TOTAL FREE ENERGY PREDICTED BY IDOCK:   -7.67 KCAL/MOL
REMARK 923 INTER-LIGAND FREE ENERGY PREDICTED BY IDOCK:   -8.61 KCAL/MOL
REMARK 924 INTRA-LIGAND FREE ENERGY PREDICTED BY IDOCK:    0.94 KCAL/MOL
REMARK 927      BINDING AFFINITY PREDICTED BY RF-SCORE:    0.00 PKD
ROOT
HETATM    1  C   UNL     1     -10.849   9.351  69.896  1.00  0.00    -0.259 C  
HETATM    2  C   UNL     1     -10.394   9.903  68.537  1.00  0.00    -0.196 C  
ENDROOT
BRANCH   2   3
HETATM    3  C   UNL     1     -11.022  11.262  68.188  1.00  0.00    -0.284 A  
HETATM    4  C   UNL     1     -11.342  11.620  66.864  1.00  0.00    -0.364 A  
HETATM    5  C   UNL     1     -11.281  12.204  69.200  1.00  0.00    -0.303 A  
HETATM    6  F   UNL     1     -13.098  12.327  64.549  1.00  0.00    -0.545 F  
HETATM    7  F   UNL     1     -12.749  14.439  64.927  1.00  0.00    -0.433 F  
HETATM    8  C   UNL     1     -11.840  13.465  68.906  1.00  0.00    -0.373 A  
HETATM    9  C   UNL     1     -12.094  14.486  69.992  1.00  0.00    -0.339 C  
HETATM   10  C   UNL     1     -12.146  13.786  67.573  1.00  0.00    -0.366 A  
HETATM   11  F   UNL     1     -11.105  13.161  64.304  1.00  0.00    -0.335 F  
HETATM   12  F   UNL     1     -11.780  14.047  71.243  1.00  0.00    -0.347 F  
HETATM   13  F   UNL     1     -11.384  15.631  69.806  1.00  0.00    -0.241 F  
HETATM   14  F   UNL     1     -13.402  14.866  70.051  1.00  0.00    -0.127 F  
HETATM   15  C   UNL     1     -12.209  13.201  65.100  1.00  0.00    -0.450 C  
HETATM   16  C   UNL     1     -11.899  12.870  66.543  1.00  0.00    -0.473 A  
ENDBRANCH   2   3
BRANCH   2  17
HETATM   17  O   UNL     1     -10.417   8.903  67.487  1.00  0.00    -0.252 OA 
BRANCH  17  18
HETATM   18  C   UNL     1      -9.146   8.353  67.115  1.00  0.00    -0.138 C  
HETATM   19  C   UNL     1      -7.111   9.834  68.519  1.00  0.00    -0.068 C  
HETATM   20  C   UNL     1      -8.024  10.385  67.429  1.00  0.00    -0.107 C  
HETATM   21  O   UNL     1      -8.341   9.359  66.480  1.00  0.00    -0.117 OA 
HETATM   22  N   UNL     1      -7.712   8.705  69.286  1.00  0.00    -0.094 NA 
HETATM   23  C   UNL     1      -8.264   7.709  68.288  1.00  0.00    -0.125 C  
BRANCH  22  24
HETATM   24  C   UNL     1      -6.633   8.075  70.099  1.00  0.00    -0.037 C  
BRANCH  24  25
HETATM   25  C   UNL     1      -7.030   7.949  71.551  1.00  0.00    -0.060 C  
HETATM   26  N   UNL     1      -7.089   6.745  72.148  1.00  0.00    -0.074 NA 
HETATM   27  N   UNL     1      -7.330   8.953  72.330  1.00  0.00    -0.337 NA 
HETATM   28  O   UNL     1      -7.551   6.161  74.336  1.00  0.00    -0.093 OA 
HETATM   29  C   UNL     1      -7.430   6.980  73.445  1.00  0.00    -0.079 C  
HETATM   30  N   UNL     1      -7.596   8.357  73.536  1.00  0.00    -0.326 NA 
HETATM   31  H   UNL     1      -7.358   9.946  72.097  1.00  0.00     0.000 HD 
ENDBRANCH  24  25
ENDBRANCH  22  24
BRANCH  23  32
HETATM   32  C   UNL     1      -8.861   6.456  68.935  1.00  0.00    -0.125 A  
HETATM   33  C   UNL     1      -9.703   4.124  70.268  1.00  0.00    -0.207 A  
HETATM   34  F   UNL     1     -10.082   3.026  70.932  1.00  0.00    -0.196 F  
HETATM   35  C   UNL     1      -9.910   6.506  69.865  1.00  0.00    -0.185 A  
HETATM   36  C   UNL     1      -8.682   4.044  69.334  1.00  0.00    -0.127 A  
HETATM   37  C   UNL     1     -10.326   5.343  70.531  1.00  0.00    -0.344 A  
HETATM   38  C   UNL     1      -8.267   5.201  68.668  1.00  0.00    -0.085 A  
ENDBRANCH  23  32
ENDBRANCH  17  18
ENDBRANCH   2  17
TORSDOF 6
ENDMDL
MODEL      249
REMARK 921   NORMALIZED FREE ENERGY PREDICTED BY IDOCK:   -4.00 KCAL/MOL
REMARK 922        TOTAL FREE ENERGY PREDICTED BY IDOCK:   -7.53 KCAL/MOL
REMARK 923 INTER-LIGAND FREE ENERGY PREDICTED BY IDOCK:   -7.80 KCAL/MOL
REMARK 924 INTRA-LIGAND FREE ENERGY PREDICTED BY IDOCK:    0.27 KCAL/MOL
REMARK 927      BINDING AFFINITY PREDICTED BY RF-SCORE:    0.00 PKD
ROOT
HETATM    1  C   UNL     1     -11.118   9.378  70.274  1.00  0.00    -0.299 C  
HETATM    2  C   UNL     1     -10.402  10.094  69.119  1.00  0.00    -0.219 C  
ENDROOT
BRANCH   2   3
HETATM    3  C   UNL     1     -11.028  11.453  68.761  1.00  0.00    -0.272 A  
HETATM    4  C   UNL     1     -11.292  11.826  67.429  1.00  0.00    -0.376 A  
HETATM    5  C   UNL     1     -11.342  12.377  69.774  1.00  0.00    -0.125 A  
HETATM    6  F   UNL     1     -12.949  12.550  65.048  1.00  0.00    -0.557 F  
HETATM    7  F   UNL     1     -12.640  14.660  65.470  1.00  0.00    -0.337 F  
HETATM    8  C   UNL     1     -11.900  13.637  69.473  1.00  0.00    -0.394 A  
HETATM    9  C   UNL     1     -12.213  14.639  70.560  1.00  0.00    -0.324 C  
HETATM   10  C   UNL     1     -12.149  13.975  68.132  1.00  0.00    -0.307 A  
HETATM   11  F   UNL     1     -10.956  13.407  64.905  1.00  0.00    -0.295 F  
HETATM   12  F   UNL     1     -11.951  14.185  71.818  1.00  0.00    -0.363 F  
HETATM   13  F   UNL     1     -11.507  15.794  70.423  1.00  0.00    -0.256 F  
HETATM   14  F   UNL     1     -13.526  15.006  70.566  1.00  0.00    -0.353 F  
HETATM   15  C   UNL     1     -12.095  13.424  65.651  1.00  0.00    -0.434 C  
HETATM   16  C   UNL     1     -11.847  13.076  67.101  1.00  0.00    -0.431 A  
ENDBRANCH   2   3
BRANCH   2  17
HETATM   17  O   UNL     1     -10.113   9.214  68.004  1.00  0.00    -0.176 OA 
BRANCH  17  18
HETATM   18  C   UNL     1      -8.744   9.165  67.581  1.00  0.00    -0.120 C  
HETATM   19  C   UNL     1      -7.130   8.649  69.912  1.00  0.00    -0.050 C  
HETATM   20  C   UNL     1      -7.937   9.915  69.648  1.00  0.00    -0.162 C  
HETATM   21  O   UNL     1      -7.987  10.189  68.243  1.00  0.00    -0.098 OA 
HETATM   22  N   UNL     1      -7.690   7.435  69.252  1.00  0.00    -0.104 NA 
HETATM   23  C   UNL     1      -7.967   7.781  67.804  1.00  0.00    -0.124 C  
BRANCH  22  24
HETATM   24  C   UNL     1      -6.669   6.352  69.336  1.00  0.00    -0.052 C  
BRANCH  24  25
HETATM   25  C   UNL     1      -7.168   5.177  70.146  1.00  0.00    -0.058 C  
HETATM   26  N   UNL     1      -8.473   5.050  70.445  1.00  0.00    -0.099 NA 
HETATM   27  N   UNL     1      -6.413   4.215  70.603  1.00  0.00    -0.030 NA 
HETATM   28  O   UNL     1      -9.615   3.377  71.556  1.00  0.00    -0.142 OA 
HETATM   29  C   UNL     1      -8.593   3.883  71.134  1.00  0.00    -0.076 C  
HETATM   30  N   UNL     1      -7.299   3.387  71.242  1.00  0.00    -0.033 NA 
HETATM   31  H   UNL     1      -5.403   4.105  70.506  1.00  0.00     0.000 HD 
ENDBRANCH  24  25
ENDBRANCH  22  24
BRANCH  23  32
HETATM   32  C   UNL     1      -8.491   6.602  66.979  1.00  0.00    -0.113 A  
HETATM   33  C   UNL     1      -9.705   4.585  65.436  1.00  0.00    -0.187 A  
HETATM   34  F   UNL     1     -10.302   3.654  64.683  1.00  0.00    -0.184 F  
HETATM   35  C   UNL     1      -8.002   6.290  65.702  1.00  0.00    -0.115 A  
HETATM   36  C   UNL     1     -10.190   4.856  66.706  1.00  0.00    -0.274 A  
HETATM   37  C   UNL     1      -8.611   5.288  64.933  1.00  0.00    -0.145 A  
HETATM   38  C   UNL     1      -9.584   5.855  67.474  1.00  0.00    -0.114 A  
ENDBRANCH  23  32
ENDBRANCH  17  18
ENDBRANCH   2  17
TORSDOF 6
ENDMDL
MODEL      250
REMARK 921   NORMALIZED FREE ENERGY PREDICTED BY IDOCK:   -3.95 KCAL/MOL
REMARK 922        TOTAL FREE ENERGY PREDICTED BY IDOCK:   -7.47 KCAL/MOL
REMARK 923 INTER-LIGAND FREE ENERGY PREDICTED BY IDOCK:   -6.20 KCAL/MOL
REMARK 924 INTRA-LIGAND FREE ENERGY PREDICTED BY IDOCK:   -1.27 KCAL/MOL
REMARK 927      BINDING AFFINITY PREDICTED BY RF-SCORE:    0.00 PKD
ROOT
HETATM    1  C   UNL     1      -8.239   8.391  71.696  1.00  0.00    -0.195 C  
HETATM    2  C   UNL     1      -7.755   8.911  70.335  1.00  0.00    -0.098 C  
ENDROOT
BRANCH   2   3
HETATM    3  C   UNL     1      -8.643  10.025  69.755  1.00  0.00    -0.192 A  
HETATM    4  C   UNL     1      -9.945  10.268  70.233  1.00  0.00     0.051 A  
HETATM    5  C   UNL     1      -8.173  10.830  68.701  1.00  0.00    -0.139 A  
HETATM    6  F   UNL     1     -12.152  11.784  71.566  1.00  0.00    -0.229 F  
HETATM    7  F   UNL     1     -12.843  12.486  69.629  1.00  0.00     0.109 F  
HETATM    8  C   UNL     1      -8.973  11.845  68.137  1.00  0.00    -0.185 A  
HETATM    9  C   UNL     1      -8.475  12.692  66.989  1.00  0.00    -0.150 C  
HETATM   10  C   UNL     1     -10.267  12.059  68.642  1.00  0.00    -0.189 A  
HETATM   11  F   UNL     1     -12.938  10.370  70.114  1.00  0.00    -0.357 F  
HETATM   12  F   UNL     1      -7.199  12.406  66.608  1.00  0.00    -0.035 F  
HETATM   13  F   UNL     1      -9.240  12.556  65.872  1.00  0.00    -0.200 F  
HETATM   14  F   UNL     1      -8.483  14.024  67.283  1.00  0.00    -0.169 F  
HETATM   15  C   UNL     1     -12.158  11.479  70.238  1.00  0.00    -0.359 C  
HETATM   16  C   UNL     1     -10.764  11.274  69.689  1.00  0.00    -0.085 A  
ENDBRANCH   2   3
BRANCH   2  17
HETATM   17  O   UNL     1      -7.393   7.846  69.421  1.00  0.00    -0.077 OA 
BRANCH  17  18
HETATM   18  C   UNL     1      -8.383   7.492  68.444  1.00  0.00    -0.125 C  
HETATM   19  C   UNL     1      -7.339   5.291  66.904  1.00  0.00    -0.086 C  
HETATM   20  C   UNL     1      -6.789   6.713  66.915  1.00  0.00    -0.065 C  
HETATM   21  O   UNL     1      -7.849   7.655  67.121  1.00  0.00    -0.112 OA 
HETATM   22  N   UNL     1      -8.021   4.905  68.173  1.00  0.00    -0.086 NA 
HETATM   23  C   UNL     1      -8.990   6.012  68.533  1.00  0.00    -0.114 C  
BRANCH  22  24
HETATM   24  C   UNL     1      -8.759   3.633  67.932  1.00  0.00    -0.106 C  
BRANCH  24  25
HETATM   25  C   UNL     1      -9.392   3.608  66.560  1.00  0.00    -0.187 C  
HETATM   26  N   UNL     1      -8.952   2.761  65.612  1.00  0.00    -0.140 NA 
HETATM   27  N   UNL     1     -10.388   4.365  66.187  1.00  0.00    -0.418 NA 
HETATM   28  O   UNL     1      -9.711   2.363  63.466  1.00  0.00    -0.108 OA 
HETATM   29  C   UNL     1      -9.749   2.957  64.526  1.00  0.00    -0.114 C  
HETATM   30  N   UNL     1     -10.623   3.973  64.894  1.00  0.00    -0.193 NA 
HETATM   31  H   UNL     1     -10.876   5.079  66.729  1.00  0.00     0.000 HD 
ENDBRANCH  24  25
ENDBRANCH  22  24
BRANCH  23  32
HETATM   32  C   UNL     1      -9.814   5.723  69.791  1.00  0.00    -0.232 A  
HETATM   33  C   UNL     1     -11.120   5.331  72.254  1.00  0.00    -0.153 A  
HETATM   34  F   UNL     1     -11.726   5.180  73.437  1.00  0.00    -0.351 F  
HETATM   35  C   UNL     1     -11.051   6.333  70.047  1.00  0.00    -0.455 A  
HETATM   36  C   UNL     1      -9.911   4.695  72.015  1.00  0.00    -0.251 A  
HETATM   37  C   UNL     1     -11.698   6.140  71.277  1.00  0.00    -0.211 A  
HETATM   38  C   UNL     1      -9.265   4.886  70.790  1.00  0.00    -0.196 A  
ENDBRANCH  23  32
ENDBRANCH  17  18
ENDBRANCH   2  17
TORSDOF 6
ENDMDL
MODEL      251
REMARK 921   NORMALIZED FREE ENERGY PREDICTED BY IDOCK:   -3.89 KCAL/MOL
REMARK 922        TOTAL FREE ENERGY PREDICTED BY IDOCK:   -7.39 KCAL/MOL
REMARK 923 INTER-LIGAND FREE ENERGY PREDICTED BY IDOCK:   -5.86 KCAL/MOL
REMARK 924 INTRA-LIGAND FREE ENERGY PREDICTED BY IDOCK:   -1.52 KCAL/MOL
REMARK 927      BINDING AFFINITY PREDICTED BY RF-SCORE:    0.00 PKD
ROOT
HETATM    1  C   UNL     1      -6.299   9.708  70.003  1.00  0.00    -0.059 C  
HETATM    2  C   UNL     1      -7.488   9.155  69.205  1.00  0.00    -0.075 C  
ENDROOT
BRANCH   2   3
HETATM    3  C   UNL     1      -8.828   9.258  69.954  1.00  0.00    -0.196 A  
HETATM    4  C   UNL     1      -9.143   8.419  71.041  1.00  0.00    -0.201 A  
HETATM    5  C   UNL     1      -9.794  10.198  69.553  1.00  0.00    -0.255 A  
HETATM    6  F   UNL     1      -9.757   7.700  73.878  1.00  0.00    -0.317 F  
HETATM    7  F   UNL     1     -11.884   7.751  73.433  1.00  0.00    -0.196 F  
HETATM    8  C   UNL     1     -11.038  10.301  70.209  1.00  0.00    -0.388 A  
HETATM    9  C   UNL     1     -12.085  11.295  69.761  1.00  0.00    -0.325 C  
HETATM   10  C   UNL     1     -11.316   9.448  71.290  1.00  0.00    -0.436 A  
HETATM   11  F   UNL     1     -10.615   6.254  72.500  1.00  0.00    -0.205 F  
HETATM   12  F   UNL     1     -11.686  12.081  68.721  1.00  0.00    -0.273 F  
HETATM   13  F   UNL     1     -13.235  10.692  69.356  1.00  0.00     0.081 F  
HETATM   14  F   UNL     1     -12.446  12.154  70.756  1.00  0.00    -0.410 F  
HETATM   15  C   UNL     1     -10.660   7.564  72.866  1.00  0.00    -0.337 C  
HETATM   16  C   UNL     1     -10.375   8.501  71.713  1.00  0.00    -0.354 A  
ENDBRANCH   2   3
BRANCH   2  17
HETATM   17  O   UNL     1      -7.204   7.876  68.584  1.00  0.00    -0.077 OA 
BRANCH  17  18
HETATM   18  C   UNL     1      -8.322   7.204  67.988  1.00  0.00    -0.119 C  
HETATM   19  C   UNL     1      -7.348   5.764  65.689  1.00  0.00    -0.076 C  
HETATM   20  C   UNL     1      -7.394   7.280  65.839  1.00  0.00    -0.075 C  
HETATM   21  O   UNL     1      -8.515   7.667  66.643  1.00  0.00    -0.121 OA 
HETATM   22  N   UNL     1      -7.222   5.040  66.987  1.00  0.00    -0.076 NA 
HETATM   23  C   UNL     1      -8.260   5.603  67.935  1.00  0.00    -0.101 C  
BRANCH  22  24
HETATM   24  C   UNL     1      -7.485   3.594  66.735  1.00  0.00    -0.079 C  
BRANCH  24  25
HETATM   25  C   UNL     1      -8.430   3.394  65.573  1.00  0.00    -0.108 C  
HETATM   26  N   UNL     1      -9.758   3.544  65.729  1.00  0.00    -0.105 NA 
HETATM   27  N   UNL     1      -8.060   3.081  64.360  1.00  0.00    -0.082 NA 
HETATM   28  O   UNL     1     -11.485   3.421  64.199  1.00  0.00     0.013 OA 
HETATM   29  C   UNL     1     -10.310   3.340  64.502  1.00  0.00     0.009 C  
HETATM   30  N   UNL     1      -9.243   3.033  63.667  1.00  0.00    -0.096 NA 
HETATM   31  H   UNL     1      -7.117   2.913  64.012  1.00  0.00     0.000 HD 
ENDBRANCH  24  25
ENDBRANCH  22  24
BRANCH  23  32
HETATM   32  C   UNL     1      -8.291   4.907  69.298  1.00  0.00    -0.085 A  
HETATM   33  C   UNL     1      -8.368   3.895  71.924  1.00  0.00    -0.090 A  
HETATM   34  F   UNL     1      -8.429   3.443  73.182  1.00  0.00    -0.078 F  
HETATM   35  C   UNL     1      -9.370   4.123  69.728  1.00  0.00    -0.237 A  
HETATM   36  C   UNL     1      -7.276   4.645  71.515  1.00  0.00    -0.067 A  
HETATM   37  C   UNL     1      -9.409   3.622  71.038  1.00  0.00    -0.211 A  
HETATM   38  C   UNL     1      -7.235   5.144  70.210  1.00  0.00    -0.058 A  
ENDBRANCH  23  32
ENDBRANCH  17  18
ENDBRANCH   2  17
TORSDOF 6
ENDMDL
MODEL      252
REMARK 921   NORMALIZED FREE ENERGY PREDICTED BY IDOCK:   -3.89 KCAL/MOL
REMARK 922        TOTAL FREE ENERGY PREDICTED BY IDOCK:   -7.39 KCAL/MOL
REMARK 923 INTER-LIGAND FREE ENERGY PREDICTED BY IDOCK:   -8.58 KCAL/MOL
REMARK 924 INTRA-LIGAND FREE ENERGY PREDICTED BY IDOCK:    1.19 KCAL/MOL
REMARK 927      BINDING AFFINITY PREDICTED BY RF-SCORE:    0.00 PKD
ROOT
HETATM    1  C   UNL     1     -11.092  15.625  70.373  1.00  0.00    -0.369 C  
HETATM    2  C   UNL     1      -9.863  15.688  69.455  1.00  0.00    -0.284 C  
ENDROOT
BRANCH   2   3
HETATM    3  C   UNL     1     -10.142  16.370  68.105  1.00  0.00    -0.251 A  
HETATM    4  C   UNL     1     -10.646  15.659  66.999  1.00  0.00    -0.311 A  
HETATM    5  C   UNL     1      -9.880  17.742  67.936  1.00  0.00    -0.306 A  
HETATM    6  F   UNL     1     -12.617  14.885  64.887  1.00  0.00    -0.346 F  
HETATM    7  F   UNL     1     -11.605  16.180  63.464  1.00  0.00     0.123 F  
HETATM    8  C   UNL     1     -10.109  18.388  66.705  1.00  0.00    -0.399 A  
HETATM    9  C   UNL     1      -9.804  19.857  66.518  1.00  0.00    -0.451 C  
HETATM   10  C   UNL     1     -10.614  17.647  65.623  1.00  0.00    -0.137 A  
HETATM   11  F   UNL     1     -10.583  14.436  64.263  1.00  0.00    -0.346 F  
HETATM   12  F   UNL     1      -9.345  20.470  67.645  1.00  0.00    -0.455 F  
HETATM   13  F   UNL     1      -8.861  20.075  65.562  1.00  0.00    -0.279 F  
HETATM   14  F   UNL     1     -10.899  20.570  66.129  1.00  0.00    -0.266 F  
HETATM   15  C   UNL     1     -11.414  15.460  64.604  1.00  0.00    -0.337 C  
HETATM   16  C   UNL     1     -10.884  16.279  65.759  1.00  0.00    -0.173 A  
ENDBRANCH   2   3
BRANCH   2  17
HETATM   17  O   UNL     1      -9.140  14.432  69.395  1.00  0.00     0.110 OA 
BRANCH  17  18
HETATM   18  C   UNL     1      -9.455  13.578  68.286  1.00  0.00    -0.212 C  
HETATM   19  C   UNL     1      -7.253  11.750  67.942  1.00  0.00    -0.092 C  
HETATM   20  C   UNL     1      -7.204  13.258  67.720  1.00  0.00    -0.151 C  
HETATM   21  O   UNL     1      -8.472  13.733  67.251  1.00  0.00    -0.186 OA 
HETATM   22  N   UNL     1      -8.273  11.327  68.944  1.00  0.00    -0.118 NA 
HETATM   23  C   UNL     1      -9.578  12.010  68.593  1.00  0.00    -0.080 C  
BRANCH  22  24
HETATM   24  C   UNL     1      -8.425   9.847  68.850  1.00  0.00    -0.127 C  
BRANCH  24  25
HETATM   25  C   UNL     1      -7.678   9.138  69.957  1.00  0.00    -0.088 C  
HETATM   26  N   UNL     1      -7.373   9.776  71.101  1.00  0.00    -0.265 NA 
HETATM   27  N   UNL     1      -7.287   7.894  69.911  1.00  0.00    -0.073 NA 
HETATM   28  O   UNL     1      -6.347   9.020  73.028  1.00  0.00    -0.296 OA 
HETATM   29  C   UNL     1      -6.750   8.861  71.892  1.00  0.00    -0.011 C  
HETATM   30  N   UNL     1      -6.686   7.701  71.128  1.00  0.00    -0.045 NA 
HETATM   31  H   UNL     1      -7.401   7.224  69.150  1.00  0.00     0.000 HD 
ENDBRANCH  24  25
ENDBRANCH  22  24
BRANCH  23  32
HETATM   32  C   UNL     1     -10.744  11.617  69.506  1.00  0.00    -0.002 A  
HETATM   33  C   UNL     1     -12.686  10.860  71.398  1.00  0.00    -0.434 A  
HETATM   34  F   UNL     1     -13.588  10.518  72.324  1.00  0.00    -0.488 F  
HETATM   35  C   UNL     1     -11.719  12.531  69.931  1.00  0.00    -0.327 A  
HETATM   36  C   UNL     1     -11.750   9.930  70.973  1.00  0.00    -0.466 A  
HETATM   37  C   UNL     1     -12.683  12.153  70.877  1.00  0.00    -0.280 A  
HETATM   38  C   UNL     1     -10.788  10.305  70.030  1.00  0.00    -0.364 A  
ENDBRANCH  23  32
ENDBRANCH  17  18
ENDBRANCH   2  17
TORSDOF 6
ENDMDL
MODEL      253
REMARK 921   NORMALIZED FREE ENERGY PREDICTED BY IDOCK:   -3.89 KCAL/MOL
REMARK 922        TOTAL FREE ENERGY PREDICTED BY IDOCK:   -7.38 KCAL/MOL
REMARK 923 INTER-LIGAND FREE ENERGY PREDICTED BY IDOCK:   -6.21 KCAL/MOL
REMARK 924 INTRA-LIGAND FREE ENERGY PREDICTED BY IDOCK:   -1.17 KCAL/MOL
REMARK 927      BINDING AFFINITY PREDICTED BY RF-SCORE:    0.00 PKD
ROOT
HETATM    1  C   UNL     1      -6.440   9.853  69.657  1.00  0.00    -0.052 C  
HETATM    2  C   UNL     1      -7.599   9.179  68.909  1.00  0.00    -0.076 C  
ENDROOT
BRANCH   2   3
HETATM    3  C   UNL     1      -8.934   9.237  69.671  1.00  0.00    -0.164 A  
HETATM    4  C   UNL     1      -9.808  10.336  69.565  1.00  0.00    -0.244 A  
HETATM    5  C   UNL     1      -9.311   8.182  70.521  1.00  0.00    -0.159 A  
HETATM    6  F   UNL     1     -12.310  11.806  68.842  1.00  0.00    -0.330 F  
HETATM    7  F   UNL     1     -13.054  11.541  70.867  1.00  0.00    -0.343 F  
HETATM    8  C   UNL     1     -10.520   8.217  71.246  1.00  0.00    -0.262 A  
HETATM    9  C   UNL     1     -10.912   7.094  72.178  1.00  0.00    -0.241 C  
HETATM   10  C   UNL     1     -11.368   9.330  71.114  1.00  0.00    -0.412 A  
HETATM   11  F   UNL     1     -11.293  12.763  70.508  1.00  0.00    -0.078 F  
HETATM   12  F   UNL     1     -10.022   6.062  72.200  1.00  0.00    -0.174 F  
HETATM   13  F   UNL     1     -11.039   7.508  73.468  1.00  0.00    -0.420 F  
HETATM   14  F   UNL     1     -12.113   6.539  71.848  1.00  0.00    -0.338 F  
HETATM   15  C   UNL     1     -11.911  11.610  70.130  1.00  0.00    -0.344 C  
HETATM   16  C   UNL     1     -11.020  10.397  70.277  1.00  0.00    -0.353 A  
ENDBRANCH   2   3
BRANCH   2  17
HETATM   17  O   UNL     1      -7.238   7.887  68.358  1.00  0.00    -0.084 OA 
BRANCH  17  18
HETATM   18  C   UNL     1      -8.285   7.179  67.679  1.00  0.00    -0.114 C  
HETATM   19  C   UNL     1      -7.146   6.011  65.303  1.00  0.00    -0.065 C  
HETATM   20  C   UNL     1      -7.318   7.502  65.569  1.00  0.00    -0.071 C  
HETATM   21  O   UNL     1      -8.485   7.733  66.369  1.00  0.00    -0.123 OA 
HETATM   22  N   UNL     1      -6.990   5.197  66.542  1.00  0.00    -0.066 NA 
HETATM   23  C   UNL     1      -8.091   5.598  67.501  1.00  0.00    -0.102 C  
BRANCH  22  24
HETATM   24  C   UNL     1      -7.130   3.760  66.171  1.00  0.00    -0.063 C  
BRANCH  24  25
HETATM   25  C   UNL     1      -8.032   3.580  64.972  1.00  0.00    -0.090 C  
HETATM   26  N   UNL     1      -9.321   3.225  65.126  1.00  0.00    -0.150 NA 
HETATM   27  N   UNL     1      -7.665   3.754  63.732  1.00  0.00    -0.080 NA 
HETATM   28  O   UNL     1     -11.011   2.951  63.575  1.00  0.00    -0.247 OA 
HETATM   29  C   UNL     1      -9.858   3.191  63.876  1.00  0.00    -0.155 C  
HETATM   30  N   UNL     1      -8.809   3.502  63.019  1.00  0.00    -0.093 NA 
HETATM   31  H   UNL     1      -6.745   4.015  63.377  1.00  0.00     0.000 HD 
ENDBRANCH  24  25
ENDBRANCH  22  24
BRANCH  23  32
HETATM   32  C   UNL     1      -8.096   4.794  68.805  1.00  0.00    -0.083 A  
HETATM   33  C   UNL     1      -8.132   3.572  71.341  1.00  0.00    -0.061 A  
HETATM   34  F   UNL     1      -8.174   3.019  72.558  1.00  0.00    -0.062 F  
HETATM   35  C   UNL     1      -9.151   3.947  69.172  1.00  0.00    -0.198 A  
HETATM   36  C   UNL     1      -7.064   4.384  70.991  1.00  0.00    -0.037 A  
HETATM   37  C   UNL     1      -9.170   3.342  70.438  1.00  0.00    -0.221 A  
HETATM   38  C   UNL     1      -7.044   4.987  69.730  1.00  0.00    -0.055 A  
ENDBRANCH  23  32
ENDBRANCH  17  18
ENDBRANCH   2  17
TORSDOF 6
ENDMDL
MODEL      254
REMARK 921   NORMALIZED FREE ENERGY PREDICTED BY IDOCK:   -3.84 KCAL/MOL
REMARK 922        TOTAL FREE ENERGY PREDICTED BY IDOCK:   -7.32 KCAL/MOL
REMARK 923 INTER-LIGAND FREE ENERGY PREDICTED BY IDOCK:   -6.60 KCAL/MOL
REMARK 924 INTRA-LIGAND FREE ENERGY PREDICTED BY IDOCK:   -0.71 KCAL/MOL
REMARK 927      BINDING AFFINITY PREDICTED BY RF-SCORE:    0.00 PKD
ROOT
HETATM    1  C   UNL     1      -8.334  11.563  68.766  1.00  0.00    -0.069 C  
HETATM    2  C   UNL     1      -9.514  10.602  68.554  1.00  0.00    -0.176 C  
ENDROOT
BRANCH   2   3
HETATM    3  C   UNL     1     -10.698  10.871  69.498  1.00  0.00    -0.251 A  
HETATM    4  C   UNL     1     -11.182  12.171  69.739  1.00  0.00    -0.072 A  
HETATM    5  C   UNL     1     -11.327   9.805  70.167  1.00  0.00    -0.305 A  
HETATM    6  F   UNL     1     -13.131  14.438  69.692  1.00  0.00    -0.108 F  
HETATM    7  F   UNL     1     -13.765  13.938  71.711  1.00  0.00    -0.397 F  
HETATM    8  C   UNL     1     -12.402  10.024  71.052  1.00  0.00    -0.458 A  
HETATM    9  C   UNL     1     -13.060   8.880  71.790  1.00  0.00    -0.374 C  
HETATM   10  C   UNL     1     -12.858  11.336  71.267  1.00  0.00    -0.491 A  
HETATM   11  F   UNL     1     -11.739  14.637  71.350  1.00  0.00    -0.345 F  
HETATM   12  F   UNL     1     -12.547   7.657  71.477  1.00  0.00    -0.312 F  
HETATM   13  F   UNL     1     -12.950   9.000  73.140  1.00  0.00    -0.354 F  
HETATM   14  F   UNL     1     -14.397   8.797  71.533  1.00  0.00    -0.440 F  
HETATM   15  C   UNL     1     -12.719  13.838  70.844  1.00  0.00    -0.323 C  
HETATM   16  C   UNL     1     -12.253  12.418  70.617  1.00  0.00    -0.368 A  
ENDBRANCH   2   3
BRANCH   2  17
HETATM   17  O   UNL     1      -9.098   9.218  68.434  1.00  0.00    -0.129 OA 
BRANCH  17  18
HETATM   18  C   UNL     1      -7.748   8.932  68.824  1.00  0.00    -0.096 C  
HETATM   19  C   UNL     1      -7.698   6.251  69.883  1.00  0.00    -0.105 C  
HETATM   20  C   UNL     1      -8.408   7.445  70.511  1.00  0.00    -0.132 C  
HETATM   21  O   UNL     1      -7.691   8.654  70.232  1.00  0.00    -0.073 OA 
HETATM   22  N   UNL     1      -7.567   6.346  68.401  1.00  0.00    -0.098 NA 
HETATM   23  C   UNL     1      -7.019   7.719  68.071  1.00  0.00    -0.080 C  
BRANCH  22  24
HETATM   24  C   UNL     1      -6.613   5.291  67.954  1.00  0.00    -0.050 C  
BRANCH  24  25
HETATM   25  C   UNL     1      -7.337   4.071  67.432  1.00  0.00    -0.068 C  
HETATM   26  N   UNL     1      -8.131   4.150  66.349  1.00  0.00    -0.098 NA 
HETATM   27  N   UNL     1      -7.253   2.877  67.954  1.00  0.00    -0.049 NA 
HETATM   28  O   UNL     1      -9.306   2.519  65.211  1.00  0.00    -0.140 OA 
HETATM   29  C   UNL     1      -8.588   2.889  66.120  1.00  0.00    -0.119 C  
HETATM   30  N   UNL     1      -8.050   2.114  67.140  1.00  0.00    -0.067 NA 
HETATM   31  H   UNL     1      -6.722   2.582  68.773  1.00  0.00     0.000 HD 
ENDBRANCH  24  25
ENDBRANCH  22  24
BRANCH  23  32
HETATM   32  C   UNL     1      -6.770   7.940  66.576  1.00  0.00    -0.058 A  
HETATM   33  C   UNL     1      -6.390   8.064  63.790  1.00  0.00    -0.067 A  
HETATM   34  F   UNL     1      -6.239   8.099  62.461  1.00  0.00    -0.080 F  
HETATM   35  C   UNL     1      -7.586   8.758  65.782  1.00  0.00    -0.086 A  
HETATM   36  C   UNL     1      -5.553   7.269  64.557  1.00  0.00    -0.033 A  
HETATM   37  C   UNL     1      -7.398   8.816  64.393  1.00  0.00    -0.103 A  
HETATM   38  C   UNL     1      -5.739   7.210  65.941  1.00  0.00    -0.032 A  
ENDBRANCH  23  32
ENDBRANCH  17  18
ENDBRANCH   2  17
TORSDOF 6
ENDMDL
MODEL      255
REMARK 921   NORMALIZED FREE ENERGY PREDICTED BY IDOCK:   -3.82 KCAL/MOL
REMARK 922        TOTAL FREE ENERGY PREDICTED BY IDOCK:   -7.30 KCAL/MOL
REMARK 923 INTER-LIGAND FREE ENERGY PREDICTED BY IDOCK:   -8.51 KCAL/MOL
REMARK 924 INTRA-LIGAND FREE ENERGY PREDICTED BY IDOCK:    1.21 KCAL/MOL
REMARK 927      BINDING AFFINITY PREDICTED BY RF-SCORE:    0.00 PKD
ROOT
HETATM    1  C   UNL     1      -8.396  14.779  69.931  1.00  0.00     0.401 C  
HETATM    2  C   UNL     1      -8.301  14.222  68.503  1.00  0.00    -0.156 C  
ENDROOT
BRANCH   2   3
HETATM    3  C   UNL     1      -9.286  14.881  67.523  1.00  0.00    -0.194 A  
HETATM    4  C   UNL     1      -9.291  16.269  67.289  1.00  0.00    -0.231 A  
HETATM    5  C   UNL     1     -10.233  14.099  66.837  1.00  0.00    -0.267 A  
HETATM    6  F   UNL     1      -8.965  18.802  65.733  1.00  0.00    -0.168 F  
HETATM    7  F   UNL     1     -11.100  18.829  65.324  1.00  0.00    -0.390 F  
HETATM    8  C   UNL     1     -11.160  14.679  65.947  1.00  0.00    -0.338 A  
HETATM    9  C   UNL     1     -12.194  13.841  65.230  1.00  0.00    -0.439 C  
HETATM   10  C   UNL     1     -11.134  16.068  65.738  1.00  0.00    -0.032 A  
HETATM   11  F   UNL     1     -10.381  19.061  67.362  1.00  0.00    -0.363 F  
HETATM   12  F   UNL     1     -12.099  12.507  65.495  1.00  0.00    -0.426 F  
HETATM   13  F   UNL     1     -13.467  14.198  65.550  1.00  0.00    -0.470 F  
HETATM   14  F   UNL     1     -12.106  13.955  63.874  1.00  0.00    -0.463 F  
HETATM   15  C   UNL     1     -10.168  18.372  66.207  1.00  0.00    -0.406 C  
HETATM   16  C   UNL     1     -10.204  16.874  66.407  1.00  0.00    -0.326 A  
ENDBRANCH   2   3
BRANCH   2  17
HETATM   17  O   UNL     1      -8.242  12.773  68.467  1.00  0.00    -0.142 OA 
BRANCH  17  18
HETATM   18  C   UNL     1      -9.131  12.131  67.542  1.00  0.00    -0.180 C  
HETATM   19  C   UNL     1      -7.930   9.624  66.780  1.00  0.00    -0.105 C  
HETATM   20  C   UNL     1      -7.392  11.010  66.443  1.00  0.00    -0.128 C  
HETATM   21  O   UNL     1      -8.472  11.937  66.281  1.00  0.00    -0.104 OA 
HETATM   22  N   UNL     1      -8.729   9.584  68.039  1.00  0.00    -0.120 NA 
HETATM   23  C   UNL     1      -9.735  10.714  67.985  1.00  0.00    -0.157 C  
BRANCH  22  24
HETATM   24  C   UNL     1      -9.433   8.271  68.096  1.00  0.00    -0.137 C  
BRANCH  24  25
HETATM   25  C   UNL     1      -8.716   7.292  68.997  1.00  0.00    -0.132 C  
HETATM   26  N   UNL     1      -9.405   6.430  69.766  1.00  0.00    -0.146 NA 
HETATM   27  N   UNL     1      -7.418   7.190  69.100  1.00  0.00    -0.092 NA 
HETATM   28  O   UNL     1      -8.682   4.747  71.175  1.00  0.00    -0.113 OA 
HETATM   29  C   UNL     1      -8.477   5.672  70.412  1.00  0.00    -0.127 C  
HETATM   30  N   UNL     1      -7.247   6.172  70.002  1.00  0.00    -0.071 NA 
HETATM   31  H   UNL     1      -6.702   7.738  68.623  1.00  0.00     0.000 HD 
ENDBRANCH  24  25
ENDBRANCH  22  24
BRANCH  23  32
HETATM   32  C   UNL     1     -10.676  10.759  69.193  1.00  0.00    -0.265 A  
HETATM   33  C   UNL     1     -12.625  10.797  71.223  1.00  0.00    -0.426 A  
HETATM   34  F   UNL     1     -13.572  10.788  72.168  1.00  0.00    -0.477 F  
HETATM   35  C   UNL     1     -10.697   9.762  70.178  1.00  0.00    -0.339 A  
HETATM   36  C   UNL     1     -12.608  11.809  70.277  1.00  0.00    -0.131 A  
HETATM   37  C   UNL     1     -11.672   9.780  71.187  1.00  0.00    -0.465 A  
HETATM   38  C   UNL     1     -11.637  11.793  69.271  1.00  0.00    -0.378 A  
ENDBRANCH  23  32
ENDBRANCH  17  18
ENDBRANCH   2  17
TORSDOF 6
ENDMDL
MODEL      256
REMARK 921   NORMALIZED FREE ENERGY PREDICTED BY IDOCK:   -3.80 KCAL/MOL
REMARK 922        TOTAL FREE ENERGY PREDICTED BY IDOCK:   -7.27 KCAL/MOL
REMARK 923 INTER-LIGAND FREE ENERGY PREDICTED BY IDOCK:   -8.55 KCAL/MOL
REMARK 924 INTRA-LIGAND FREE ENERGY PREDICTED BY IDOCK:    1.28 KCAL/MOL
REMARK 927      BINDING AFFINITY PREDICTED BY RF-SCORE:    0.00 PKD
ROOT
HETATM    1  C   UNL     1     -10.855   9.693  68.164  1.00  0.00    -0.241 C  
HETATM    2  C   UNL     1      -9.676   8.721  68.321  1.00  0.00    -0.158 C  
ENDROOT
BRANCH   2   3
HETATM    3  C   UNL     1     -10.014   7.482  69.168  1.00  0.00    -0.179 A  
HETATM    4  C   UNL     1     -11.022   7.500  70.151  1.00  0.00    -0.267 A  
HETATM    5  C   UNL     1      -9.299   6.284  68.987  1.00  0.00    -0.127 A  
HETATM    6  F   UNL     1     -13.615   6.776  71.451  1.00  0.00    -0.342 F  
HETATM    7  F   UNL     1     -12.592   5.298  72.674  1.00  0.00    -0.209 F  
HETATM    8  C   UNL     1      -9.574   5.139  69.762  1.00  0.00    -0.242 A  
HETATM    9  C   UNL     1      -8.788   3.860  69.585  1.00  0.00    -0.088 C  
HETATM   10  C   UNL     1     -10.588   5.195  70.733  1.00  0.00    -0.205 A  
HETATM   11  F   UNL     1     -12.150   7.411  72.926  1.00  0.00    -0.159 F  
HETATM   12  F   UNL     1      -7.852   3.924  68.596  1.00  0.00    -0.065 F  
HETATM   13  F   UNL     1      -8.118   3.500  70.713  1.00  0.00    -0.054 F  
HETATM   14  F   UNL     1      -9.584   2.799  69.271  1.00  0.00    -0.221 F  
HETATM   15  C   UNL     1     -12.403   6.459  71.986  1.00  0.00    -0.216 C  
HETATM   16  C   UNL     1     -11.317   6.373  70.937  1.00  0.00    -0.398 A  
ENDBRANCH   2   3
BRANCH   2  17
HETATM   17  O   UNL     1      -8.433   9.392  68.644  1.00  0.00    -0.116 OA 
BRANCH  17  18
HETATM   18  C   UNL     1      -7.552   9.650  67.542  1.00  0.00    -0.095 C  
HETATM   19  C   UNL     1      -9.010   9.103  65.117  1.00  0.00    -0.189 C  
HETATM   20  C   UNL     1      -8.600   8.073  66.162  1.00  0.00    -0.148 C  
HETATM   21  O   UNL     1      -7.360   8.451  66.774  1.00  0.00    -0.081 OA 
HETATM   22  N   UNL     1      -9.202  10.474  65.672  1.00  0.00    -0.177 NA 
HETATM   23  C   UNL     1      -7.991  10.803  66.520  1.00  0.00    -0.144 C  
BRANCH  22  24
HETATM   24  C   UNL     1      -9.304  11.424  64.529  1.00  0.00    -0.077 C  
BRANCH  24  25
HETATM   25  C   UNL     1     -10.718  11.927  64.346  1.00  0.00    -0.323 C  
HETATM   26  N   UNL     1     -11.305  12.692  65.285  1.00  0.00    -0.305 NA 
HETATM   27  N   UNL     1     -11.464  11.684  63.303  1.00  0.00    -0.815 NA 
HETATM   28  O   UNL     1     -13.376  13.715  65.325  1.00  0.00    -0.669 OA 
HETATM   29  C   UNL     1     -12.538  13.006  64.802  1.00  0.00    -0.397 C  
HETATM   30  N   UNL     1     -12.629  12.354  63.578  1.00  0.00    -0.748 NA 
HETATM   31  H   UNL     1     -11.236  11.129  62.479  1.00  0.00     0.000 HD 
ENDBRANCH  24  25
ENDBRANCH  22  24
BRANCH  23  32
HETATM   32  C   UNL     1      -8.019  12.216  67.109  1.00  0.00    -0.170 A  
HETATM   33  C   UNL     1      -8.123  14.688  68.453  1.00  0.00    -0.147 A  
HETATM   34  F   UNL     1      -8.157  15.845  69.123  1.00  0.00    -0.182 F  
HETATM   35  C   UNL     1      -6.876  13.022  67.209  1.00  0.00    -0.038 A  
HETATM   36  C   UNL     1      -9.273  13.922  68.345  1.00  0.00    -0.194 A  
HETATM   37  C   UNL     1      -6.928  14.252  67.882  1.00  0.00    -0.174 A  
HETATM   38  C   UNL     1      -9.223  12.697  67.674  1.00  0.00    -0.191 A  
ENDBRANCH  23  32
ENDBRANCH  17  18
ENDBRANCH   2  17
TORSDOF 6
ENDMDL
MODEL      257
REMARK 921   NORMALIZED FREE ENERGY PREDICTED BY IDOCK:   -3.80 KCAL/MOL
REMARK 922        TOTAL FREE ENERGY PREDICTED BY IDOCK:   -7.26 KCAL/MOL
REMARK 923 INTER-LIGAND FREE ENERGY PREDICTED BY IDOCK:   -6.94 KCAL/MOL
REMARK 924 INTRA-LIGAND FREE ENERGY PREDICTED BY IDOCK:   -0.33 KCAL/MOL
REMARK 927      BINDING AFFINITY PREDICTED BY RF-SCORE:    0.00 PKD
ROOT
HETATM    1  C   UNL     1      -6.810  13.904  67.332  1.00  0.00    -0.029 C  
HETATM    2  C   UNL     1      -8.208  14.415  66.955  1.00  0.00    -0.109 C  
ENDROOT
BRANCH   2   3
HETATM    3  C   UNL     1      -9.201  13.289  66.622  1.00  0.00    -0.222 A  
HETATM    4  C   UNL     1      -9.170  12.045  67.282  1.00  0.00    -0.182 A  
HETATM    5  C   UNL     1     -10.172  13.473  65.621  1.00  0.00    -0.306 A  
HETATM    6  F   UNL     1     -10.147   9.835  69.043  1.00  0.00    -0.163 F  
HETATM    7  F   UNL     1     -10.901   8.776  67.300  1.00  0.00    -0.354 F  
HETATM    8  C   UNL     1     -11.082  12.451  65.282  1.00  0.00    -0.342 A  
HETATM    9  C   UNL     1     -12.108  12.642  64.188  1.00  0.00    -0.439 C  
HETATM   10  C   UNL     1     -11.021  11.223  65.962  1.00  0.00    -0.237 A  
HETATM   11  F   UNL     1      -8.764   9.087  67.543  1.00  0.00    -0.118 F  
HETATM   12  F   UNL     1     -12.084  13.881  63.623  1.00  0.00    -0.483 F  
HETATM   13  F   UNL     1     -11.949  11.759  63.165  1.00  0.00    -0.500 F  
HETATM   14  F   UNL     1     -13.384  12.464  64.635  1.00  0.00    -0.429 F  
HETATM   15  C   UNL     1      -9.973   9.691  67.699  1.00  0.00    -0.174 C  
HETATM   16  C   UNL     1     -10.066  11.009  66.964  1.00  0.00    -0.232 A  
ENDBRANCH   2   3
BRANCH   2  17
HETATM   17  O   UNL     1      -8.170  15.525  66.023  1.00  0.00     0.133 OA 
BRANCH  17  18
HETATM   18  C   UNL     1      -8.549  16.803  66.551  1.00  0.00    -0.277 C  
HETATM   19  C   UNL     1     -11.351  16.676  67.212  1.00  0.00     0.324 C  
HETATM   20  C   UNL     1     -10.761  16.604  65.808  1.00  0.00    -0.204 C  
HETATM   21  O   UNL     1      -9.568  17.393  65.729  1.00  0.00    -0.526 OA 
HETATM   22  N   UNL     1     -10.430  16.176  68.272  1.00  0.00    -0.265 NA 
HETATM   23  C   UNL     1      -9.082  16.832  68.062  1.00  0.00    -0.228 C  
BRANCH  22  24
HETATM   24  C   UNL     1     -10.994  16.569  69.595  1.00  0.00    -0.287 C  
BRANCH  24  25
HETATM   25  C   UNL     1     -11.975  15.542  70.111  1.00  0.00    -0.366 C  
HETATM   26  N   UNL     1     -11.699  14.227  70.039  1.00  0.00    -0.288 NA 
HETATM   27  N   UNL     1     -13.125  15.823  70.660  1.00  0.00    -0.733 NA 
HETATM   28  O   UNL     1     -12.878  12.389  70.794  1.00  0.00    -0.160 OA 
HETATM   29  C   UNL     1     -12.749  13.586  70.619  1.00  0.00    -0.205 C  
HETATM   30  N   UNL     1     -13.637  14.592  70.982  1.00  0.00    -0.313 NA 
HETATM   31  H   UNL     1     -13.544  16.740  70.814  1.00  0.00     0.000 HD 
ENDBRANCH  24  25
ENDBRANCH  22  24
BRANCH  23  32
HETATM   32  C   UNL     1      -8.043  16.459  69.123  1.00  0.00    -0.198 A  
HETATM   33  C   UNL     1      -6.091  15.524  70.924  1.00  0.00     0.319 A  
HETATM   34  F   UNL     1      -5.144  15.063  71.749  1.00  0.00    -0.148 F  
HETATM   35  C   UNL     1      -6.823  17.134  69.265  1.00  0.00    -0.209 A  
HETATM   36  C   UNL     1      -7.300  14.854  70.821  1.00  0.00     1.053 A  
HETATM   37  C   UNL     1      -5.849  16.665  70.159  1.00  0.00    -0.176 A  
HETATM   38  C   UNL     1      -8.272  15.320  69.931  1.00  0.00     0.138 A  
ENDBRANCH  23  32
ENDBRANCH  17  18
ENDBRANCH   2  17
TORSDOF 6
ENDMDL
MODEL      258
REMARK 921   NORMALIZED FREE ENERGY PREDICTED BY IDOCK:   -3.79 KCAL/MOL
REMARK 922        TOTAL FREE ENERGY PREDICTED BY IDOCK:   -7.25 KCAL/MOL
REMARK 923 INTER-LIGAND FREE ENERGY PREDICTED BY IDOCK:   -7.40 KCAL/MOL
REMARK 924 INTRA-LIGAND FREE ENERGY PREDICTED BY IDOCK:    0.15 KCAL/MOL
REMARK 927      BINDING AFFINITY PREDICTED BY RF-SCORE:    0.00 PKD
ROOT
HETATM    1  C   UNL     1      -6.920  13.570  67.130  1.00  0.00     0.275 C  
HETATM    2  C   UNL     1      -8.236  14.343  66.964  1.00  0.00    -0.109 C  
ENDROOT
BRANCH   2   3
HETATM    3  C   UNL     1      -9.457  13.433  66.749  1.00  0.00    -0.263 A  
HETATM    4  C   UNL     1     -10.272  13.534  65.605  1.00  0.00    -0.306 A  
HETATM    5  C   UNL     1      -9.803  12.471  67.716  1.00  0.00    -0.204 A  
HETATM    6  F   UNL     1     -11.529  12.670  63.032  1.00  0.00    -0.510 F  
HETATM    7  F   UNL     1     -13.300  12.021  64.113  1.00  0.00    -0.486 F  
HETATM    8  C   UNL     1     -10.928  11.636  67.553  1.00  0.00    -0.312 A  
HETATM    9  C   UNL     1     -11.313  10.621  68.605  1.00  0.00    -0.281 C  
HETATM   10  C   UNL     1     -11.717  11.765  66.398  1.00  0.00    -0.131 A  
HETATM   11  F   UNL     1     -12.771  14.128  64.060  1.00  0.00    -0.343 F  
HETATM   12  F   UNL     1     -10.456  10.574  69.663  1.00  0.00    -0.229 F  
HETATM   13  F   UNL     1     -12.545  10.858  69.130  1.00  0.00    -0.350 F  
HETATM   14  F   UNL     1     -11.358   9.352  68.109  1.00  0.00    -0.138 F  
HETATM   15  C   UNL     1     -12.243  12.879  64.174  1.00  0.00    -0.414 C  
HETATM   16  C   UNL     1     -11.399  12.714  65.418  1.00  0.00    -0.348 A  
ENDBRANCH   2   3
BRANCH   2  17
HETATM   17  O   UNL     1      -8.117  15.470  66.060  1.00  0.00     0.275 OA 
BRANCH  17  18
HETATM   18  C   UNL     1      -8.110  16.768  66.670  1.00  0.00    -0.265 C  
HETATM   19  C   UNL     1     -10.827  17.405  67.391  1.00  0.00    -0.165 C  
HETATM   20  C   UNL     1     -10.292  17.256  65.972  1.00  0.00    -0.305 C  
HETATM   21  O   UNL     1      -8.923  17.675  65.909  1.00  0.00    -0.519 OA 
HETATM   22  N   UNL     1     -10.080  16.597  68.398  1.00  0.00    -0.255 NA 
HETATM   23  C   UNL     1      -8.602  16.854  68.193  1.00  0.00    -0.221 C  
BRANCH  22  24
HETATM   24  C   UNL     1     -10.498  17.052  69.755  1.00  0.00    -0.011 C  
BRANCH  24  25
HETATM   25  C   UNL     1     -11.720  16.307  70.241  1.00  0.00    -0.066 C  
HETATM   26  N   UNL     1     -12.161  16.455  71.503  1.00  0.00    -0.222 NA 
HETATM   27  N   UNL     1     -12.434  15.494  69.511  1.00  0.00    -0.594 NA 
HETATM   28  O   UNL     1     -14.013  15.579  72.571  1.00  0.00    -0.538 OA 
HETATM   29  C   UNL     1     -13.285  15.694  71.605  1.00  0.00    -0.472 C  
HETATM   30  N   UNL     1     -13.429  15.087  70.363  1.00  0.00    -0.038 NA 
HETATM   31  H   UNL     1     -12.288  15.227  68.537  1.00  0.00     0.000 HD 
ENDBRANCH  24  25
ENDBRANCH  22  24
BRANCH  23  32
HETATM   32  C   UNL     1      -7.706  16.134  69.205  1.00  0.00    -0.210 A  
HETATM   33  C   UNL     1      -6.022  14.602  70.862  1.00  0.00    -0.111 A  
HETATM   34  F   UNL     1      -5.201  13.864  71.617  1.00  0.00    -0.123 F  
HETATM   35  C   UNL     1      -6.456  16.629  69.603  1.00  0.00    -0.195 A  
HETATM   36  C   UNL     1      -7.264  14.102  70.504  1.00  0.00     0.910 A  
HETATM   37  C   UNL     1      -5.616  15.863  70.425  1.00  0.00    -0.138 A  
HETATM   38  C   UNL     1      -8.103  14.864  69.685  1.00  0.00     0.018 A  
ENDBRANCH  23  32
ENDBRANCH  17  18
ENDBRANCH   2  17
TORSDOF 6
ENDMDL
MODEL      259
REMARK 921   NORMALIZED FREE ENERGY PREDICTED BY IDOCK:   -3.71 KCAL/MOL
REMARK 922        TOTAL FREE ENERGY PREDICTED BY IDOCK:   -7.14 KCAL/MOL
REMARK 923 INTER-LIGAND FREE ENERGY PREDICTED BY IDOCK:   -8.10 KCAL/MOL
REMARK 924 INTRA-LIGAND FREE ENERGY PREDICTED BY IDOCK:    0.96 KCAL/MOL
REMARK 927      BINDING AFFINITY PREDICTED BY RF-SCORE:    0.00 PKD
ROOT
HETATM    1  C   UNL     1      -8.431  11.850  66.644  1.00  0.00    -0.143 C  
HETATM    2  C   UNL     1      -9.447  11.878  67.796  1.00  0.00    -0.184 C  
ENDROOT
BRANCH   2   3
HETATM    3  C   UNL     1      -9.984  13.287  68.102  1.00  0.00    -0.234 A  
HETATM    4  C   UNL     1      -9.712  14.388  67.269  1.00  0.00    -0.233 A  
HETATM    5  C   UNL     1     -10.760  13.514  69.254  1.00  0.00    -0.039 A  
HETATM    6  F   UNL     1     -10.310  16.616  65.365  1.00  0.00    -0.339 F  
HETATM    7  F   UNL     1     -10.378  18.019  67.024  1.00  0.00    -0.319 F  
HETATM    8  C   UNL     1     -11.249  14.798  69.569  1.00  0.00    -0.305 A  
HETATM    9  C   UNL     1     -12.061  15.045  70.820  1.00  0.00    -0.322 C  
HETATM   10  C   UNL     1     -10.959  15.873  68.713  1.00  0.00    -0.301 A  
HETATM   11  F   UNL     1      -8.511  17.029  66.514  1.00  0.00    -0.218 F  
HETATM   12  F   UNL     1     -12.297  13.921  71.553  1.00  0.00    -0.387 F  
HETATM   13  F   UNL     1     -11.461  15.926  71.665  1.00  0.00    -0.391 F  
HETATM   14  F   UNL     1     -13.289  15.573  70.547  1.00  0.00    -0.439 F  
HETATM   15  C   UNL     1      -9.852  16.825  66.631  1.00  0.00    -0.277 C  
HETATM   16  C   UNL     1     -10.188  15.679  67.560  1.00  0.00    -0.263 A  
ENDBRANCH   2   3
BRANCH   2  17
HETATM   17  O   UNL     1      -9.021  11.097  68.941  1.00  0.00    -0.156 OA 
BRANCH  17  18
HETATM   18  C   UNL     1     -10.026  10.272  69.547  1.00  0.00    -0.228 C  
HETATM   19  C   UNL     1     -10.510   8.049  67.778  1.00  0.00    -0.214 C  
HETATM   20  C   UNL     1     -10.835   9.509  67.485  1.00  0.00    -0.170 C  
HETATM   21  O   UNL     1     -11.179  10.195  68.695  1.00  0.00    -0.230 OA 
HETATM   22  N   UNL     1      -9.368   7.868  68.719  1.00  0.00    -0.147 NA 
HETATM   23  C   UNL     1      -9.604   8.770  69.913  1.00  0.00    -0.177 C  
BRANCH  22  24
HETATM   24  C   UNL     1      -9.346   6.441  69.149  1.00  0.00    -0.132 C  
BRANCH  24  25
HETATM   25  C   UNL     1     -10.356   6.172  70.240  1.00  0.00    -0.214 C  
HETATM   26  N   UNL     1     -10.014   5.477  71.341  1.00  0.00    -0.179 NA 
HETATM   27  N   UNL     1     -11.596   6.578  70.222  1.00  0.00    -0.413 NA 
HETATM   28  O   UNL     1     -11.225   4.954  73.238  1.00  0.00    -0.307 OA 
HETATM   29  C   UNL     1     -11.120   5.450  72.132  1.00  0.00    -0.168 C  
HETATM   30  N   UNL     1     -12.101   6.121  71.412  1.00  0.00    -0.062 NA 
HETATM   31  H   UNL     1     -12.076   7.110  69.496  1.00  0.00     0.000 HD 
ENDBRANCH  24  25
ENDBRANCH  22  24
BRANCH  23  32
HETATM   32  C   UNL     1      -8.535   8.643  71.001  1.00  0.00    -0.199 A  
HETATM   33  C   UNL     1      -6.515   8.697  72.962  1.00  0.00    -0.036 A  
HETATM   34  F   UNL     1      -5.566   8.758  73.903  1.00  0.00    -0.088 F  
HETATM   35  C   UNL     1      -8.844   8.413  72.350  1.00  0.00    -0.294 A  
HETATM   36  C   UNL     1      -6.179   8.900  71.633  1.00  0.00    -0.074 A  
HETATM   37  C   UNL     1      -7.837   8.444  73.326  1.00  0.00    -0.141 A  
HETATM   38  C   UNL     1      -7.181   8.869  70.658  1.00  0.00    -0.075 A  
ENDBRANCH  23  32
ENDBRANCH  17  18
ENDBRANCH   2  17
TORSDOF 6
ENDMDL
MODEL      260
REMARK 921   NORMALIZED FREE ENERGY PREDICTED BY IDOCK:   -3.69 KCAL/MOL
REMARK 922        TOTAL FREE ENERGY PREDICTED BY IDOCK:   -7.11 KCAL/MOL
REMARK 923 INTER-LIGAND FREE ENERGY PREDICTED BY IDOCK:   -7.40 KCAL/MOL
REMARK 924 INTRA-LIGAND FREE ENERGY PREDICTED BY IDOCK:    0.28 KCAL/MOL
REMARK 927      BINDING AFFINITY PREDICTED BY RF-SCORE:    0.00 PKD
ROOT
HETATM    1  C   UNL     1      -7.688   8.960  70.564  1.00  0.00    -0.106 C  
HETATM    2  C   UNL     1      -8.658   7.994  69.869  1.00  0.00    -0.135 C  
ENDROOT
BRANCH   2   3
HETATM    3  C   UNL     1      -9.789   7.497  70.786  1.00  0.00    -0.178 A  
HETATM    4  C   UNL     1     -10.965   8.242  70.993  1.00  0.00    -0.280 A  
HETATM    5  C   UNL     1      -9.663   6.271  71.465  1.00  0.00    -0.179 A  
HETATM    6  F   UNL     1     -13.886   8.871  70.868  1.00  0.00    -0.236 F  
HETATM    7  F   UNL     1     -14.141   8.099  72.884  1.00  0.00    -0.100 F  
HETATM    8  C   UNL     1     -10.675   5.800  72.326  1.00  0.00    -0.282 A  
HETATM    9  C   UNL     1     -10.528   4.495  73.074  1.00  0.00    -0.194 C  
HETATM   10  C   UNL     1     -11.836   6.571  72.507  1.00  0.00    -0.159 A  
HETATM   11  F   UNL     1     -12.940   9.878  72.546  1.00  0.00    -0.437 F  
HETATM   12  F   UNL     1      -9.372   3.829  72.794  1.00  0.00    -0.115 F  
HETATM   13  F   UNL     1     -10.547   4.663  74.424  1.00  0.00    -0.259 F  
HETATM   14  F   UNL     1     -11.535   3.619  72.795  1.00  0.00    -0.047 F  
HETATM   15  C   UNL     1     -13.225   8.647  72.038  1.00  0.00    -0.386 C  
HETATM   16  C   UNL     1     -11.990   7.796  71.847  1.00  0.00    -0.340 A  
ENDBRANCH   2   3
BRANCH   2  17
HETATM   17  O   UNL     1      -7.979   6.978  69.090  1.00  0.00    -0.115 OA 
BRANCH  17  18
HETATM   18  C   UNL     1      -8.159   7.050  67.669  1.00  0.00    -0.114 C  
HETATM   19  C   UNL     1     -10.954   7.544  67.169  1.00  0.00    -0.093 C  
HETATM   20  C   UNL     1     -10.367   6.274  67.774  1.00  0.00    -0.195 C  
HETATM   21  O   UNL     1      -9.063   6.023  67.234  1.00  0.00    -0.113 OA 
HETATM   22  N   UNL     1     -10.135   8.763  67.429  1.00  0.00    -0.207 NA 
HETATM   23  C   UNL     1      -8.698   8.438  67.077  1.00  0.00    -0.126 C  
BRANCH  22  24
HETATM   24  C   UNL     1     -10.645   9.856  66.553  1.00  0.00    -0.086 C  
BRANCH  24  25
HETATM   25  C   UNL     1     -11.274  10.969  67.359  1.00  0.00    -0.285 C  
HETATM   26  N   UNL     1     -11.086  12.257  67.021  1.00  0.00    -0.271 NA 
HETATM   27  N   UNL     1     -12.034  10.791  68.406  1.00  0.00    -0.809 NA 
HETATM   28  O   UNL     1     -11.943  14.201  67.929  1.00  0.00    -0.360 OA 
HETATM   29  C   UNL     1     -11.810  12.993  67.907  1.00  0.00    -0.343 C  
HETATM   30  N   UNL     1     -12.377  12.066  68.774  1.00  0.00    -0.122 NA 
HETATM   31  H   UNL     1     -12.308   9.911  68.845  1.00  0.00     0.000 HD 
ENDBRANCH  24  25
ENDBRANCH  22  24
BRANCH  23  32
HETATM   32  C   UNL     1      -7.743   9.625  67.235  1.00  0.00    -0.091 A  
HETATM   33  C   UNL     1      -6.081  11.897  67.261  1.00  0.00    -0.141 A  
HETATM   34  F   UNL     1      -5.319  12.997  67.254  1.00  0.00    -0.090 F  
HETATM   35  C   UNL     1      -7.944  10.644  68.177  1.00  0.00    -0.113 A  
HETATM   36  C   UNL     1      -5.845  10.891  66.337  1.00  0.00    -0.123 A  
HETATM   37  C   UNL     1      -7.118  11.777  68.186  1.00  0.00    -0.079 A  
HETATM   38  C   UNL     1      -6.667   9.760  66.327  1.00  0.00    -0.087 A  
ENDBRANCH  23  32
ENDBRANCH  17  18
ENDBRANCH   2  17
TORSDOF 6
ENDMDL
MODEL      261
REMARK 921   NORMALIZED FREE ENERGY PREDICTED BY IDOCK:   -3.68 KCAL/MOL
REMARK 922        TOTAL FREE ENERGY PREDICTED BY IDOCK:   -7.11 KCAL/MOL
REMARK 923 INTER-LIGAND FREE ENERGY PREDICTED BY IDOCK:   -4.77 KCAL/MOL
REMARK 924 INTRA-LIGAND FREE ENERGY PREDICTED BY IDOCK:   -2.33 KCAL/MOL
REMARK 927      BINDING AFFINITY PREDICTED BY RF-SCORE:    0.00 PKD
ROOT
HETATM    1  C   UNL     1      -7.606   9.434  70.160  1.00  0.00    -0.132 C  
HETATM    2  C   UNL     1      -7.285   9.459  68.659  1.00  0.00    -0.074 C  
ENDROOT
BRANCH   2   3
HETATM    3  C   UNL     1      -7.943  10.631  67.912  1.00  0.00    -0.106 A  
HETATM    4  C   UNL     1      -7.605  11.972  68.178  1.00  0.00    -0.120 A  
HETATM    5  C   UNL     1      -8.928  10.387  66.938  1.00  0.00    -0.151 A  
HETATM    6  F   UNL     1      -6.497  14.695  67.631  1.00  0.00    -0.147 F  
HETATM    7  F   UNL     1      -8.489  15.405  67.124  1.00  0.00    -0.170 F  
HETATM    8  C   UNL     1      -9.561  11.443  66.251  1.00  0.00    -0.237 A  
HETATM    9  C   UNL     1     -10.638  11.180  65.223  1.00  0.00    -0.238 C  
HETATM   10  C   UNL     1      -9.197  12.768  66.543  1.00  0.00    -0.190 A  
HETATM   11  F   UNL     1      -8.046  14.771  69.155  1.00  0.00    -0.144 F  
HETATM   12  F   UNL     1     -10.882   9.856  65.010  1.00  0.00     0.080 F  
HETATM   13  F   UNL     1     -11.832  11.732  65.567  1.00  0.00    -0.353 F  
HETATM   14  F   UNL     1     -10.327  11.700  64.001  1.00  0.00    -0.278 F  
HETATM   15  C   UNL     1      -7.823  14.463  67.848  1.00  0.00    -0.150 C  
HETATM   16  C   UNL     1      -8.220  13.044  67.508  1.00  0.00    -0.181 A  
ENDBRANCH   2   3
BRANCH   2  17
HETATM   17  O   UNL     1      -7.412   8.156  68.035  1.00  0.00    -0.094 OA 
BRANCH  17  18
HETATM   18  C   UNL     1      -6.226   7.634  67.421  1.00  0.00    -0.053 C  
HETATM   19  C   UNL     1      -6.719   4.867  66.785  1.00  0.00    -0.054 C  
HETATM   20  C   UNL     1      -6.625   5.456  68.187  1.00  0.00    -0.049 C  
HETATM   21  O   UNL     1      -5.701   6.551  68.205  1.00  0.00    -0.011 OA 
HETATM   22  N   UNL     1      -7.183   5.842  65.757  1.00  0.00    -0.073 NA 
HETATM   23  C   UNL     1      -6.363   7.106  65.915  1.00  0.00    -0.044 C  
BRANCH  22  24
HETATM   24  C   UNL     1      -6.949   5.241  64.413  1.00  0.00    -0.049 C  
BRANCH  24  25
HETATM   25  C   UNL     1      -8.237   4.755  63.788  1.00  0.00    -0.115 C  
HETATM   26  N   UNL     1      -9.262   4.341  64.555  1.00  0.00    -0.152 NA 
HETATM   27  N   UNL     1      -8.467   4.703  62.504  1.00  0.00    -0.097 NA 
HETATM   28  O   UNL     1     -11.387   3.633  63.986  1.00  0.00    -0.223 OA 
HETATM   29  C   UNL     1     -10.269   4.015  63.699  1.00  0.00    -0.133 C  
HETATM   30  N   UNL     1      -9.750   4.227  62.427  1.00  0.00    -0.143 NA 
HETATM   31  H   UNL     1      -7.841   4.957  61.740  1.00  0.00     0.000 HD 
ENDBRANCH  24  25
ENDBRANCH  22  24
BRANCH  23  32
HETATM   32  C   UNL     1      -6.687   8.184  64.876  1.00  0.00    -0.055 A  
HETATM   33  C   UNL     1      -7.488  10.263  63.155  1.00  0.00    -0.125 A  
HETATM   34  F   UNL     1      -7.875  11.273  62.369  1.00  0.00    -0.190 F  
HETATM   35  C   UNL     1      -5.806   9.228  64.563  1.00  0.00    -0.070 A  
HETATM   36  C   UNL     1      -8.368   9.227  63.428  1.00  0.00    -0.193 A  
HETATM   37  C   UNL     1      -6.208  10.265  63.708  1.00  0.00    -0.115 A  
HETATM   38  C   UNL     1      -7.969   8.192  64.279  1.00  0.00    -0.144 A  
ENDBRANCH  23  32
ENDBRANCH  17  18
ENDBRANCH   2  17
TORSDOF 6
ENDMDL
MODEL      262
REMARK 921   NORMALIZED FREE ENERGY PREDICTED BY IDOCK:   -3.60 KCAL/MOL
REMARK 922        TOTAL FREE ENERGY PREDICTED BY IDOCK:   -6.99 KCAL/MOL
REMARK 923 INTER-LIGAND FREE ENERGY PREDICTED BY IDOCK:   -4.96 KCAL/MOL
REMARK 924 INTRA-LIGAND FREE ENERGY PREDICTED BY IDOCK:   -2.03 KCAL/MOL
REMARK 927      BINDING AFFINITY PREDICTED BY RF-SCORE:    0.00 PKD
ROOT
HETATM    1  C   UNL     1      -9.342   8.380  72.905  1.00  0.00    -0.283 C  
HETATM    2  C   UNL     1      -8.609   8.132  71.579  1.00  0.00    -0.139 C  
ENDROOT
BRANCH   2   3
HETATM    3  C   UNL     1      -9.077   9.055  70.440  1.00  0.00    -0.242 A  
HETATM    4  C   UNL     1     -10.270   9.798  70.522  1.00  0.00    -0.321 A  
HETATM    5  C   UNL     1      -8.317   9.166  69.261  1.00  0.00    -0.123 A  
HETATM    6  F   UNL     1     -11.989  12.239  70.682  1.00  0.00    -0.426 F  
HETATM    7  F   UNL     1     -12.308  12.158  68.533  1.00  0.00    -0.294 F  
HETATM    8  C   UNL     1      -8.731   9.989  68.194  1.00  0.00    -0.122 A  
HETATM    9  C   UNL     1      -7.927  10.089  66.918  1.00  0.00    -0.113 C  
HETATM   10  C   UNL     1      -9.928  10.717  68.313  1.00  0.00    -0.182 A  
HETATM   11  F   UNL     1     -13.075  10.573  69.806  1.00  0.00    -0.239 F  
HETATM   12  F   UNL     1      -6.777   9.358  66.936  1.00  0.00    -0.071 F  
HETATM   13  F   UNL     1      -8.624   9.666  65.829  1.00  0.00    -0.124 F  
HETATM   14  F   UNL     1      -7.547  11.369  66.642  1.00  0.00    -0.136 F  
HETATM   15  C   UNL     1     -12.004  11.390  69.616  1.00  0.00    -0.348 C  
HETATM   16  C   UNL     1     -10.706  10.627  69.473  1.00  0.00    -0.290 A  
ENDBRANCH   2   3
BRANCH   2  17
HETATM   17  O   UNL     1      -8.499   6.724  71.251  1.00  0.00    -0.123 OA 
BRANCH  17  18
HETATM   18  C   UNL     1      -7.183   6.255  70.926  1.00  0.00    -0.071 C  
HETATM   19  C   UNL     1      -7.146   3.404  71.345  1.00  0.00    -0.032 C  
HETATM   20  C   UNL     1      -7.304   4.463  72.430  1.00  0.00    -0.072 C  
HETATM   21  O   UNL     1      -6.579   5.648  72.078  1.00  0.00    -0.054 OA 
HETATM   22  N   UNL     1      -7.647   3.838  70.009  1.00  0.00    -0.048 NA 
HETATM   23  C   UNL     1      -7.066   5.207  69.720  1.00  0.00    -0.058 C  
BRANCH  22  24
HETATM   24  C   UNL     1      -7.172   2.853  68.996  1.00  0.00    -0.048 C  
BRANCH  24  25
HETATM   25  C   UNL     1      -8.102   2.784  67.807  1.00  0.00    -0.070 C  
HETATM   26  N   UNL     1      -7.659   3.064  66.568  1.00  0.00    -0.075 NA 
HETATM   27  N   UNL     1      -9.363   2.451  67.868  1.00  0.00    -0.259 NA 
HETATM   28  O   UNL     1      -8.730   2.977  64.522  1.00  0.00    -0.097 OA 
HETATM   29  C   UNL     1      -8.717   2.869  65.733  1.00  0.00    -0.128 C  
HETATM   30  N   UNL     1      -9.774   2.508  66.560  1.00  0.00     0.310 NA 
HETATM   31  H   UNL     1      -9.912   2.206  68.691  1.00  0.00     0.000 HD 
ENDBRANCH  24  25
ENDBRANCH  22  24
BRANCH  23  32
HETATM   32  C   UNL     1      -7.446   5.758  68.342  1.00  0.00    -0.081 A  
HETATM   33  C   UNL     1      -8.056   6.513  65.700  1.00  0.00    -0.128 A  
HETATM   34  F   UNL     1      -8.357   6.834  64.436  1.00  0.00    -0.113 F  
HETATM   35  C   UNL     1      -8.773   6.000  67.959  1.00  0.00    -0.112 A  
HETATM   36  C   UNL     1      -6.734   6.305  66.061  1.00  0.00    -0.052 A  
HETATM   37  C   UNL     1      -9.076   6.372  66.641  1.00  0.00    -0.155 A  
HETATM   38  C   UNL     1      -6.430   5.935  67.374  1.00  0.00    -0.047 A  
ENDBRANCH  23  32
ENDBRANCH  17  18
ENDBRANCH   2  17
TORSDOF 6
ENDMDL
MODEL      263
REMARK 921   NORMALIZED FREE ENERGY PREDICTED BY IDOCK:   -3.48 KCAL/MOL
REMARK 922        TOTAL FREE ENERGY PREDICTED BY IDOCK:   -6.83 KCAL/MOL
REMARK 923 INTER-LIGAND FREE ENERGY PREDICTED BY IDOCK:   -7.70 KCAL/MOL
REMARK 924 INTRA-LIGAND FREE ENERGY PREDICTED BY IDOCK:    0.87 KCAL/MOL
REMARK 927      BINDING AFFINITY PREDICTED BY RF-SCORE:    0.00 PKD
ROOT
HETATM    1  C   UNL     1      -8.190  11.823  66.585  1.00  0.00    -0.117 C  
HETATM    2  C   UNL     1      -9.352  11.792  67.589  1.00  0.00    -0.180 C  
ENDROOT
BRANCH   2   3
HETATM    3  C   UNL     1      -9.916  13.185  67.914  1.00  0.00    -0.233 A  
HETATM    4  C   UNL     1     -10.797  13.403  68.990  1.00  0.00    -0.220 A  
HETATM    5  C   UNL     1      -9.572  14.293  67.117  1.00  0.00    -0.245 A  
HETATM    6  F   UNL     1     -11.713  14.479  71.626  1.00  0.00    -0.379 F  
HETATM    7  F   UNL     1     -12.714  16.120  70.610  1.00  0.00    -0.372 F  
HETATM    8  C   UNL     1     -10.089  15.578  67.380  1.00  0.00    -0.246 A  
HETATM    9  C   UNL     1      -9.738  16.761  66.509  1.00  0.00    -0.283 C  
HETATM   10  C   UNL     1     -10.965  15.756  68.465  1.00  0.00    -0.312 A  
HETATM   11  F   UNL     1     -13.400  14.080  70.313  1.00  0.00    -0.194 F  
HETATM   12  F   UNL     1      -8.862  16.466  65.508  1.00  0.00    -0.211 F  
HETATM   13  F   UNL     1     -10.829  17.305  65.904  1.00  0.00    -0.288 F  
HETATM   14  F   UNL     1      -9.163  17.775  67.216  1.00  0.00    -0.243 F  
HETATM   15  C   UNL     1     -12.278  14.841  70.439  1.00  0.00    -0.336 C  
HETATM   16  C   UNL     1     -11.327  14.673  69.276  1.00  0.00    -0.313 A  
ENDBRANCH   2   3
BRANCH   2  17
HETATM   17  O   UNL     1      -9.090  10.931  68.726  1.00  0.00    -0.169 OA 
BRANCH  17  18
HETATM   18  C   UNL     1     -10.206  10.168  69.206  1.00  0.00    -0.223 C  
HETATM   19  C   UNL     1     -10.524   7.897  67.461  1.00  0.00    -0.262 C  
HETATM   20  C   UNL     1     -10.740   9.356  67.075  1.00  0.00    -0.137 C  
HETATM   21  O   UNL     1     -11.227  10.101  68.198  1.00  0.00    -0.258 OA 
HETATM   22  N   UNL     1      -9.538   7.711  68.564  1.00  0.00    -0.147 NA 
HETATM   23  C   UNL     1      -9.906   8.667  69.680  1.00  0.00    -0.186 C  
BRANCH  22  24
HETATM   24  C   UNL     1      -9.640   6.302  69.040  1.00  0.00    -0.127 C  
BRANCH  24  25
HETATM   25  C   UNL     1     -10.716   6.144  70.089  1.00  0.00    -0.302 C  
HETATM   26  N   UNL     1     -10.480   5.454  71.220  1.00  0.00    -0.233 NA 
HETATM   27  N   UNL     1     -11.917   6.647  70.004  1.00  0.00    -0.636 NA 
HETATM   28  O   UNL     1     -11.813   5.080  73.070  1.00  0.00    -0.269 OA 
HETATM   29  C   UNL     1     -11.619   5.536  71.960  1.00  0.00     0.012 C  
HETATM   30  N   UNL     1     -12.510   6.264  71.180  1.00  0.00     0.132 NA 
HETATM   31  H   UNL     1     -12.319   7.196  69.244  1.00  0.00     0.000 HD 
ENDBRANCH  24  25
ENDBRANCH  22  24
BRANCH  23  32
HETATM   32  C   UNL     1      -9.012   8.543  70.916  1.00  0.00    -0.206 A  
HETATM   33  C   UNL     1      -7.253   8.577  73.114  1.00  0.00     0.007 A  
HETATM   34  F   UNL     1      -6.422   8.631  74.161  1.00  0.00    -0.135 F  
HETATM   35  C   UNL     1      -9.509   8.611  72.225  1.00  0.00    -0.336 A  
HETATM   36  C   UNL     1      -6.738   8.482  71.831  1.00  0.00    -0.085 A  
HETATM   37  C   UNL     1      -8.631   8.632  73.320  1.00  0.00     0.104 A  
HETATM   38  C   UNL     1      -7.611   8.461  70.739  1.00  0.00    -0.071 A  
ENDBRANCH  23  32
ENDBRANCH  17  18
ENDBRANCH   2  17
TORSDOF 6
ENDMDL
MODEL      264
REMARK 921   NORMALIZED FREE ENERGY PREDICTED BY IDOCK:   -3.44 KCAL/MOL
REMARK 922        TOTAL FREE ENERGY PREDICTED BY IDOCK:   -6.79 KCAL/MOL
REMARK 923 INTER-LIGAND FREE ENERGY PREDICTED BY IDOCK:   -8.42 KCAL/MOL
REMARK 924 INTRA-LIGAND FREE ENERGY PREDICTED BY IDOCK:    1.63 KCAL/MOL
REMARK 927      BINDING AFFINITY PREDICTED BY RF-SCORE:    0.00 PKD
ROOT
HETATM    1  C   UNL     1     -11.197   9.488  69.847  1.00  0.00    -0.209 C  
HETATM    2  C   UNL     1     -10.738  10.210  68.572  1.00  0.00    -0.230 C  
ENDROOT
BRANCH   2   3
HETATM    3  C   UNL     1     -11.243  11.660  68.475  1.00  0.00    -0.312 A  
HETATM    4  C   UNL     1     -11.561  12.419  69.617  1.00  0.00    -0.330 A  
HETATM    5  C   UNL     1     -11.419  12.266  67.217  1.00  0.00    -0.426 A  
HETATM    6  F   UNL     1     -11.300  14.626  71.618  1.00  0.00    -0.350 F  
HETATM    7  F   UNL     1     -12.824  15.764  70.564  1.00  0.00    -0.464 F  
HETATM    8  C   UNL     1     -11.898  13.587  67.098  1.00  0.00    -0.430 A  
HETATM    9  C   UNL     1     -12.110  14.228  65.746  1.00  0.00    -0.405 C  
HETATM   10  C   UNL     1     -12.203  14.314  68.261  1.00  0.00    -0.181 A  
HETATM   11  F   UNL     1     -13.343  13.887  71.529  1.00  0.00    -0.384 F  
HETATM   12  F   UNL     1     -11.754  13.432  64.699  1.00  0.00    -0.335 F  
HETATM   13  F   UNL     1     -13.408  14.573  65.531  1.00  0.00    -0.396 F  
HETATM   14  F   UNL     1     -11.392  15.378  65.597  1.00  0.00    -0.327 F  
HETATM   15  C   UNL     1     -12.375  14.498  70.790  1.00  0.00    -0.340 C  
HETATM   16  C   UNL     1     -12.040  13.738  69.527  1.00  0.00    -0.386 A  
ENDBRANCH   2   3
BRANCH   2  17
HETATM   17  O   UNL     1     -10.896   9.401  67.379  1.00  0.00    -0.263 OA 
BRANCH  17  18
HETATM   18  C   UNL     1      -9.683   8.983  66.738  1.00  0.00    -0.216 C  
HETATM   19  C   UNL     1      -7.495  10.305  68.069  1.00  0.00    -0.087 C  
HETATM   20  C   UNL     1      -8.573  10.986  67.234  1.00  0.00    -0.130 C  
HETATM   21  O   UNL     1      -9.006  10.119  66.178  1.00  0.00    -0.145 OA 
HETATM   22  N   UNL     1      -7.947   9.035  68.708  1.00  0.00    -0.100 NA 
HETATM   23  C   UNL     1      -8.620   8.196  67.643  1.00  0.00    -0.130 C  
BRANCH  22  24
HETATM   24  C   UNL     1      -6.744   8.331  69.235  1.00  0.00    -0.043 C  
BRANCH  24  25
HETATM   25  C   UNL     1      -6.575   8.552  70.721  1.00  0.00    -0.041 C  
HETATM   26  N   UNL     1      -6.569   7.514  71.577  1.00  0.00    -0.045 NA 
HETATM   27  N   UNL     1      -6.416   9.718  71.285  1.00  0.00    -0.303 NA 
HETATM   28  O   UNL     1      -6.244   7.438  73.863  1.00  0.00    -0.070 OA 
HETATM   29  C   UNL     1      -6.357   8.041  72.813  1.00  0.00    -0.074 C  
HETATM   30  N   UNL     1      -6.285   9.415  72.617  1.00  0.00    -0.288 NA 
HETATM   31  H   UNL     1      -6.394  10.636  70.842  1.00  0.00     0.000 HD 
ENDBRANCH  24  25
ENDBRANCH  22  24
BRANCH  23  32
HETATM   32  C   UNL     1      -9.084   6.824  68.142  1.00  0.00    -0.123 A  
HETATM   33  C   UNL     1      -9.714   4.189  68.907  1.00  0.00    -0.106 A  
HETATM   34  F   UNL     1      -9.975   2.929  69.271  1.00  0.00    -0.090 F  
HETATM   35  C   UNL     1      -8.980   6.427  69.483  1.00  0.00    -0.136 A  
HETATM   36  C   UNL     1      -9.851   4.564  67.580  1.00  0.00    -0.191 A  
HETATM   37  C   UNL     1      -9.290   5.113  69.862  1.00  0.00    -0.196 A  
HETATM   38  C   UNL     1      -9.543   5.874  67.200  1.00  0.00    -0.136 A  
ENDBRANCH  23  32
ENDBRANCH  17  18
ENDBRANCH   2  17
TORSDOF 6
ENDMDL
MODEL      265
REMARK 921   NORMALIZED FREE ENERGY PREDICTED BY IDOCK:   -3.42 KCAL/MOL
REMARK 922        TOTAL FREE ENERGY PREDICTED BY IDOCK:   -6.76 KCAL/MOL
REMARK 923 INTER-LIGAND FREE ENERGY PREDICTED BY IDOCK:   -7.94 KCAL/MOL
REMARK 924 INTRA-LIGAND FREE ENERGY PREDICTED BY IDOCK:    1.18 KCAL/MOL
REMARK 927      BINDING AFFINITY PREDICTED BY RF-SCORE:    0.00 PKD
ROOT
HETATM    1  C   UNL     1     -10.658   8.617  66.707  1.00  0.00    -0.223 C  
HETATM    2  C   UNL     1      -9.840   9.656  67.488  1.00  0.00    -0.169 C  
ENDROOT
BRANCH   2   3
HETATM    3  C   UNL     1     -10.018  11.092  66.968  1.00  0.00    -0.223 A  
HETATM    4  C   UNL     1      -9.148  12.135  67.338  1.00  0.00    -0.181 A  
HETATM    5  C   UNL     1     -11.085  11.407  66.107  1.00  0.00    -0.259 A  
HETATM    6  F   UNL     1      -7.075  14.257  66.964  1.00  0.00    -0.146 F  
HETATM    7  F   UNL     1      -8.638  15.759  66.800  1.00  0.00    -0.205 F  
HETATM    8  C   UNL     1     -11.284  12.718  65.630  1.00  0.00    -0.335 A  
HETATM    9  C   UNL     1     -12.446  13.060  64.725  1.00  0.00    -0.427 C  
HETATM   10  C   UNL     1     -10.394  13.733  66.021  1.00  0.00    -0.311 A  
HETATM   11  F   UNL     1      -8.345  14.696  68.673  1.00  0.00    -0.140 F  
HETATM   12  F   UNL     1     -13.220  11.988  64.397  1.00  0.00    -0.481 F  
HETATM   13  F   UNL     1     -13.286  13.975  65.279  1.00  0.00    -0.461 F  
HETATM   14  F   UNL     1     -12.040  13.599  63.540  1.00  0.00    -0.503 F  
HETATM   15  C   UNL     1      -8.361  14.531  67.322  1.00  0.00    -0.212 C  
HETATM   16  C   UNL     1      -9.322  13.452  66.878  1.00  0.00    -0.253 A  
ENDBRANCH   2   3
BRANCH   2  17
HETATM   17  O   UNL     1      -8.474   9.231  67.726  1.00  0.00    -0.116 OA 
BRANCH  17  18
HETATM   18  C   UNL     1      -8.170   8.814  69.065  1.00  0.00    -0.117 C  
HETATM   19  C   UNL     1     -10.659   8.638  70.508  1.00  0.00    -0.217 C  
HETATM   20  C   UNL     1     -10.026   9.918  69.974  1.00  0.00    -0.254 C  
HETATM   21  O   UNL     1      -8.597   9.815  70.001  1.00  0.00    -0.193 OA 
HETATM   22  N   UNL     1     -10.297   7.421  69.725  1.00  0.00    -0.217 NA 
HETATM   23  C   UNL     1      -8.793   7.417  69.546  1.00  0.00    -0.137 C  
BRANCH  22  24
HETATM   24  C   UNL     1     -10.725   6.226  70.507  1.00  0.00    -0.269 C  
BRANCH  24  25
HETATM   25  C   UNL     1     -10.390   6.371  71.974  1.00  0.00    -0.197 C  
HETATM   26  N   UNL     1      -9.125   6.231  72.411  1.00  0.00    -0.139 NA 
HETATM   27  N   UNL     1     -11.257   6.644  72.911  1.00  0.00    -0.419 NA 
HETATM   28  O   UNL     1      -8.217   6.471  74.522  1.00  0.00    -0.123 OA 
HETATM   29  C   UNL     1      -9.158   6.461  73.751  1.00  0.00    -0.132 C  
HETATM   30  N   UNL     1     -10.495   6.697  74.049  1.00  0.00    -0.340 NA 
HETATM   31  H   UNL     1     -12.263   6.786  72.818  1.00  0.00     0.000 HD 
ENDBRANCH  24  25
ENDBRANCH  22  24
BRANCH  23  32
HETATM   32  C   UNL     1      -8.265   6.183  68.809  1.00  0.00    -0.108 A  
HETATM   33  C   UNL     1      -7.393   3.756  67.680  1.00  0.00    -0.067 A  
HETATM   34  F   UNL     1      -7.010   2.585  67.159  1.00  0.00    -0.044 F  
HETATM   35  C   UNL     1      -8.832   5.707  67.618  1.00  0.00    -0.105 A  
HETATM   36  C   UNL     1      -6.797   4.219  68.843  1.00  0.00    -0.047 A  
HETATM   37  C   UNL     1      -8.400   4.495  67.059  1.00  0.00    -0.105 A  
HETATM   38  C   UNL     1      -7.227   5.427  69.401  1.00  0.00    -0.065 A  
ENDBRANCH  23  32
ENDBRANCH  17  18
ENDBRANCH   2  17
TORSDOF 6
ENDMDL
MODEL      266
REMARK 921   NORMALIZED FREE ENERGY PREDICTED BY IDOCK:   -3.42 KCAL/MOL
REMARK 922        TOTAL FREE ENERGY PREDICTED BY IDOCK:   -6.75 KCAL/MOL
REMARK 923 INTER-LIGAND FREE ENERGY PREDICTED BY IDOCK:   -8.08 KCAL/MOL
REMARK 924 INTRA-LIGAND FREE ENERGY PREDICTED BY IDOCK:    1.33 KCAL/MOL
REMARK 927      BINDING AFFINITY PREDICTED BY RF-SCORE:    0.00 PKD
ROOT
HETATM    1  C   UNL     1      -7.379   8.016  70.794  1.00  0.00    -0.057 C  
HETATM    2  C   UNL     1      -8.520   8.964  71.191  1.00  0.00    -0.198 C  
ENDROOT
BRANCH   2   3
HETATM    3  C   UNL     1      -9.790   8.231  71.657  1.00  0.00    -0.263 A  
HETATM    4  C   UNL     1      -9.747   6.932  72.196  1.00  0.00    -0.158 A  
HETATM    5  C   UNL     1     -11.048   8.848  71.537  1.00  0.00    -0.397 A  
HETATM    6  F   UNL     1     -10.017   4.803  74.280  1.00  0.00    -0.148 F  
HETATM    7  F   UNL     1     -11.997   4.316  73.528  1.00  0.00    -0.311 F  
HETATM    8  C   UNL     1     -12.230   8.193  71.940  1.00  0.00    -0.373 A  
HETATM    9  C   UNL     1     -13.584   8.847  71.787  1.00  0.00    -0.412 C  
HETATM   10  C   UNL     1     -12.148   6.896  72.474  1.00  0.00    -0.024 A  
HETATM   11  F   UNL     1     -10.249   3.978  72.282  1.00  0.00    -0.226 F  
HETATM   12  F   UNL     1     -13.529  10.112  71.282  1.00  0.00    -0.413 F  
HETATM   13  F   UNL     1     -14.410   8.148  70.963  1.00  0.00    -0.365 F  
HETATM   14  F   UNL     1     -14.247   8.953  72.974  1.00  0.00    -0.414 F  
HETATM   15  C   UNL     1     -10.800   4.855  73.166  1.00  0.00    -0.282 C  
HETATM   16  C   UNL     1     -10.910   6.255  72.605  1.00  0.00    -0.273 A  
ENDBRANCH   2   3
BRANCH   2  17
HETATM   17  O   UNL     1      -8.720  10.035  70.234  1.00  0.00    -0.114 OA 
BRANCH  17  18
HETATM   18  C   UNL     1      -8.286   9.770  68.893  1.00  0.00    -0.117 C  
HETATM   19  C   UNL     1     -10.640   9.406  67.271  1.00  0.00    -0.244 C  
HETATM   20  C   UNL     1     -10.177   8.482  68.392  1.00  0.00    -0.203 C  
HETATM   21  O   UNL     1      -8.747   8.477  68.473  1.00  0.00    -0.137 OA 
HETATM   22  N   UNL     1     -10.210  10.823  67.449  1.00  0.00    -0.195 NA 
HETATM   23  C   UNL     1      -8.730  10.821  67.767  1.00  0.00    -0.130 C  
BRANCH  22  24
HETATM   24  C   UNL     1     -10.461  11.544  66.169  1.00  0.00    -0.251 C  
BRANCH  24  25
HETATM   25  C   UNL     1      -9.668  10.949  65.029  1.00  0.00    -0.267 C  
HETATM   26  N   UNL     1      -9.237   9.675  65.079  1.00  0.00    -0.239 NA 
HETATM   27  N   UNL     1      -9.350  11.584  63.934  1.00  0.00    -0.441 NA 
HETATM   28  O   UNL     1      -8.102   8.399  63.523  1.00  0.00    -0.157 OA 
HETATM   29  C   UNL     1      -8.604   9.441  63.898  1.00  0.00    -0.210 C  
HETATM   30  N   UNL     1      -8.665  10.645  63.206  1.00  0.00    -0.182 NA 
HETATM   31  H   UNL     1      -9.561  12.549  63.679  1.00  0.00     0.000 HD 
ENDBRANCH  24  25
ENDBRANCH  22  24
BRANCH  23  32
HETATM   32  C   UNL     1      -8.130  12.222  67.915  1.00  0.00    -0.155 A  
HETATM   33  C   UNL     1      -7.010  14.805  67.895  1.00  0.00    -0.160 A  
HETATM   34  F   UNL     1      -6.498  16.040  67.851  1.00  0.00    -0.110 F  
HETATM   35  C   UNL     1      -8.873  13.324  68.362  1.00  0.00    -0.124 A  
HETATM   36  C   UNL     1      -6.247  13.728  67.473  1.00  0.00    -0.030 A  
HETATM   37  C   UNL     1      -8.315  14.611  68.347  1.00  0.00    -0.157 A  
HETATM   38  C   UNL     1      -6.801  12.444  67.488  1.00  0.00    -0.143 A  
ENDBRANCH  23  32
ENDBRANCH  17  18
ENDBRANCH   2  17
TORSDOF 6
ENDMDL
MODEL      267
REMARK 921   NORMALIZED FREE ENERGY PREDICTED BY IDOCK:   -3.40 KCAL/MOL
REMARK 922        TOTAL FREE ENERGY PREDICTED BY IDOCK:   -6.72 KCAL/MOL
REMARK 923 INTER-LIGAND FREE ENERGY PREDICTED BY IDOCK:   -5.91 KCAL/MOL
REMARK 924 INTRA-LIGAND FREE ENERGY PREDICTED BY IDOCK:   -0.81 KCAL/MOL
REMARK 927      BINDING AFFINITY PREDICTED BY RF-SCORE:    0.00 PKD
ROOT
HETATM    1  C   UNL     1      -5.325   7.294  68.983  1.00  0.00    -0.015 C  
HETATM    2  C   UNL     1      -6.692   7.994  69.014  1.00  0.00    -0.052 C  
ENDROOT
BRANCH   2   3
HETATM    3  C   UNL     1      -6.795   9.179  68.039  1.00  0.00    -0.069 A  
HETATM    4  C   UNL     1      -7.027   8.997  66.663  1.00  0.00    -0.081 A  
HETATM    5  C   UNL     1      -6.639  10.497  68.507  1.00  0.00    -0.055 A  
HETATM    6  F   UNL     1      -8.516   9.164  64.074  1.00  0.00    -0.159 F  
HETATM    7  F   UNL     1      -7.399  10.952  63.544  1.00  0.00     0.036 F  
HETATM    8  C   UNL     1      -6.710  11.601  67.633  1.00  0.00    -0.087 A  
HETATM    9  C   UNL     1      -6.517  13.014  68.133  1.00  0.00    -0.100 C  
HETATM   10  C   UNL     1      -6.944  11.380  66.265  1.00  0.00     0.072 A  
HETATM   11  F   UNL     1      -6.372   9.046  63.738  1.00  0.00    -0.084 F  
HETATM   12  F   UNL     1      -6.323  13.099  69.479  1.00  0.00    -0.098 F  
HETATM   13  F   UNL     1      -5.447  13.628  67.559  1.00  0.00    -0.110 F  
HETATM   14  F   UNL     1      -7.590  13.812  67.863  1.00  0.00    -0.103 F  
HETATM   15  C   UNL     1      -7.342   9.819  64.299  1.00  0.00    -0.129 C  
HETATM   16  C   UNL     1      -7.103  10.080  65.769  1.00  0.00    -0.117 A  
ENDBRANCH   2   3
BRANCH   2  17
HETATM   17  O   UNL     1      -7.169   8.236  70.362  1.00  0.00    -0.043 OA 
BRANCH  17  18
HETATM   18  C   UNL     1      -7.494   7.071  71.133  1.00  0.00    -0.081 C  
HETATM   19  C   UNL     1      -9.420   7.856  73.128  1.00  0.00    -0.278 C  
HETATM   20  C   UNL     1      -7.968   8.314  73.061  1.00  0.00    -0.140 C  
HETATM   21  O   UNL     1      -7.144   7.279  72.510  1.00  0.00    -0.067 OA 
HETATM   22  N   UNL     1      -9.997   7.505  71.798  1.00  0.00    -0.171 NA 
HETATM   23  C   UNL     1      -9.020   6.583  71.099  1.00  0.00    -0.145 C  
BRANCH  22  24
HETATM   24  C   UNL     1     -11.292   6.803  72.029  1.00  0.00    -0.272 C  
BRANCH  24  25
HETATM   25  C   UNL     1     -12.468   7.739  71.873  1.00  0.00    -0.314 C  
HETATM   26  N   UNL     1     -12.363   9.040  72.200  1.00  0.00    -0.377 NA 
HETATM   27  N   UNL     1     -13.641   7.390  71.417  1.00  0.00    -0.527 NA 
HETATM   28  O   UNL     1     -13.879  10.774  72.016  1.00  0.00    -0.036 OA 
HETATM   29  C   UNL     1     -13.566   9.604  71.906  1.00  0.00    -0.364 C  
HETATM   30  N   UNL     1     -14.355   8.560  71.439  1.00  0.00    -0.367 NA 
HETATM   31  H   UNL     1     -13.951   6.466  71.116  1.00  0.00     0.000 HD 
ENDBRANCH  24  25
ENDBRANCH  22  24
BRANCH  23  32
HETATM   32  C   UNL     1      -9.511   6.085  69.736  1.00  0.00    -0.173 A  
HETATM   33  C   UNL     1     -10.370   5.443  67.133  1.00  0.00    -0.236 A  
HETATM   34  F   UNL     1     -10.751   5.163  65.882  1.00  0.00    -0.272 F  
HETATM   35  C   UNL     1      -8.784   5.181  68.949  1.00  0.00    -0.096 A  
HETATM   36  C   UNL     1     -11.120   6.319  67.901  1.00  0.00    -0.360 A  
HETATM   37  C   UNL     1      -9.211   4.865  67.651  1.00  0.00    -0.138 A  
HETATM   38  C   UNL     1     -10.697   6.635  69.196  1.00  0.00    -0.304 A  
ENDBRANCH  23  32
ENDBRANCH  17  18
ENDBRANCH   2  17
TORSDOF 6
ENDMDL
MODEL      268
REMARK 921   NORMALIZED FREE ENERGY PREDICTED BY IDOCK:   -3.32 KCAL/MOL
REMARK 922        TOTAL FREE ENERGY PREDICTED BY IDOCK:   -6.62 KCAL/MOL
REMARK 923 INTER-LIGAND FREE ENERGY PREDICTED BY IDOCK:   -5.58 KCAL/MOL
REMARK 924 INTRA-LIGAND FREE ENERGY PREDICTED BY IDOCK:   -1.04 KCAL/MOL
REMARK 927      BINDING AFFINITY PREDICTED BY RF-SCORE:    0.00 PKD
ROOT
HETATM    1  C   UNL     1      -7.985   8.231  69.409  1.00  0.00    -0.113 C  
HETATM    2  C   UNL     1      -7.434   9.071  68.247  1.00  0.00    -0.083 C  
ENDROOT
BRANCH   2   3
HETATM    3  C   UNL     1      -7.984  10.507  68.216  1.00  0.00    -0.113 A  
HETATM    4  C   UNL     1      -7.141  11.632  68.285  1.00  0.00    -0.078 A  
HETATM    5  C   UNL     1      -9.370  10.732  68.133  1.00  0.00    -0.155 A  
HETATM    6  F   UNL     1      -5.795  14.128  67.337  1.00  0.00    -0.104 F  
HETATM    7  F   UNL     1      -7.306  15.327  68.340  1.00  0.00    -0.106 F  
HETATM    8  C   UNL     1      -9.903  12.038  68.121  1.00  0.00    -0.201 A  
HETATM    9  C   UNL     1     -11.394  12.278  68.057  1.00  0.00    -0.293 C  
HETATM   10  C   UNL     1      -9.030  13.136  68.191  1.00  0.00    -0.195 A  
HETATM   11  F   UNL     1      -5.946  14.095  69.506  1.00  0.00    -0.089 F  
HETATM   12  F   UNL     1     -12.132  11.136  67.967  1.00  0.00    -0.307 F  
HETATM   13  F   UNL     1     -11.862  12.942  69.149  1.00  0.00    -0.297 F  
HETATM   14  F   UNL     1     -11.753  13.035  66.981  1.00  0.00    -0.338 F  
HETATM   15  C   UNL     1      -6.689  14.112  68.365  1.00  0.00    -0.105 C  
HETATM   16  C   UNL     1      -7.646  12.944  68.276  1.00  0.00    -0.134 A  
ENDBRANCH   2   3
BRANCH   2  17
HETATM   17  O   UNL     1      -7.443   8.359  66.984  1.00  0.00    -0.086 OA 
BRANCH  17  18
HETATM   18  C   UNL     1      -8.703   8.306  66.302  1.00  0.00    -0.151 C  
HETATM   19  C   UNL     1      -8.361   6.650  63.967  1.00  0.00     0.159 C  
HETATM   20  C   UNL     1      -7.707   8.007  64.203  1.00  0.00    -0.129 C  
HETATM   21  O   UNL     1      -8.570   8.848  64.979  1.00  0.00    -0.168 OA 
HETATM   22  N   UNL     1      -8.670   5.911  65.225  1.00  0.00    -0.117 NA 
HETATM   23  C   UNL     1      -9.388   6.864  66.158  1.00  0.00    -0.042 C  
BRANCH  22  24
HETATM   24  C   UNL     1      -9.558   4.764  64.878  1.00  0.00    -0.009 C  
BRANCH  24  25
HETATM   25  C   UNL     1      -8.793   3.461  64.835  1.00  0.00    -0.123 C  
HETATM   26  N   UNL     1      -7.766   3.292  63.983  1.00  0.00    -0.075 NA 
HETATM   27  N   UNL     1      -9.042   2.428  65.594  1.00  0.00    -0.214 NA 
HETATM   28  O   UNL     1      -6.317   1.515  63.693  1.00  0.00    -0.013 OA 
HETATM   29  C   UNL     1      -7.275   2.046  64.223  1.00  0.00    -0.056 C  
HETATM   30  N   UNL     1      -8.093   1.515  65.213  1.00  0.00    -0.073 NA 
HETATM   31  H   UNL     1      -9.769   2.325  66.302  1.00  0.00     0.000 HD 
ENDBRANCH  24  25
ENDBRANCH  22  24
BRANCH  23  32
HETATM   32  C   UNL     1      -9.828   6.220  67.476  1.00  0.00    -0.139 A  
HETATM   33  C   UNL     1     -10.391   5.147  70.017  1.00  0.00    -0.276 A  
HETATM   34  F   UNL     1     -10.643   4.669  71.240  1.00  0.00    -0.234 F  
HETATM   35  C   UNL     1     -10.938   6.666  68.207  1.00  0.00    -0.321 A  
HETATM   36  C   UNL     1      -9.304   4.671  69.302  1.00  0.00    -0.207 A  
HETATM   37  C   UNL     1     -11.215   6.133  69.475  1.00  0.00    -0.482 A  
HETATM   38  C   UNL     1      -9.026   5.200  68.038  1.00  0.00    -0.117 A  
ENDBRANCH  23  32
ENDBRANCH  17  18
ENDBRANCH   2  17
TORSDOF 6
ENDMDL
MODEL      269
REMARK 921   NORMALIZED FREE ENERGY PREDICTED BY IDOCK:   -3.29 KCAL/MOL
REMARK 922        TOTAL FREE ENERGY PREDICTED BY IDOCK:   -6.58 KCAL/MOL
REMARK 923 INTER-LIGAND FREE ENERGY PREDICTED BY IDOCK:   -6.15 KCAL/MOL
REMARK 924 INTRA-LIGAND FREE ENERGY PREDICTED BY IDOCK:   -0.43 KCAL/MOL
REMARK 927      BINDING AFFINITY PREDICTED BY RF-SCORE:    0.00 PKD
ROOT
HETATM    1  C   UNL     1     -11.492  12.765  64.184  1.00  0.00    -0.450 C  
HETATM    2  C   UNL     1     -10.279  12.596  65.109  1.00  0.00    -0.280 C  
ENDROOT
BRANCH   2   3
HETATM    3  C   UNL     1      -9.670  11.184  65.069  1.00  0.00    -0.298 A  
HETATM    4  C   UNL     1     -10.116  10.154  65.919  1.00  0.00    -0.325 A  
HETATM    5  C   UNL     1      -8.623  10.889  64.178  1.00  0.00     0.057 A  
HETATM    6  F   UNL     1     -11.386   7.550  66.661  1.00  0.00    -0.147 F  
HETATM    7  F   UNL     1      -9.428   6.607  66.713  1.00  0.00    -0.146 F  
HETATM    8  C   UNL     1      -8.034   9.609  64.132  1.00  0.00    -0.143 A  
HETATM    9  C   UNL     1      -6.892   9.300  63.191  1.00  0.00    -0.090 C  
HETATM   10  C   UNL     1      -8.506   8.605  64.995  1.00  0.00    -0.192 A  
HETATM   11  F   UNL     1      -9.924   8.161  68.150  1.00  0.00    -0.171 F  
HETATM   12  F   UNL     1      -6.544  10.346  62.390  1.00  0.00    -0.117 F  
HETATM   13  F   UNL     1      -5.758   8.937  63.850  1.00  0.00    -0.066 F  
HETATM   14  F   UNL     1      -7.178   8.268  62.348  1.00  0.00    -0.091 F  
HETATM   15  C   UNL     1     -10.060   7.807  66.842  1.00  0.00    -0.286 C  
HETATM   16  C   UNL     1      -9.546   8.868  65.895  1.00  0.00    -0.293 A  
ENDBRANCH   2   3
BRANCH   2  17
HETATM   17  O   UNL     1     -10.495  13.158  66.429  1.00  0.00    -0.275 OA 
BRANCH  17  18
HETATM   18  C   UNL     1     -11.200  14.407  66.472  1.00  0.00    -0.340 C  
HETATM   19  C   UNL     1     -12.531  14.567  69.024  1.00  0.00     0.056 C  
HETATM   20  C   UNL     1     -12.853  13.578  67.910  1.00  0.00     1.510 C  
HETATM   21  O   UNL     1     -12.608  14.173  66.630  1.00  0.00    -0.349 OA 
HETATM   22  N   UNL     1     -11.111  15.024  69.024  1.00  0.00    -0.248 NA 
HETATM   23  C   UNL     1     -10.761  15.445  67.612  1.00  0.00    -0.292 C  
BRANCH  22  24
HETATM   24  C   UNL     1     -11.001  16.187  69.949  1.00  0.00    -0.362 C  
BRANCH  24  25
HETATM   25  C   UNL     1     -11.526  15.854  71.327  1.00  0.00    -0.430 C  
HETATM   26  N   UNL     1     -12.456  16.627  71.916  1.00  0.00     0.474 NA 
HETATM   27  N   UNL     1     -11.149  14.826  72.038  1.00  0.00    -0.198 NA 
HETATM   28  O   UNL     1     -13.558  16.398  73.935  1.00  0.00    -0.472 OA 
HETATM   29  C   UNL     1     -12.739  16.038  73.110  1.00  0.00    -0.515 C  
HETATM   30  N   UNL     1     -11.903  14.931  73.179  1.00  0.00    -0.223 NA 
HETATM   31  H   UNL     1     -10.459  14.113  71.800  1.00  0.00     0.000 HD 
ENDBRANCH  24  25
ENDBRANCH  22  24
BRANCH  23  32
HETATM   32  C   UNL     1      -9.341  16.002  67.470  1.00  0.00    -0.217 A  
HETATM   33  C   UNL     1      -6.640  16.747  67.194  1.00  0.00    -0.192 A  
HETATM   34  F   UNL     1      -5.351  17.069  67.040  1.00  0.00    -0.127 F  
HETATM   35  C   UNL     1      -8.906  16.695  66.331  1.00  0.00    -0.337 A  
HETATM   36  C   UNL     1      -7.051  16.085  68.341  1.00  0.00    -0.125 A  
HETATM   37  C   UNL     1      -7.559  17.062  66.194  1.00  0.00    -0.280 A  
HETATM   38  C   UNL     1      -8.393  15.720  68.481  1.00  0.00    -0.175 A  
ENDBRANCH  23  32
ENDBRANCH  17  18
ENDBRANCH   2  17
TORSDOF 6
ENDMDL
MODEL      270
REMARK 921   NORMALIZED FREE ENERGY PREDICTED BY IDOCK:   -3.23 KCAL/MOL
REMARK 922        TOTAL FREE ENERGY PREDICTED BY IDOCK:   -6.50 KCAL/MOL
REMARK 923 INTER-LIGAND FREE ENERGY PREDICTED BY IDOCK:   -5.64 KCAL/MOL
REMARK 924 INTRA-LIGAND FREE ENERGY PREDICTED BY IDOCK:   -0.86 KCAL/MOL
REMARK 927      BINDING AFFINITY PREDICTED BY RF-SCORE:    0.00 PKD
ROOT
HETATM    1  C   UNL     1      -5.126   5.687  68.324  1.00  0.00    -0.003 C  
HETATM    2  C   UNL     1      -6.410   6.525  68.231  1.00  0.00    -0.037 C  
ENDROOT
BRANCH   2   3
HETATM    3  C   UNL     1      -7.002   6.582  66.812  1.00  0.00    -0.067 A  
HETATM    4  C   UNL     1      -7.549   7.764  66.278  1.00  0.00    -0.087 A  
HETATM    5  C   UNL     1      -7.026   5.428  66.007  1.00  0.00    -0.066 A  
HETATM    6  F   UNL     1      -7.768  10.112  64.438  1.00  0.00    -0.134 F  
HETATM    7  F   UNL     1      -9.192   9.020  63.211  1.00  0.00    -0.136 F  
HETATM    8  C   UNL     1      -7.579   5.447  64.711  1.00  0.00    -0.084 A  
HETATM    9  C   UNL     1      -7.627   4.201  63.857  1.00  0.00    -0.073 C  
HETATM   10  C   UNL     1      -8.115   6.646  64.210  1.00  0.00    -0.044 A  
HETATM   11  F   UNL     1      -9.711   9.568  65.249  1.00  0.00    -0.330 F  
HETATM   12  F   UNL     1      -7.054   3.112  64.442  1.00  0.00    -0.050 F  
HETATM   13  F   UNL     1      -8.899   3.833  63.543  1.00  0.00    -0.093 F  
HETATM   14  F   UNL     1      -6.983   4.362  62.666  1.00  0.00    -0.032 F  
HETATM   15  C   UNL     1      -8.690   9.108  64.474  1.00  0.00    -0.160 C  
HETATM   16  C   UNL     1      -8.107   7.811  64.988  1.00  0.00    -0.139 A  
ENDBRANCH   2   3
BRANCH   2  17
HETATM   17  O   UNL     1      -6.306   7.792  68.928  1.00  0.00    -0.035 OA 
BRANCH  17  18
HETATM   18  C   UNL     1      -6.836   7.822  70.260  1.00  0.00    -0.046 C  
HETATM   19  C   UNL     1      -8.962   9.767  70.309  1.00  0.00    -0.150 C  
HETATM   20  C   UNL     1      -7.482  10.068  70.097  1.00  0.00    -0.166 C  
HETATM   21  O   UNL     1      -6.676   9.133  70.824  1.00  0.00    -0.063 OA 
HETATM   22  N   UNL     1      -9.365   8.404  69.858  1.00  0.00    -0.154 NA 
HETATM   23  C   UNL     1      -8.375   7.414  70.436  1.00  0.00    -0.129 C  
BRANCH  22  24
HETATM   24  C   UNL     1     -10.733   8.131  70.382  1.00  0.00    -0.232 C  
BRANCH  24  25
HETATM   25  C   UNL     1     -11.550   9.397  70.494  1.00  0.00    -0.235 C  
HETATM   26  N   UNL     1     -12.148   9.733  71.651  1.00  0.00    -0.398 NA 
HETATM   27  N   UNL     1     -11.736  10.250  69.523  1.00  0.00    -0.442 NA 
HETATM   28  O   UNL     1     -13.378  11.600  72.234  1.00  0.00    -0.443 OA 
HETATM   29  C   UNL     1     -12.758  10.929  71.432  1.00  0.00    -0.434 C  
HETATM   30  N   UNL     1     -12.509  11.227  70.097  1.00  0.00    -0.253 NA 
HETATM   31  H   UNL     1     -11.388  10.202  68.565  1.00  0.00     0.000 HD 
ENDBRANCH  24  25
ENDBRANCH  22  24
BRANCH  23  32
HETATM   32  C   UNL     1      -8.701   5.955  70.106  1.00  0.00    -0.141 A  
HETATM   33  C   UNL     1      -9.457   3.266  69.749  1.00  0.00    -0.142 A  
HETATM   34  F   UNL     1      -9.851   1.997  69.595  1.00  0.00    -0.129 F  
HETATM   35  C   UNL     1      -9.521   5.582  69.032  1.00  0.00    -0.167 A  
HETATM   36  C   UNL     1      -8.623   3.605  70.803  1.00  0.00    -0.111 A  
HETATM   37  C   UNL     1      -9.901   4.243  68.857  1.00  0.00    -0.131 A  
HETATM   38  C   UNL     1      -8.244   4.939  70.978  1.00  0.00    -0.104 A  
ENDBRANCH  23  32
ENDBRANCH  17  18
ENDBRANCH   2  17
TORSDOF 6
ENDMDL
MODEL      271
REMARK 921   NORMALIZED FREE ENERGY PREDICTED BY IDOCK:   -3.13 KCAL/MOL
REMARK 922        TOTAL FREE ENERGY PREDICTED BY IDOCK:   -6.37 KCAL/MOL
REMARK 923 INTER-LIGAND FREE ENERGY PREDICTED BY IDOCK:   -5.61 KCAL/MOL
REMARK 924 INTRA-LIGAND FREE ENERGY PREDICTED BY IDOCK:   -0.75 KCAL/MOL
REMARK 927      BINDING AFFINITY PREDICTED BY RF-SCORE:    0.00 PKD
ROOT
HETATM    1  C   UNL     1      -7.985   8.231  69.409  1.00  0.00    -0.113 C  
HETATM    2  C   UNL     1      -7.434   9.071  68.247  1.00  0.00    -0.083 C  
ENDROOT
BRANCH   2   3
HETATM    3  C   UNL     1      -7.984  10.507  68.216  1.00  0.00    -0.113 A  
HETATM    4  C   UNL     1      -9.272  10.803  67.731  1.00  0.00    -0.155 A  
HETATM    5  C   UNL     1      -7.191  11.579  68.664  1.00  0.00    -0.102 A  
HETATM    6  F   UNL     1     -12.117  11.717  67.847  1.00  0.00    -0.349 F  
HETATM    7  F   UNL     1     -11.515  13.688  67.157  1.00  0.00    -0.302 F  
HETATM    8  C   UNL     1      -7.663  12.907  68.630  1.00  0.00    -0.067 A  
HETATM    9  C   UNL     1      -6.801  14.061  69.089  1.00  0.00    -0.112 C  
HETATM   10  C   UNL     1      -8.955  13.164  68.140  1.00  0.00    -0.195 A  
HETATM   11  F   UNL     1     -11.296  11.966  65.850  1.00  0.00    -0.349 F  
HETATM   12  F   UNL     1      -5.583  13.681  69.565  1.00  0.00    -0.082 F  
HETATM   13  F   UNL     1      -6.553  14.954  68.092  1.00  0.00    -0.092 F  
HETATM   14  F   UNL     1      -7.383  14.778  70.092  1.00  0.00    -0.157 F  
HETATM   15  C   UNL     1     -11.155  12.374  67.141  1.00  0.00    -0.280 C  
HETATM   16  C   UNL     1      -9.767  12.118  67.685  1.00  0.00    -0.188 A  
ENDBRANCH   2   3
BRANCH   2  17
HETATM   17  O   UNL     1      -7.443   8.359  66.984  1.00  0.00    -0.086 OA 
BRANCH  17  18
HETATM   18  C   UNL     1      -8.703   8.306  66.302  1.00  0.00    -0.151 C  
HETATM   19  C   UNL     1      -8.361   6.650  63.967  1.00  0.00     0.159 C  
HETATM   20  C   UNL     1      -7.707   8.007  64.203  1.00  0.00    -0.129 C  
HETATM   21  O   UNL     1      -8.570   8.848  64.979  1.00  0.00    -0.168 OA 
HETATM   22  N   UNL     1      -8.670   5.911  65.225  1.00  0.00    -0.117 NA 
HETATM   23  C   UNL     1      -9.388   6.864  66.158  1.00  0.00    -0.042 C  
BRANCH  22  24
HETATM   24  C   UNL     1      -9.558   4.764  64.878  1.00  0.00    -0.009 C  
BRANCH  24  25
HETATM   25  C   UNL     1      -8.793   3.461  64.835  1.00  0.00    -0.123 C  
HETATM   26  N   UNL     1      -7.766   3.292  63.983  1.00  0.00    -0.075 NA 
HETATM   27  N   UNL     1      -9.042   2.428  65.594  1.00  0.00    -0.214 NA 
HETATM   28  O   UNL     1      -6.317   1.515  63.693  1.00  0.00    -0.013 OA 
HETATM   29  C   UNL     1      -7.275   2.046  64.223  1.00  0.00    -0.056 C  
HETATM   30  N   UNL     1      -8.093   1.515  65.213  1.00  0.00    -0.073 NA 
HETATM   31  H   UNL     1      -9.769   2.325  66.302  1.00  0.00     0.000 HD 
ENDBRANCH  24  25
ENDBRANCH  22  24
BRANCH  23  32
HETATM   32  C   UNL     1      -9.828   6.220  67.476  1.00  0.00    -0.139 A  
HETATM   33  C   UNL     1     -10.391   5.147  70.017  1.00  0.00    -0.276 A  
HETATM   34  F   UNL     1     -10.643   4.669  71.240  1.00  0.00    -0.234 F  
HETATM   35  C   UNL     1     -10.938   6.666  68.207  1.00  0.00    -0.321 A  
HETATM   36  C   UNL     1      -9.304   4.671  69.302  1.00  0.00    -0.207 A  
HETATM   37  C   UNL     1     -11.215   6.133  69.475  1.00  0.00    -0.482 A  
HETATM   38  C   UNL     1      -9.026   5.200  68.038  1.00  0.00    -0.117 A  
ENDBRANCH  23  32
ENDBRANCH  17  18
ENDBRANCH   2  17
TORSDOF 6
ENDMDL
MODEL      272
REMARK 921   NORMALIZED FREE ENERGY PREDICTED BY IDOCK:   -3.09 KCAL/MOL
REMARK 922        TOTAL FREE ENERGY PREDICTED BY IDOCK:   -6.30 KCAL/MOL
REMARK 923 INTER-LIGAND FREE ENERGY PREDICTED BY IDOCK:   -4.55 KCAL/MOL
REMARK 924 INTRA-LIGAND FREE ENERGY PREDICTED BY IDOCK:   -1.75 KCAL/MOL
REMARK 927      BINDING AFFINITY PREDICTED BY RF-SCORE:    0.00 PKD
ROOT
HETATM    1  C   UNL     1     -11.340   7.592  68.421  1.00  0.00     0.634 C  
HETATM    2  C   UNL     1     -10.562   8.872  68.760  1.00  0.00    -0.157 C  
ENDROOT
BRANCH   2   3
HETATM    3  C   UNL     1     -10.301   9.771  67.540  1.00  0.00    -0.291 A  
HETATM    4  C   UNL     1      -9.547   9.331  66.435  1.00  0.00    -0.301 A  
HETATM    5  C   UNL     1     -10.805  11.084  67.507  1.00  0.00    -0.314 A  
HETATM    6  F   UNL     1      -9.019   8.530  63.603  1.00  0.00    -0.020 F  
HETATM    7  F   UNL     1      -8.298  10.535  63.168  1.00  0.00    -0.156 F  
HETATM    8  C   UNL     1     -10.565  11.936  66.409  1.00  0.00    -0.284 A  
HETATM    9  C   UNL     1     -11.087  13.355  66.386  1.00  0.00    -0.299 C  
HETATM   10  C   UNL     1      -9.809  11.462  65.324  1.00  0.00    -0.290 A  
HETATM   11  F   UNL     1      -7.210   9.267  64.559  1.00  0.00    -0.094 F  
HETATM   12  F   UNL     1     -11.826  13.687  67.481  1.00  0.00    -0.337 F  
HETATM   13  F   UNL     1     -10.087  14.275  66.314  1.00  0.00    -0.262 F  
HETATM   14  F   UNL     1     -11.890  13.596  65.311  1.00  0.00    -0.318 F  
HETATM   15  C   UNL     1      -8.464   9.635  64.177  1.00  0.00    -0.180 C  
HETATM   16  C   UNL     1      -9.292  10.160  65.328  1.00  0.00    -0.278 A  
ENDBRANCH   2   3
BRANCH   2  17
HETATM   17  O   UNL     1      -9.424   8.625  69.624  1.00  0.00    -0.160 OA 
BRANCH  17  18
HETATM   18  C   UNL     1      -8.132   8.840  69.037  1.00  0.00    -0.116 C  
HETATM   19  C   UNL     1      -6.155   7.963  70.941  1.00  0.00    -0.034 C  
HETATM   20  C   UNL     1      -7.093   9.152  71.113  1.00  0.00    -0.075 C  
HETATM   21  O   UNL     1      -7.371   9.753  69.842  1.00  0.00    -0.097 OA 
HETATM   22  N   UNL     1      -6.706   6.889  70.066  1.00  0.00    -0.050 NA 
HETATM   23  C   UNL     1      -7.221   7.543  68.800  1.00  0.00    -0.082 C  
BRANCH  22  24
HETATM   24  C   UNL     1      -5.599   5.944  69.743  1.00  0.00    -0.012 C  
BRANCH  24  25
HETATM   25  C   UNL     1      -5.879   4.556  70.273  1.00  0.00    -0.013 C  
HETATM   26  N   UNL     1      -6.942   4.321  71.063  1.00  0.00    -0.035 NA 
HETATM   27  N   UNL     1      -5.153   3.502  70.016  1.00  0.00    -0.004 NA 
HETATM   28  O   UNL     1      -7.744   2.355  71.975  1.00  0.00    -0.046 OA 
HETATM   29  C   UNL     1      -6.931   2.986  71.326  1.00  0.00    -0.032 C  
HETATM   30  N   UNL     1      -5.800   2.496  70.685  1.00  0.00    -0.017 NA 
HETATM   31  H   UNL     1      -4.305   3.442  69.452  1.00  0.00     0.000 HD 
ENDBRANCH  24  25
ENDBRANCH  22  24
BRANCH  23  32
HETATM   32  C   UNL     1      -7.764   6.548  67.771  1.00  0.00    -0.107 A  
HETATM   33  C   UNL     1      -9.016   4.866  65.892  1.00  0.00    -0.134 A  
HETATM   34  F   UNL     1      -9.631   4.098  64.985  1.00  0.00    -0.140 F  
HETATM   35  C   UNL     1      -7.319   6.509  66.441  1.00  0.00    -0.074 A  
HETATM   36  C   UNL     1      -9.456   4.866  67.206  1.00  0.00    -0.157 A  
HETATM   37  C   UNL     1      -7.947   5.674  65.505  1.00  0.00    -0.113 A  
HETATM   38  C   UNL     1      -8.832   5.698  68.140  1.00  0.00    -0.108 A  
ENDBRANCH  23  32
ENDBRANCH  17  18
ENDBRANCH   2  17
TORSDOF 6
ENDMDL
MODEL      273
REMARK 921   NORMALIZED FREE ENERGY PREDICTED BY IDOCK:   -3.08 KCAL/MOL
REMARK 922        TOTAL FREE ENERGY PREDICTED BY IDOCK:   -6.30 KCAL/MOL
REMARK 923 INTER-LIGAND FREE ENERGY PREDICTED BY IDOCK:   -5.63 KCAL/MOL
REMARK 924 INTRA-LIGAND FREE ENERGY PREDICTED BY IDOCK:   -0.67 KCAL/MOL
REMARK 927      BINDING AFFINITY PREDICTED BY RF-SCORE:    0.00 PKD
ROOT
HETATM    1  C   UNL     1      -5.127   5.579  68.552  1.00  0.00     0.000 C  
HETATM    2  C   UNL     1      -6.522   6.213  68.453  1.00  0.00    -0.053 C  
ENDROOT
BRANCH   2   3
HETATM    3  C   UNL     1      -6.943   6.544  67.011  1.00  0.00    -0.068 A  
HETATM    4  C   UNL     1      -7.185   5.540  66.054  1.00  0.00    -0.076 A  
HETATM    5  C   UNL     1      -7.083   7.883  66.604  1.00  0.00    -0.076 A  
HETATM    6  F   UNL     1      -8.781   3.880  64.146  1.00  0.00    -0.101 F  
HETATM    7  F   UNL     1      -8.141   5.150  62.502  1.00  0.00    -0.066 F  
HETATM    8  C   UNL     1      -7.449   8.216  65.284  1.00  0.00    -0.080 A  
HETATM    9  C   UNL     1      -7.574   9.656  64.840  1.00  0.00    -0.117 C  
HETATM   10  C   UNL     1      -7.684   7.187  64.356  1.00  0.00    -0.117 A  
HETATM   11  F   UNL     1      -6.685   3.940  63.570  1.00  0.00    -0.037 F  
HETATM   12  F   UNL     1      -7.348  10.558  65.836  1.00  0.00    -0.123 F  
HETATM   13  F   UNL     1      -6.705   9.971  63.843  1.00  0.00    -0.112 F  
HETATM   14  F   UNL     1      -8.816   9.944  64.355  1.00  0.00    -0.162 F  
HETATM   15  C   UNL     1      -7.786   4.721  63.746  1.00  0.00    -0.085 C  
HETATM   16  C   UNL     1      -7.552   5.844  64.731  1.00  0.00    -0.088 A  
ENDBRANCH   2   3
BRANCH   2  17
HETATM   17  O   UNL     1      -6.735   7.261  69.434  1.00  0.00    -0.046 OA 
BRANCH  17  18
HETATM   18  C   UNL     1      -7.231   6.835  70.710  1.00  0.00    -0.070 C  
HETATM   19  C   UNL     1      -9.297   8.682  71.502  1.00  0.00    -0.249 C  
HETATM   20  C   UNL     1      -7.815   9.009  71.359  1.00  0.00    -0.039 C  
HETATM   21  O   UNL     1      -7.019   7.864  71.689  1.00  0.00    -0.059 OA 
HETATM   22  N   UNL     1      -9.751   7.570  70.619  1.00  0.00    -0.175 NA 
HETATM   23  C   UNL     1      -8.777   6.421  70.784  1.00  0.00    -0.140 C  
BRANCH  22  24
HETATM   24  C   UNL     1     -11.113   7.157  71.061  1.00  0.00    -0.260 C  
BRANCH  24  25
HETATM   25  C   UNL     1     -11.940   8.344  71.498  1.00  0.00    -0.299 C  
HETATM   26  N   UNL     1     -11.897   9.504  70.817  1.00  0.00    -0.283 NA 
HETATM   27  N   UNL     1     -12.746   8.351  72.525  1.00  0.00    -0.583 NA 
HETATM   28  O   UNL     1     -13.066  11.476  71.110  1.00  0.00    -0.277 OA 
HETATM   29  C   UNL     1     -12.775  10.340  71.435  1.00  0.00    -0.442 C  
HETATM   30  N   UNL     1     -13.279   9.614  72.507  1.00  0.00    -0.313 NA 
HETATM   31  H   UNL     1     -12.934   7.596  73.185  1.00  0.00     0.000 HD 
ENDBRANCH  24  25
ENDBRANCH  22  24
BRANCH  23  32
HETATM   32  C   UNL     1      -9.154   5.174  69.979  1.00  0.00    -0.163 A  
HETATM   33  C   UNL     1      -9.618   2.943  68.326  1.00  0.00    -0.052 A  
HETATM   34  F   UNL     1      -9.799   1.879  67.535  1.00  0.00    -0.090 F  
HETATM   35  C   UNL     1      -9.022   3.873  70.485  1.00  0.00    -0.160 A  
HETATM   36  C   UNL     1      -9.781   4.219  67.810  1.00  0.00    -0.179 A  
HETATM   37  C   UNL     1      -9.249   2.762  69.659  1.00  0.00    -0.206 A  
HETATM   38  C   UNL     1      -9.556   5.327  68.632  1.00  0.00    -0.183 A  
ENDBRANCH  23  32
ENDBRANCH  17  18
ENDBRANCH   2  17
TORSDOF 6
ENDMDL
MODEL      274
REMARK 921   NORMALIZED FREE ENERGY PREDICTED BY IDOCK:   -2.89 KCAL/MOL
REMARK 922        TOTAL FREE ENERGY PREDICTED BY IDOCK:   -6.03 KCAL/MOL
REMARK 923 INTER-LIGAND FREE ENERGY PREDICTED BY IDOCK:   -6.38 KCAL/MOL
REMARK 924 INTRA-LIGAND FREE ENERGY PREDICTED BY IDOCK:    0.35 KCAL/MOL
REMARK 927      BINDING AFFINITY PREDICTED BY RF-SCORE:    0.00 PKD
ROOT
HETATM    1  C   UNL     1     -11.174  12.780  64.519  1.00  0.00    -0.373 C  
HETATM    2  C   UNL     1     -10.080  12.557  65.573  1.00  0.00    -0.265 C  
ENDROOT
BRANCH   2   3
HETATM    3  C   UNL     1      -9.643  11.088  65.700  1.00  0.00    -0.265 A  
HETATM    4  C   UNL     1      -9.841  10.347  66.881  1.00  0.00    -0.236 A  
HETATM    5  C   UNL     1      -9.008  10.443  64.623  1.00  0.00    -0.235 A  
HETATM    6  F   UNL     1     -10.975   8.204  68.631  1.00  0.00    -0.147 F  
HETATM    7  F   UNL     1      -9.210   6.984  68.284  1.00  0.00    -0.130 F  
HETATM    8  C   UNL     1      -8.580   9.102  64.717  1.00  0.00    -0.209 A  
HETATM    9  C   UNL     1      -7.875   8.419  63.568  1.00  0.00    -0.152 C  
HETATM   10  C   UNL     1      -8.796   8.395  65.912  1.00  0.00    -0.212 A  
HETATM   11  F   UNL     1      -9.036   8.865  69.358  1.00  0.00    -0.135 F  
HETATM   12  F   UNL     1      -7.749   9.199  62.458  1.00  0.00    -0.111 F  
HETATM   13  F   UNL     1      -6.615   8.021  63.893  1.00  0.00    -0.063 F  
HETATM   14  F   UNL     1      -8.525   7.293  63.156  1.00  0.00    -0.050 F  
HETATM   15  C   UNL     1      -9.655   8.271  68.301  1.00  0.00    -0.147 C  
HETATM   16  C   UNL     1      -9.425   9.010  67.002  1.00  0.00    -0.212 A  
ENDBRANCH   2   3
BRANCH   2  17
HETATM   17  O   UNL     1     -10.350  13.249  66.819  1.00  0.00    -0.253 OA 
BRANCH  17  18
HETATM   18  C   UNL     1     -10.961  14.541  66.701  1.00  0.00    -0.321 C  
HETATM   19  C   UNL     1     -12.040  15.234  69.282  1.00  0.00    -0.249 C  
HETATM   20  C   UNL     1     -12.530  14.103  68.384  1.00  0.00     0.252 C  
HETATM   21  O   UNL     1     -12.361  14.454  67.005  1.00  0.00    -0.353 OA 
HETATM   22  N   UNL     1     -10.599  15.566  69.091  1.00  0.00    -0.221 NA 
HETATM   23  C   UNL     1     -10.351  15.715  67.605  1.00  0.00    -0.275 C  
BRANCH  22  24
HETATM   24  C   UNL     1     -10.327  16.854  69.791  1.00  0.00    -0.021 C  
BRANCH  24  25
HETATM   25  C   UNL     1     -10.518  18.038  68.871  1.00  0.00    -0.107 C  
HETATM   26  N   UNL     1      -9.573  18.991  68.769  1.00  0.00    -0.390 NA 
HETATM   27  N   UNL     1     -11.565  18.233  68.117  1.00  0.00     0.758 NA 
HETATM   28  O   UNL     1      -9.456  20.868  67.426  1.00  0.00    -0.401 OA 
HETATM   29  C   UNL     1     -10.027  19.878  67.842  1.00  0.00    -0.422 C  
HETATM   30  N   UNL     1     -11.276  19.402  67.461  1.00  0.00    -0.156 NA 
HETATM   31  H   UNL     1     -12.400  17.652  68.034  1.00  0.00     0.000 HD 
ENDBRANCH  24  25
ENDBRANCH  22  24
BRANCH  23  32
HETATM   32  C   UNL     1      -8.915  16.121  67.259  1.00  0.00    -0.210 A  
HETATM   33  C   UNL     1      -6.353  17.142  66.694  1.00  0.00    -0.219 A  
HETATM   34  F   UNL     1      -5.140  17.653  66.456  1.00  0.00    -0.135 F  
HETATM   35  C   UNL     1      -7.808  15.729  68.023  1.00  0.00    -0.138 A  
HETATM   36  C   UNL     1      -7.427  17.525  65.907  1.00  0.00    -0.162 A  
HETATM   37  C   UNL     1      -6.532  16.241  67.744  1.00  0.00    -0.161 A  
HETATM   38  C   UNL     1      -8.699  17.015  66.184  1.00  0.00    -0.254 A  
ENDBRANCH  23  32
ENDBRANCH  17  18
ENDBRANCH   2  17
TORSDOF 6
ENDMDL
MODEL      275
REMARK 921   NORMALIZED FREE ENERGY PREDICTED BY IDOCK:   -2.84 KCAL/MOL
REMARK 922        TOTAL FREE ENERGY PREDICTED BY IDOCK:   -5.97 KCAL/MOL
REMARK 923 INTER-LIGAND FREE ENERGY PREDICTED BY IDOCK:   -5.01 KCAL/MOL
REMARK 924 INTRA-LIGAND FREE ENERGY PREDICTED BY IDOCK:   -0.95 KCAL/MOL
REMARK 927      BINDING AFFINITY PREDICTED BY RF-SCORE:    0.00 PKD
ROOT
HETATM    1  C   UNL     1      -6.623   9.270  68.648  1.00  0.00    -0.053 C  
HETATM    2  C   UNL     1      -7.674   8.173  68.873  1.00  0.00    -0.103 C  
ENDROOT
BRANCH   2   3
HETATM    3  C   UNL     1      -7.883   7.266  67.649  1.00  0.00    -0.113 A  
HETATM    4  C   UNL     1      -8.927   6.324  67.587  1.00  0.00    -0.115 A  
HETATM    5  C   UNL     1      -7.009   7.347  66.549  1.00  0.00    -0.070 A  
HETATM    6  F   UNL     1     -11.459   5.078  66.595  1.00  0.00     0.261 F  
HETATM    7  F   UNL     1     -10.306   3.732  65.336  1.00  0.00    -0.143 F  
HETATM    8  C   UNL     1      -7.167   6.515  65.422  1.00  0.00    -0.073 A  
HETATM    9  C   UNL     1      -6.212   6.586  64.252  1.00  0.00    -0.037 C  
HETATM   10  C   UNL     1      -8.221   5.587  65.395  1.00  0.00    -0.133 A  
HETATM   11  F   UNL     1     -10.156   3.591  67.500  1.00  0.00    -0.131 F  
HETATM   12  F   UNL     1      -5.250   7.541  64.385  1.00  0.00    -0.028 F  
HETATM   13  F   UNL     1      -5.552   5.414  64.046  1.00  0.00    -0.015 F  
HETATM   14  F   UNL     1      -6.848   6.864  63.078  1.00  0.00    -0.046 F  
HETATM   15  C   UNL     1     -10.240   4.480  66.473  1.00  0.00    -0.191 C  
HETATM   16  C   UNL     1      -9.107   5.481  66.475  1.00  0.00    -0.138 A  
ENDBRANCH   2   3
BRANCH   2  17
HETATM   17  O   UNL     1      -8.878   8.669  69.510  1.00  0.00    -0.140 OA 
BRANCH  17  18
HETATM   18  C   UNL     1     -10.070   8.638  68.712  1.00  0.00    -0.196 C  
HETATM   19  C   UNL     1     -11.714  10.865  69.513  1.00  0.00    -0.328 C  
HETATM   20  C   UNL     1     -11.371   9.654  70.374  1.00  0.00    -0.277 C  
HETATM   21  O   UNL     1     -11.223   8.488  69.554  1.00  0.00    -0.040 OA 
HETATM   22  N   UNL     1     -10.677  11.183  68.490  1.00  0.00    -0.188 NA 
HETATM   23  C   UNL     1     -10.337   9.900  67.761  1.00  0.00    -0.221 C  
BRANCH  22  24
HETATM   24  C   UNL     1     -11.256  12.176  67.541  1.00  0.00    -0.297 C  
BRANCH  24  25
HETATM   25  C   UNL     1     -11.596  13.476  68.233  1.00  0.00    -0.346 C  
HETATM   26  N   UNL     1     -10.928  13.867  69.334  1.00  0.00    -0.179 NA 
HETATM   27  N   UNL     1     -12.520  14.309  67.838  1.00  0.00    -0.496 NA 
HETATM   28  O   UNL     1     -11.087  15.797  70.595  1.00  0.00    -0.318 OA 
HETATM   29  C   UNL     1     -11.440  15.080  69.678  1.00  0.00    -0.294 C  
HETATM   30  N   UNL     1     -12.443  15.330  68.749  1.00  0.00     0.107 NA 
HETATM   31  H   UNL     1     -13.150  14.221  67.040  1.00  0.00     0.000 HD 
ENDBRANCH  24  25
ENDBRANCH  22  24
BRANCH  23  32
HETATM   32  C   UNL     1      -9.323  10.085  66.629  1.00  0.00    -0.202 A  
HETATM   33  C   UNL     1      -7.668  10.574  64.404  1.00  0.00     0.040 A  
HETATM   34  F   UNL     1      -6.900  10.841  63.342  1.00  0.00    -0.057 F  
HETATM   35  C   UNL     1      -8.184  10.894  66.752  1.00  0.00    -0.140 A  
HETATM   36  C   UNL     1      -8.773   9.750  64.263  1.00  0.00    -0.227 A  
HETATM   37  C   UNL     1      -7.363  11.140  65.642  1.00  0.00     0.258 A  
HETATM   38  C   UNL     1      -9.593   9.503  65.369  1.00  0.00    -0.342 A  
ENDBRANCH  23  32
ENDBRANCH  17  18
ENDBRANCH   2  17
TORSDOF 6
ENDMDL
MODEL      276
REMARK 921   NORMALIZED FREE ENERGY PREDICTED BY IDOCK:   -2.78 KCAL/MOL
REMARK 922        TOTAL FREE ENERGY PREDICTED BY IDOCK:   -5.89 KCAL/MOL
REMARK 923 INTER-LIGAND FREE ENERGY PREDICTED BY IDOCK:   -7.20 KCAL/MOL
REMARK 924 INTRA-LIGAND FREE ENERGY PREDICTED BY IDOCK:    1.32 KCAL/MOL
REMARK 927      BINDING AFFINITY PREDICTED BY RF-SCORE:    0.00 PKD
ROOT
HETATM    1  C   UNL     1     -10.717   8.559  66.784  1.00  0.00    -0.081 C  
HETATM    2  C   UNL     1     -10.126   9.657  67.679  1.00  0.00    -0.194 C  
ENDROOT
BRANCH   2   3
HETATM    3  C   UNL     1     -10.590  11.073  67.298  1.00  0.00    -0.287 A  
HETATM    4  C   UNL     1     -11.151  11.362  66.039  1.00  0.00    -0.235 A  
HETATM    5  C   UNL     1     -10.445  12.136  68.209  1.00  0.00    -0.225 A  
HETATM    6  F   UNL     1     -13.266  12.173  64.087  1.00  0.00    -0.505 F  
HETATM    7  F   UNL     1     -12.500  14.207  64.098  1.00  0.00    -0.452 F  
HETATM    8  C   UNL     1     -10.845  13.447  67.879  1.00  0.00    -0.263 A  
HETATM    9  C   UNL     1     -10.666  14.592  68.849  1.00  0.00    -0.248 C  
HETATM   10  C   UNL     1     -11.402  13.697  66.613  1.00  0.00    -0.343 A  
HETATM   11  F   UNL     1     -11.280  12.591  63.308  1.00  0.00    -0.482 F  
HETATM   12  F   UNL     1     -10.140  14.218  70.049  1.00  0.00     0.174 F  
HETATM   13  F   UNL     1      -9.844  15.562  68.364  1.00  0.00    -0.201 F  
HETATM   14  F   UNL     1     -11.844  15.216  69.140  1.00  0.00    -0.292 F  
HETATM   15  C   UNL     1     -12.142  12.910  64.312  1.00  0.00    -0.419 C  
HETATM   16  C   UNL     1     -11.558  12.661  65.684  1.00  0.00    -0.418 A  
ENDBRANCH   2   3
BRANCH   2  17
HETATM   17  O   UNL     1      -8.702   9.494  67.905  1.00  0.00    -0.120 OA 
BRANCH  17  18
HETATM   18  C   UNL     1      -8.323   9.004  69.198  1.00  0.00    -0.123 C  
HETATM   19  C   UNL     1     -10.669   7.855  70.416  1.00  0.00    -0.233 C  
HETATM   20  C   UNL     1     -10.461   9.331  70.098  1.00  0.00    -0.230 C  
HETATM   21  O   UNL     1      -9.076   9.676  70.220  1.00  0.00    -0.235 OA 
HETATM   22  N   UNL     1      -9.913   6.938  69.515  1.00  0.00    -0.162 NA 
HETATM   23  C   UNL     1      -8.482   7.429  69.450  1.00  0.00    -0.133 C  
BRANCH  22  24
HETATM   24  C   UNL     1      -9.961   5.570  70.105  1.00  0.00    -0.221 C  
BRANCH  24  25
HETATM   25  C   UNL     1      -9.768   5.602  71.604  1.00  0.00    -0.159 C  
HETATM   26  N   UNL     1      -8.551   5.808  72.138  1.00  0.00    -0.129 NA 
HETATM   27  N   UNL     1     -10.724   5.449  72.480  1.00  0.00    -0.226 NA 
HETATM   28  O   UNL     1      -7.880   6.019  74.340  1.00  0.00    -0.100 OA 
HETATM   29  C   UNL     1      -8.726   5.822  73.488  1.00  0.00    -0.123 C  
HETATM   30  N   UNL     1     -10.080   5.576  73.684  1.00  0.00    -0.181 NA 
HETATM   31  H   UNL     1     -11.715   5.276  72.309  1.00  0.00     0.000 HD 
ENDBRANCH  24  25
ENDBRANCH  22  24
BRANCH  23  32
HETATM   32  C   UNL     1      -7.564   6.541  68.604  1.00  0.00    -0.097 A  
HETATM   33  C   UNL     1      -5.930   4.696  67.245  1.00  0.00    -0.023 A  
HETATM   34  F   UNL     1      -5.178   3.790  66.610  1.00  0.00    -0.010 F  
HETATM   35  C   UNL     1      -7.910   6.094  67.321  1.00  0.00    -0.102 A  
HETATM   36  C   UNL     1      -5.552   5.144  68.501  1.00  0.00    -0.015 A  
HETATM   37  C   UNL     1      -7.097   5.171  66.647  1.00  0.00    -0.069 A  
HETATM   38  C   UNL     1      -6.361   6.064  69.175  1.00  0.00    -0.041 A  
ENDBRANCH  23  32
ENDBRANCH  17  18
ENDBRANCH   2  17
TORSDOF 6
ENDMDL
MODEL      277
REMARK 921   NORMALIZED FREE ENERGY PREDICTED BY IDOCK:   -2.75 KCAL/MOL
REMARK 922        TOTAL FREE ENERGY PREDICTED BY IDOCK:   -5.84 KCAL/MOL
REMARK 923 INTER-LIGAND FREE ENERGY PREDICTED BY IDOCK:   -6.91 KCAL/MOL
REMARK 924 INTRA-LIGAND FREE ENERGY PREDICTED BY IDOCK:    1.07 KCAL/MOL
REMARK 927      BINDING AFFINITY PREDICTED BY RF-SCORE:    0.00 PKD
ROOT
HETATM    1  C   UNL     1      -9.699  13.241  66.119  1.00  0.00    -0.258 C  
HETATM    2  C   UNL     1      -9.138  12.687  67.436  1.00  0.00    -0.191 C  
ENDROOT
BRANCH   2   3
HETATM    3  C   UNL     1     -10.176  12.638  68.570  1.00  0.00    -0.207 A  
HETATM    4  C   UNL     1     -10.826  13.795  69.040  1.00  0.00    -0.247 A  
HETATM    5  C   UNL     1     -10.494  11.414  69.187  1.00  0.00    -0.159 A  
HETATM    6  F   UNL     1     -13.111  15.651  69.563  1.00  0.00     0.030 F  
HETATM    7  F   UNL     1     -13.304  14.851  71.575  1.00  0.00    -0.351 F  
HETATM    8  C   UNL     1     -11.428  11.342  70.241  1.00  0.00    -0.244 A  
HETATM    9  C   UNL     1     -11.749  10.030  70.920  1.00  0.00    -0.374 C  
HETATM   10  C   UNL     1     -12.057  12.518  70.683  1.00  0.00    -0.312 A  
HETATM   11  F   UNL     1     -11.515  15.948  71.009  1.00  0.00    -0.314 F  
HETATM   12  F   UNL     1     -11.095   8.961  70.385  1.00  0.00    -0.235 F  
HETATM   13  F   UNL     1     -11.437  10.038  72.244  1.00  0.00     0.075 F  
HETATM   14  F   UNL     1     -13.076   9.723  70.854  1.00  0.00    -0.378 F  
HETATM   15  C   UNL     1     -12.416  15.032  70.558  1.00  0.00    -0.371 C  
HETATM   16  C   UNL     1     -11.761  13.752  70.090  1.00  0.00    -0.303 A  
ENDBRANCH   2   3
BRANCH   2  17
HETATM   17  O   UNL     1      -7.848  13.253  67.780  1.00  0.00    -0.128 OA 
BRANCH  17  18
HETATM   18  C   UNL     1      -6.712  12.404  67.566  1.00  0.00    -0.146 C  
HETATM   19  C   UNL     1      -6.698  10.423  69.659  1.00  0.00    -0.095 C  
HETATM   20  C   UNL     1      -6.475  11.919  69.845  1.00  0.00    -0.048 C  
HETATM   21  O   UNL     1      -5.826  12.472  68.693  1.00  0.00    -0.056 OA 
HETATM   22  N   UNL     1      -7.548  10.088  68.480  1.00  0.00    -0.086 NA 
HETATM   23  C   UNL     1      -7.010  10.854  67.289  1.00  0.00    -0.089 C  
BRANCH  22  24
HETATM   24  C   UNL     1      -7.444   8.621  68.239  1.00  0.00    -0.095 C  
BRANCH  24  25
HETATM   25  C   UNL     1      -8.430   7.846  69.082  1.00  0.00    -0.137 C  
HETATM   26  N   UNL     1      -9.616   7.460  68.578  1.00  0.00    -0.145 NA 
HETATM   27  N   UNL     1      -8.227   7.486  70.321  1.00  0.00    -0.126 NA 
HETATM   28  O   UNL     1     -11.317   6.200  69.505  1.00  0.00    -0.418 OA 
HETATM   29  C   UNL     1     -10.238   6.757  69.564  1.00  0.00    -0.184 C  
HETATM   30  N   UNL     1      -9.369   6.801  70.648  1.00  0.00    -0.162 NA 
HETATM   31  H   UNL     1      -7.412   7.671  70.906  1.00  0.00     0.000 HD 
ENDBRANCH  24  25
ENDBRANCH  22  24
BRANCH  23  32
HETATM   32  C   UNL     1      -7.751  10.558  65.982  1.00  0.00    -0.147 A  
HETATM   33  C   UNL     1      -8.950   9.772  63.559  1.00  0.00    -0.244 A  
HETATM   34  F   UNL     1      -9.517   9.361  62.419  1.00  0.00    -0.269 F  
HETATM   35  C   UNL     1      -9.110  10.215  65.938  1.00  0.00    -0.190 A  
HETATM   36  C   UNL     1      -7.612  10.133  63.571  1.00  0.00    -0.138 A  
HETATM   37  C   UNL     1      -9.705   9.819  64.731  1.00  0.00    -0.213 A  
HETATM   38  C   UNL     1      -7.017  10.528  64.773  1.00  0.00     0.046 A  
ENDBRANCH  23  32
ENDBRANCH  17  18
ENDBRANCH   2  17
TORSDOF 6
ENDMDL
MODEL      278
REMARK 921   NORMALIZED FREE ENERGY PREDICTED BY IDOCK:   -2.71 KCAL/MOL
REMARK 922        TOTAL FREE ENERGY PREDICTED BY IDOCK:   -5.80 KCAL/MOL
REMARK 923 INTER-LIGAND FREE ENERGY PREDICTED BY IDOCK:   -6.99 KCAL/MOL
REMARK 924 INTRA-LIGAND FREE ENERGY PREDICTED BY IDOCK:    1.19 KCAL/MOL
REMARK 927      BINDING AFFINITY PREDICTED BY RF-SCORE:    0.00 PKD
ROOT
HETATM    1  C   UNL     1     -10.550  12.696  64.378  1.00  0.00    -0.388 C  
HETATM    2  C   UNL     1      -9.721  12.403  65.637  1.00  0.00    -0.172 C  
ENDROOT
BRANCH   2   3
HETATM    3  C   UNL     1      -9.327  10.923  65.779  1.00  0.00    -0.232 A  
HETATM    4  C   UNL     1      -8.531  10.266  64.821  1.00  0.00    -0.179 A  
HETATM    5  C   UNL     1      -9.775  10.173  66.882  1.00  0.00    -0.233 A  
HETATM    6  F   UNL     1      -6.126   8.860  63.734  1.00  0.00    -0.073 F  
HETATM    7  F   UNL     1      -7.074   6.940  64.114  1.00  0.00    -0.048 F  
HETATM    8  C   UNL     1      -9.445   8.811  67.028  1.00  0.00    -0.218 A  
HETATM    9  C   UNL     1      -9.948   8.000  68.201  1.00  0.00    -0.185 C  
HETATM   10  C   UNL     1      -8.648   8.189  66.053  1.00  0.00    -0.165 A  
HETATM   11  F   UNL     1      -7.921   8.298  62.644  1.00  0.00    -0.126 F  
HETATM   12  F   UNL     1     -10.687   8.721  69.090  1.00  0.00    -0.229 F  
HETATM   13  F   UNL     1     -10.734   6.959  67.815  1.00  0.00    -0.227 F  
HETATM   14  F   UNL     1      -8.933   7.449  68.926  1.00  0.00    -0.131 F  
HETATM   15  C   UNL     1      -7.339   8.255  63.874  1.00  0.00    -0.100 C  
HETATM   16  C   UNL     1      -8.187   8.908  64.942  1.00  0.00    -0.161 A  
ENDBRANCH   2   3
BRANCH   2  17
HETATM   17  O   UNL     1     -10.261  13.034  66.826  1.00  0.00    -0.240 OA 
BRANCH  17  18
HETATM   18  C   UNL     1     -10.900  14.303  66.629  1.00  0.00    -0.301 C  
HETATM   19  C   UNL     1     -12.015  15.118  69.158  1.00  0.00    -0.274 C  
HETATM   20  C   UNL     1     -12.472  13.927  68.324  1.00  0.00     0.291 C  
HETATM   21  O   UNL     1     -12.300  14.201  66.929  1.00  0.00    -0.419 OA 
HETATM   22  N   UNL     1     -10.580  15.472  68.959  1.00  0.00    -0.234 NA 
HETATM   23  C   UNL     1     -10.323  15.541  67.468  1.00  0.00    -0.271 C  
BRANCH  22  24
HETATM   24  C   UNL     1     -10.343  16.804  69.584  1.00  0.00    -0.151 C  
BRANCH  24  25
HETATM   25  C   UNL     1     -10.404  17.918  68.564  1.00  0.00    -0.360 C  
HETATM   26  N   UNL     1      -9.471  18.887  68.545  1.00  0.00    -0.348 NA 
HETATM   27  N   UNL     1     -11.320  18.031  67.641  1.00  0.00     0.310 NA 
HETATM   28  O   UNL     1      -9.172  20.671  67.107  1.00  0.00    -0.365 OA 
HETATM   29  C   UNL     1      -9.786  19.696  67.496  1.00  0.00    -0.353 C  
HETATM   30  N   UNL     1     -10.950  19.161  66.958  1.00  0.00    -0.367 NA 
HETATM   31  H   UNL     1     -12.121  17.423  67.469  1.00  0.00     0.000 HD 
ENDBRANCH  24  25
ENDBRANCH  22  24
BRANCH  23  32
HETATM   32  C   UNL     1      -8.895  15.959  67.108  1.00  0.00    -0.228 A  
HETATM   33  C   UNL     1      -6.345  17.001  66.525  1.00  0.00    -0.184 A  
HETATM   34  F   UNL     1      -5.138  17.521  66.279  1.00  0.00    -0.161 F  
HETATM   35  C   UNL     1      -7.775  15.558  67.850  1.00  0.00    -0.142 A  
HETATM   36  C   UNL     1      -7.432  17.393  65.761  1.00  0.00     0.076 A  
HETATM   37  C   UNL     1      -6.505  16.081  67.561  1.00  0.00    -0.207 A  
HETATM   38  C   UNL     1      -8.698  16.873  66.046  1.00  0.00    -0.193 A  
ENDBRANCH  23  32
ENDBRANCH  17  18
ENDBRANCH   2  17
TORSDOF 6
ENDMDL
MODEL      279
REMARK 921   NORMALIZED FREE ENERGY PREDICTED BY IDOCK:   -2.60 KCAL/MOL
REMARK 922        TOTAL FREE ENERGY PREDICTED BY IDOCK:   -5.64 KCAL/MOL
REMARK 923 INTER-LIGAND FREE ENERGY PREDICTED BY IDOCK:   -5.14 KCAL/MOL
REMARK 924 INTRA-LIGAND FREE ENERGY PREDICTED BY IDOCK:   -0.50 KCAL/MOL
REMARK 927      BINDING AFFINITY PREDICTED BY RF-SCORE:    0.00 PKD
ROOT
HETATM    1  C   UNL     1      -7.672  10.878  69.320  1.00  0.00    -0.100 C  
HETATM    2  C   UNL     1      -8.685   9.771  68.994  1.00  0.00    -0.148 C  
ENDROOT
BRANCH   2   3
HETATM    3  C   UNL     1      -9.608   9.421  70.174  1.00  0.00    -0.275 A  
HETATM    4  C   UNL     1      -9.157   8.675  71.280  1.00  0.00    -0.272 A  
HETATM    5  C   UNL     1     -10.953   9.831  70.166  1.00  0.00    -0.339 A  
HETATM    6  F   UNL     1      -8.427   8.142  74.130  1.00  0.00    -0.277 F  
HETATM    7  F   UNL     1     -10.389   7.273  74.473  1.00  0.00    -0.196 F  
HETATM    8  C   UNL     1     -11.827   9.508  71.225  1.00  0.00    -0.450 A  
HETATM    9  C   UNL     1     -13.279   9.928  71.204  1.00  0.00    -0.347 C  
HETATM   10  C   UNL     1     -11.341   8.763  72.313  1.00  0.00    -0.356 A  
HETATM   11  F   UNL     1      -8.997   6.308  73.112  1.00  0.00    -0.130 F  
HETATM   12  F   UNL     1     -13.621  10.666  70.111  1.00  0.00    -0.119 F  
HETATM   13  F   UNL     1     -14.128   8.866  71.221  1.00  0.00    -0.424 F  
HETATM   14  F   UNL     1     -13.615  10.689  72.284  1.00  0.00    -0.482 F  
HETATM   15  C   UNL     1      -9.467   7.524  73.503  1.00  0.00    -0.273 C  
HETATM   16  C   UNL     1     -10.007   8.339  72.349  1.00  0.00    -0.379 A  
ENDBRANCH   2   3
BRANCH   2  17
HETATM   17  O   UNL     1      -8.086   8.647  68.300  1.00  0.00    -0.115 OA 
BRANCH  17  18
HETATM   18  C   UNL     1      -6.653   8.629  68.252  1.00  0.00    -0.061 C  
HETATM   19  C   UNL     1      -5.825   5.879  68.005  1.00  0.00    -0.013 C  
HETATM   20  C   UNL     1      -6.514   6.498  69.216  1.00  0.00    -0.040 C  
HETATM   21  O   UNL     1      -6.133   7.872  69.356  1.00  0.00    -0.033 OA 
HETATM   22  N   UNL     1      -6.159   6.555  66.719  1.00  0.00    -0.031 NA 
HETATM   23  C   UNL     1      -5.981   8.045  66.919  1.00  0.00    -0.052 C  
BRANCH  22  24
HETATM   24  C   UNL     1      -5.212   6.059  65.679  1.00  0.00    -0.013 C  
BRANCH  24  25
HETATM   25  C   UNL     1      -5.620   4.701  65.156  1.00  0.00    -0.014 C  
HETATM   26  N   UNL     1      -6.130   3.769  65.981  1.00  0.00    -0.027 NA 
HETATM   27  N   UNL     1      -5.529   4.327  63.909  1.00  0.00    -0.013 NA 
HETATM   28  O   UNL     1      -6.947   1.650  65.550  1.00  0.00    -0.040 OA 
HETATM   29  C   UNL     1      -6.429   2.694  65.201  1.00  0.00    -0.027 C  
HETATM   30  N   UNL     1      -6.030   3.050  63.919  1.00  0.00    -0.013 NA 
HETATM   31  H   UNL     1      -5.171   4.858  63.115  1.00  0.00     0.000 HD 
ENDBRANCH  24  25
ENDBRANCH  22  24
BRANCH  23  32
HETATM   32  C   UNL     1      -6.230   8.870  65.653  1.00  0.00    -0.052 A  
HETATM   33  C   UNL     1      -6.973  10.374  63.392  1.00  0.00    -0.030 A  
HETATM   34  F   UNL     1      -7.355  11.104  62.338  1.00  0.00    -0.144 F  
HETATM   35  C   UNL     1      -5.841  10.212  65.530  1.00  0.00    -0.094 A  
HETATM   36  C   UNL     1      -7.346   9.042  63.477  1.00  0.00    -0.097 A  
HETATM   37  C   UNL     1      -6.216  10.961  64.405  1.00  0.00     0.410 A  
HETATM   38  C   UNL     1      -6.974   8.293  64.597  1.00  0.00    -0.075 A  
ENDBRANCH  23  32
ENDBRANCH  17  18
ENDBRANCH   2  17
TORSDOF 6
ENDMDL
MODEL      280
REMARK 921   NORMALIZED FREE ENERGY PREDICTED BY IDOCK:   -2.56 KCAL/MOL
REMARK 922        TOTAL FREE ENERGY PREDICTED BY IDOCK:   -5.59 KCAL/MOL
REMARK 923 INTER-LIGAND FREE ENERGY PREDICTED BY IDOCK:   -5.89 KCAL/MOL
REMARK 924 INTRA-LIGAND FREE ENERGY PREDICTED BY IDOCK:    0.30 KCAL/MOL
REMARK 927      BINDING AFFINITY PREDICTED BY RF-SCORE:    0.00 PKD
ROOT
HETATM    1  C   UNL     1      -7.250   7.877  70.654  1.00  0.00    -0.053 C  
HETATM    2  C   UNL     1      -8.342   8.943  70.813  1.00  0.00    -0.175 C  
ENDROOT
BRANCH   2   3
HETATM    3  C   UNL     1      -9.683   8.376  71.312  1.00  0.00    -0.245 A  
HETATM    4  C   UNL     1      -9.792   7.080  71.850  1.00  0.00    -0.173 A  
HETATM    5  C   UNL     1     -10.855   9.149  71.225  1.00  0.00    -0.402 A  
HETATM    6  F   UNL     1     -10.277   4.995  73.938  1.00  0.00    -0.164 F  
HETATM    7  F   UNL     1     -12.322   4.766  73.238  1.00  0.00    -0.315 F  
HETATM    8  C   UNL     1     -12.100   8.648  71.657  1.00  0.00    -0.385 A  
HETATM    9  C   UNL     1     -13.363   9.470  71.540  1.00  0.00    -0.393 C  
HETATM   10  C   UNL     1     -12.170   7.349  72.189  1.00  0.00    -0.266 A  
HETATM   11  F   UNL     1     -10.664   4.214  71.947  1.00  0.00    -0.160 F  
HETATM   12  F   UNL     1     -13.161  10.719  71.034  1.00  0.00    -0.406 F  
HETATM   13  F   UNL     1     -14.292   8.885  70.737  1.00  0.00    -0.266 F  
HETATM   14  F   UNL     1     -13.977   9.654  72.744  1.00  0.00    -0.371 F  
HETATM   15  C   UNL     1     -11.076   5.150  72.845  1.00  0.00    -0.295 C  
HETATM   16  C   UNL     1     -11.021   6.555  72.288  1.00  0.00    -0.281 A  
ENDBRANCH   2   3
BRANCH   2  17
HETATM   17  O   UNL     1      -8.417   9.846  69.681  1.00  0.00    -0.157 OA 
BRANCH  17  18
HETATM   18  C   UNL     1      -8.029  11.204  69.934  1.00  0.00     0.845 C  
HETATM   19  C   UNL     1      -5.494  11.643  68.635  1.00  0.00    -0.042 C  
HETATM   20  C   UNL     1      -5.741  10.715  69.818  1.00  0.00    -0.050 C  
HETATM   21  O   UNL     1      -6.785  11.236  70.650  1.00  0.00    -0.081 OA 
HETATM   22  N   UNL     1      -6.690  11.830  67.763  1.00  0.00    -0.075 NA 
HETATM   23  C   UNL     1      -7.867  12.160  68.657  1.00  0.00    -0.078 C  
BRANCH  22  24
HETATM   24  C   UNL     1      -6.412  12.966  66.839  1.00  0.00     0.658 C  
BRANCH  24  25
HETATM   25  C   UNL     1      -6.106  14.238  67.595  1.00  0.00    -0.053 C  
HETATM   26  N   UNL     1      -6.836  14.597  68.666  1.00  0.00    -0.089 NA 
HETATM   27  N   UNL     1      -5.141  15.066  67.297  1.00  0.00    -0.233 NA 
HETATM   28  O   UNL     1      -6.621  16.383  70.116  1.00  0.00    -0.009 OA 
HETATM   29  C   UNL     1      -6.284  15.749  69.134  1.00  0.00    -0.126 C  
HETATM   30  N   UNL     1      -5.243  16.038  68.259  1.00  0.00    -0.098 NA 
HETATM   31  H   UNL     1      -4.470  15.004  66.532  1.00  0.00     0.000 HD 
ENDBRANCH  24  25
ENDBRANCH  22  24
BRANCH  23  32
HETATM   32  C   UNL     1      -9.162  12.443  67.890  1.00  0.00    -0.192 A  
HETATM   33  C   UNL     1     -11.618  12.686  66.536  1.00  0.00    -0.381 A  
HETATM   34  F   UNL     1     -12.801  12.777  65.919  1.00  0.00    -0.309 F  
HETATM   35  C   UNL     1     -10.159  13.304  68.372  1.00  0.00    -0.237 A  
HETATM   36  C   UNL     1     -10.638  11.849  66.025  1.00  0.00    -0.304 A  
HETATM   37  C   UNL     1     -11.384  13.420  67.698  1.00  0.00    -0.321 A  
HETATM   38  C   UNL     1      -9.417  11.731  66.695  1.00  0.00    -0.215 A  
ENDBRANCH  23  32
ENDBRANCH  17  18
ENDBRANCH   2  17
TORSDOF 6
ENDMDL
MODEL      281
REMARK 921   NORMALIZED FREE ENERGY PREDICTED BY IDOCK:   -2.01 KCAL/MOL
REMARK 922        TOTAL FREE ENERGY PREDICTED BY IDOCK:   -4.85 KCAL/MOL
REMARK 923 INTER-LIGAND FREE ENERGY PREDICTED BY IDOCK:   -5.47 KCAL/MOL
REMARK 924 INTRA-LIGAND FREE ENERGY PREDICTED BY IDOCK:    0.62 KCAL/MOL
REMARK 927      BINDING AFFINITY PREDICTED BY RF-SCORE:    0.00 PKD
ROOT
HETATM    1  C   UNL     1      -7.675  10.902  69.330  1.00  0.00    -0.100 C  
HETATM    2  C   UNL     1      -8.719   9.832  68.981  1.00  0.00    -0.148 C  
ENDROOT
BRANCH   2   3
HETATM    3  C   UNL     1      -9.653   9.484  70.153  1.00  0.00    -0.290 A  
HETATM    4  C   UNL     1      -9.224   8.705  71.245  1.00  0.00    -0.283 A  
HETATM    5  C   UNL     1     -10.987   9.930  70.152  1.00  0.00    -0.356 A  
HETATM    6  F   UNL     1      -8.512   8.100  74.086  1.00  0.00    -0.277 F  
HETATM    7  F   UNL     1     -10.498   7.277  74.411  1.00  0.00    -0.268 F  
HETATM    8  C   UNL     1     -11.870   9.610  71.203  1.00  0.00    -0.448 A  
HETATM    9  C   UNL     1     -13.310  10.069  71.189  1.00  0.00    -0.305 C  
HETATM   10  C   UNL     1     -11.406   8.832  72.277  1.00  0.00    -0.356 A  
HETATM   11  F   UNL     1      -9.129   6.301  73.033  1.00  0.00    -0.132 F  
HETATM   12  F   UNL     1     -13.631  10.837  70.110  1.00  0.00    -0.040 F  
HETATM   13  F   UNL     1     -14.188   9.029  71.185  1.00  0.00    -0.420 F  
HETATM   14  F   UNL     1     -13.628  10.818  72.283  1.00  0.00    -0.486 F  
HETATM   15  C   UNL     1      -9.567   7.522  73.446  1.00  0.00    -0.270 C  
HETATM   16  C   UNL     1     -10.084   8.372  72.307  1.00  0.00    -0.382 A  
ENDBRANCH   2   3
BRANCH   2  17
HETATM   17  O   UNL     1      -8.153   8.705  68.264  1.00  0.00    -0.115 OA 
BRANCH  17  18
HETATM   18  C   UNL     1      -6.724   8.693  68.142  1.00  0.00    -0.065 C  
HETATM   19  C   UNL     1      -5.712   6.690  69.950  1.00  0.00    -0.018 C  
HETATM   20  C   UNL     1      -6.405   7.986  70.352  1.00  0.00    -0.036 C  
HETATM   21  O   UNL     1      -6.118   9.020  69.402  1.00  0.00    -0.039 OA 
HETATM   22  N   UNL     1      -6.131   6.178  68.613  1.00  0.00    -0.026 NA 
HETATM   23  C   UNL     1      -6.053   7.329  67.632  1.00  0.00    -0.042 C  
BRANCH  22  24
HETATM   24  C   UNL     1      -5.184   5.098  68.215  1.00  0.00    -0.003 C  
BRANCH  24  25
HETATM   25  C   UNL     1      -5.745   3.727  68.515  1.00  0.00    -0.022 C  
HETATM   26  N   UNL     1      -6.903   3.586  69.185  1.00  0.00    -0.044 NA 
HETATM   27  N   UNL     1      -5.188   2.602  68.157  1.00  0.00    -0.012 NA 
HETATM   28  O   UNL     1      -8.112   1.697  69.738  1.00  0.00    -0.041 OA 
HETATM   29  C   UNL     1      -7.145   2.249  69.249  1.00  0.00    -0.040 C  
HETATM   30  N   UNL     1      -6.058   1.650  68.623  1.00  0.00    -0.024 NA 
HETATM   31  H   UNL     1      -4.313   2.463  67.651  1.00  0.00     0.000 HD 
ENDBRANCH  24  25
ENDBRANCH  22  24
BRANCH  23  32
HETATM   32  C   UNL     1      -6.398   6.935  66.193  1.00  0.00    -0.050 A  
HETATM   33  C   UNL     1      -6.829   5.999  63.573  1.00  0.00    -0.037 A  
HETATM   34  F   UNL     1      -7.028   5.517  62.341  1.00  0.00    -0.035 F  
HETATM   35  C   UNL     1      -7.629   6.369  65.832  1.00  0.00    -0.084 A  
HETATM   36  C   UNL     1      -5.613   6.579  63.897  1.00  0.00    -0.030 A  
HETATM   37  C   UNL     1      -7.841   5.899  64.528  1.00  0.00    -0.115 A  
HETATM   38  C   UNL     1      -5.400   7.049  65.197  1.00  0.00    -0.028 A  
ENDBRANCH  23  32
ENDBRANCH  17  18
ENDBRANCH   2  17
TORSDOF 6
ENDMDL
MODEL      282
REMARK 921   NORMALIZED FREE ENERGY PREDICTED BY IDOCK:   -1.97 KCAL/MOL
REMARK 922        TOTAL FREE ENERGY PREDICTED BY IDOCK:   -4.79 KCAL/MOL
REMARK 923 INTER-LIGAND FREE ENERGY PREDICTED BY IDOCK:   -5.56 KCAL/MOL
REMARK 924 INTRA-LIGAND FREE ENERGY PREDICTED BY IDOCK:    0.77 KCAL/MOL
REMARK 927      BINDING AFFINITY PREDICTED BY RF-SCORE:    0.00 PKD
ROOT
HETATM    1  C   UNL     1      -7.667  10.796  69.449  1.00  0.00    -0.107 C  
HETATM    2  C   UNL     1      -8.698   9.721  69.073  1.00  0.00    -0.148 C  
ENDROOT
BRANCH   2   3
HETATM    3  C   UNL     1      -9.601   9.303  70.246  1.00  0.00    -0.276 A  
HETATM    4  C   UNL     1     -10.878   9.861  70.442  1.00  0.00    -0.380 A  
HETATM    5  C   UNL     1      -9.155   8.348  71.178  1.00  0.00    -0.217 A  
HETATM    6  F   UNL     1     -13.863   9.917  70.614  1.00  0.00    -0.353 F  
HETATM    7  F   UNL     1     -13.745   9.688  72.773  1.00  0.00    -0.400 F  
HETATM    8  C   UNL     1      -9.954   7.960  72.273  1.00  0.00    -0.280 A  
HETATM    9  C   UNL     1      -9.463   6.952  73.287  1.00  0.00    -0.156 C  
HETATM   10  C   UNL     1     -11.224   8.538  72.435  1.00  0.00    -0.399 A  
HETATM   11  F   UNL     1     -12.980  11.489  71.828  1.00  0.00    -0.503 F  
HETATM   12  F   UNL     1      -8.230   6.446  73.006  1.00  0.00    -0.114 F  
HETATM   13  F   UNL     1      -9.379   7.474  74.541  1.00  0.00    -0.226 F  
HETATM   14  F   UNL     1     -10.291   5.873  73.390  1.00  0.00    -0.181 F  
HETATM   15  C   UNL     1     -13.054  10.137  71.688  1.00  0.00    -0.447 C  
HETATM   16  C   UNL     1     -11.696   9.493  71.525  1.00  0.00    -0.472 A  
ENDBRANCH   2   3
BRANCH   2  17
HETATM   17  O   UNL     1      -8.125   8.640  68.296  1.00  0.00    -0.115 OA 
BRANCH  17  18
HETATM   18  C   UNL     1      -6.694   8.620  68.205  1.00  0.00    -0.065 C  
HETATM   19  C   UNL     1      -5.735   6.587  70.009  1.00  0.00    -0.018 C  
HETATM   20  C   UNL     1      -6.430   7.882  70.413  1.00  0.00    -0.037 C  
HETATM   21  O   UNL     1      -6.115   8.926  69.483  1.00  0.00    -0.036 OA 
HETATM   22  N   UNL     1      -6.127   6.096  68.656  1.00  0.00    -0.026 NA 
HETATM   23  C   UNL     1      -6.020   7.259  67.693  1.00  0.00    -0.034 C  
BRANCH  22  24
HETATM   24  C   UNL     1      -5.177   5.015  68.266  1.00  0.00    -0.007 C  
BRANCH  24  25
HETATM   25  C   UNL     1      -5.812   3.648  68.377  1.00  0.00    -0.023 C  
HETATM   26  N   UNL     1      -7.137   3.487  68.206  1.00  0.00    -0.050 NA 
HETATM   27  N   UNL     1      -5.161   2.544  68.626  1.00  0.00    -0.012 NA 
HETATM   28  O   UNL     1      -8.441   1.580  68.200  1.00  0.00    -0.057 OA 
HETATM   29  C   UNL     1      -7.376   2.153  68.325  1.00  0.00    -0.047 C  
HETATM   30  N   UNL     1      -6.140   1.584  68.607  1.00  0.00    -0.024 NA 
HETATM   31  H   UNL     1      -4.163   2.425  68.795  1.00  0.00     0.000 HD 
ENDBRANCH  24  25
ENDBRANCH  22  24
BRANCH  23  32
HETATM   32  C   UNL     1      -6.333   6.887  66.241  1.00  0.00    -0.050 A  
HETATM   33  C   UNL     1      -6.714   5.985  63.602  1.00  0.00    -0.037 A  
HETATM   34  F   UNL     1      -6.889   5.519  62.360  1.00  0.00    -0.027 F  
HETATM   35  C   UNL     1      -7.566   6.352  65.842  1.00  0.00    -0.084 A  
HETATM   36  C   UNL     1      -5.494   6.534  63.964  1.00  0.00    -0.026 A  
HETATM   37  C   UNL     1      -7.753   5.899  64.527  1.00  0.00    -0.098 A  
HETATM   38  C   UNL     1      -5.306   6.987  65.274  1.00  0.00    -0.028 A  
ENDBRANCH  23  32
ENDBRANCH  17  18
ENDBRANCH   2  17
TORSDOF 6
ENDMDL
MODEL      283
REMARK 921   NORMALIZED FREE ENERGY PREDICTED BY IDOCK:   -1.63 KCAL/MOL
REMARK 922        TOTAL FREE ENERGY PREDICTED BY IDOCK:   -4.33 KCAL/MOL
REMARK 923 INTER-LIGAND FREE ENERGY PREDICTED BY IDOCK:   -4.46 KCAL/MOL
REMARK 924 INTRA-LIGAND FREE ENERGY PREDICTED BY IDOCK:    0.13 KCAL/MOL
REMARK 927      BINDING AFFINITY PREDICTED BY RF-SCORE:    0.00 PKD
ROOT
HETATM    1  C   UNL     1      -8.519  15.885  66.689  1.00  0.00    -0.322 C  
HETATM    2  C   UNL     1      -9.160  14.579  67.180  1.00  0.00    -0.225 C  
ENDROOT
BRANCH   2   3
HETATM    3  C   UNL     1      -8.237  13.749  68.089  1.00  0.00    -0.160 A  
HETATM    4  C   UNL     1      -7.547  14.320  69.175  1.00  0.00    -0.038 A  
HETATM    5  C   UNL     1      -8.044  12.378  67.840  1.00  0.00    -0.161 A  
HETATM    6  F   UNL     1      -6.827  14.795  72.038  1.00  0.00     0.697 F  
HETATM    7  F   UNL     1      -5.173  13.396  71.856  1.00  0.00    -0.141 F  
HETATM    8  C   UNL     1      -7.190  11.597  68.646  1.00  0.00    -0.104 A  
HETATM    9  C   UNL     1      -6.965  10.130  68.363  1.00  0.00    -0.066 C  
HETATM   10  C   UNL     1      -6.519  12.202  69.722  1.00  0.00    -0.050 A  
HETATM   11  F   UNL     1      -5.156  15.251  70.724  1.00  0.00    -0.114 F  
HETATM   12  F   UNL     1      -7.690   9.655  67.311  1.00  0.00    -0.090 F  
HETATM   13  F   UNL     1      -5.664   9.848  68.080  1.00  0.00    -0.040 F  
HETATM   14  F   UNL     1      -7.293   9.339  69.424  1.00  0.00    -0.067 F  
HETATM   15  C   UNL     1      -5.967  14.239  71.139  1.00  0.00    -0.156 C  
HETATM   16  C   UNL     1      -6.690  13.565  69.995  1.00  0.00     0.211 A  
ENDBRANCH   2   3
BRANCH   2  17
HETATM   17  O   UNL     1      -9.832  13.850  66.122  1.00  0.00    -0.294 OA 
BRANCH  17  18
HETATM   18  C   UNL     1     -11.212  13.536  66.354  1.00  0.00    -0.307 C  
HETATM   19  C   UNL     1     -11.358  10.759  67.112  1.00  0.00    -0.028 C  
HETATM   20  C   UNL     1     -10.943  11.290  65.745  1.00  0.00    -0.145 C  
HETATM   21  O   UNL     1     -11.642  12.506  65.451  1.00  0.00    -0.341 OA 
HETATM   22  N   UNL     1     -11.074  11.704  68.231  1.00  0.00    -0.215 NA 
HETATM   23  C   UNL     1     -11.608  13.064  67.834  1.00  0.00    -0.342 C  
BRANCH  22  24
HETATM   24  C   UNL     1     -11.782  11.207  69.445  1.00  0.00    -0.332 C  
BRANCH  24  25
HETATM   25  C   UNL     1     -11.436   9.765  69.741  1.00  0.00    -0.098 C  
HETATM   26  N   UNL     1     -12.024   9.110  70.758  1.00  0.00    -0.239 NA 
HETATM   27  N   UNL     1     -10.580   9.052  69.062  1.00  0.00    -0.297 NA 
HETATM   28  O   UNL     1     -11.836   6.915  71.454  1.00  0.00    -0.291 OA 
HETATM   29  C   UNL     1     -11.533   7.841  70.728  1.00  0.00    -0.272 C  
HETATM   30  N   UNL     1     -10.621   7.828  69.679  1.00  0.00    -0.243 NA 
HETATM   31  H   UNL     1     -10.016   9.336  68.261  1.00  0.00     0.000 HD 
ENDBRANCH  24  25
ENDBRANCH  22  24
BRANCH  23  32
HETATM   32  C   UNL     1     -11.442  14.131  68.921  1.00  0.00    -0.327 A  
HETATM   33  C   UNL     1     -11.426  16.064  70.967  1.00  0.00    -0.417 A  
HETATM   34  F   UNL     1     -11.447  16.962  71.958  1.00  0.00    -0.423 F  
HETATM   35  C   UNL     1     -10.744  13.899  70.115  1.00  0.00     0.633 A  
HETATM   36  C   UNL     1     -12.101  16.328  69.786  1.00  0.00     0.224 A  
HETATM   37  C   UNL     1     -10.741  14.862  71.135  1.00  0.00     0.299 A  
HETATM   38  C   UNL     1     -12.106  15.370  68.767  1.00  0.00    -0.183 A  
ENDBRANCH  23  32
ENDBRANCH  17  18
ENDBRANCH   2  17
TORSDOF 6
ENDMDL
MODEL      284
REMARK 921   NORMALIZED FREE ENERGY PREDICTED BY IDOCK:   -1.56 KCAL/MOL
REMARK 922        TOTAL FREE ENERGY PREDICTED BY IDOCK:   -4.24 KCAL/MOL
REMARK 923 INTER-LIGAND FREE ENERGY PREDICTED BY IDOCK:   -6.41 KCAL/MOL
REMARK 924 INTRA-LIGAND FREE ENERGY PREDICTED BY IDOCK:    2.18 KCAL/MOL
REMARK 927      BINDING AFFINITY PREDICTED BY RF-SCORE:    0.00 PKD
ROOT
HETATM    1  C   UNL     1     -10.058   9.682  66.967  1.00  0.00    -0.275 C  
HETATM    2  C   UNL     1     -10.248  10.553  68.217  1.00  0.00    -0.163 C  
ENDROOT
BRANCH   2   3
HETATM    3  C   UNL     1     -10.875  11.926  67.917  1.00  0.00    -0.254 A  
HETATM    4  C   UNL     1     -11.460  12.224  66.671  1.00  0.00    -0.431 A  
HETATM    5  C   UNL     1     -10.863  12.939  68.893  1.00  0.00    -0.239 A  
HETATM    6  F   UNL     1     -13.647  12.898  64.746  1.00  0.00    -0.051 F  
HETATM    7  F   UNL     1     -13.128  15.004  64.891  1.00  0.00    -0.095 F  
HETATM    8  C   UNL     1     -11.414  14.211  68.639  1.00  0.00    -0.332 A  
HETATM    9  C   UNL     1     -11.378  15.307  69.679  1.00  0.00    -0.290 C  
HETATM   10  C   UNL     1     -11.990  14.472  67.384  1.00  0.00    -0.367 A  
HETATM   11  F   UNL     1     -11.720  13.596  64.019  1.00  0.00    -0.402 F  
HETATM   12  F   UNL     1     -10.817  14.924  70.861  1.00  0.00    -0.259 F  
HETATM   13  F   UNL     1     -10.674  16.395  69.265  1.00  0.00    -0.242 F  
HETATM   14  F   UNL     1     -12.622  15.767  69.993  1.00  0.00    -0.402 F  
HETATM   15  C   UNL     1     -12.620  13.748  65.030  1.00  0.00    -0.389 C  
HETATM   16  C   UNL     1     -12.017  13.484  66.391  1.00  0.00    -0.459 A  
ENDBRANCH   2   3
BRANCH   2  17
HETATM   17  O   UNL     1      -9.082  10.563  69.079  1.00  0.00    -0.171 OA 
BRANCH  17  18
HETATM   18  C   UNL     1      -7.811  10.485  68.418  1.00  0.00    -0.110 C  
HETATM   19  C   UNL     1      -6.875  13.180  68.011  1.00  0.00    -0.118 C  
HETATM   20  C   UNL     1      -8.091  12.548  67.345  1.00  0.00    -0.180 C  
HETATM   21  O   UNL     1      -7.877  11.145  67.145  1.00  0.00    -0.126 OA 
HETATM   22  N   UNL     1      -6.554  12.596  69.345  1.00  0.00    -0.098 NA 
HETATM   23  C   UNL     1      -6.550  11.088  69.202  1.00  0.00    -0.077 C  
BRANCH  22  24
HETATM   24  C   UNL     1      -5.202  13.078  69.746  1.00  0.00    -0.085 C  
BRANCH  24  25
HETATM   25  C   UNL     1      -5.195  14.567  70.005  1.00  0.00    -0.094 C  
HETATM   26  N   UNL     1      -5.159  15.444  68.985  1.00  0.00    -0.095 NA 
HETATM   27  N   UNL     1      -5.232  15.116  71.189  1.00  0.00    -0.140 NA 
HETATM   28  O   UNL     1      -5.234  17.754  68.972  1.00  0.00    -0.169 OA 
HETATM   29  C   UNL     1      -5.207  16.683  69.547  1.00  0.00    -0.137 C  
HETATM   30  N   UNL     1      -5.231  16.461  70.919  1.00  0.00    -0.176 NA 
HETATM   31  H   UNL     1      -5.257  14.655  72.098  1.00  0.00     0.000 HD 
ENDBRANCH  24  25
ENDBRANCH  22  24
BRANCH  23  32
HETATM   32  C   UNL     1      -6.171  10.349  70.488  1.00  0.00    -0.113 A  
HETATM   33  C   UNL     1      -5.642   9.183  72.996  1.00  0.00    -0.055 A  
HETATM   34  F   UNL     1      -5.428   8.638  74.198  1.00  0.00    -0.084 F  
HETATM   35  C   UNL     1      -6.611   9.049  70.777  1.00  0.00    -0.063 A  
HETATM   36  C   UNL     1      -5.173  10.459  72.725  1.00  0.00     0.245 A  
HETATM   37  C   UNL     1      -6.351   8.471  72.028  1.00  0.00    -0.071 A  
HETATM   38  C   UNL     1      -5.431  11.036  71.478  1.00  0.00     0.153 A  
ENDBRANCH  23  32
ENDBRANCH  17  18
ENDBRANCH   2  17
TORSDOF 6
ENDMDL
MODEL      285
REMARK 921   NORMALIZED FREE ENERGY PREDICTED BY IDOCK:   -1.50 KCAL/MOL
REMARK 922        TOTAL FREE ENERGY PREDICTED BY IDOCK:   -4.16 KCAL/MOL
REMARK 923 INTER-LIGAND FREE ENERGY PREDICTED BY IDOCK:   -3.45 KCAL/MOL
REMARK 924 INTRA-LIGAND FREE ENERGY PREDICTED BY IDOCK:   -0.71 KCAL/MOL
REMARK 927      BINDING AFFINITY PREDICTED BY RF-SCORE:    0.00 PKD
ROOT
HETATM    1  C   UNL     1      -6.460  11.911  67.344  1.00  0.00    -0.126 C  
HETATM    2  C   UNL     1      -7.764  11.127  67.140  1.00  0.00    -0.136 C  
ENDROOT
BRANCH   2   3
HETATM    3  C   UNL     1      -8.955  12.015  66.741  1.00  0.00    -0.198 A  
HETATM    4  C   UNL     1      -9.539  12.929  67.639  1.00  0.00    -0.196 A  
HETATM    5  C   UNL     1      -9.509  11.921  65.451  1.00  0.00    -0.123 A  
HETATM    6  F   UNL     1     -10.325  15.601  68.729  1.00  0.00    -0.201 F  
HETATM    7  F   UNL     1     -12.288  15.398  67.817  1.00  0.00    -0.051 F  
HETATM    8  C   UNL     1     -10.612  12.710  65.065  1.00  0.00    -0.329 A  
HETATM    9  C   UNL     1     -11.221  12.589  63.687  1.00  0.00    -0.483 C  
HETATM   10  C   UNL     1     -11.168  13.611  65.988  1.00  0.00    -0.302 A  
HETATM   11  F   UNL     1     -11.685  14.047  69.409  1.00  0.00    -0.268 F  
HETATM   12  F   UNL     1     -10.578  11.702  62.877  1.00  0.00    -0.311 F  
HETATM   13  F   UNL     1     -12.521  12.189  63.726  1.00  0.00    -0.517 F  
HETATM   14  F   UNL     1     -11.219  13.774  63.012  1.00  0.00     0.522 F  
HETATM   15  C   UNL     1     -11.231  14.682  68.293  1.00  0.00    -0.285 C  
HETATM   16  C   UNL     1     -10.640  13.728  67.280  1.00  0.00    -0.275 A  
ENDBRANCH   2   3
BRANCH   2  17
HETATM   17  O   UNL     1      -8.014  10.165  68.195  1.00  0.00    -0.102 OA 
BRANCH  17  18
HETATM   18  C   UNL     1      -6.891   9.833  69.023  1.00  0.00    -0.050 C  
HETATM   19  C   UNL     1      -7.916   8.780  71.502  1.00  0.00    -0.112 C  
HETATM   20  C   UNL     1      -8.070  10.215  71.010  1.00  0.00     1.577 C  
HETATM   21  O   UNL     1      -6.929  10.601  70.235  1.00  0.00    -0.233 OA 
HETATM   22  N   UNL     1      -7.781   7.783  70.401  1.00  0.00    -0.087 NA 
HETATM   23  C   UNL     1      -6.729   8.294  69.440  1.00  0.00    -0.042 C  
BRANCH  22  24
HETATM   24  C   UNL     1      -7.345   6.490  71.002  1.00  0.00    -0.083 C  
BRANCH  24  25
HETATM   25  C   UNL     1      -8.521   5.586  71.294  1.00  0.00    -0.127 C  
HETATM   26  N   UNL     1      -8.492   4.730  72.331  1.00  0.00    -0.115 NA 
HETATM   27  N   UNL     1      -9.628   5.561  70.603  1.00  0.00    -0.164 NA 
HETATM   28  O   UNL     1     -10.099   3.283  73.145  1.00  0.00    -0.126 OA 
HETATM   29  C   UNL     1      -9.701   4.106  72.342  1.00  0.00    -0.153 C  
HETATM   30  N   UNL     1     -10.388   4.619  71.249  1.00  0.00    -0.133 NA 
HETATM   31  H   UNL     1      -9.871   6.111  69.779  1.00  0.00     0.000 HD 
ENDBRANCH  24  25
ENDBRANCH  22  24
BRANCH  23  32
HETATM   32  C   UNL     1      -6.436   7.336  68.282  1.00  0.00    -0.045 A  
HETATM   33  C   UNL     1      -5.786   5.805  66.010  1.00  0.00    -0.021 A  
HETATM   34  F   UNL     1      -5.446   5.100  64.925  1.00  0.00    -0.012 F  
HETATM   35  C   UNL     1      -5.466   6.326  68.357  1.00  0.00    -0.008 A  
HETATM   36  C   UNL     1      -6.768   6.779  65.917  1.00  0.00    -0.052 A  
HETATM   37  C   UNL     1      -5.140   5.567  67.223  1.00  0.00    -0.004 A  
HETATM   38  C   UNL     1      -7.094   7.537  67.046  1.00  0.00    -0.084 A  
ENDBRANCH  23  32
ENDBRANCH  17  18
ENDBRANCH   2  17
TORSDOF 6
ENDMDL
MODEL      286
REMARK 921   NORMALIZED FREE ENERGY PREDICTED BY IDOCK:   -1.47 KCAL/MOL
REMARK 922        TOTAL FREE ENERGY PREDICTED BY IDOCK:   -4.12 KCAL/MOL
REMARK 923 INTER-LIGAND FREE ENERGY PREDICTED BY IDOCK:   -6.92 KCAL/MOL
REMARK 924 INTRA-LIGAND FREE ENERGY PREDICTED BY IDOCK:    2.80 KCAL/MOL
REMARK 927      BINDING AFFINITY PREDICTED BY RF-SCORE:    0.00 PKD
ROOT
HETATM    1  C   UNL     1      -7.352   7.950  70.797  1.00  0.00    -0.061 C  
HETATM    2  C   UNL     1      -8.655   8.579  71.310  1.00  0.00    -0.176 C  
ENDROOT
BRANCH   2   3
HETATM    3  C   UNL     1      -9.730   7.543  71.680  1.00  0.00    -0.184 A  
HETATM    4  C   UNL     1     -11.106   7.834  71.608  1.00  0.00    -0.275 A  
HETATM    5  C   UNL     1      -9.356   6.261  72.123  1.00  0.00    -0.152 A  
HETATM    6  F   UNL     1     -13.918   7.623  70.613  1.00  0.00    -0.108 F  
HETATM    7  F   UNL     1     -14.395   6.267  72.244  1.00  0.00    -0.363 F  
HETATM    8  C   UNL     1     -10.319   5.298  72.486  1.00  0.00    -0.249 A  
HETATM    9  C   UNL     1      -9.915   3.930  72.986  1.00  0.00    -0.137 C  
HETATM   10  C   UNL     1     -11.683   5.625  72.400  1.00  0.00    -0.240 A  
HETATM   11  F   UNL     1     -13.865   8.331  72.668  1.00  0.00    -0.250 F  
HETATM   12  F   UNL     1      -8.568   3.726  72.999  1.00  0.00    -0.089 F  
HETATM   13  F   UNL     1     -10.344   3.692  74.255  1.00  0.00    -0.174 F  
HETATM   14  F   UNL     1     -10.434   2.924  72.225  1.00  0.00    -0.229 F  
HETATM   15  C   UNL     1     -13.549   7.270  71.877  1.00  0.00    -0.216 C  
HETATM   16  C   UNL     1     -12.088   6.892  71.964  1.00  0.00    -0.331 A  
ENDBRANCH   2   3
BRANCH   2  17
HETATM   17  O   UNL     1      -9.101   9.694  70.496  1.00  0.00    -0.242 OA 
BRANCH  17  18
HETATM   18  C   UNL     1      -8.490   9.812  69.204  1.00  0.00    -0.143 C  
HETATM   19  C   UNL     1      -9.981   8.150  67.381  1.00  0.00    -0.209 C  
HETATM   20  C   UNL     1      -9.139   7.657  68.552  1.00  0.00    -0.131 C  
HETATM   21  O   UNL     1      -8.021   8.528  68.762  1.00  0.00    -0.114 OA 
HETATM   22  N   UNL     1     -10.532   9.522  67.578  1.00  0.00    -0.259 NA 
HETATM   23  C   UNL     1      -9.396  10.416  68.028  1.00  0.00    -0.140 C  
BRANCH  22  24
HETATM   24  C   UNL     1     -11.071   9.994  66.271  1.00  0.00     0.514 C  
BRANCH  24  25
HETATM   25  C   UNL     1      -9.988  10.082  65.220  1.00  0.00    -0.298 C  
HETATM   26  N   UNL     1     -10.071  10.975  64.217  1.00  0.00    -0.310 NA 
HETATM   27  N   UNL     1      -8.914   9.341  65.195  1.00  0.00    -0.208 NA 
HETATM   28  O   UNL     1      -8.599  11.473  62.507  1.00  0.00    -0.265 OA 
HETATM   29  C   UNL     1      -8.935  10.828  63.482  1.00  0.00    -0.185 C  
HETATM   30  N   UNL     1      -8.236   9.794  64.093  1.00  0.00    -0.146 NA 
HETATM   31  H   UNL     1      -8.642   8.601  65.843  1.00  0.00     0.000 HD 
ENDBRANCH  24  25
ENDBRANCH  22  24
BRANCH  23  32
HETATM   32  C   UNL     1      -9.801  11.882  68.210  1.00  0.00    -0.199 A  
HETATM   33  C   UNL     1     -10.665  14.561  68.276  1.00  0.00    -0.240 A  
HETATM   34  F   UNL     1     -11.106  15.823  68.287  1.00  0.00    -0.280 F  
HETATM   35  C   UNL     1     -10.782  12.292  69.125  1.00  0.00    -0.089 A  
HETATM   36  C   UNL     1      -9.675  14.186  67.381  1.00  0.00    -0.232 A  
HETATM   37  C   UNL     1     -11.214  13.626  69.154  1.00  0.00    -0.309 A  
HETATM   38  C   UNL     1      -9.242  12.856  67.351  1.00  0.00    -0.197 A  
ENDBRANCH  23  32
ENDBRANCH  17  18
ENDBRANCH   2  17
TORSDOF 6
ENDMDL
MODEL      287
REMARK 921   NORMALIZED FREE ENERGY PREDICTED BY IDOCK:   -1.25 KCAL/MOL
REMARK 922        TOTAL FREE ENERGY PREDICTED BY IDOCK:   -3.82 KCAL/MOL
REMARK 923 INTER-LIGAND FREE ENERGY PREDICTED BY IDOCK:   -6.16 KCAL/MOL
REMARK 924 INTRA-LIGAND FREE ENERGY PREDICTED BY IDOCK:    2.34 KCAL/MOL
REMARK 927      BINDING AFFINITY PREDICTED BY RF-SCORE:    0.00 PKD
ROOT
HETATM    1  C   UNL     1     -10.925  11.606  67.225  1.00  0.00    -0.318 C  
HETATM    2  C   UNL     1     -11.056  11.969  68.711  1.00  0.00    -0.249 C  
ENDROOT
BRANCH   2   3
HETATM    3  C   UNL     1     -10.573  10.856  69.657  1.00  0.00    -0.178 A  
HETATM    4  C   UNL     1      -9.219  10.480  69.739  1.00  0.00     0.112 A  
HETATM    5  C   UNL     1     -11.494  10.164  70.464  1.00  0.00    -0.417 A  
HETATM    6  F   UNL     1      -6.527  10.134  70.996  1.00  0.00    -0.092 F  
HETATM    7  F   UNL     1      -7.022   8.076  71.493  1.00  0.00    -0.049 F  
HETATM    8  C   UNL     1     -11.082   9.127  71.327  1.00  0.00    -0.405 A  
HETATM    9  C   UNL     1     -12.076   8.367  72.175  1.00  0.00    -0.373 C  
HETATM   10  C   UNL     1      -9.721   8.780  71.382  1.00  0.00    -0.351 A  
HETATM   11  F   UNL     1      -6.846   8.678  69.412  1.00  0.00    -0.046 F  
HETATM   12  F   UNL     1     -13.357   8.813  72.052  1.00  0.00    -0.324 F  
HETATM   13  F   UNL     1     -12.109   7.041  71.875  1.00  0.00    -0.305 F  
HETATM   14  F   UNL     1     -11.785   8.439  73.505  1.00  0.00     0.169 F  
HETATM   15  C   UNL     1      -7.314   9.084  70.625  1.00  0.00    -0.098 C  
HETATM   16  C   UNL     1      -8.781   9.450  70.590  1.00  0.00    -0.263 A  
ENDBRANCH   2   3
BRANCH   2  17
HETATM   17  O   UNL     1     -12.338  12.566  69.034  1.00  0.00    -0.071 OA 
BRANCH  17  18
HETATM   18  C   UNL     1     -12.402  13.997  68.958  1.00  0.00    -0.104 C  
HETATM   19  C   UNL     1      -9.816  15.025  69.710  1.00  0.00    -0.027 C  
HETATM   20  C   UNL     1     -10.786  14.292  70.629  1.00  0.00     0.665 C  
HETATM   21  O   UNL     1     -12.139  14.570  70.248  1.00  0.00    -0.283 OA 
HETATM   22  N   UNL     1      -9.950  14.643  68.274  1.00  0.00    -0.216 NA 
HETATM   23  C   UNL     1     -11.419  14.710  67.913  1.00  0.00    -0.329 C  
BRANCH  22  24
HETATM   24  C   UNL     1      -9.174  15.624  67.463  1.00  0.00    -0.201 C  
BRANCH  24  25
HETATM   25  C   UNL     1      -8.188  16.394  68.311  1.00  0.00    -0.177 C  
HETATM   26  N   UNL     1      -7.149  15.772  68.897  1.00  0.00    -0.129 NA 
HETATM   27  N   UNL     1      -8.245  17.678  68.537  1.00  0.00    -0.288 NA 
HETATM   28  O   UNL     1      -5.405  16.604  70.164  1.00  0.00    -0.173 OA 
HETATM   29  C   UNL     1      -6.441  16.739  69.541  1.00  0.00    -0.225 C  
HETATM   30  N   UNL     1      -7.148  17.915  69.324  1.00  0.00    -0.169 NA 
HETATM   31  H   UNL     1      -8.940  18.347  68.205  1.00  0.00     0.000 HD 
ENDBRANCH  24  25
ENDBRANCH  22  24
BRANCH  23  32
HETATM   32  C   UNL     1     -11.704  14.402  66.440  1.00  0.00    -0.397 A  
HETATM   33  C   UNL     1     -12.023  13.628  63.752  1.00  0.00    -0.377 A  
HETATM   34  F   UNL     1     -12.168  13.223  62.485  1.00  0.00    -0.145 F  
HETATM   35  C   UNL     1     -12.907  13.831  66.001  1.00  0.00    -0.294 A  
HETATM   36  C   UNL     1     -10.835  14.216  64.155  1.00  0.00     0.151 A  
HETATM   37  C   UNL     1     -13.063  13.441  64.663  1.00  0.00     0.173 A  
HETATM   38  C   UNL     1     -10.677  14.605  65.489  1.00  0.00    -0.360 A  
ENDBRANCH  23  32
ENDBRANCH  17  18
ENDBRANCH   2  17
TORSDOF 6
ENDMDL
MODEL      288
REMARK 921   NORMALIZED FREE ENERGY PREDICTED BY IDOCK:   -1.13 KCAL/MOL
REMARK 922        TOTAL FREE ENERGY PREDICTED BY IDOCK:   -3.66 KCAL/MOL
REMARK 923 INTER-LIGAND FREE ENERGY PREDICTED BY IDOCK:   -4.67 KCAL/MOL
REMARK 924 INTRA-LIGAND FREE ENERGY PREDICTED BY IDOCK:    1.01 KCAL/MOL
REMARK 927      BINDING AFFINITY PREDICTED BY RF-SCORE:    0.00 PKD
ROOT
HETATM    1  C   UNL     1      -6.839   9.370  68.553  1.00  0.00    -0.062 C  
HETATM    2  C   UNL     1      -8.048   8.437  68.710  1.00  0.00    -0.121 C  
ENDROOT
BRANCH   2   3
HETATM    3  C   UNL     1      -8.206   7.439  67.551  1.00  0.00    -0.113 A  
HETATM    4  C   UNL     1      -9.281   6.531  67.487  1.00  0.00    -0.113 A  
HETATM    5  C   UNL     1      -7.254   7.399  66.516  1.00  0.00    -0.079 A  
HETATM    6  F   UNL     1     -11.783   5.296  66.414  1.00  0.00     0.428 F  
HETATM    7  F   UNL     1     -10.599   3.810  65.356  1.00  0.00    -0.071 F  
HETATM    8  C   UNL     1      -7.364   6.482  65.451  1.00  0.00    -0.076 A  
HETATM    9  C   UNL     1      -6.327   6.422  64.353  1.00  0.00    -0.030 C  
HETATM   10  C   UNL     1      -8.451   5.591  65.420  1.00  0.00    -0.146 A  
HETATM   11  F   UNL     1     -10.610   3.845  67.529  1.00  0.00     0.287 F  
HETATM   12  F   UNL     1      -5.338   7.352  64.480  1.00  0.00    -0.027 F  
HETATM   13  F   UNL     1      -5.702   5.215  64.292  1.00  0.00    -0.015 F  
HETATM   14  F   UNL     1      -6.866   6.623  63.117  1.00  0.00    -0.041 F  
HETATM   15  C   UNL     1     -10.584   4.648  66.430  1.00  0.00    -0.046 C  
HETATM   16  C   UNL     1      -9.415   5.606  66.436  1.00  0.00    -0.170 A  
ENDBRANCH   2   3
BRANCH   2  17
HETATM   17  O   UNL     1      -9.251   9.139  69.113  1.00  0.00    -0.141 OA 
BRANCH  17  18
HETATM   18  C   UNL     1     -10.126   9.547  68.052  1.00  0.00    -0.188 C  
HETATM   19  C   UNL     1     -11.137  12.164  68.713  1.00  0.00    -0.250 C  
HETATM   20  C   UNL     1     -11.442  10.873  69.465  1.00  0.00    -0.301 C  
HETATM   21  O   UNL     1     -11.452   9.761  68.562  1.00  0.00    -0.004 OA 
HETATM   22  N   UNL     1      -9.815  12.154  68.023  1.00  0.00    -0.196 NA 
HETATM   23  C   UNL     1      -9.712  10.863  67.238  1.00  0.00    -0.165 C  
BRANCH  22  24
HETATM   24  C   UNL     1      -9.769  13.323  67.100  1.00  0.00    -0.236 C  
BRANCH  24  25
HETATM   25  C   UNL     1     -10.978  13.367  66.194  1.00  0.00    -0.276 C  
HETATM   26  N   UNL     1     -11.369  14.519  65.620  1.00  0.00    -0.331 NA 
HETATM   27  N   UNL     1     -11.716  12.334  65.890  1.00  0.00    -0.463 NA 
HETATM   28  O   UNL     1     -13.075  14.963  64.126  1.00  0.00    -0.318 OA 
HETATM   29  C   UNL     1     -12.444  14.212  64.845  1.00  0.00    -0.401 C  
HETATM   30  N   UNL     1     -12.660  12.853  65.041  1.00  0.00    -0.604 NA 
HETATM   31  H   UNL     1     -11.616  11.370  66.209  1.00  0.00     0.000 HD 
ENDBRANCH  24  25
ENDBRANCH  22  24
BRANCH  23  32
HETATM   32  C   UNL     1      -8.423  10.741  66.420  1.00  0.00    -0.158 A  
HETATM   33  C   UNL     1      -6.187  10.675  64.710  1.00  0.00     0.044 A  
HETATM   34  F   UNL     1      -5.134  10.681  63.886  1.00  0.00    -0.115 F  
HETATM   35  C   UNL     1      -7.226  11.374  66.787  1.00  0.00    -0.131 A  
HETATM   36  C   UNL     1      -7.350  10.019  64.337  1.00  0.00    -0.138 A  
HETATM   37  C   UNL     1      -6.115  11.344  65.932  1.00  0.00     0.257 A  
HETATM   38  C   UNL     1      -8.459  10.047  65.188  1.00  0.00    -0.160 A  
ENDBRANCH  23  32
ENDBRANCH  17  18
ENDBRANCH   2  17
TORSDOF 6
ENDMDL
MODEL      289
REMARK 921   NORMALIZED FREE ENERGY PREDICTED BY IDOCK:   -0.95 KCAL/MOL
REMARK 922        TOTAL FREE ENERGY PREDICTED BY IDOCK:   -3.42 KCAL/MOL
REMARK 923 INTER-LIGAND FREE ENERGY PREDICTED BY IDOCK:   -3.65 KCAL/MOL
REMARK 924 INTRA-LIGAND FREE ENERGY PREDICTED BY IDOCK:    0.23 KCAL/MOL
REMARK 927      BINDING AFFINITY PREDICTED BY RF-SCORE:    0.00 PKD
ROOT
HETATM    1  C   UNL     1     -11.176  12.216  63.931  1.00  0.00    -0.485 C  
HETATM    2  C   UNL     1     -10.889  12.138  65.437  1.00  0.00    -0.294 C  
ENDROOT
BRANCH   2   3
HETATM    3  C   UNL     1     -10.088  13.339  65.970  1.00  0.00    -0.301 A  
HETATM    4  C   UNL     1     -10.547  14.663  65.833  1.00  0.00    -0.319 A  
HETATM    5  C   UNL     1      -8.848  13.139  66.603  1.00  0.00    -0.076 A  
HETATM    6  F   UNL     1     -11.556  17.335  66.721  1.00  0.00     0.477 F  
HETATM    7  F   UNL     1      -9.536  18.133  66.620  1.00  0.00    -0.265 F  
HETATM    8  C   UNL     1      -8.085  14.222  67.084  1.00  0.00    -0.154 A  
HETATM    9  C   UNL     1      -6.740  14.008  67.741  1.00  0.00    -0.177 C  
HETATM   10  C   UNL     1      -8.575  15.530  66.930  1.00  0.00    -0.289 A  
HETATM   11  F   UNL     1     -10.537  17.479  64.805  1.00  0.00     0.018 F  
HETATM   12  F   UNL     1      -6.387  12.697  67.854  1.00  0.00    -0.066 F  
HETATM   13  F   UNL     1      -5.727  14.613  67.064  1.00  0.00     0.257 F  
HETATM   14  F   UNL     1      -6.694  14.514  69.006  1.00  0.00    -0.085 F  
HETATM   15  C   UNL     1     -10.347  17.161  66.116  1.00  0.00    -0.322 C  
HETATM   16  C   UNL     1      -9.806  15.762  66.303  1.00  0.00    -0.320 A  
ENDBRANCH   2   3
BRANCH   2  17
HETATM   17  O   UNL     1     -10.424  10.829  65.855  1.00  0.00    -0.252 OA 
BRANCH  17  18
HETATM   18  C   UNL     1     -11.135  10.230  66.947  1.00  0.00     0.033 C  
HETATM   19  C   UNL     1      -9.276   8.560  68.384  1.00  0.00    -0.135 C  
HETATM   20  C   UNL     1      -9.773   8.324  66.962  1.00  0.00    -0.211 C  
HETATM   21  O   UNL     1     -11.117   8.800  66.820  1.00  0.00     0.183 OA 
HETATM   22  N   UNL     1      -9.272   9.997  68.783  1.00  0.00    -0.152 NA 
HETATM   23  C   UNL     1     -10.622  10.581  68.424  1.00  0.00    -0.199 C  
BRANCH  22  24
HETATM   24  C   UNL     1      -9.057  10.065  70.257  1.00  0.00     0.088 C  
BRANCH  24  25
HETATM   25  C   UNL     1      -8.713   8.711  70.833  1.00  0.00    -0.181 C  
HETATM   26  N   UNL     1      -9.528   8.111  71.720  1.00  0.00    -0.171 NA 
HETATM   27  N   UNL     1      -7.646   8.023  70.530  1.00  0.00    -0.075 NA 
HETATM   28  O   UNL     1      -9.400   6.038  72.733  1.00  0.00    -0.146 OA 
HETATM   29  C   UNL     1      -8.961   6.907  72.003  1.00  0.00    -0.133 C  
HETATM   30  N   UNL     1      -7.781   6.877  71.271  1.00  0.00    -0.091 NA 
HETATM   31  H   UNL     1      -6.891   8.278  69.892  1.00  0.00     0.000 HD 
ENDBRANCH  24  25
ENDBRANCH  22  24
BRANCH  23  32
HETATM   32  C   UNL     1     -10.788  12.047  68.837  1.00  0.00    -0.252 A  
HETATM   33  C   UNL     1     -11.249  14.643  69.825  1.00  0.00    -0.259 A  
HETATM   34  F   UNL     1     -11.465  15.862  70.331  1.00  0.00    -0.274 F  
HETATM   35  C   UNL     1      -9.723  12.833  69.297  1.00  0.00     0.725 A  
HETATM   36  C   UNL     1     -12.315  13.895  69.350  1.00  0.00    -0.240 A  
HETATM   37  C   UNL     1      -9.954  14.125  69.793  1.00  0.00     0.654 A  
HETATM   38  C   UNL     1     -12.086  12.608  68.855  1.00  0.00    -0.164 A  
ENDBRANCH  23  32
ENDBRANCH  17  18
ENDBRANCH   2  17
TORSDOF 6
ENDMDL
MODEL      290
REMARK 921   NORMALIZED FREE ENERGY PREDICTED BY IDOCK:   -0.92 KCAL/MOL
REMARK 922        TOTAL FREE ENERGY PREDICTED BY IDOCK:   -3.37 KCAL/MOL
REMARK 923 INTER-LIGAND FREE ENERGY PREDICTED BY IDOCK:   -2.51 KCAL/MOL
REMARK 924 INTRA-LIGAND FREE ENERGY PREDICTED BY IDOCK:   -0.86 KCAL/MOL
REMARK 927      BINDING AFFINITY PREDICTED BY RF-SCORE:    0.00 PKD
ROOT
HETATM    1  C   UNL     1     -11.523  11.537  66.232  1.00  0.00    -0.124 C  
HETATM    2  C   UNL     1     -10.140  11.174  66.791  1.00  0.00    -0.218 C  
ENDROOT
BRANCH   2   3
HETATM    3  C   UNL     1     -10.190  10.122  67.912  1.00  0.00    -0.217 A  
HETATM    4  C   UNL     1      -9.676   8.822  67.740  1.00  0.00    -0.194 A  
HETATM    5  C   UNL     1     -10.776  10.435  69.152  1.00  0.00    -0.266 A  
HETATM    6  F   UNL     1      -7.854   6.497  68.202  1.00  0.00    -0.098 F  
HETATM    7  F   UNL     1      -9.300   5.633  69.577  1.00  0.00    -0.129 F  
HETATM    8  C   UNL     1     -10.852   9.484  70.190  1.00  0.00    -0.300 A  
HETATM    9  C   UNL     1     -11.504   9.814  71.513  1.00  0.00    -0.323 C  
HETATM   10  C   UNL     1     -10.328   8.197  69.982  1.00  0.00    -0.215 A  
HETATM   11  F   UNL     1      -9.792   5.839  67.470  1.00  0.00    -0.114 F  
HETATM   12  F   UNL     1     -11.950  11.099  71.601  1.00  0.00    -0.232 F  
HETATM   13  F   UNL     1     -12.581   9.025  71.774  1.00  0.00    -0.330 F  
HETATM   14  F   UNL     1     -10.657   9.644  72.567  1.00  0.00     0.449 F  
HETATM   15  C   UNL     1      -9.181   6.471  68.509  1.00  0.00    -0.125 C  
HETATM   16  C   UNL     1      -9.739   7.854  68.759  1.00  0.00    -0.159 A  
ENDBRANCH   2   3
BRANCH   2  17
HETATM   17  O   UNL     1      -9.314  12.338  67.048  1.00  0.00    -0.192 OA 
BRANCH  17  18
HETATM   18  C   UNL     1      -8.522  12.295  68.243  1.00  0.00    -0.173 C  
HETATM   19  C   UNL     1      -5.943  13.420  67.620  1.00  0.00    -0.104 C  
HETATM   20  C   UNL     1      -6.507  12.118  67.062  1.00  0.00    -0.087 C  
HETATM   21  O   UNL     1      -7.354  11.487  68.031  1.00  0.00    -0.083 OA 
HETATM   22  N   UNL     1      -6.991  14.413  67.992  1.00  0.00    -0.125 NA 
HETATM   23  C   UNL     1      -8.027  13.700  68.834  1.00  0.00     0.061 C  
BRANCH  22  24
HETATM   24  C   UNL     1      -6.339  15.495  68.784  1.00  0.00    -0.103 C  
BRANCH  24  25
HETATM   25  C   UNL     1      -6.822  16.864  68.360  1.00  0.00    -0.167 C  
HETATM   26  N   UNL     1      -6.648  17.296  67.098  1.00  0.00    -0.156 NA 
HETATM   27  N   UNL     1      -7.433  17.711  69.143  1.00  0.00    -0.154 NA 
HETATM   28  O   UNL     1      -7.320  19.249  66.062  1.00  0.00    -0.260 OA 
HETATM   29  C   UNL     1      -7.223  18.528  67.036  1.00  0.00    -0.203 C  
HETATM   30  N   UNL     1      -7.689  18.779  68.322  1.00  0.00    -0.288 NA 
HETATM   31  H   UNL     1      -7.666  17.604  70.130  1.00  0.00     0.000 HD 
ENDBRANCH  24  25
ENDBRANCH  22  24
BRANCH  23  32
HETATM   32  C   UNL     1      -9.141  14.617  69.347  1.00  0.00     0.126 A  
HETATM   33  C   UNL     1     -11.372  16.074  70.255  1.00  0.00    -0.382 A  
HETATM   34  F   UNL     1     -12.446  16.734  70.704  1.00  0.00     0.646 F  
HETATM   35  C   UNL     1      -9.202  15.075  70.670  1.00  0.00     1.506 A  
HETATM   36  C   UNL     1     -11.324  15.656  68.935  1.00  0.00    -0.341 A  
HETATM   37  C   UNL     1     -10.316  15.797  71.123  1.00  0.00     0.794 A  
HETATM   38  C   UNL     1     -10.214  14.936  68.482  1.00  0.00    -0.235 A  
ENDBRANCH  23  32
ENDBRANCH  17  18
ENDBRANCH   2  17
TORSDOF 6
ENDMDL
MODEL      291
REMARK 921   NORMALIZED FREE ENERGY PREDICTED BY IDOCK:   -0.90 KCAL/MOL
REMARK 922        TOTAL FREE ENERGY PREDICTED BY IDOCK:   -3.34 KCAL/MOL
REMARK 923 INTER-LIGAND FREE ENERGY PREDICTED BY IDOCK:   -5.08 KCAL/MOL
REMARK 924 INTRA-LIGAND FREE ENERGY PREDICTED BY IDOCK:    1.74 KCAL/MOL
REMARK 927      BINDING AFFINITY PREDICTED BY RF-SCORE:    0.00 PKD
ROOT
HETATM    1  C   UNL     1      -5.470   8.504  69.501  1.00  0.00    -0.030 C  
HETATM    2  C   UNL     1      -6.729   8.962  70.253  1.00  0.00    -0.043 C  
ENDROOT
BRANCH   2   3
HETATM    3  C   UNL     1      -7.524   7.802  70.875  1.00  0.00    -0.073 A  
HETATM    4  C   UNL     1      -6.921   6.573  71.205  1.00  0.00    -0.075 A  
HETATM    5  C   UNL     1      -8.903   7.939  71.118  1.00  0.00    -0.150 A  
HETATM    6  F   UNL     1      -5.940   4.374  72.978  1.00  0.00    -0.010 F  
HETATM    7  F   UNL     1      -7.771   3.260  72.612  1.00  0.00    -0.055 F  
HETATM    8  C   UNL     1      -9.661   6.886  71.671  1.00  0.00    -0.163 A  
HETATM    9  C   UNL     1     -11.147   7.026  71.908  1.00  0.00    -0.242 C  
HETATM   10  C   UNL     1      -9.024   5.675  71.988  1.00  0.00    -0.142 A  
HETATM   11  F   UNL     1      -6.382   3.633  70.983  1.00  0.00    -0.017 F  
HETATM   12  F   UNL     1     -11.642   8.254  71.585  1.00  0.00    -0.274 F  
HETATM   13  F   UNL     1     -11.876   6.127  71.192  1.00  0.00    -0.371 F  
HETATM   14  F   UNL     1     -11.487   6.823  73.213  1.00  0.00    -0.179 F  
HETATM   15  C   UNL     1      -6.950   4.207  72.079  1.00  0.00    -0.046 C  
HETATM   16  C   UNL     1      -7.653   5.507  71.757  1.00  0.00    -0.095 A  
ENDBRANCH   2   3
BRANCH   2  17
HETATM   17  O   UNL     1      -7.503   9.938  69.511  1.00  0.00    -0.085 OA 
BRANCH  17  18
HETATM   18  C   UNL     1      -7.368   9.894  68.083  1.00  0.00    -0.080 C  
HETATM   19  C   UNL     1      -9.702   8.572  67.028  1.00  0.00    -0.204 C  
HETATM   20  C   UNL     1      -8.623   7.925  67.890  1.00  0.00    -0.125 C  
HETATM   21  O   UNL     1      -7.351   8.531  67.632  1.00  0.00    -0.086 OA 
HETATM   22  N   UNL     1      -9.861  10.035  67.268  1.00  0.00    -0.174 NA 
HETATM   23  C   UNL     1      -8.483  10.663  67.227  1.00  0.00    -0.126 C  
BRANCH  22  24
HETATM   24  C   UNL     1     -10.713  10.591  66.179  1.00  0.00    -0.045 C  
BRANCH  24  25
HETATM   25  C   UNL     1     -10.054  10.443  64.826  1.00  0.00    -0.317 C  
HETATM   26  N   UNL     1      -9.472   9.285  64.465  1.00  0.00     0.086 NA 
HETATM   27  N   UNL     1     -10.002  11.380  63.919  1.00  0.00    -0.284 NA 
HETATM   28  O   UNL     1      -8.467   8.650  62.484  1.00  0.00    -0.202 OA 
HETATM   29  C   UNL     1      -9.020   9.467  63.195  1.00  0.00    -0.141 C  
HETATM   30  N   UNL     1      -9.340  10.782  62.877  1.00  0.00    -0.302 NA 
HETATM   31  H   UNL     1     -10.367  12.331  63.972  1.00  0.00     0.000 HD 
ENDBRANCH  24  25
ENDBRANCH  22  24
BRANCH  23  32
HETATM   32  C   UNL     1      -8.496  12.185  67.397  1.00  0.00    -0.173 A  
HETATM   33  C   UNL     1      -8.440  15.000  67.426  1.00  0.00    -0.184 A  
HETATM   34  F   UNL     1      -8.426  16.337  67.403  1.00  0.00    -0.165 F  
HETATM   35  C   UNL     1      -9.674  12.919  67.596  1.00  0.00    -0.212 A  
HETATM   36  C   UNL     1      -7.258  14.297  67.254  1.00  0.00    -0.006 A  
HETATM   37  C   UNL     1      -9.645  14.321  67.607  1.00  0.00    -0.219 A  
HETATM   38  C   UNL     1      -7.284  12.899  67.244  1.00  0.00    -0.075 A  
ENDBRANCH  23  32
ENDBRANCH  17  18
ENDBRANCH   2  17
TORSDOF 6
ENDMDL
MODEL      292
REMARK 921   NORMALIZED FREE ENERGY PREDICTED BY IDOCK:   -0.87 KCAL/MOL
REMARK 922        TOTAL FREE ENERGY PREDICTED BY IDOCK:   -3.31 KCAL/MOL
REMARK 923 INTER-LIGAND FREE ENERGY PREDICTED BY IDOCK:   -2.60 KCAL/MOL
REMARK 924 INTRA-LIGAND FREE ENERGY PREDICTED BY IDOCK:   -0.71 KCAL/MOL
REMARK 927      BINDING AFFINITY PREDICTED BY RF-SCORE:    0.00 PKD
ROOT
HETATM    1  C   UNL     1      -5.885   7.969  68.917  1.00  0.00    -0.035 C  
HETATM    2  C   UNL     1      -7.389   7.958  68.610  1.00  0.00    -0.090 C  
ENDROOT
BRANCH   2   3
HETATM    3  C   UNL     1      -7.851   6.698  67.858  1.00  0.00    -0.112 A  
HETATM    4  C   UNL     1      -9.170   6.549  67.388  1.00  0.00    -0.122 A  
HETATM    5  C   UNL     1      -6.954   5.637  67.635  1.00  0.00    -0.066 A  
HETATM    6  F   UNL     1     -11.360   6.274  65.371  1.00  0.00     1.701 F  
HETATM    7  F   UNL     1     -11.311   4.114  65.608  1.00  0.00     0.150 F  
HETATM    8  C   UNL     1      -7.355   4.463  66.966  1.00  0.00    -0.077 A  
HETATM    9  C   UNL     1      -6.397   3.314  66.748  1.00  0.00    -0.036 C  
HETATM   10  C   UNL     1      -8.679   4.351  66.509  1.00  0.00    -0.112 A  
HETATM   11  F   UNL     1     -11.925   5.375  67.268  1.00  0.00     1.738 F  
HETATM   12  F   UNL     1      -5.138   3.554  67.212  1.00  0.00    -0.006 F  
HETATM   13  F   UNL     1      -6.810   2.170  67.357  1.00  0.00    -0.037 F  
HETATM   14  F   UNL     1      -6.251   3.001  65.429  1.00  0.00    -0.021 F  
HETATM   15  C   UNL     1     -11.030   5.284  66.246  1.00  0.00     0.017 C  
HETATM   16  C   UNL     1      -9.597   5.389  66.717  1.00  0.00    -0.155 A  
ENDBRANCH   2   3
BRANCH   2  17
HETATM   17  O   UNL     1      -7.865   9.222  68.083  1.00  0.00    -0.094 OA 
BRANCH  17  18
HETATM   18  C   UNL     1      -7.819  10.336  68.985  1.00  0.00    -0.114 C  
HETATM   19  C   UNL     1      -8.084  12.739  67.415  1.00  0.00    -0.185 C  
HETATM   20  C   UNL     1      -6.905  11.773  67.376  1.00  0.00    -0.122 C  
HETATM   21  O   UNL     1      -6.704  11.182  68.666  1.00  0.00    -0.056 OA 
HETATM   22  N   UNL     1      -9.371  12.094  67.802  1.00  0.00    -0.186 NA 
HETATM   23  C   UNL     1      -9.120  11.270  69.047  1.00  0.00     0.029 C  
BRANCH  22  24
HETATM   24  C   UNL     1     -10.359  13.173  68.089  1.00  0.00    -0.244 C  
BRANCH  24  25
HETATM   25  C   UNL     1     -11.176  13.521  66.865  1.00  0.00    -0.311 C  
HETATM   26  N   UNL     1     -10.959  14.667  66.194  1.00  0.00    -0.323 NA 
HETATM   27  N   UNL     1     -12.118  12.770  66.363  1.00  0.00    -0.520 NA 
HETATM   28  O   UNL     1     -11.916  15.491  64.259  1.00  0.00    -0.465 OA 
HETATM   29  C   UNL     1     -11.817  14.656  65.137  1.00  0.00    -0.351 C  
HETATM   30  N   UNL     1     -12.544  13.479  65.269  1.00  0.00    -0.577 NA 
HETATM   31  H   UNL     1     -12.457  11.870  66.703  1.00  0.00     0.000 HD 
ENDBRANCH  24  25
ENDBRANCH  22  24
BRANCH  23  32
HETATM   32  C   UNL     1     -10.378  10.595  69.602  1.00  0.00    -0.185 A  
HETATM   33  C   UNL     1     -12.526   9.274  70.853  1.00  0.00    -0.128 A  
HETATM   34  F   UNL     1     -13.533   8.657  71.482  1.00  0.00    -0.336 F  
HETATM   35  C   UNL     1     -11.497  11.315  70.044  1.00  0.00    -0.359 A  
HETATM   36  C   UNL     1     -11.444   8.536  70.400  1.00  0.00    -0.135 A  
HETATM   37  C   UNL     1     -12.564  10.656  70.671  1.00  0.00    -0.454 A  
HETATM   38  C   UNL     1     -10.379   9.191  69.774  1.00  0.00    -0.226 A  
ENDBRANCH  23  32
ENDBRANCH  17  18
ENDBRANCH   2  17
TORSDOF 6
ENDMDL
MODEL      293
REMARK 921   NORMALIZED FREE ENERGY PREDICTED BY IDOCK:   -0.81 KCAL/MOL
REMARK 922        TOTAL FREE ENERGY PREDICTED BY IDOCK:   -3.23 KCAL/MOL
REMARK 923 INTER-LIGAND FREE ENERGY PREDICTED BY IDOCK:   -4.10 KCAL/MOL
REMARK 924 INTRA-LIGAND FREE ENERGY PREDICTED BY IDOCK:    0.87 KCAL/MOL
REMARK 927      BINDING AFFINITY PREDICTED BY RF-SCORE:    0.00 PKD
ROOT
HETATM    1  C   UNL     1      -7.575  15.533  66.480  1.00  0.00     0.317 C  
HETATM    2  C   UNL     1      -8.589  14.795  67.366  1.00  0.00    -0.196 C  
ENDROOT
BRANCH   2   3
HETATM    3  C   UNL     1      -7.932  13.911  68.441  1.00  0.00    -0.144 A  
HETATM    4  C   UNL     1      -7.351  14.455  69.602  1.00  0.00     0.046 A  
HETATM    5  C   UNL     1      -7.882  12.515  68.277  1.00  0.00    -0.144 A  
HETATM    6  F   UNL     1      -7.025  14.999  72.524  1.00  0.00     1.462 F  
HETATM    7  F   UNL     1      -5.557  13.401  72.660  1.00  0.00    -0.087 F  
HETATM    8  C   UNL     1      -7.270  11.683  69.236  1.00  0.00    -0.020 A  
HETATM    9  C   UNL     1      -7.195  10.185  69.046  1.00  0.00    -0.076 C  
HETATM   10  C   UNL     1      -6.701  12.262  70.383  1.00  0.00     0.947 A  
HETATM   11  F   UNL     1      -5.127  15.174  71.479  1.00  0.00    -0.145 F  
HETATM   12  F   UNL     1      -7.805   9.745  67.910  1.00  0.00    -0.089 F  
HETATM   13  F   UNL     1      -5.914   9.732  68.986  1.00  0.00    -0.036 F  
HETATM   14  F   UNL     1      -7.782   9.502  70.070  1.00  0.00    -0.078 F  
HETATM   15  C   UNL     1      -6.115  14.293  71.795  1.00  0.00     0.213 C  
HETATM   16  C   UNL     1      -6.734  13.648  70.575  1.00  0.00     0.532 A  
ENDBRANCH   2   3
BRANCH   2  17
HETATM   17  O   UNL     1      -9.659  14.180  66.605  1.00  0.00    -0.268 OA 
BRANCH  17  18
HETATM   18  C   UNL     1     -10.985  14.642  66.897  1.00  0.00    -0.324 C  
HETATM   19  C   UNL     1     -11.697  13.650  69.508  1.00  0.00    -0.322 C  
HETATM   20  C   UNL     1     -11.471  12.801  68.262  1.00  0.00    -0.314 C  
HETATM   21  O   UNL     1     -11.865  13.524  67.089  1.00  0.00    -0.354 OA 
HETATM   22  N   UNL     1     -10.928  14.928  69.507  1.00  0.00    -0.265 NA 
HETATM   23  C   UNL     1     -11.152  15.602  68.169  1.00  0.00    -0.330 C  
BRANCH  22  24
HETATM   24  C   UNL     1     -11.454  15.783  70.608  1.00  0.00    -0.390 C  
BRANCH  24  25
HETATM   25  C   UNL     1     -12.585  15.106  71.349  1.00  0.00    -0.354 C  
HETATM   26  N   UNL     1     -12.523  13.797  71.653  1.00  0.00    -0.271 NA 
HETATM   27  N   UNL     1     -13.673  15.704  71.752  1.00  0.00    -0.449 NA 
HETATM   28  O   UNL     1     -13.977  12.448  72.839  1.00  0.00     0.075 OA 
HETATM   29  C   UNL     1     -13.660  13.514  72.346  1.00  0.00    -0.608 C  
HETATM   30  N   UNL     1     -14.373  14.706  72.380  1.00  0.00    -0.451 NA 
HETATM   31  H   UNL     1     -13.939  16.681  71.630  1.00  0.00     0.000 HD 
ENDBRANCH  24  25
ENDBRANCH  22  24
BRANCH  23  32
HETATM   32  C   UNL     1     -10.468  16.967  68.046  1.00  0.00    -0.353 A  
HETATM   33  C   UNL     1      -8.958  19.331  67.807  1.00  0.00    -0.307 A  
HETATM   34  F   UNL     1      -8.215  20.435  67.670  1.00  0.00    -0.341 F  
HETATM   35  C   UNL     1     -10.594  17.782  66.912  1.00  0.00    -0.247 A  
HETATM   36  C   UNL     1      -8.835  18.557  68.950  1.00  0.00    -0.186 A  
HETATM   37  C   UNL     1      -9.838  18.957  66.792  1.00  0.00    -0.387 A  
HETATM   38  C   UNL     1      -9.589  17.385  69.072  1.00  0.00    -0.162 A  
ENDBRANCH  23  32
ENDBRANCH  17  18
ENDBRANCH   2  17
TORSDOF 6
ENDMDL
MODEL      294
REMARK 921   NORMALIZED FREE ENERGY PREDICTED BY IDOCK:   -0.50 KCAL/MOL
REMARK 922        TOTAL FREE ENERGY PREDICTED BY IDOCK:   -2.81 KCAL/MOL
REMARK 923 INTER-LIGAND FREE ENERGY PREDICTED BY IDOCK:   -2.91 KCAL/MOL
REMARK 924 INTRA-LIGAND FREE ENERGY PREDICTED BY IDOCK:    0.10 KCAL/MOL
REMARK 927      BINDING AFFINITY PREDICTED BY RF-SCORE:    0.00 PKD
ROOT
HETATM    1  C   UNL     1      -7.707  10.005  68.187  1.00  0.00    -0.085 C  
HETATM    2  C   UNL     1      -8.094   8.522  68.272  1.00  0.00    -0.119 C  
ENDROOT
BRANCH   2   3
HETATM    3  C   UNL     1      -7.453   7.790  69.464  1.00  0.00    -0.094 A  
HETATM    4  C   UNL     1      -7.088   6.432  69.399  1.00  0.00    -0.073 A  
HETATM    5  C   UNL     1      -7.229   8.470  70.675  1.00  0.00    -0.052 A  
HETATM    6  F   UNL     1      -5.252   4.071  69.374  1.00  0.00    -0.006 F  
HETATM    7  F   UNL     1      -5.613   3.766  71.496  1.00  0.00    -0.006 F  
HETATM    8  C   UNL     1      -6.661   7.819  71.790  1.00  0.00    -0.050 A  
HETATM    9  C   UNL     1      -6.444   8.544  73.098  1.00  0.00    -0.080 C  
HETATM   10  C   UNL     1      -6.308   6.463  71.686  1.00  0.00    -0.042 A  
HETATM   11  F   UNL     1      -7.234   3.515  70.071  1.00  0.00    -0.040 F  
HETATM   12  F   UNL     1      -6.802   9.858  73.064  1.00  0.00     0.959 F  
HETATM   13  F   UNL     1      -7.147   7.989  74.123  1.00  0.00    -0.129 F  
HETATM   14  F   UNL     1      -5.139   8.526  73.492  1.00  0.00    -0.045 F  
HETATM   15  C   UNL     1      -6.159   4.296  70.366  1.00  0.00    -0.018 C  
HETATM   16  C   UNL     1      -6.519   5.759  70.495  1.00  0.00    -0.036 A  
ENDBRANCH   2   3
BRANCH   2  17
HETATM   17  O   UNL     1      -8.012   7.845  66.993  1.00  0.00    -0.109 OA 
BRANCH  17  18
HETATM   18  C   UNL     1      -9.263   7.464  66.402  1.00  0.00    -0.159 C  
HETATM   19  C   UNL     1     -10.439   5.439  68.083  1.00  0.00    -0.120 C  
HETATM   20  C   UNL     1      -9.161   5.288  67.265  1.00  0.00    -0.113 C  
HETATM   21  O   UNL     1      -9.244   6.068  66.065  1.00  0.00    -0.161 OA 
HETATM   22  N   UNL     1     -10.719   6.843  68.498  1.00  0.00    -0.216 NA 
HETATM   23  C   UNL     1     -10.583   7.724  67.273  1.00  0.00    -0.306 C  
BRANCH  22  24
HETATM   24  C   UNL     1     -12.115   6.900  69.019  1.00  0.00     1.369 C  
BRANCH  24  25
HETATM   25  C   UNL     1     -12.148   7.260  70.486  1.00  0.00    -0.113 C  
HETATM   26  N   UNL     1     -11.025   7.235  71.228  1.00  0.00    -0.240 NA 
HETATM   27  N   UNL     1     -13.218   7.622  71.139  1.00  0.00    -0.569 NA 
HETATM   28  O   UNL     1     -10.658   7.803  73.438  1.00  0.00    -0.348 OA 
HETATM   29  C   UNL     1     -11.384   7.647  72.474  1.00  0.00    -0.355 C  
HETATM   30  N   UNL     1     -12.755   7.863  72.407  1.00  0.00    -0.150 NA 
HETATM   31  H   UNL     1     -14.173   7.706  70.789  1.00  0.00     0.000 HD 
ENDBRANCH  24  25
ENDBRANCH  22  24
BRANCH  23  32
HETATM   32  C   UNL     1     -10.907   9.197  67.535  1.00  0.00    -0.151 A  
HETATM   33  C   UNL     1     -11.704  11.884  67.804  1.00  0.00    -0.292 A  
HETATM   34  F   UNL     1     -12.120  13.150  67.923  1.00  0.00    -0.366 F  
HETATM   35  C   UNL     1     -11.524   9.643  68.713  1.00  0.00     0.209 A  
HETATM   36  C   UNL     1     -11.073  11.474  66.641  1.00  0.00    -0.355 A  
HETATM   37  C   UNL     1     -11.924  10.981  68.844  1.00  0.00    -0.332 A  
HETATM   38  C   UNL     1     -10.672  10.141  66.508  1.00  0.00    -0.118 A  
ENDBRANCH  23  32
ENDBRANCH  17  18
ENDBRANCH   2  17
TORSDOF 6
ENDMDL
MODEL      295
REMARK 921   NORMALIZED FREE ENERGY PREDICTED BY IDOCK:   -0.32 KCAL/MOL
REMARK 922        TOTAL FREE ENERGY PREDICTED BY IDOCK:   -2.57 KCAL/MOL
REMARK 923 INTER-LIGAND FREE ENERGY PREDICTED BY IDOCK:   -3.20 KCAL/MOL
REMARK 924 INTRA-LIGAND FREE ENERGY PREDICTED BY IDOCK:    0.64 KCAL/MOL
REMARK 927      BINDING AFFINITY PREDICTED BY RF-SCORE:    0.00 PKD
ROOT
HETATM    1  C   UNL     1      -9.063   9.216  71.328  1.00  0.00    -0.232 C  
HETATM    2  C   UNL     1      -8.923   9.549  69.836  1.00  0.00    -0.212 C  
ENDROOT
BRANCH   2   3
HETATM    3  C   UNL     1      -9.819  10.714  69.383  1.00  0.00    -0.164 A  
HETATM    4  C   UNL     1      -9.805  11.199  68.061  1.00  0.00    -0.185 A  
HETATM    5  C   UNL     1     -10.678  11.346  70.301  1.00  0.00     0.816 A  
HETATM    6  F   UNL     1     -10.873  11.783  65.329  1.00  0.00    -0.305 F  
HETATM    7  F   UNL     1     -11.375  13.804  65.956  1.00  0.00    -0.303 F  
HETATM    8  C   UNL     1     -11.497  12.428  69.919  1.00  0.00    -0.172 A  
HETATM    9  C   UNL     1     -12.400  13.122  70.912  1.00  0.00    -0.307 C  
HETATM   10  C   UNL     1     -11.456  12.883  68.590  1.00  0.00    -0.346 A  
HETATM   11  F   UNL     1      -9.295  13.179  65.869  1.00  0.00    -0.204 F  
HETATM   12  F   UNL     1     -12.370  12.572  72.159  1.00  0.00    -0.007 F  
HETATM   13  F   UNL     1     -12.086  14.435  71.073  1.00  0.00    -0.343 F  
HETATM   14  F   UNL     1     -13.709  13.098  70.530  1.00  0.00     0.398 F  
HETATM   15  C   UNL     1     -10.542  12.759  66.221  1.00  0.00    -0.257 C  
HETATM   16  C   UNL     1     -10.611  12.276  67.652  1.00  0.00    -0.238 A  
ENDBRANCH   2   3
BRANCH   2  17
HETATM   17  O   UNL     1      -8.939   8.370  68.991  1.00  0.00    -0.145 OA 
BRANCH  17  18
HETATM   18  C   UNL     1      -8.084   8.410  67.841  1.00  0.00    -0.123 C  
HETATM   19  C   UNL     1      -5.527   7.330  68.618  1.00  0.00    -0.022 C  
HETATM   20  C   UNL     1      -6.139   8.630  69.127  1.00  0.00    -0.043 C  
HETATM   21  O   UNL     1      -6.940   9.236  68.105  1.00  0.00    -0.074 OA 
HETATM   22  N   UNL     1      -6.540   6.316  68.204  1.00  0.00    -0.063 NA 
HETATM   23  C   UNL     1      -7.538   7.004  67.296  1.00  0.00    -0.108 C  
BRANCH  22  24
HETATM   24  C   UNL     1      -5.832   5.234  67.463  1.00  0.00    -0.018 C  
BRANCH  24  25
HETATM   25  C   UNL     1      -6.371   3.868  67.821  1.00  0.00    -0.037 C  
HETATM   26  N   UNL     1      -6.461   3.477  69.104  1.00  0.00    -0.033 NA 
HETATM   27  N   UNL     1      -6.792   2.985  66.956  1.00  0.00    -0.045 NA 
HETATM   28  O   UNL     1      -7.306   1.541  70.041  1.00  0.00    -0.036 OA 
HETATM   29  C   UNL     1      -7.017   2.235  69.085  1.00  0.00    -0.040 C  
HETATM   30  N   UNL     1      -7.198   1.936  67.740  1.00  0.00    -0.046 NA 
HETATM   31  H   UNL     1      -6.814   3.059  65.939  1.00  0.00     0.000 HD 
ENDBRANCH  24  25
ENDBRANCH  22  24
BRANCH  23  32
HETATM   32  C   UNL     1      -8.611   6.065  66.737  1.00  0.00    -0.110 A  
HETATM   33  C   UNL     1     -10.725   4.579  65.621  1.00  0.00    -0.118 A  
HETATM   34  F   UNL     1     -11.733   3.900  65.062  1.00  0.00     0.405 F  
HETATM   35  C   UNL     1      -8.388   5.226  65.636  1.00  0.00    -0.126 A  
HETATM   36  C   UNL     1     -10.965   5.380  66.726  1.00  0.00    -0.035 A  
HETATM   37  C   UNL     1      -9.444   4.489  65.078  1.00  0.00    -0.156 A  
HETATM   38  C   UNL     1      -9.914   6.115  67.284  1.00  0.00    -0.174 A  
ENDBRANCH  23  32
ENDBRANCH  17  18
ENDBRANCH   2  17
TORSDOF 6
ENDMDL
MODEL      296
REMARK 921   NORMALIZED FREE ENERGY PREDICTED BY IDOCK:   -0.26 KCAL/MOL
REMARK 922        TOTAL FREE ENERGY PREDICTED BY IDOCK:   -2.49 KCAL/MOL
REMARK 923 INTER-LIGAND FREE ENERGY PREDICTED BY IDOCK:   -8.51 KCAL/MOL
REMARK 924 INTRA-LIGAND FREE ENERGY PREDICTED BY IDOCK:    6.02 KCAL/MOL
REMARK 927      BINDING AFFINITY PREDICTED BY RF-SCORE:    0.00 PKD
ROOT
HETATM    1  C   UNL     1      -9.192   8.882  68.579  1.00  0.00    -0.137 C  
HETATM    2  C   UNL     1      -9.178  10.129  69.476  1.00  0.00    -0.204 C  
ENDROOT
BRANCH   2   3
HETATM    3  C   UNL     1     -10.506  10.367  70.214  1.00  0.00    -0.110 A  
HETATM    4  C   UNL     1     -11.066  11.651  70.351  1.00  0.00     0.646 A  
HETATM    5  C   UNL     1     -11.196   9.287  70.796  1.00  0.00    -0.351 A  
HETATM    6  F   UNL     1     -13.060  13.844  69.952  1.00  0.00    -0.164 F  
HETATM    7  F   UNL     1     -13.989  13.348  71.854  1.00  0.00    -0.456 F  
HETATM    8  C   UNL     1     -12.406   9.478  71.495  1.00  0.00    -0.465 A  
HETATM    9  C   UNL     1     -13.133   8.321  72.141  1.00  0.00    -0.287 C  
HETATM   10  C   UNL     1     -12.935  10.775  71.610  1.00  0.00    -0.581 A  
HETATM   11  F   UNL     1     -11.956  14.116  71.806  1.00  0.00    -0.363 F  
HETATM   12  F   UNL     1     -12.535   7.114  71.937  1.00  0.00    -0.325 F  
HETATM   13  F   UNL     1     -13.243   8.463  73.489  1.00  0.00     0.394 F  
HETATM   14  F   UNL     1     -14.408   8.185  71.677  1.00  0.00    -0.418 F  
HETATM   15  C   UNL     1     -12.815  13.275  71.167  1.00  0.00    -0.280 C  
HETATM   16  C   UNL     1     -12.271  11.870  71.043  1.00  0.00    -0.275 A  
ENDBRANCH   2   3
BRANCH   2  17
HETATM   17  O   UNL     1      -8.599  11.286  68.821  1.00  0.00    -0.158 OA 
BRANCH  17  18
HETATM   18  C   UNL     1      -8.905  11.438  67.428  1.00  0.00    -0.150 C  
HETATM   19  C   UNL     1     -11.771  11.610  67.178  1.00  0.00    -0.133 C  
HETATM   20  C   UNL     1     -10.987  10.384  67.631  1.00  0.00    -0.312 C  
HETATM   21  O   UNL     1      -9.712  10.339  66.978  1.00  0.00    -0.166 OA 
HETATM   22  N   UNL     1     -11.086  12.901  67.476  1.00  0.00    -0.258 NA 
HETATM   23  C   UNL     1      -9.654  12.787  66.994  1.00  0.00    -0.229 C  
BRANCH  22  24
HETATM   24  C   UNL     1     -11.794  13.981  66.733  1.00  0.00    -0.424 C  
BRANCH  24  25
HETATM   25  C   UNL     1     -12.129  13.560  65.321  1.00  0.00    -0.411 C  
HETATM   26  N   UNL     1     -12.751  12.391  65.079  1.00  0.00    -0.640 NA 
HETATM   27  N   UNL     1     -11.867  14.264  64.253  1.00  0.00    -0.605 NA 
HETATM   28  O   UNL     1     -13.504  11.459  63.104  1.00  0.00     0.025 OA 
HETATM   29  C   UNL     1     -12.941  12.334  63.733  1.00  0.00    -0.196 C  
HETATM   30  N   UNL     1     -12.368  13.497  63.233  1.00  0.00    -0.734 NA 
HETATM   31  H   UNL     1     -11.401  15.169  64.193  1.00  0.00     0.000 HD 
ENDBRANCH  24  25
ENDBRANCH  22  24
BRANCH  23  32
HETATM   32  C   UNL     1      -8.839  14.070  67.178  1.00  0.00    -0.239 A  
HETATM   33  C   UNL     1      -7.103  16.257  67.536  1.00  0.00    -0.151 A  
HETATM   34  F   UNL     1      -6.250  17.277  67.685  1.00  0.00    -0.135 F  
HETATM   35  C   UNL     1      -8.655  15.008  66.153  1.00  0.00     0.232 A  
HETATM   36  C   UNL     1      -7.289  15.358  68.574  1.00  0.00    -0.116 A  
HETATM   37  C   UNL     1      -7.786  16.095  66.331  1.00  0.00    -0.197 A  
HETATM   38  C   UNL     1      -8.154  14.275  68.399  1.00  0.00    -0.142 A  
ENDBRANCH  23  32
ENDBRANCH  17  18
ENDBRANCH   2  17
TORSDOF 6
ENDMDL
MODEL      297
REMARK 921   NORMALIZED FREE ENERGY PREDICTED BY IDOCK:   -0.15 KCAL/MOL
REMARK 922        TOTAL FREE ENERGY PREDICTED BY IDOCK:   -2.34 KCAL/MOL
REMARK 923 INTER-LIGAND FREE ENERGY PREDICTED BY IDOCK:   -2.23 KCAL/MOL
REMARK 924 INTRA-LIGAND FREE ENERGY PREDICTED BY IDOCK:   -0.11 KCAL/MOL
REMARK 927      BINDING AFFINITY PREDICTED BY RF-SCORE:    0.00 PKD
ROOT
HETATM    1  C   UNL     1      -6.432   8.522  67.996  1.00  0.00    -0.057 C  
HETATM    2  C   UNL     1      -7.696   7.712  68.319  1.00  0.00    -0.120 C  
ENDROOT
BRANCH   2   3
HETATM    3  C   UNL     1      -7.974   6.584  67.310  1.00  0.00    -0.113 A  
HETATM    4  C   UNL     1      -6.935   5.889  66.662  1.00  0.00    -0.064 A  
HETATM    5  C   UNL     1      -9.297   6.227  66.994  1.00  0.00    -0.135 A  
HETATM    6  F   UNL     1      -5.210   3.553  65.950  1.00  0.00    -0.007 F  
HETATM    7  F   UNL     1      -6.415   3.201  64.175  1.00  0.00    -0.027 F  
HETATM    8  C   UNL     1      -9.581   5.210  66.060  1.00  0.00    -0.176 A  
HETATM    9  C   UNL     1     -11.003   4.844  65.702  1.00  0.00     0.068 C  
HETATM   10  C   UNL     1      -8.518   4.537  65.433  1.00  0.00    -0.123 A  
HETATM   11  F   UNL     1      -5.240   5.021  64.347  1.00  0.00    -0.008 F  
HETATM   12  F   UNL     1     -11.942   5.548  66.394  1.00  0.00     0.823 F  
HETATM   13  F   UNL     1     -11.277   5.046  64.385  1.00  0.00     0.438 F  
HETATM   14  F   UNL     1     -11.277   3.530  65.940  1.00  0.00     1.379 F  
HETATM   15  C   UNL     1      -6.032   4.168  65.054  1.00  0.00    -0.023 C  
HETATM   16  C   UNL     1      -7.190   4.871  65.726  1.00  0.00    -0.076 A  
ENDBRANCH   2   3
BRANCH   2  17
HETATM   17  O   UNL     1      -8.829   8.550  68.662  1.00  0.00    -0.135 OA 
BRANCH  17  18
HETATM   18  C   UNL     1      -9.783   8.777  67.616  1.00  0.00    -0.169 C  
HETATM   19  C   UNL     1     -10.913  11.398  68.021  1.00  0.00    -0.237 C  
HETATM   20  C   UNL     1     -11.098  10.195  68.939  1.00  0.00    -0.207 C  
HETATM   21  O   UNL     1     -11.089   8.981  68.177  1.00  0.00     0.006 OA 
HETATM   22  N   UNL     1      -9.632  11.375  67.257  1.00  0.00    -0.174 NA 
HETATM   23  C   UNL     1      -9.494  10.005  66.627  1.00  0.00    -0.171 C  
BRANCH  22  24
HETATM   24  C   UNL     1      -9.707  12.423  66.200  1.00  0.00    -0.246 C  
BRANCH  24  25
HETATM   25  C   UNL     1     -11.017  12.363  65.448  1.00  0.00    -0.299 C  
HETATM   26  N   UNL     1     -11.128  11.653  64.311  1.00  0.00    -0.343 NA 
HETATM   27  N   UNL     1     -12.116  12.960  65.821  1.00  0.00    -0.444 NA 
HETATM   28  O   UNL     1     -12.952  11.246  62.953  1.00  0.00     0.133 OA 
HETATM   29  C   UNL     1     -12.425  11.769  63.915  1.00  0.00    -0.274 C  
HETATM   30  N   UNL     1     -13.020  12.602  64.854  1.00  0.00    -0.850 NA 
HETATM   31  H   UNL     1     -12.267  13.552  66.638  1.00  0.00     0.000 HD 
ENDBRANCH  24  25
ENDBRANCH  22  24
BRANCH  23  32
HETATM   32  C   UNL     1      -8.246   9.853  65.752  1.00  0.00    -0.125 A  
HETATM   33  C   UNL     1      -6.124   9.635  63.914  1.00  0.00    -0.102 A  
HETATM   34  F   UNL     1      -5.133   9.560  63.020  1.00  0.00    -0.064 F  
HETATM   35  C   UNL     1      -7.177  10.760  65.787  1.00  0.00    -0.057 A  
HETATM   36  C   UNL     1      -7.156   8.709  63.877  1.00  0.00    -0.094 A  
HETATM   37  C   UNL     1      -6.123  10.653  64.868  1.00  0.00     0.000 A  
HETATM   38  C   UNL     1      -8.207   8.814  64.793  1.00  0.00    -0.163 A  
ENDBRANCH  23  32
ENDBRANCH  17  18
ENDBRANCH   2  17
TORSDOF 6
ENDMDL
MODEL      298
REMARK 921   NORMALIZED FREE ENERGY PREDICTED BY IDOCK:   -0.01 KCAL/MOL
REMARK 922        TOTAL FREE ENERGY PREDICTED BY IDOCK:   -2.15 KCAL/MOL
REMARK 923 INTER-LIGAND FREE ENERGY PREDICTED BY IDOCK:   -5.36 KCAL/MOL
REMARK 924 INTRA-LIGAND FREE ENERGY PREDICTED BY IDOCK:    3.22 KCAL/MOL
REMARK 927      BINDING AFFINITY PREDICTED BY RF-SCORE:    0.00 PKD
ROOT
HETATM    1  C   UNL     1      -5.912   9.382  70.250  1.00  0.00    -0.040 C  
HETATM    2  C   UNL     1      -7.382   9.774  70.464  1.00  0.00    -0.112 C  
ENDROOT
BRANCH   2   3
HETATM    3  C   UNL     1      -8.185   8.727  71.254  1.00  0.00    -0.212 A  
HETATM    4  C   UNL     1      -7.558   7.727  72.021  1.00  0.00    -0.089 A  
HETATM    5  C   UNL     1      -9.591   8.734  71.213  1.00  0.00    -0.323 A  
HETATM    6  F   UNL     1      -6.767   6.241  74.493  1.00  0.00    -0.078 F  
HETATM    7  F   UNL     1      -8.388   4.830  74.166  1.00  0.00    -0.101 F  
HETATM    8  C   UNL     1     -10.352   7.775  71.912  1.00  0.00    -0.256 A  
HETATM    9  C   UNL     1     -11.862   7.769  71.848  1.00  0.00    -0.297 C  
HETATM   10  C   UNL     1      -9.691   6.793  72.669  1.00  0.00    -0.164 A  
HETATM   11  F   UNL     1      -6.740   4.938  72.754  1.00  0.00    -0.053 F  
HETATM   12  F   UNL     1     -12.384   8.785  71.105  1.00  0.00    -0.302 F  
HETATM   13  F   UNL     1     -12.356   6.620  71.312  1.00  0.00    -0.376 F  
HETATM   14  F   UNL     1     -12.436   7.880  73.080  1.00  0.00    -0.122 F  
HETATM   15  C   UNL     1      -7.561   5.702  73.525  1.00  0.00    -0.095 C  
HETATM   16  C   UNL     1      -8.292   6.758  72.728  1.00  0.00    -0.115 A  
ENDBRANCH   2   3
BRANCH   2  17
HETATM   17  O   UNL     1      -8.010  10.280  69.259  1.00  0.00    -0.123 OA 
BRANCH  17  18
HETATM   18  C   UNL     1      -7.369   9.934  68.023  1.00  0.00    -0.084 C  
HETATM   19  C   UNL     1      -7.966   7.168  67.476  1.00  0.00    -0.113 C  
HETATM   20  C   UNL     1      -7.113   7.686  68.629  1.00  0.00    -0.080 C  
HETATM   21  O   UNL     1      -6.421   8.878  68.239  1.00  0.00    -0.058 OA 
HETATM   22  N   UNL     1      -9.000   8.139  67.015  1.00  0.00    -0.137 NA 
HETATM   23  C   UNL     1      -8.321   9.478  66.817  1.00  0.00    -0.116 C  
BRANCH  22  24
HETATM   24  C   UNL     1      -9.551   7.645  65.721  1.00  0.00     0.366 C  
BRANCH  24  25
HETATM   25  C   UNL     1      -8.473   7.047  64.847  1.00  0.00     0.071 C  
HETATM   26  N   UNL     1      -7.755   7.820  64.012  1.00  0.00    -0.120 NA 
HETATM   27  N   UNL     1      -8.145   5.784  64.830  1.00  0.00    -0.126 NA 
HETATM   28  O   UNL     1      -5.989   7.303  62.615  1.00  0.00    -0.048 OA 
HETATM   29  C   UNL     1      -6.853   6.996  63.412  1.00  0.00    -0.052 C  
HETATM   30  N   UNL     1      -7.124   5.729  63.917  1.00  0.00    -0.050 NA 
HETATM   31  H   UNL     1      -8.552   5.019  65.368  1.00  0.00     0.000 HD 
ENDBRANCH  24  25
ENDBRANCH  22  24
BRANCH  23  32
HETATM   32  C   UNL     1      -9.254  10.568  66.280  1.00  0.00    -0.192 A  
HETATM   33  C   UNL     1     -11.055  12.375  65.090  1.00  0.00    -0.309 A  
HETATM   34  F   UNL     1     -11.936  13.203  64.517  1.00  0.00    -0.360 F  
HETATM   35  C   UNL     1     -10.371  11.031  66.989  1.00  0.00    -0.269 A  
HETATM   36  C   UNL     1      -9.944  11.953  64.378  1.00  0.00    -0.260 A  
HETATM   37  C   UNL     1     -11.270  11.928  66.393  1.00  0.00    -0.387 A  
HETATM   38  C   UNL     1      -9.046  11.059  64.970  1.00  0.00    -0.182 A  
ENDBRANCH  23  32
ENDBRANCH  17  18
ENDBRANCH   2  17
TORSDOF 6
ENDMDL
MODEL      299
REMARK 921   NORMALIZED FREE ENERGY PREDICTED BY IDOCK:    0.18 KCAL/MOL
REMARK 922        TOTAL FREE ENERGY PREDICTED BY IDOCK:   -1.90 KCAL/MOL
REMARK 923 INTER-LIGAND FREE ENERGY PREDICTED BY IDOCK:   -8.94 KCAL/MOL
REMARK 924 INTRA-LIGAND FREE ENERGY PREDICTED BY IDOCK:    7.04 KCAL/MOL
REMARK 927      BINDING AFFINITY PREDICTED BY RF-SCORE:    0.00 PKD
ROOT
HETATM    1  C   UNL     1      -9.117   8.460  68.268  1.00  0.00    -0.139 C  
HETATM    2  C   UNL     1      -9.078   9.500  69.397  1.00  0.00    -0.168 C  
ENDROOT
BRANCH   2   3
HETATM    3  C   UNL     1     -10.402   9.612  70.171  1.00  0.00    -0.315 A  
HETATM    4  C   UNL     1     -11.111   8.476  70.608  1.00  0.00    -0.280 A  
HETATM    5  C   UNL     1     -10.955  10.875  70.452  1.00  0.00     0.060 A  
HETATM    6  F   UNL     1     -12.297   6.553  72.567  1.00  0.00    -0.225 F  
HETATM    7  F   UNL     1     -14.217   7.559  72.395  1.00  0.00    -0.255 F  
HETATM    8  C   UNL     1     -12.176  11.006  71.144  1.00  0.00    -0.415 A  
HETATM    9  C   UNL     1     -12.781  12.363  71.423  1.00  0.00    -0.243 C  
HETATM   10  C   UNL     1     -12.855   9.850  71.565  1.00  0.00    -0.522 A  
HETATM   11  F   UNL     1     -13.379   6.517  70.682  1.00  0.00    -0.073 F  
HETATM   12  F   UNL     1     -12.017  13.404  70.989  1.00  0.00    -0.392 F  
HETATM   13  F   UNL     1     -13.999  12.520  70.837  1.00  0.00     0.725 F  
HETATM   14  F   UNL     1     -12.980  12.579  72.755  1.00  0.00    -0.275 F  
HETATM   15  C   UNL     1     -13.052   7.320  71.731  1.00  0.00    -0.317 C  
HETATM   16  C   UNL     1     -12.331   8.578  71.299  1.00  0.00    -0.301 A  
ENDBRANCH   2   3
BRANCH   2  17
HETATM   17  O   UNL     1      -8.474  10.754  68.987  1.00  0.00    -0.153 OA 
BRANCH  17  18
HETATM   18  C   UNL     1      -8.787  11.197  67.659  1.00  0.00    -0.136 C  
HETATM   19  C   UNL     1     -11.654  11.415  67.466  1.00  0.00    -0.219 C  
HETATM   20  C   UNL     1     -10.868  10.122  67.645  1.00  0.00    -0.290 C  
HETATM   21  O   UNL     1      -9.597  10.217  66.991  1.00  0.00    -0.163 OA 
HETATM   22  N   UNL     1     -10.967  12.614  68.027  1.00  0.00    -0.225 NA 
HETATM   23  C   UNL     1      -9.538  12.606  67.525  1.00  0.00    -0.184 C  
BRANCH  22  24
HETATM   24  C   UNL     1     -11.679  13.827  67.533  1.00  0.00    -0.375 C  
BRANCH  24  25
HETATM   25  C   UNL     1     -11.900  13.774  66.039  1.00  0.00    -0.390 C  
HETATM   26  N   UNL     1     -12.341  12.650  65.446  1.00  0.00    -0.609 NA 
HETATM   27  N   UNL     1     -11.701  14.773  65.223  1.00  0.00    -0.339 NA 
HETATM   28  O   UNL     1     -12.883  12.214  63.242  1.00  0.00    -0.735 OA 
HETATM   29  C   UNL     1     -12.473  12.944  64.124  1.00  0.00    -0.335 C  
HETATM   30  N   UNL     1     -12.051  14.263  63.999  1.00  0.00    -0.486 NA 
HETATM   31  H   UNL     1     -11.365  15.711  65.443  1.00  0.00     0.000 HD 
ENDBRANCH  24  25
ENDBRANCH  22  24
BRANCH  23  32
HETATM   32  C   UNL     1      -8.722  13.822  67.973  1.00  0.00    -0.181 A  
HETATM   33  C   UNL     1      -7.127  16.076  68.518  1.00  0.00    -0.132 A  
HETATM   34  F   UNL     1      -6.377  17.162  68.741  1.00  0.00    -0.149 F  
HETATM   35  C   UNL     1      -9.311  15.036  68.352  1.00  0.00    -0.193 A  
HETATM   36  C   UNL     1      -6.519  14.880  68.171  1.00  0.00    -0.140 A  
HETATM   37  C   UNL     1      -8.515  16.160  68.619  1.00  0.00    -0.216 A  
HETATM   38  C   UNL     1      -7.311  13.759  67.905  1.00  0.00    -0.155 A  
ENDBRANCH  23  32
ENDBRANCH  17  18
ENDBRANCH   2  17
TORSDOF 6
ENDMDL
MODEL      300
REMARK 921   NORMALIZED FREE ENERGY PREDICTED BY IDOCK:    0.47 KCAL/MOL
REMARK 922        TOTAL FREE ENERGY PREDICTED BY IDOCK:   -1.49 KCAL/MOL
REMARK 923 INTER-LIGAND FREE ENERGY PREDICTED BY IDOCK:   -3.21 KCAL/MOL
REMARK 924 INTRA-LIGAND FREE ENERGY PREDICTED BY IDOCK:    1.72 KCAL/MOL
REMARK 927      BINDING AFFINITY PREDICTED BY RF-SCORE:    0.00 PKD
ROOT
HETATM    1  C   UNL     1      -8.541   9.004  73.596  1.00  0.00     1.204 C  
HETATM    2  C   UNL     1      -8.709   8.493  72.157  1.00  0.00    -0.197 C  
ENDROOT
BRANCH   2   3
HETATM    3  C   UNL     1      -9.622   9.381  71.295  1.00  0.00    -0.161 A  
HETATM    4  C   UNL     1     -10.938   9.698  71.681  1.00  0.00    -0.149 A  
HETATM    5  C   UNL     1      -9.159   9.893  70.069  1.00  0.00    -0.217 A  
HETATM    6  F   UNL     1     -13.213  11.436  72.547  1.00  0.00    -0.482 F  
HETATM    7  F   UNL     1     -13.893  11.575  70.487  1.00  0.00     0.853 F  
HETATM    8  C   UNL     1      -9.980  10.695  69.250  1.00  0.00    -0.215 A  
HETATM    9  C   UNL     1      -9.490  11.224  67.921  1.00  0.00    -0.178 C  
HETATM   10  C   UNL     1     -11.288  10.990  69.669  1.00  0.00    -0.363 A  
HETATM   11  F   UNL     1     -13.931   9.662  71.516  1.00  0.00    -0.345 F  
HETATM   12  F   UNL     1      -8.199  10.890  67.640  1.00  0.00    -0.112 F  
HETATM   13  F   UNL     1     -10.232  10.770  66.875  1.00  0.00    -0.226 F  
HETATM   14  F   UNL     1      -9.544  12.584  67.852  1.00  0.00    -0.180 F  
HETATM   15  C   UNL     1     -13.187  10.789  71.347  1.00  0.00    -0.287 C  
HETATM   16  C   UNL     1     -11.779  10.495  70.884  1.00  0.00    -0.431 A  
ENDBRANCH   2   3
BRANCH   2  17
HETATM   17  O   UNL     1      -8.965   7.067  72.093  1.00  0.00    -0.131 OA 
BRANCH  17  18
HETATM   18  C   UNL     1      -7.825   6.215  72.266  1.00  0.00    -0.101 C  
HETATM   19  C   UNL     1      -8.617   4.035  73.977  1.00  0.00    -0.093 C  
HETATM   20  C   UNL     1      -8.513   5.499  74.388  1.00  0.00    -0.109 C  
HETATM   21  O   UNL     1      -7.466   6.148  73.655  1.00  0.00    -0.091 OA 
HETATM   22  N   UNL     1      -8.918   3.841  72.529  1.00  0.00    -0.103 NA 
HETATM   23  C   UNL     1      -7.960   4.708  71.738  1.00  0.00    -0.099 C  
BRANCH  22  24
HETATM   24  C   UNL     1      -8.701   2.403  72.202  1.00  0.00    -0.069 C  
BRANCH  24  25
HETATM   25  C   UNL     1      -7.322   2.163  71.634  1.00  0.00    -0.036 C  
HETATM   26  N   UNL     1      -7.155   1.847  70.337  1.00  0.00    -0.033 NA 
HETATM   27  N   UNL     1      -6.212   2.245  72.316  1.00  0.00    -0.013 NA 
HETATM   28  O   UNL     1      -5.236   1.507  69.096  1.00  0.00    -0.010 OA 
HETATM   29  C   UNL     1      -5.813   1.741  70.141  1.00  0.00    -0.018 C  
HETATM   30  N   UNL     1      -5.242   1.971  71.387  1.00  0.00    -0.004 NA 
HETATM   31  H   UNL     1      -6.094   2.462  73.306  1.00  0.00     0.000 HD 
ENDBRANCH  24  25
ENDBRANCH  22  24
BRANCH  23  32
HETATM   32  C   UNL     1      -8.110   4.563  70.221  1.00  0.00    -0.063 A  
HETATM   33  C   UNL     1      -8.146   4.127  67.440  1.00  0.00    -0.099 A  
HETATM   34  F   UNL     1      -8.150   3.883  66.125  1.00  0.00    -0.097 F  
HETATM   35  C   UNL     1      -9.165   3.858  69.624  1.00  0.00    -0.221 A  
HETATM   36  C   UNL     1      -7.106   4.850  68.002  1.00  0.00    -0.062 A  
HETATM   37  C   UNL     1      -9.179   3.637  68.239  1.00  0.00    -0.218 A  
HETATM   38  C   UNL     1      -7.090   5.071  69.383  1.00  0.00    -0.056 A  
ENDBRANCH  23  32
ENDBRANCH  17  18
ENDBRANCH   2  17
TORSDOF 6
ENDMDL
MODEL      301
REMARK 921   NORMALIZED FREE ENERGY PREDICTED BY IDOCK:    0.61 KCAL/MOL
REMARK 922        TOTAL FREE ENERGY PREDICTED BY IDOCK:   -1.30 KCAL/MOL
REMARK 923 INTER-LIGAND FREE ENERGY PREDICTED BY IDOCK:   -0.02 KCAL/MOL
REMARK 924 INTRA-LIGAND FREE ENERGY PREDICTED BY IDOCK:   -1.28 KCAL/MOL
REMARK 927      BINDING AFFINITY PREDICTED BY RF-SCORE:    0.00 PKD
ROOT
HETATM    1  C   UNL     1      -6.537  12.155  65.640  1.00  0.00     2.774 C  
HETATM    2  C   UNL     1      -7.556  11.629  66.662  1.00  0.00    -0.050 C  
ENDROOT
BRANCH   2   3
HETATM    3  C   UNL     1      -7.091  11.779  68.121  1.00  0.00    -0.079 A  
HETATM    4  C   UNL     1      -6.822  10.664  68.938  1.00  0.00    -0.066 A  
HETATM    5  C   UNL     1      -6.939  13.057  68.688  1.00  0.00    -0.102 A  
HETATM    6  F   UNL     1      -5.171   8.784  70.576  1.00  0.00    -0.022 F  
HETATM    7  F   UNL     1      -5.761   9.837  72.384  1.00  0.00    -0.041 F  
HETATM    8  C   UNL     1      -6.533  13.224  70.028  1.00  0.00     0.066 A  
HETATM    9  C   UNL     1      -6.394  14.597  70.644  1.00  0.00    -0.063 C  
HETATM   10  C   UNL     1      -6.272  12.087  70.813  1.00  0.00     0.533 A  
HETATM   11  F   UNL     1      -7.248   8.764  71.217  1.00  0.00    -0.064 F  
HETATM   12  F   UNL     1      -6.650  15.616  69.776  1.00  0.00    -0.155 F  
HETATM   13  F   UNL     1      -7.234  14.782  71.699  1.00  0.00     0.889 F  
HETATM   14  F   UNL     1      -5.139  14.827  71.125  1.00  0.00    -0.108 F  
HETATM   15  C   UNL     1      -6.153   9.565  71.107  1.00  0.00    -0.074 C  
HETATM   16  C   UNL     1      -6.416  10.801  70.277  1.00  0.00    -0.128 A  
ENDBRANCH   2   3
BRANCH   2  17
HETATM   17  O   UNL     1      -8.101  10.336  66.298  1.00  0.00    -0.121 OA 
BRANCH  17  18
HETATM   18  C   UNL     1      -9.467  10.331  65.860  1.00  0.00    -0.190 C  
HETATM   19  C   UNL     1     -10.896   8.426  67.484  1.00  0.00    -0.013 C  
HETATM   20  C   UNL     1      -9.798   8.096  66.479  1.00  0.00    -0.239 C  
HETATM   21  O   UNL     1      -9.827   9.024  65.387  1.00  0.00    -0.080 OA 
HETATM   22  N   UNL     1     -10.776   9.791  68.072  1.00  0.00    -0.250 NA 
HETATM   23  C   UNL     1     -10.573  10.769  66.933  1.00  0.00    -0.258 C  
BRANCH  22  24
HETATM   24  C   UNL     1     -12.045  10.095  68.792  1.00  0.00     0.720 C  
BRANCH  24  25
HETATM   25  C   UNL     1     -12.085   9.439  70.153  1.00  0.00     0.241 C  
HETATM   26  N   UNL     1     -11.155   8.535  70.510  1.00  0.00    -0.246 NA 
HETATM   27  N   UNL     1     -12.980   9.685  71.071  1.00  0.00    -0.511 NA 
HETATM   28  O   UNL     1     -10.827   7.406  72.499  1.00  0.00    -0.241 OA 
HETATM   29  C   UNL     1     -11.447   8.175  71.789  1.00  0.00    -0.284 C  
HETATM   30  N   UNL     1     -12.597   8.884  72.116  1.00  0.00    -0.384 NA 
HETATM   31  H   UNL     1     -13.775  10.322  71.022  1.00  0.00     0.000 HD 
ENDBRANCH  24  25
ENDBRANCH  22  24
BRANCH  23  32
HETATM   32  C   UNL     1     -10.496  12.231  67.384  1.00  0.00    -0.228 A  
HETATM   33  C   UNL     1     -10.640  14.936  68.150  1.00  0.00    -0.244 A  
HETATM   34  F   UNL     1     -10.746  16.215  68.527  1.00  0.00    -0.245 F  
HETATM   35  C   UNL     1     -10.289  12.605  68.720  1.00  0.00    -0.132 A  
HETATM   36  C   UNL     1     -10.822  14.594  66.819  1.00  0.00    -0.312 A  
HETATM   37  C   UNL     1     -10.366  13.953  69.100  1.00  0.00    -0.024 A  
HETATM   38  C   UNL     1     -10.745  13.251  66.437  1.00  0.00    -0.291 A  
ENDBRANCH  23  32
ENDBRANCH  17  18
ENDBRANCH   2  17
TORSDOF 6
ENDMDL
MODEL      302
REMARK 921   NORMALIZED FREE ENERGY PREDICTED BY IDOCK:    0.68 KCAL/MOL
REMARK 922        TOTAL FREE ENERGY PREDICTED BY IDOCK:   -1.21 KCAL/MOL
REMARK 923 INTER-LIGAND FREE ENERGY PREDICTED BY IDOCK:   -3.58 KCAL/MOL
REMARK 924 INTRA-LIGAND FREE ENERGY PREDICTED BY IDOCK:    2.37 KCAL/MOL
REMARK 927      BINDING AFFINITY PREDICTED BY RF-SCORE:    0.00 PKD
ROOT
HETATM    1  C   UNL     1      -7.081   9.774  67.329  1.00  0.00    -0.085 C  
HETATM    2  C   UNL     1      -7.682  10.525  66.132  1.00  0.00    -0.142 C  
ENDROOT
BRANCH   2   3
HETATM    3  C   UNL     1      -9.100  11.062  66.396  1.00  0.00    -0.191 A  
HETATM    4  C   UNL     1      -9.860  10.649  67.506  1.00  0.00    -0.194 A  
HETATM    5  C   UNL     1      -9.686  11.982  65.507  1.00  0.00    -0.221 A  
HETATM    6  F   UNL     1     -11.300  10.920  70.113  1.00  0.00    -0.310 F  
HETATM    7  F   UNL     1     -13.180  11.178  69.051  1.00  0.00     0.576 F  
HETATM    8  C   UNL     1     -10.990  12.476  65.714  1.00  0.00    -0.327 A  
HETATM    9  C   UNL     1     -11.628  13.445  64.746  1.00  0.00    -0.339 C  
HETATM   10  C   UNL     1     -11.719  12.042  66.835  1.00  0.00    -0.342 A  
HETATM   11  F   UNL     1     -12.116   9.286  68.934  1.00  0.00     0.697 F  
HETATM   12  F   UNL     1     -10.812  13.809  63.716  1.00  0.00    -0.172 F  
HETATM   13  F   UNL     1     -12.755  12.943  64.173  1.00  0.00    -0.407 F  
HETATM   14  F   UNL     1     -12.005  14.609  65.347  1.00  0.00    -0.351 F  
HETATM   15  C   UNL     1     -11.935  10.635  68.941  1.00  0.00    -0.058 C  
HETATM   16  C   UNL     1     -11.163  11.126  67.737  1.00  0.00    -0.359 A  
ENDBRANCH   2   3
BRANCH   2  17
HETATM   17  O   UNL     1      -7.491   9.827  64.876  1.00  0.00    -0.116 OA 
BRANCH  17  18
HETATM   18  C   UNL     1      -8.152   8.559  64.754  1.00  0.00    -0.151 C  
HETATM   19  C   UNL     1      -6.918   7.140  62.571  1.00  0.00    -0.068 C  
HETATM   20  C   UNL     1      -7.744   8.416  62.452  1.00  0.00    -0.129 C  
HETATM   21  O   UNL     1      -8.762   8.445  63.460  1.00  0.00     0.035 OA 
HETATM   22  N   UNL     1      -6.231   6.993  63.886  1.00  0.00    -0.042 NA 
HETATM   23  C   UNL     1      -7.253   7.251  64.973  1.00  0.00    -0.070 C  
BRANCH  22  24
HETATM   24  C   UNL     1      -5.716   5.598  63.984  1.00  0.00    -0.014 C  
BRANCH  24  25
HETATM   25  C   UNL     1      -6.794   4.583  63.680  1.00  0.00    -0.044 C  
HETATM   26  N   UNL     1      -8.065   4.788  64.071  1.00  0.00    -0.102 NA 
HETATM   27  N   UNL     1      -6.603   3.468  63.029  1.00  0.00    -0.029 NA 
HETATM   28  O   UNL     1      -9.978   3.542  63.717  1.00  0.00    -0.148 OA 
HETATM   29  C   UNL     1      -8.780   3.726  63.612  1.00  0.00    -0.098 C  
HETATM   30  N   UNL     1      -7.852   2.904  62.984  1.00  0.00    -0.067 NA 
HETATM   31  H   UNL     1      -5.731   3.102  62.645  1.00  0.00     0.000 HD 
ENDBRANCH  24  25
ENDBRANCH  22  24
BRANCH  23  32
HETATM   32  C   UNL     1      -6.702   7.072  66.391  1.00  0.00    -0.053 A  
HETATM   33  C   UNL     1      -5.767   7.023  69.046  1.00  0.00    -0.018 A  
HETATM   34  F   UNL     1      -5.353   7.023  70.318  1.00  0.00    -0.021 F  
HETATM   35  C   UNL     1      -7.307   6.240  67.344  1.00  0.00    -0.084 A  
HETATM   36  C   UNL     1      -5.135   7.834  68.117  1.00  0.00    -0.030 A  
HETATM   37  C   UNL     1      -6.843   6.220  68.667  1.00  0.00    -0.074 A  
HETATM   38  C   UNL     1      -5.596   7.855  66.797  1.00  0.00    -0.032 A  
ENDBRANCH  23  32
ENDBRANCH  17  18
ENDBRANCH   2  17
TORSDOF 6
ENDMDL
MODEL      303
REMARK 921   NORMALIZED FREE ENERGY PREDICTED BY IDOCK:    0.84 KCAL/MOL
REMARK 922        TOTAL FREE ENERGY PREDICTED BY IDOCK:   -1.00 KCAL/MOL
REMARK 923 INTER-LIGAND FREE ENERGY PREDICTED BY IDOCK:   -0.70 KCAL/MOL
REMARK 924 INTRA-LIGAND FREE ENERGY PREDICTED BY IDOCK:   -0.30 KCAL/MOL
REMARK 927      BINDING AFFINITY PREDICTED BY RF-SCORE:    0.00 PKD
ROOT
HETATM    1  C   UNL     1      -7.713  10.867  67.755  1.00  0.00    -0.107 C  
HETATM    2  C   UNL     1      -8.105   9.385  67.843  1.00  0.00    -0.103 C  
ENDROOT
BRANCH   2   3
HETATM    3  C   UNL     1      -7.555   8.680  69.095  1.00  0.00    -0.089 A  
HETATM    4  C   UNL     1      -7.128   9.397  70.229  1.00  0.00    -0.097 A  
HETATM    5  C   UNL     1      -7.449   7.278  69.129  1.00  0.00    -0.093 A  
HETATM    6  F   UNL     1      -7.160  10.336  73.068  1.00  0.00     2.241 F  
HETATM    7  F   UNL     1      -5.676   8.834  73.584  1.00  0.00    -0.092 F  
HETATM    8  C   UNL     1      -6.931   6.607  70.256  1.00  0.00    -0.066 A  
HETATM    9  C   UNL     1      -6.795   5.102  70.281  1.00  0.00    -0.044 C  
HETATM   10  C   UNL     1      -6.516   7.356  71.370  1.00  0.00    -0.036 A  
HETATM   11  F   UNL     1      -5.159  10.451  72.228  1.00  0.00    -0.094 F  
HETATM   12  F   UNL     1      -7.255   4.489  69.155  1.00  0.00    -0.049 F  
HETATM   13  F   UNL     1      -5.503   4.699  70.427  1.00  0.00    -0.009 F  
HETATM   14  F   UNL     1      -7.479   4.535  71.316  1.00  0.00    -0.058 F  
HETATM   15  C   UNL     1      -6.154   9.579  72.548  1.00  0.00     0.350 C  
HETATM   16  C   UNL     1      -6.608   8.753  71.366  1.00  0.00    -0.078 A  
ENDBRANCH   2   3
BRANCH   2  17
HETATM   17  O   UNL     1      -7.928   8.681  66.588  1.00  0.00    -0.095 OA 
BRANCH  17  18
HETATM   18  C   UNL     1      -9.131   8.262  65.927  1.00  0.00    -0.149 C  
HETATM   19  C   UNL     1      -8.436   6.117  64.132  1.00  0.00     0.139 C  
HETATM   20  C   UNL     1      -7.991   7.569  64.001  1.00  0.00    -0.091 C  
HETATM   21  O   UNL     1      -9.003   8.447  64.509  1.00  0.00     0.110 OA 
HETATM   22  N   UNL     1      -8.707   5.700  65.538  1.00  0.00    -0.154 NA 
HETATM   23  C   UNL     1      -9.599   6.749  66.168  1.00  0.00     0.047 C  
BRANCH  22  24
HETATM   24  C   UNL     1      -9.407   4.384  65.501  1.00  0.00    -0.162 C  
BRANCH  24  25
HETATM   25  C   UNL     1      -8.593   3.301  66.172  1.00  0.00    -0.121 C  
HETATM   26  N   UNL     1      -7.276   3.465  66.394  1.00  0.00    -0.063 NA 
HETATM   27  N   UNL     1      -9.073   2.161  66.588  1.00  0.00    -0.274 NA 
HETATM   28  O   UNL     1      -5.740   2.107  67.459  1.00  0.00    -0.018 OA 
HETATM   29  C   UNL     1      -6.857   2.344  67.041  1.00  0.00    -0.040 C  
HETATM   30  N   UNL     1      -7.983   1.535  67.136  1.00  0.00    -0.064 NA 
HETATM   31  H   UNL     1     -10.031   1.818  66.523  1.00  0.00     0.000 HD 
ENDBRANCH  24  25
ENDBRANCH  22  24
BRANCH  23  32
HETATM   32  C   UNL     1     -10.016   6.420  67.604  1.00  0.00    -0.150 A  
HETATM   33  C   UNL     1     -11.056   5.883  70.165  1.00  0.00    -0.325 A  
HETATM   34  F   UNL     1     -11.583   5.614  71.365  1.00  0.00    -0.267 F  
HETATM   35  C   UNL     1      -9.993   5.118  68.124  1.00  0.00    -0.203 A  
HETATM   36  C   UNL     1     -11.066   7.183  69.684  1.00  0.00    -0.206 A  
HETATM   37  C   UNL     1     -10.515   4.851  69.398  1.00  0.00     0.002 A  
HETATM   38  C   UNL     1     -10.545   7.451  68.415  1.00  0.00    -0.192 A  
ENDBRANCH  23  32
ENDBRANCH  17  18
ENDBRANCH   2  17
TORSDOF 6
ENDMDL
MODEL      304
REMARK 921   NORMALIZED FREE ENERGY PREDICTED BY IDOCK:    1.09 KCAL/MOL
REMARK 922        TOTAL FREE ENERGY PREDICTED BY IDOCK:   -0.66 KCAL/MOL
REMARK 923 INTER-LIGAND FREE ENERGY PREDICTED BY IDOCK:   -7.56 KCAL/MOL
REMARK 924 INTRA-LIGAND FREE ENERGY PREDICTED BY IDOCK:    6.90 KCAL/MOL
REMARK 927      BINDING AFFINITY PREDICTED BY RF-SCORE:    0.00 PKD
ROOT
HETATM    1  C   UNL     1      -5.928   9.361  69.793  1.00  0.00    -0.036 C  
HETATM    2  C   UNL     1      -7.180  10.151  70.201  1.00  0.00    -0.154 C  
ENDROOT
BRANCH   2   3
HETATM    3  C   UNL     1      -8.368   9.255  70.592  1.00  0.00    -0.245 A  
HETATM    4  C   UNL     1      -8.240   7.860  70.726  1.00  0.00    -0.110 A  
HETATM    5  C   UNL     1      -9.638   9.819  70.813  1.00  0.00    -0.010 A  
HETATM    6  F   UNL     1      -8.207   5.218  72.128  1.00  0.00    -0.107 F  
HETATM    7  F   UNL     1     -10.265   4.868  71.521  1.00  0.00    -0.242 F  
HETATM    8  C   UNL     1     -10.748   9.021  71.154  1.00  0.00    -0.358 A  
HETATM    9  C   UNL     1     -12.118   9.625  71.366  1.00  0.00    -0.388 C  
HETATM   10  C   UNL     1     -10.582   7.631  71.280  1.00  0.00    -0.237 A  
HETATM   11  F   UNL     1      -8.695   4.982  70.023  1.00  0.00    -0.093 F  
HETATM   12  F   UNL     1     -12.144  10.982  71.241  1.00  0.00    -0.420 F  
HETATM   13  F   UNL     1     -13.039   9.149  70.485  1.00  0.00     0.001 F  
HETATM   14  F   UNL     1     -12.617   9.358  72.606  1.00  0.00    -0.386 F  
HETATM   15  C   UNL     1      -9.132   5.545  71.182  1.00  0.00    -0.142 C  
HETATM   16  C   UNL     1      -9.331   7.039  71.066  1.00  0.00    -0.159 A  
ENDBRANCH   2   3
BRANCH   2  17
HETATM   17  O   UNL     1      -7.478  11.241  69.292  1.00  0.00    -0.109 OA 
BRANCH  17  18
HETATM   18  C   UNL     1      -7.213  10.992  67.904  1.00  0.00    -0.086 C  
HETATM   19  C   UNL     1      -7.637   8.182  67.426  1.00  0.00    -0.101 C  
HETATM   20  C   UNL     1      -6.535   8.784  68.291  1.00  0.00    -0.060 C  
HETATM   21  O   UNL     1      -6.133  10.057  67.769  1.00  0.00    -0.053 OA 
HETATM   22  N   UNL     1      -8.864   9.026  67.350  1.00  0.00    -0.119 NA 
HETATM   23  C   UNL     1      -8.432  10.441  67.023  1.00  0.00    -0.127 C  
BRANCH  22  24
HETATM   24  C   UNL     1      -9.727   8.487  66.261  1.00  0.00    -0.229 C  
BRANCH  24  25
HETATM   25  C   UNL     1     -10.055   7.028  66.482  1.00  0.00    -0.079 C  
HETATM   26  N   UNL     1      -9.120   6.076  66.309  1.00  0.00    -0.149 NA 
HETATM   27  N   UNL     1     -11.222   6.576  66.853  1.00  0.00    -0.776 NA 
HETATM   28  O   UNL     1      -9.207   3.791  66.637  1.00  0.00    -0.150 OA 
HETATM   29  C   UNL     1      -9.717   4.895  66.624  1.00  0.00    -0.184 C  
HETATM   30  N   UNL     1     -11.030   5.222  66.940  1.00  0.00     0.023 NA 
HETATM   31  H   UNL     1     -12.075   7.106  67.036  1.00  0.00     0.000 HD 
ENDBRANCH  24  25
ENDBRANCH  22  24
BRANCH  23  32
HETATM   32  C   UNL     1      -9.601  11.415  66.849  1.00  0.00    -0.203 A  
HETATM   33  C   UNL     1     -11.856  13.019  66.331  1.00  0.00    -0.405 A  
HETATM   34  F   UNL     1     -12.949  13.748  66.080  1.00  0.00    -0.456 F  
HETATM   35  C   UNL     1     -10.558  11.641  67.847  1.00  0.00    -0.225 A  
HETATM   36  C   UNL     1     -10.910  12.833  65.336  1.00  0.00    -0.313 A  
HETATM   37  C   UNL     1     -11.684  12.437  67.587  1.00  0.00    -0.412 A  
HETATM   38  C   UNL     1      -9.787  12.040  65.594  1.00  0.00    -0.265 A  
ENDBRANCH  23  32
ENDBRANCH  17  18
ENDBRANCH   2  17
TORSDOF 6
ENDMDL
MODEL      305
REMARK 921   NORMALIZED FREE ENERGY PREDICTED BY IDOCK:    1.24 KCAL/MOL
REMARK 922        TOTAL FREE ENERGY PREDICTED BY IDOCK:   -0.46 KCAL/MOL
REMARK 923 INTER-LIGAND FREE ENERGY PREDICTED BY IDOCK:   -0.16 KCAL/MOL
REMARK 924 INTRA-LIGAND FREE ENERGY PREDICTED BY IDOCK:   -0.31 KCAL/MOL
REMARK 927      BINDING AFFINITY PREDICTED BY RF-SCORE:    0.00 PKD
ROOT
HETATM    1  C   UNL     1      -7.711  10.867  67.755  1.00  0.00    -0.107 C  
HETATM    2  C   UNL     1      -8.110   9.386  67.834  1.00  0.00    -0.103 C  
ENDROOT
BRANCH   2   3
HETATM    3  C   UNL     1      -7.556   8.668  69.076  1.00  0.00    -0.090 A  
HETATM    4  C   UNL     1      -7.116   9.373  70.213  1.00  0.00    -0.097 A  
HETATM    5  C   UNL     1      -7.457   7.265  69.099  1.00  0.00    -0.093 A  
HETATM    6  F   UNL     1      -7.123  10.290  73.059  1.00  0.00     2.241 F  
HETATM    7  F   UNL     1      -5.644   8.775  73.553  1.00  0.00    -0.080 F  
HETATM    8  C   UNL     1      -6.936   6.582  70.216  1.00  0.00    -0.066 A  
HETATM    9  C   UNL     1      -6.808   5.076  70.229  1.00  0.00    -0.044 C  
HETATM   10  C   UNL     1      -6.508   7.319  71.333  1.00  0.00    -0.036 A  
HETATM   11  F   UNL     1      -5.126  10.400  72.206  1.00  0.00    -0.094 F  
HETATM   12  F   UNL     1      -7.280   4.475  69.101  1.00  0.00    -0.049 F  
HETATM   13  F   UNL     1      -5.518   4.664  70.363  1.00  0.00    -0.009 F  
HETATM   14  F   UNL     1      -7.488   4.505  71.264  1.00  0.00    -0.058 F  
HETATM   15  C   UNL     1      -6.124   9.531  72.527  1.00  0.00     0.350 C  
HETATM   16  C   UNL     1      -6.592   8.717  71.341  1.00  0.00    -0.078 A  
ENDBRANCH   2   3
BRANCH   2  17
HETATM   17  O   UNL     1      -7.946   8.691  66.572  1.00  0.00    -0.097 OA 
BRANCH  17  18
HETATM   18  C   UNL     1      -9.155   8.284  65.916  1.00  0.00    -0.149 C  
HETATM   19  C   UNL     1     -10.097   5.897  67.228  1.00  0.00    -0.174 C  
HETATM   20  C   UNL     1      -8.818   6.019  66.407  1.00  0.00    -0.136 C  
HETATM   21  O   UNL     1      -8.993   6.973  65.353  1.00  0.00     0.028 OA 
HETATM   22  N   UNL     1     -10.520   7.177  67.868  1.00  0.00    -0.200 NA 
HETATM   23  C   UNL     1     -10.487   8.257  66.807  1.00  0.00    -0.243 C  
BRANCH  22  24
HETATM   24  C   UNL     1     -11.908   7.000  68.379  1.00  0.00     1.355 C  
BRANCH  24  25
HETATM   25  C   UNL     1     -11.972   7.144  69.882  1.00  0.00     0.185 C  
HETATM   26  N   UNL     1     -10.848   7.277  70.610  1.00  0.00    -0.236 NA 
HETATM   27  N   UNL     1     -13.074   7.164  70.582  1.00  0.00    -0.497 NA 
HETATM   28  O   UNL     1     -10.543   7.614  72.876  1.00  0.00    -0.288 OA 
HETATM   29  C   UNL     1     -11.248   7.427  71.902  1.00  0.00    -0.247 C  
HETATM   30  N   UNL     1     -12.634   7.333  71.869  1.00  0.00    -0.311 NA 
HETATM   31  H   UNL     1     -14.034   7.075  70.249  1.00  0.00     0.000 HD 
ENDBRANCH  24  25
ENDBRANCH  22  24
BRANCH  23  32
HETATM   32  C   UNL     1     -10.961   9.625  67.306  1.00  0.00    -0.107 A  
HETATM   33  C   UNL     1     -12.085  12.086  68.083  1.00  0.00     0.029 A  
HETATM   34  F   UNL     1     -12.654  13.238  68.455  1.00  0.00    -0.136 F  
HETATM   35  C   UNL     1     -11.230   9.891  68.656  1.00  0.00    -0.122 A  
HETATM   36  C   UNL     1     -11.803  11.858  66.746  1.00  0.00    -0.170 A  
HETATM   37  C   UNL     1     -11.794  11.116  69.042  1.00  0.00    -0.418 A  
HETATM   38  C   UNL     1     -11.241  10.638  66.360  1.00  0.00     0.192 A  
ENDBRANCH  23  32
ENDBRANCH  17  18
ENDBRANCH   2  17
TORSDOF 6
ENDMDL
MODEL      306
REMARK 921   NORMALIZED FREE ENERGY PREDICTED BY IDOCK:    1.50 KCAL/MOL
REMARK 922        TOTAL FREE ENERGY PREDICTED BY IDOCK:   -0.11 KCAL/MOL
REMARK 923 INTER-LIGAND FREE ENERGY PREDICTED BY IDOCK:    0.85 KCAL/MOL
REMARK 924 INTRA-LIGAND FREE ENERGY PREDICTED BY IDOCK:   -0.95 KCAL/MOL
REMARK 927      BINDING AFFINITY PREDICTED BY RF-SCORE:    0.00 PKD
ROOT
HETATM    1  C   UNL     1      -7.418  11.145  66.959  1.00  0.00    -0.132 C  
HETATM    2  C   UNL     1      -7.844   9.680  67.134  1.00  0.00    -0.091 C  
ENDROOT
BRANCH   2   3
HETATM    3  C   UNL     1      -7.388   9.066  68.468  1.00  0.00    -0.077 A  
HETATM    4  C   UNL     1      -7.263   7.675  68.647  1.00  0.00    -0.082 A  
HETATM    5  C   UNL     1      -7.095   9.894  69.567  1.00  0.00    -0.082 A  
HETATM    6  F   UNL     1      -5.869   5.073  69.126  1.00  0.00    -0.013 F  
HETATM    7  F   UNL     1      -6.359   5.197  71.240  1.00  0.00    -0.025 F  
HETATM    8  C   UNL     1      -6.693   9.358  70.807  1.00  0.00    -0.105 A  
HETATM    9  C   UNL     1      -6.404  10.248  71.994  1.00  0.00     1.194 C  
HETATM   10  C   UNL     1      -6.579   7.964  70.947  1.00  0.00    -0.037 A  
HETATM   11  F   UNL     1      -7.943   4.980  69.768  1.00  0.00    -0.070 F  
HETATM   12  F   UNL     1      -6.525  11.578  71.724  1.00  0.00     1.365 F  
HETATM   13  F   UNL     1      -7.232  10.000  73.044  1.00  0.00     1.707 F  
HETATM   14  F   UNL     1      -5.138  10.081  72.472  1.00  0.00    -0.087 F  
HETATM   15  C   UNL     1      -6.760   5.610  70.005  1.00  0.00    -0.048 C  
HETATM   16  C   UNL     1      -6.864   7.112  69.872  1.00  0.00    -0.056 A  
ENDBRANCH   2   3
BRANCH   2  17
HETATM   17  O   UNL     1      -7.602   8.879  65.950  1.00  0.00    -0.091 OA 
BRANCH  17  18
HETATM   18  C   UNL     1      -8.766   8.478  65.214  1.00  0.00    -0.140 C  
HETATM   19  C   UNL     1      -8.341   5.771  64.318  1.00  0.00    -0.059 C  
HETATM   20  C   UNL     1      -7.562   6.998  63.855  1.00  0.00    -0.109 C  
HETATM   21  O   UNL     1      -8.407   8.155  63.862  1.00  0.00    -0.110 OA 
HETATM   22  N   UNL     1      -8.889   5.900  65.699  1.00  0.00    -0.144 NA 
HETATM   23  C   UNL     1      -9.596   7.235  65.794  1.00  0.00     0.436 C  
BRANCH  22  24
HETATM   24  C   UNL     1      -9.858   4.788  65.915  1.00  0.00    -0.211 C  
BRANCH  24  25
HETATM   25  C   UNL     1      -9.178   3.553  66.460  1.00  0.00    -0.173 C  
HETATM   26  N   UNL     1      -8.234   3.650  67.413  1.00  0.00    -0.090 NA 
HETATM   27  N   UNL     1      -9.440   2.332  66.080  1.00  0.00    -0.361 NA 
HETATM   28  O   UNL     1      -7.057   2.017  68.549  1.00  0.00    -0.042 OA 
HETATM   29  C   UNL     1      -7.861   2.375  67.710  1.00  0.00    -0.060 C  
HETATM   30  N   UNL     1      -8.606   1.569  66.857  1.00  0.00    -0.094 NA 
HETATM   31  H   UNL     1     -10.106   2.019  65.374  1.00  0.00     0.000 HD 
ENDBRANCH  24  25
ENDBRANCH  22  24
BRANCH  23  32
HETATM   32  C   UNL     1     -10.269   7.481  67.148  1.00  0.00    -0.350 A  
HETATM   33  C   UNL     1     -11.250   7.861  69.759  1.00  0.00     0.011 A  
HETATM   34  F   UNL     1     -11.680   8.055  71.011  1.00  0.00    -0.278 F  
HETATM   35  C   UNL     1     -10.663   8.754  67.582  1.00  0.00    -0.206 A  
HETATM   36  C   UNL     1     -10.893   6.588  69.344  1.00  0.00    -0.363 A  
HETATM   37  C   UNL     1     -11.147   8.943  68.885  1.00  0.00     0.159 A  
HETATM   38  C   UNL     1     -10.410   6.397  68.046  1.00  0.00    -0.234 A  
ENDBRANCH  23  32
ENDBRANCH  17  18
ENDBRANCH   2  17
TORSDOF 6
ENDMDL
MODEL      307
REMARK 921   NORMALIZED FREE ENERGY PREDICTED BY IDOCK:    1.58 KCAL/MOL
REMARK 922        TOTAL FREE ENERGY PREDICTED BY IDOCK:    0.00 KCAL/MOL
REMARK 923 INTER-LIGAND FREE ENERGY PREDICTED BY IDOCK:   -1.09 KCAL/MOL
REMARK 924 INTRA-LIGAND FREE ENERGY PREDICTED BY IDOCK:    1.10 KCAL/MOL
REMARK 927      BINDING AFFINITY PREDICTED BY RF-SCORE:    0.00 PKD
ROOT
HETATM    1  C   UNL     1      -6.545  13.147  70.771  1.00  0.00     1.096 C  
HETATM    2  C   UNL     1      -7.715  12.539  69.983  1.00  0.00     2.152 C  
ENDROOT
BRANCH   2   3
HETATM    3  C   UNL     1      -7.572  11.026  69.747  1.00  0.00     0.194 A  
HETATM    4  C   UNL     1      -7.668  10.093  70.797  1.00  0.00     0.722 A  
HETATM    5  C   UNL     1      -7.322  10.531  68.454  1.00  0.00    -0.086 A  
HETATM    6  F   UNL     1      -8.828   7.838  72.382  1.00  0.00    -0.135 F  
HETATM    7  F   UNL     1      -7.462   6.451  71.412  1.00  0.00    -0.082 F  
HETATM    8  C   UNL     1      -7.168   9.151  68.212  1.00  0.00    -0.078 A  
HETATM    9  C   UNL     1      -6.874   8.622  66.827  1.00  0.00    -0.069 C  
HETATM   10  C   UNL     1      -7.271   8.250  69.285  1.00  0.00    -0.064 A  
HETATM   11  F   UNL     1      -6.686   8.008  72.714  1.00  0.00    -0.061 F  
HETATM   12  F   UNL     1      -6.824   9.591  65.869  1.00  0.00    -0.079 F  
HETATM   13  F   UNL     1      -5.683   7.967  66.761  1.00  0.00    -0.033 F  
HETATM   14  F   UNL     1      -7.812   7.729  66.401  1.00  0.00    -0.086 F  
HETATM   15  C   UNL     1      -7.620   7.760  71.755  1.00  0.00    -0.085 C  
HETATM   16  C   UNL     1      -7.519   8.711  70.584  1.00  0.00    -0.074 A  
ENDBRANCH   2   3
BRANCH   2  17
HETATM   17  O   UNL     1      -8.086  13.331  68.826  1.00  0.00    -0.067 OA 
BRANCH  17  18
HETATM   18  C   UNL     1      -8.996  14.412  69.070  1.00  0.00     0.007 C  
HETATM   19  C   UNL     1      -7.618  16.867  68.452  1.00  0.00    -0.209 C  
HETATM   20  C   UNL     1      -7.280  15.917  69.595  1.00  0.00    -0.104 C  
HETATM   21  O   UNL     1      -8.468  15.281  70.083  1.00  0.00     0.141 OA 
HETATM   22  N   UNL     1      -8.259  16.193  67.286  1.00  0.00    -0.165 NA 
HETATM   23  C   UNL     1      -9.385  15.327  67.813  1.00  0.00    -0.196 C  
BRANCH  22  24
HETATM   24  C   UNL     1      -8.801  17.249  66.385  1.00  0.00    -0.246 C  
BRANCH  24  25
HETATM   25  C   UNL     1      -9.094  18.528  67.136  1.00  0.00    -0.277 C  
HETATM   26  N   UNL     1     -10.143  18.610  67.974  1.00  0.00    -0.356 NA 
HETATM   27  N   UNL     1      -8.381  19.618  67.054  1.00  0.00    -0.283 NA 
HETATM   28  O   UNL     1     -10.849  20.326  69.351  1.00  0.00     0.333 OA 
HETATM   29  C   UNL     1     -10.101  19.858  68.515  1.00  0.00    -0.421 C  
HETATM   30  N   UNL     1      -9.011  20.479  67.916  1.00  0.00    -0.097 NA 
HETATM   31  H   UNL     1      -7.553  19.789  66.484  1.00  0.00     0.000 HD 
ENDBRANCH  24  25
ENDBRANCH  22  24
BRANCH  23  32
HETATM   32  C   UNL     1     -10.181  14.617  66.715  1.00  0.00    -0.268 A  
HETATM   33  C   UNL     1     -11.417  13.365  64.517  1.00  0.00    -0.372 A  
HETATM   34  F   UNL     1     -11.969  12.758  63.460  1.00  0.00    -0.468 F  
HETATM   35  C   UNL     1     -10.443  13.240  66.734  1.00  0.00    -0.270 A  
HETATM   36  C   UNL     1     -11.194  14.733  64.485  1.00  0.00    -0.283 A  
HETATM   37  C   UNL     1     -11.055  12.617  65.636  1.00  0.00    -0.327 A  
HETATM   38  C   UNL     1     -10.584  15.356  65.578  1.00  0.00    -0.400 A  
ENDBRANCH  23  32
ENDBRANCH  17  18
ENDBRANCH   2  17
TORSDOF 6
ENDMDL
MODEL      308
REMARK 921   NORMALIZED FREE ENERGY PREDICTED BY IDOCK:    1.80 KCAL/MOL
REMARK 922        TOTAL FREE ENERGY PREDICTED BY IDOCK:    0.30 KCAL/MOL
REMARK 923 INTER-LIGAND FREE ENERGY PREDICTED BY IDOCK:   -7.37 KCAL/MOL
REMARK 924 INTRA-LIGAND FREE ENERGY PREDICTED BY IDOCK:    7.67 KCAL/MOL
REMARK 927      BINDING AFFINITY PREDICTED BY RF-SCORE:    0.00 PKD
ROOT
HETATM    1  C   UNL     1      -6.187   8.593  69.642  1.00  0.00    -0.036 C  
HETATM    2  C   UNL     1      -7.306   8.836  70.666  1.00  0.00    -0.072 C  
ENDROOT
BRANCH   2   3
HETATM    3  C   UNL     1      -8.369   7.724  70.685  1.00  0.00    -0.124 A  
HETATM    4  C   UNL     1      -9.709   7.977  71.035  1.00  0.00    -0.185 A  
HETATM    5  C   UNL     1      -8.015   6.400  70.365  1.00  0.00    -0.112 A  
HETATM    6  F   UNL     1     -12.663   8.209  70.635  1.00  0.00    -0.062 F  
HETATM    7  F   UNL     1     -12.933   6.214  71.455  1.00  0.00    -0.065 F  
HETATM    8  C   UNL     1      -8.965   5.358  70.392  1.00  0.00    -0.155 A  
HETATM    9  C   UNL     1      -8.578   3.933  70.072  1.00  0.00    -0.065 C  
HETATM   10  C   UNL     1     -10.293   5.649  70.745  1.00  0.00    -0.310 A  
HETATM   11  F   UNL     1     -12.183   7.815  72.719  1.00  0.00    -0.276 F  
HETATM   12  F   UNL     1      -7.270   3.784  69.720  1.00  0.00    -0.041 F  
HETATM   13  F   UNL     1      -8.784   3.089  71.120  1.00  0.00    -0.084 F  
HETATM   14  F   UNL     1      -9.300   3.419  69.036  1.00  0.00    -0.181 F  
HETATM   15  C   UNL     1     -12.097   7.289  71.466  1.00  0.00    -0.331 C  
HETATM   16  C   UNL     1     -10.676   6.957  71.071  1.00  0.00    -0.258 A  
ENDBRANCH   2   3
BRANCH   2  17
HETATM   17  O   UNL     1      -7.809  10.195  70.638  1.00  0.00    -0.153 OA 
BRANCH  17  18
HETATM   18  C   UNL     1      -7.889  10.810  69.345  1.00  0.00    -0.087 C  
HETATM   19  C   UNL     1      -8.315   8.716  67.411  1.00  0.00    -0.116 C  
HETATM   20  C   UNL     1      -7.055   8.917  68.245  1.00  0.00    -0.078 C  
HETATM   21  O   UNL     1      -6.843  10.312  68.498  1.00  0.00    -0.060 OA 
HETATM   22  N   UNL     1      -9.552   9.233  68.064  1.00  0.00    -0.141 NA 
HETATM   23  C   UNL     1      -9.268  10.639  68.547  1.00  0.00    -0.170 C  
BRANCH  22  24
HETATM   24  C   UNL     1     -10.639   9.248  67.044  1.00  0.00    -0.193 C  
BRANCH  24  25
HETATM   25  C   UNL     1     -10.137   9.729  65.702  1.00  0.00    -0.212 C  
HETATM   26  N   UNL     1     -10.604  10.867  65.158  1.00  0.00    -0.241 NA 
HETATM   27  N   UNL     1      -9.237   9.116  64.982  1.00  0.00    -0.421 NA 
HETATM   28  O   UNL     1     -10.023  11.963  63.208  1.00  0.00    -0.426 OA 
HETATM   29  C   UNL     1      -9.928  11.035  63.989  1.00  0.00    -0.335 C  
HETATM   30  N   UNL     1      -9.097   9.926  63.884  1.00  0.00    -0.251 NA 
HETATM   31  H   UNL     1      -8.752   8.242  65.187  1.00  0.00     0.000 HD 
ENDBRANCH  24  25
ENDBRANCH  22  24
BRANCH  23  32
HETATM   32  C   UNL     1     -10.478  11.326  69.188  1.00  0.00    -0.191 A  
HETATM   33  C   UNL     1     -12.565  12.554  70.624  1.00  0.00    -0.155 A  
HETATM   34  F   UNL     1     -13.530  13.152  71.331  1.00  0.00    -0.374 F  
HETATM   35  C   UNL     1     -10.773  12.683  68.995  1.00  0.00    -0.135 A  
HETATM   36  C   UNL     1     -12.310  11.204  70.813  1.00  0.00    -0.504 A  
HETATM   37  C   UNL     1     -11.811  13.294  69.714  1.00  0.00    -0.394 A  
HETATM   38  C   UNL     1     -11.276  10.593  70.096  1.00  0.00    -0.378 A  
ENDBRANCH  23  32
ENDBRANCH  17  18
ENDBRANCH   2  17
TORSDOF 6
ENDMDL
MODEL      309
REMARK 921   NORMALIZED FREE ENERGY PREDICTED BY IDOCK:    1.82 KCAL/MOL
REMARK 922        TOTAL FREE ENERGY PREDICTED BY IDOCK:    0.33 KCAL/MOL
REMARK 923 INTER-LIGAND FREE ENERGY PREDICTED BY IDOCK:    0.81 KCAL/MOL
REMARK 924 INTRA-LIGAND FREE ENERGY PREDICTED BY IDOCK:   -0.49 KCAL/MOL
REMARK 927      BINDING AFFINITY PREDICTED BY RF-SCORE:    0.00 PKD
ROOT
HETATM    1  C   UNL     1     -12.704  13.941  65.582  1.00  0.00    -0.534 C  
HETATM    2  C   UNL     1     -11.700  13.849  66.741  1.00  0.00    -0.399 C  
ENDROOT
BRANCH   2   3
HETATM    3  C   UNL     1     -10.537  12.881  66.467  1.00  0.00    -0.272 A  
HETATM    4  C   UNL     1     -10.306  12.332  65.191  1.00  0.00    -0.316 A  
HETATM    5  C   UNL     1      -9.670  12.502  67.508  1.00  0.00    -0.196 A  
HETATM    6  F   UNL     1      -8.850  11.840  62.626  1.00  0.00    -0.279 F  
HETATM    7  F   UNL     1      -8.007  10.014  63.452  1.00  0.00    -0.134 F  
HETATM    8  C   UNL     1      -8.607  11.602  67.290  1.00  0.00    -0.154 A  
HETATM    9  C   UNL     1      -7.692  11.177  68.415  1.00  0.00    -0.125 C  
HETATM   10  C   UNL     1      -8.407  11.075  66.002  1.00  0.00    -0.147 A  
HETATM   11  F   UNL     1     -10.149  10.169  63.121  1.00  0.00    -0.239 F  
HETATM   12  F   UNL     1      -7.972  11.776  69.607  1.00  0.00     0.229 F  
HETATM   13  F   UNL     1      -7.740   9.837  68.647  1.00  0.00    -0.077 F  
HETATM   14  F   UNL     1      -6.383  11.461  68.157  1.00  0.00    -0.049 F  
HETATM   15  C   UNL     1      -9.064  10.867  63.556  1.00  0.00    -0.202 C  
HETATM   16  C   UNL     1      -9.253  11.432  64.945  1.00  0.00    -0.074 A  
ENDBRANCH   2   3
BRANCH   2  17
HETATM   17  O   UNL     1     -12.344  13.718  68.034  1.00  0.00    -0.241 OA 
BRANCH  17  18
HETATM   18  C   UNL     1     -12.549  14.938  68.760  1.00  0.00     0.353 C  
HETATM   19  C   UNL     1     -10.981  14.788  71.174  1.00  0.00     0.198 C  
HETATM   20  C   UNL     1     -12.188  13.919  70.838  1.00  0.00    -0.361 C  
HETATM   21  O   UNL     1     -13.126  14.656  70.044  1.00  0.00    -0.078 OA 
HETATM   22  N   UNL     1     -10.244  15.275  69.972  1.00  0.00    -0.244 NA 
HETATM   23  C   UNL     1     -11.259  15.856  69.010  1.00  0.00    -0.327 C  
BRANCH  22  24
HETATM   24  C   UNL     1      -9.291  16.333  70.414  1.00  0.00     1.633 C  
BRANCH  24  25
HETATM   25  C   UNL     1      -7.880  16.036  69.961  1.00  0.00     0.725 C  
HETATM   26  N   UNL     1      -7.305  16.754  68.980  1.00  0.00    -0.232 NA 
HETATM   27  N   UNL     1      -7.118  15.103  70.465  1.00  0.00     0.087 NA 
HETATM   28  O   UNL     1      -5.173  16.670  68.092  1.00  0.00    -0.106 OA 
HETATM   29  C   UNL     1      -6.040  16.270  68.845  1.00  0.00    -0.131 C  
HETATM   30  N   UNL     1      -5.947  15.230  69.762  1.00  0.00    -0.127 NA 
HETATM   31  H   UNL     1      -7.340  14.438  71.206  1.00  0.00     0.000 HD 
ENDBRANCH  24  25
ENDBRANCH  22  24
BRANCH  23  32
HETATM   32  C   UNL     1     -10.636  16.458  67.747  1.00  0.00    -0.321 A  
HETATM   33  C   UNL     1      -9.417  17.796  65.591  1.00  0.00     0.489 A  
HETATM   34  F   UNL     1      -8.812  18.446  64.591  1.00  0.00     2.895 F  
HETATM   35  C   UNL     1      -9.484  15.934  67.143  1.00  0.00    -0.221 A  
HETATM   36  C   UNL     1     -10.571  18.320  66.153  1.00  0.00    -0.326 A  
HETATM   37  C   UNL     1      -8.876  16.604  66.071  1.00  0.00    -0.242 A  
HETATM   38  C   UNL     1     -11.179  17.653  67.221  1.00  0.00     0.355 A  
ENDBRANCH  23  32
ENDBRANCH  17  18
ENDBRANCH   2  17
TORSDOF 6
ENDMDL
MODEL      310
REMARK 921   NORMALIZED FREE ENERGY PREDICTED BY IDOCK:    1.94 KCAL/MOL
REMARK 922        TOTAL FREE ENERGY PREDICTED BY IDOCK:    0.48 KCAL/MOL
REMARK 923 INTER-LIGAND FREE ENERGY PREDICTED BY IDOCK:   -7.02 KCAL/MOL
REMARK 924 INTRA-LIGAND FREE ENERGY PREDICTED BY IDOCK:    7.50 KCAL/MOL
REMARK 927      BINDING AFFINITY PREDICTED BY RF-SCORE:    0.00 PKD
ROOT
HETATM    1  C   UNL     1      -6.672   8.728  68.640  1.00  0.00    -0.059 C  
HETATM    2  C   UNL     1      -6.662   7.587  69.667  1.00  0.00    -0.040 C  
ENDROOT
BRANCH   2   3
HETATM    3  C   UNL     1      -7.633   6.445  69.322  1.00  0.00    -0.099 A  
HETATM    4  C   UNL     1      -8.352   6.415  68.112  1.00  0.00    -0.116 A  
HETATM    5  C   UNL     1      -7.842   5.393  70.233  1.00  0.00    -0.084 A  
HETATM    6  F   UNL     1      -9.170   5.408  65.418  1.00  0.00    -0.160 F  
HETATM    7  F   UNL     1     -10.842   4.349  66.318  1.00  0.00    -0.214 F  
HETATM    8  C   UNL     1      -8.740   4.343  69.951  1.00  0.00    -0.111 A  
HETATM    9  C   UNL     1      -8.981   3.227  70.941  1.00  0.00    -0.098 C  
HETATM   10  C   UNL     1      -9.439   4.347  68.732  1.00  0.00    -0.227 A  
HETATM   11  F   UNL     1     -10.782   6.521  66.360  1.00  0.00    -0.257 F  
HETATM   12  F   UNL     1      -8.226   3.322  72.071  1.00  0.00    -0.059 F  
HETATM   13  F   UNL     1     -10.276   3.171  71.357  1.00  0.00    -0.214 F  
HETATM   14  F   UNL     1      -8.708   1.998  70.416  1.00  0.00    -0.076 F  
HETATM   15  C   UNL     1     -10.006   5.411  66.494  1.00  0.00    -0.196 C  
HETATM   16  C   UNL     1      -9.254   5.381  67.805  1.00  0.00    -0.115 A  
ENDBRANCH   2   3
BRANCH   2  17
HETATM   17  O   UNL     1      -6.701   8.062  71.037  1.00  0.00    -0.040 OA 
BRANCH  17  18
HETATM   18  C   UNL     1      -7.613   9.137  71.303  1.00  0.00    -0.025 C  
HETATM   19  C   UNL     1      -8.352  10.300  68.772  1.00  0.00    -0.125 C  
HETATM   20  C   UNL     1      -6.964  10.339  69.400  1.00  0.00    -0.083 C  
HETATM   21  O   UNL     1      -7.065  10.377  70.829  1.00  0.00    -0.269 OA 
HETATM   22  N   UNL     1      -9.160   9.114  69.181  1.00  0.00    -0.142 NA 
HETATM   23  C   UNL     1      -9.088   9.004  70.690  1.00  0.00    -0.235 C  
BRANCH  22  24
HETATM   24  C   UNL     1     -10.568   9.344  68.748  1.00  0.00    -0.208 C  
BRANCH  24  25
HETATM   25  C   UNL     1     -10.985  10.783  68.950  1.00  0.00    -0.241 C  
HETATM   26  N   UNL     1     -11.117  11.617  67.903  1.00  0.00    -0.229 NA 
HETATM   27  N   UNL     1     -11.254  11.323  70.108  1.00  0.00    -0.490 NA 
HETATM   28  O   UNL     1     -11.816  13.816  67.797  1.00  0.00    -0.337 OA 
HETATM   29  C   UNL     1     -11.539  12.805  68.413  1.00  0.00    -0.325 C  
HETATM   30  N   UNL     1     -11.599  12.611  69.788  1.00  0.00    -0.253 NA 
HETATM   31  H   UNL     1     -11.217  10.890  71.031  1.00  0.00     0.000 HD 
ENDBRANCH  24  25
ENDBRANCH  22  24
BRANCH  23  32
HETATM   32  C   UNL     1      -9.928   7.859  71.264  1.00  0.00    -0.206 A  
HETATM   33  C   UNL     1     -11.600   5.956  72.492  1.00  0.00    -0.277 A  
HETATM   34  F   UNL     1     -12.422   5.079  73.079  1.00  0.00    -0.301 F  
HETATM   35  C   UNL     1     -10.916   7.195  70.523  1.00  0.00    -0.287 A  
HETATM   36  C   UNL     1     -10.612   6.580  73.240  1.00  0.00    -0.301 A  
HETATM   37  C   UNL     1     -11.751   6.250  71.138  1.00  0.00    -0.292 A  
HETATM   38  C   UNL     1      -9.779   7.521  72.629  1.00  0.00    -0.229 A  
ENDBRANCH  23  32
ENDBRANCH  17  18
ENDBRANCH   2  17
TORSDOF 6
ENDMDL
MODEL      311
REMARK 921   NORMALIZED FREE ENERGY PREDICTED BY IDOCK:    2.02 KCAL/MOL
REMARK 922        TOTAL FREE ENERGY PREDICTED BY IDOCK:    0.59 KCAL/MOL
REMARK 923 INTER-LIGAND FREE ENERGY PREDICTED BY IDOCK:   -6.94 KCAL/MOL
REMARK 924 INTRA-LIGAND FREE ENERGY PREDICTED BY IDOCK:    7.53 KCAL/MOL
REMARK 927      BINDING AFFINITY PREDICTED BY RF-SCORE:    0.00 PKD
ROOT
HETATM    1  C   UNL     1      -6.523   8.330  68.550  1.00  0.00    -0.054 C  
HETATM    2  C   UNL     1      -6.714   7.493  69.823  1.00  0.00    -0.043 C  
ENDROOT
BRANCH   2   3
HETATM    3  C   UNL     1      -7.677   6.307  69.636  1.00  0.00    -0.099 A  
HETATM    4  C   UNL     1      -8.133   5.536  70.722  1.00  0.00    -0.113 A  
HETATM    5  C   UNL     1      -8.119   5.950  68.349  1.00  0.00    -0.109 A  
HETATM    6  F   UNL     1     -10.109   4.410  72.664  1.00  0.00    -0.186 F  
HETATM    7  F   UNL     1     -10.283   2.615  71.449  1.00  0.00    -0.208 F  
HETATM    8  C   UNL     1      -8.986   4.857  68.146  1.00  0.00    -0.123 A  
HETATM    9  C   UNL     1      -9.440   4.458  66.761  1.00  0.00    -0.180 C  
HETATM   10  C   UNL     1      -9.421   4.111  69.255  1.00  0.00    -0.258 A  
HETATM   11  F   UNL     1      -8.400   3.086  72.428  1.00  0.00    -0.068 F  
HETATM   12  F   UNL     1      -8.972   5.273  65.774  1.00  0.00    -0.136 F  
HETATM   13  F   UNL     1      -9.047   3.199  66.426  1.00  0.00    -0.130 F  
HETATM   14  F   UNL     1     -10.798   4.469  66.635  1.00  0.00    -0.184 F  
HETATM   15  C   UNL     1      -9.443   3.644  71.754  1.00  0.00    -0.141 C  
HETATM   16  C   UNL     1      -8.998   4.441  70.549  1.00  0.00    -0.155 A  
ENDBRANCH   2   3
BRANCH   2  17
HETATM   17  O   UNL     1      -6.929   8.305  71.005  1.00  0.00    -0.047 OA 
BRANCH  17  18
HETATM   18  C   UNL     1      -7.816   9.422  70.847  1.00  0.00    -0.057 C  
HETATM   19  C   UNL     1      -7.985  10.008  68.030  1.00  0.00    -0.101 C  
HETATM   20  C   UNL     1      -6.746  10.169  68.902  1.00  0.00    -0.053 C  
HETATM   21  O   UNL     1      -7.120  10.521  70.239  1.00  0.00    -0.228 OA 
HETATM   22  N   UNL     1      -8.920   8.949  68.511  1.00  0.00    -0.134 NA 
HETATM   23  C   UNL     1      -9.148   9.172  69.991  1.00  0.00    -0.192 C  
BRANCH  22  24
HETATM   24  C   UNL     1     -10.202   9.093  67.765  1.00  0.00    -0.224 C  
BRANCH  24  25
HETATM   25  C   UNL     1     -10.637  10.538  67.678  1.00  0.00    -0.250 C  
HETATM   26  N   UNL     1     -11.373  11.097  68.656  1.00  0.00    -0.251 NA 
HETATM   27  N   UNL     1     -10.345  11.345  66.694  1.00  0.00    -0.225 NA 
HETATM   28  O   UNL     1     -12.135  13.262  68.928  1.00  0.00    -0.316 OA 
HETATM   29  C   UNL     1     -11.556  12.397  68.298  1.00  0.00    -0.333 C  
HETATM   30  N   UNL     1     -10.927  12.529  67.066  1.00  0.00    -0.258 NA 
HETATM   31  H   UNL     1      -9.809  11.142  65.850  1.00  0.00     0.000 HD 
ENDBRANCH  24  25
ENDBRANCH  22  24
BRANCH  23  32
HETATM   32  C   UNL     1     -10.145   8.190  70.615  1.00  0.00    -0.209 A  
HETATM   33  C   UNL     1     -12.126   6.620  71.854  1.00  0.00    -0.340 A  
HETATM   34  F   UNL     1     -13.094   5.902  72.434  1.00  0.00    -0.214 F  
HETATM   35  C   UNL     1     -10.992   7.377  69.849  1.00  0.00    -0.239 A  
HETATM   36  C   UNL     1     -11.283   7.395  72.636  1.00  0.00    -0.379 A  
HETATM   37  C   UNL     1     -11.981   6.599  70.467  1.00  0.00    -0.377 A  
HETATM   38  C   UNL     1     -10.296   8.171  72.021  1.00  0.00    -0.320 A  
ENDBRANCH  23  32
ENDBRANCH  17  18
ENDBRANCH   2  17
TORSDOF 6
ENDMDL
MODEL      312
REMARK 921   NORMALIZED FREE ENERGY PREDICTED BY IDOCK:    2.03 KCAL/MOL
REMARK 922        TOTAL FREE ENERGY PREDICTED BY IDOCK:    0.61 KCAL/MOL
REMARK 923 INTER-LIGAND FREE ENERGY PREDICTED BY IDOCK:   -6.32 KCAL/MOL
REMARK 924 INTRA-LIGAND FREE ENERGY PREDICTED BY IDOCK:    6.93 KCAL/MOL
REMARK 927      BINDING AFFINITY PREDICTED BY RF-SCORE:    0.00 PKD
ROOT
HETATM    1  C   UNL     1      -9.183   9.703  67.151  1.00  0.00    -0.156 C  
HETATM    2  C   UNL     1      -9.463  10.570  68.388  1.00  0.00    -0.157 C  
ENDROOT
BRANCH   2   3
HETATM    3  C   UNL     1     -10.502  11.677  68.137  1.00  0.00    -0.217 A  
HETATM    4  C   UNL     1     -11.002  11.954  66.850  1.00  0.00    -0.335 A  
HETATM    5  C   UNL     1     -10.972  12.462  69.205  1.00  0.00    -0.206 A  
HETATM    6  F   UNL     1     -13.038  12.146  64.668  1.00  0.00    -0.501 F  
HETATM    7  F   UNL     1     -13.334  14.250  65.126  1.00  0.00    -0.334 F  
HETATM    8  C   UNL     1     -11.910  13.495  69.001  1.00  0.00    -0.385 A  
HETATM    9  C   UNL     1     -12.395  14.355  70.146  1.00  0.00    -0.348 C  
HETATM   10  C   UNL     1     -12.387  13.743  67.703  1.00  0.00    -0.060 A  
HETATM   11  F   UNL     1     -11.421  13.565  64.357  1.00  0.00    -0.346 F  
HETATM   12  F   UNL     1     -11.880  14.000  71.356  1.00  0.00    -0.371 F  
HETATM   13  F   UNL     1     -12.087  15.669  69.977  1.00  0.00    -0.320 F  
HETATM   14  F   UNL     1     -13.750  14.308  70.293  1.00  0.00     0.016 F  
HETATM   15  C   UNL     1     -12.428  13.237  65.212  1.00  0.00    -0.489 C  
HETATM   16  C   UNL     1     -11.938  12.978  66.619  1.00  0.00    -0.453 A  
ENDBRANCH   2   3
BRANCH   2  17
HETATM   17  O   UNL     1      -8.253  10.979  69.074  1.00  0.00    -0.150 OA 
BRANCH  17  18
HETATM   18  C   UNL     1      -7.174  11.419  68.237  1.00  0.00    -0.082 C  
HETATM   19  C   UNL     1      -8.253  13.308  66.347  1.00  0.00     0.752 C  
HETATM   20  C   UNL     1      -8.579  11.820  66.407  1.00  0.00    -0.113 C  
HETATM   21  O   UNL     1      -7.443  11.079  66.868  1.00  0.00    -0.119 OA 
HETATM   22  N   UNL     1      -7.864  13.887  67.665  1.00  0.00    -0.164 NA 
HETATM   23  C   UNL     1      -6.817  12.980  68.278  1.00  0.00    -0.101 C  
BRANCH  22  24
HETATM   24  C   UNL     1      -7.293  15.242  67.422  1.00  0.00    -0.210 C  
BRANCH  24  25
HETATM   25  C   UNL     1      -8.376  16.272  67.200  1.00  0.00    -0.191 C  
HETATM   26  N   UNL     1      -8.176  17.318  66.377  1.00  0.00    -0.294 NA 
HETATM   27  N   UNL     1      -9.558  16.240  67.754  1.00  0.00    -0.223 NA 
HETATM   28  O   UNL     1      -9.595  19.017  65.716  1.00  0.00    -0.417 OA 
HETATM   29  C   UNL     1      -9.341  18.021  66.365  1.00  0.00    -0.255 C  
HETATM   30  N   UNL     1     -10.183  17.348  67.243  1.00  0.00    -0.315 NA 
HETATM   31  H   UNL     1      -9.928  15.552  68.411  1.00  0.00     0.000 HD 
ENDBRANCH  24  25
ENDBRANCH  22  24
BRANCH  23  32
HETATM   32  C   UNL     1      -6.273  13.487  69.617  1.00  0.00    -0.121 A  
HETATM   33  C   UNL     1      -5.521  14.572  72.104  1.00  0.00    -0.064 A  
HETATM   34  F   UNL     1      -5.202  15.087  73.296  1.00  0.00    -0.271 F  
HETATM   35  C   UNL     1      -6.124  12.660  70.740  1.00  0.00     0.289 A  
HETATM   36  C   UNL     1      -5.636  15.406  71.003  1.00  0.00     0.033 A  
HETATM   37  C   UNL     1      -5.754  13.203  71.979  1.00  0.00     0.480 A  
HETATM   38  C   UNL     1      -6.004  14.867  69.767  1.00  0.00    -0.123 A  
ENDBRANCH  23  32
ENDBRANCH  17  18
ENDBRANCH   2  17
TORSDOF 6
ENDMDL
MODEL      313
REMARK 921   NORMALIZED FREE ENERGY PREDICTED BY IDOCK:    2.37 KCAL/MOL
REMARK 922        TOTAL FREE ENERGY PREDICTED BY IDOCK:    1.07 KCAL/MOL
REMARK 923 INTER-LIGAND FREE ENERGY PREDICTED BY IDOCK:   -6.51 KCAL/MOL
REMARK 924 INTRA-LIGAND FREE ENERGY PREDICTED BY IDOCK:    7.57 KCAL/MOL
REMARK 927      BINDING AFFINITY PREDICTED BY RF-SCORE:    0.00 PKD
ROOT
HETATM    1  C   UNL     1      -6.924  13.320  67.206  1.00  0.00     0.003 C  
HETATM    2  C   UNL     1      -6.715  12.353  68.380  1.00  0.00    -0.069 C  
ENDROOT
BRANCH   2   3
HETATM    3  C   UNL     1      -7.683  11.157  68.367  1.00  0.00    -0.125 A  
HETATM    4  C   UNL     1      -8.184  10.615  67.169  1.00  0.00    -0.121 A  
HETATM    5  C   UNL     1      -8.110  10.579  69.576  1.00  0.00    -0.105 A  
HETATM    6  F   UNL     1      -8.591   8.563  65.032  1.00  0.00    -0.165 F  
HETATM    7  F   UNL     1     -10.456   7.953  65.969  1.00  0.00    -0.029 F  
HETATM    8  C   UNL     1      -9.011   9.495  69.595  1.00  0.00    -0.198 A  
HETATM    9  C   UNL     1      -9.489   8.890  70.896  1.00  0.00    -0.236 C  
HETATM   10  C   UNL     1      -9.490   8.979  68.379  1.00  0.00    -0.154 A  
HETATM   11  F   UNL     1     -10.267   9.945  65.120  1.00  0.00    -0.397 F  
HETATM   12  F   UNL     1      -8.934   9.460  72.002  1.00  0.00    -0.032 F  
HETATM   13  F   UNL     1     -10.836   8.995  71.055  1.00  0.00    -0.256 F  
HETATM   14  F   UNL     1      -9.208   7.559  70.985  1.00  0.00    -0.149 F  
HETATM   15  C   UNL     1      -9.597   9.003  65.839  1.00  0.00    -0.247 C  
HETATM   16  C   UNL     1      -9.084   9.534  67.159  1.00  0.00    -0.152 A  
ENDBRANCH   2   3
BRANCH   2  17
HETATM   17  O   UNL     1      -6.563  13.035  69.651  1.00  0.00    -0.083 OA 
BRANCH  17  18
HETATM   18  C   UNL     1      -7.344  14.226  69.822  1.00  0.00     0.182 C  
HETATM   19  C   UNL     1      -6.137  16.295  68.219  1.00  0.00    -0.114 C  
HETATM   20  C   UNL     1      -5.514  15.640  69.447  1.00  0.00    -0.108 C  
HETATM   21  O   UNL     1      -6.533  15.269  70.384  1.00  0.00    -0.084 OA 
HETATM   22  N   UNL     1      -7.094  15.412  67.492  1.00  0.00    -0.178 NA 
HETATM   23  C   UNL     1      -8.047  14.824  68.512  1.00  0.00    -0.146 C  
BRANCH  22  24
HETATM   24  C   UNL     1      -7.842  16.251  66.513  1.00  0.00    -0.263 C  
BRANCH  24  25
HETATM   25  C   UNL     1      -8.706  17.280  67.206  1.00  0.00    -0.211 C  
HETATM   26  N   UNL     1      -8.187  18.105  68.133  1.00  0.00    -0.268 NA 
HETATM   27  N   UNL     1      -9.977  17.462  66.972  1.00  0.00    -0.284 NA 
HETATM   28  O   UNL     1      -9.144  19.841  69.320  1.00  0.00    -0.162 OA 
HETATM   29  C   UNL     1      -9.201  18.924  68.523  1.00  0.00    -0.361 C  
HETATM   30  N   UNL     1     -10.313  18.497  67.807  1.00  0.00    -0.384 NA 
HETATM   31  H   UNL     1     -10.578  16.955  66.322  1.00  0.00     0.000 HD 
ENDBRANCH  24  25
ENDBRANCH  22  24
BRANCH  23  32
HETATM   32  C   UNL     1      -9.135  13.939  67.898  1.00  0.00    -0.194 A  
HETATM   33  C   UNL     1     -11.331  12.499  66.883  1.00  0.00    -0.326 A  
HETATM   34  F   UNL     1     -12.393  11.849  66.395  1.00  0.00    -0.174 F  
HETATM   35  C   UNL     1      -9.339  13.832  66.515  1.00  0.00    -0.249 A  
HETATM   36  C   UNL     1     -11.136  12.567  68.253  1.00  0.00    -0.294 A  
HETATM   37  C   UNL     1     -10.436  13.118  66.010  1.00  0.00    -0.291 A  
HETATM   38  C   UNL     1     -10.043  13.278  68.758  1.00  0.00    -0.083 A  
ENDBRANCH  23  32
ENDBRANCH  17  18
ENDBRANCH   2  17
TORSDOF 6
ENDMDL
MODEL      314
REMARK 921   NORMALIZED FREE ENERGY PREDICTED BY IDOCK:    2.65 KCAL/MOL
REMARK 922        TOTAL FREE ENERGY PREDICTED BY IDOCK:    1.45 KCAL/MOL
REMARK 923 INTER-LIGAND FREE ENERGY PREDICTED BY IDOCK:   -6.29 KCAL/MOL
REMARK 924 INTRA-LIGAND FREE ENERGY PREDICTED BY IDOCK:    7.74 KCAL/MOL
REMARK 927      BINDING AFFINITY PREDICTED BY RF-SCORE:    0.00 PKD
ROOT
HETATM    1  C   UNL     1     -13.181  15.161  69.705  1.00  0.00     0.527 C  
HETATM    2  C   UNL     1     -12.239  16.374  69.740  1.00  0.00     0.680 C  
ENDROOT
BRANCH   2   3
HETATM    3  C   UNL     1     -11.444  16.567  68.437  1.00  0.00    -0.104 A  
HETATM    4  C   UNL     1     -10.484  17.587  68.293  1.00  0.00    -0.383 A  
HETATM    5  C   UNL     1     -11.674  15.725  67.334  1.00  0.00     0.212 A  
HETATM    6  F   UNL     1      -7.767  18.780  67.923  1.00  0.00    -0.247 F  
HETATM    7  F   UNL     1      -8.136  18.966  65.788  1.00  0.00    -0.261 F  
HETATM    8  C   UNL     1     -10.973  15.891  66.123  1.00  0.00    -0.126 A  
HETATM    9  C   UNL     1     -11.240  15.001  64.930  1.00  0.00    -0.416 C  
HETATM   10  C   UNL     1     -10.022  16.919  66.016  1.00  0.00    -0.313 A  
HETATM   11  F   UNL     1      -9.316  20.122  67.200  1.00  0.00    -0.401 F  
HETATM   12  F   UNL     1     -12.164  14.028  65.167  1.00  0.00    -0.361 F  
HETATM   13  F   UNL     1     -11.694  15.697  63.853  1.00  0.00    -0.281 F  
HETATM   14  F   UNL     1     -10.119  14.351  64.506  1.00  0.00    -0.410 F  
HETATM   15  C   UNL     1      -8.760  18.896  66.997  1.00  0.00    -0.294 C  
HETATM   16  C   UNL     1      -9.770  17.775  67.095  1.00  0.00    -0.288 A  
ENDBRANCH   2   3
BRANCH   2  17
HETATM   17  O   UNL     1     -11.476  16.459  70.969  1.00  0.00    -0.388 OA 
BRANCH  17  18
HETATM   18  C   UNL     1     -11.041  15.211  71.527  1.00  0.00    -0.154 C  
HETATM   19  C   UNL     1     -13.160  13.297  71.134  1.00  0.00    -0.146 C  
HETATM   20  C   UNL     1     -13.222  14.524  72.035  1.00  0.00    -0.362 C  
HETATM   21  O   UNL     1     -11.928  14.807  72.581  1.00  0.00    -0.264 OA 
HETATM   22  N   UNL     1     -12.227  13.450  69.980  1.00  0.00    -0.321 NA 
HETATM   23  C   UNL     1     -10.911  13.973  70.516  1.00  0.00     0.643 C  
BRANCH  22  24
HETATM   24  C   UNL     1     -12.034  12.107  69.363  1.00  0.00    -0.270 C  
BRANCH  24  25
HETATM   25  C   UNL     1     -12.047  11.009  70.401  1.00  0.00    -0.373 C  
HETATM   26  N   UNL     1     -13.197  10.623  70.983  1.00  0.00    -0.272 NA 
HETATM   27  N   UNL     1     -10.992  10.354  70.804  1.00  0.00    -0.382 NA 
HETATM   28  O   UNL     1     -13.632   8.947  72.512  1.00  0.00    -0.441 OA 
HETATM   29  C   UNL     1     -12.875   9.603  71.823  1.00  0.00    -0.421 C  
HETATM   30  N   UNL     1     -11.496   9.462  71.716  1.00  0.00    -0.386 NA 
HETATM   31  H   UNL     1     -10.023  10.477  70.511  1.00  0.00     0.000 HD 
ENDBRANCH  24  25
ENDBRANCH  22  24
BRANCH  23  32
HETATM   32  C   UNL     1      -9.826  14.122  69.446  1.00  0.00     0.288 A  
HETATM   33  C   UNL     1      -7.644  14.283  67.674  1.00  0.00    -0.176 A  
HETATM   34  F   UNL     1      -6.593  14.327  66.848  1.00  0.00     0.170 F  
HETATM   35  C   UNL     1      -9.795  13.341  68.281  1.00  0.00    -0.231 A  
HETATM   36  C   UNL     1      -7.664  15.085  68.805  1.00  0.00    -0.141 A  
HETATM   37  C   UNL     1      -8.705  13.420  67.401  1.00  0.00    -0.209 A  
HETATM   38  C   UNL     1      -8.750  15.008  69.682  1.00  0.00     0.011 A  
ENDBRANCH  23  32
ENDBRANCH  17  18
ENDBRANCH   2  17
TORSDOF 6
ENDMDL
MODEL      315
REMARK 921   NORMALIZED FREE ENERGY PREDICTED BY IDOCK:    2.77 KCAL/MOL
REMARK 922        TOTAL FREE ENERGY PREDICTED BY IDOCK:    1.61 KCAL/MOL
REMARK 923 INTER-LIGAND FREE ENERGY PREDICTED BY IDOCK:    2.97 KCAL/MOL
REMARK 924 INTRA-LIGAND FREE ENERGY PREDICTED BY IDOCK:   -1.36 KCAL/MOL
REMARK 927      BINDING AFFINITY PREDICTED BY RF-SCORE:    0.00 PKD
ROOT
HETATM    1  C   UNL     1     -11.339  11.100  70.690  1.00  0.00     0.142 C  
HETATM    2  C   UNL     1     -11.465  10.525  69.271  1.00  0.00    -0.256 C  
ENDROOT
BRANCH   2   3
HETATM    3  C   UNL     1     -10.504   9.356  68.998  1.00  0.00    -0.233 A  
HETATM    4  C   UNL     1     -10.912   8.200  68.306  1.00  0.00     0.163 A  
HETATM    5  C   UNL     1      -9.175   9.408  69.457  1.00  0.00    -0.182 A  
HETATM    6  F   UNL     1     -10.985   6.203  66.080  1.00  0.00    -0.172 F  
HETATM    7  F   UNL     1      -9.593   4.936  67.169  1.00  0.00    -0.129 F  
HETATM    8  C   UNL     1      -8.278   8.343  69.237  1.00  0.00    -0.116 A  
HETATM    9  C   UNL     1      -6.858   8.390  69.752  1.00  0.00    -0.043 C  
HETATM   10  C   UNL     1      -8.721   7.205  68.541  1.00  0.00    -0.126 A  
HETATM   11  F   UNL     1     -11.583   5.298  67.965  1.00  0.00     0.783 F  
HETATM   12  F   UNL     1      -6.543   9.554  70.387  1.00  0.00    -0.048 F  
HETATM   13  F   UNL     1      -6.593   7.394  70.641  1.00  0.00    -0.041 F  
HETATM   14  F   UNL     1      -5.938   8.252  68.755  1.00  0.00    -0.039 F  
HETATM   15  C   UNL     1     -10.539   5.902  67.333  1.00  0.00    -0.282 C  
HETATM   16  C   UNL     1     -10.038   7.123  68.072  1.00  0.00    -0.201 A  
ENDBRANCH   2   3
BRANCH   2  17
HETATM   17  O   UNL     1     -11.520  11.554  68.251  1.00  0.00    -0.250 OA 
BRANCH  17  18
HETATM   18  C   UNL     1     -10.953  11.209  66.979  1.00  0.00    -0.289 C  
HETATM   19  C   UNL     1     -11.679  13.280  65.111  1.00  0.00    -0.330 C  
HETATM   20  C   UNL     1     -12.640  12.303  65.778  1.00  0.00     0.689 C  
HETATM   21  O   UNL     1     -11.994  11.045  66.004  1.00  0.00     0.435 OA 
HETATM   22  N   UNL     1     -10.456  13.559  65.918  1.00  0.00    -0.286 NA 
HETATM   23  C   UNL     1      -9.883  12.231  66.364  1.00  0.00    -0.230 C  
BRANCH  22  24
HETATM   24  C   UNL     1      -9.482  14.274  65.046  1.00  0.00     0.698 C  
BRANCH  24  25
HETATM   25  C   UNL     1      -8.664  15.276  65.828  1.00  0.00     0.655 C  
HETATM   26  N   UNL     1      -7.614  15.900  65.263  1.00  0.00     3.619 NA 
HETATM   27  N   UNL     1      -8.896  15.622  67.065  1.00  0.00    -0.209 NA 
HETATM   28  O   UNL     1      -6.205  17.537  66.086  1.00  0.00    -0.211 OA 
HETATM   29  C   UNL     1      -7.129  16.755  66.205  1.00  0.00     0.095 C  
HETATM   30  N   UNL     1      -7.925  16.554  67.326  1.00  0.00    -0.154 NA 
HETATM   31  H   UNL     1      -9.627  15.279  67.689  1.00  0.00     0.000 HD 
ENDBRANCH  24  25
ENDBRANCH  22  24
BRANCH  23  32
HETATM   32  C   UNL     1      -8.578  12.358  67.156  1.00  0.00    -0.189 A  
HETATM   33  C   UNL     1      -6.319  12.458  68.832  1.00  0.00    -0.085 A  
HETATM   34  F   UNL     1      -5.256  12.471  69.644  1.00  0.00    -0.069 F  
HETATM   35  C   UNL     1      -7.417  11.643  66.830  1.00  0.00    -0.091 A  
HETATM   36  C   UNL     1      -7.445  13.195  69.163  1.00  0.00     0.189 A  
HETATM   37  C   UNL     1      -6.293  11.691  67.668  1.00  0.00    -0.072 A  
HETATM   38  C   UNL     1      -8.566  13.150  68.328  1.00  0.00    -0.166 A  
ENDBRANCH  23  32
ENDBRANCH  17  18
ENDBRANCH   2  17
TORSDOF 6
ENDMDL
MODEL      316
REMARK 921   NORMALIZED FREE ENERGY PREDICTED BY IDOCK:    2.79 KCAL/MOL
REMARK 922        TOTAL FREE ENERGY PREDICTED BY IDOCK:    1.64 KCAL/MOL
REMARK 923 INTER-LIGAND FREE ENERGY PREDICTED BY IDOCK:    1.75 KCAL/MOL
REMARK 924 INTRA-LIGAND FREE ENERGY PREDICTED BY IDOCK:   -0.11 KCAL/MOL
REMARK 927      BINDING AFFINITY PREDICTED BY RF-SCORE:    0.00 PKD
ROOT
HETATM    1  C   UNL     1     -12.704  13.942  65.582  1.00  0.00    -0.534 C  
HETATM    2  C   UNL     1     -11.687  13.852  66.730  1.00  0.00    -0.399 C  
ENDROOT
BRANCH   2   3
HETATM    3  C   UNL     1     -10.531  12.877  66.448  1.00  0.00    -0.278 A  
HETATM    4  C   UNL     1      -9.374  12.840  67.248  1.00  0.00    -0.200 A  
HETATM    5  C   UNL     1     -10.598  11.996  65.353  1.00  0.00    -0.319 A  
HETATM    6  F   UNL     1      -7.387  11.693  69.167  1.00  0.00    -0.107 F  
HETATM    7  F   UNL     1      -6.132  11.076  67.503  1.00  0.00    -0.046 F  
HETATM    8  C   UNL     1      -9.545  11.106  65.060  1.00  0.00    -0.278 A  
HETATM    9  C   UNL     1      -9.607  10.177  63.869  1.00  0.00    -0.239 C  
HETATM   10  C   UNL     1      -8.405  11.096  65.883  1.00  0.00    -0.076 A  
HETATM   11  F   UNL     1      -6.466  13.189  67.887  1.00  0.00    -0.079 F  
HETATM   12  F   UNL     1     -10.771  10.263  63.167  1.00  0.00     0.217 F  
HETATM   13  F   UNL     1      -8.610  10.412  62.974  1.00  0.00    -0.147 F  
HETATM   14  F   UNL     1      -9.485   8.867  64.225  1.00  0.00     0.050 F  
HETATM   15  C   UNL     1      -7.086  11.977  67.869  1.00  0.00    -0.097 C  
HETATM   16  C   UNL     1      -8.309  11.962  66.979  1.00  0.00    -0.178 A  
ENDBRANCH   2   3
BRANCH   2  17
HETATM   17  O   UNL     1     -12.317  13.732  68.030  1.00  0.00    -0.241 OA 
BRANCH  17  18
HETATM   18  C   UNL     1     -12.511  14.957  68.750  1.00  0.00     0.172 C  
HETATM   19  C   UNL     1     -10.912  14.823  71.144  1.00  0.00     0.198 C  
HETATM   20  C   UNL     1     -12.123  13.953  70.831  1.00  0.00    -0.313 C  
HETATM   21  O   UNL     1     -13.071  14.685  70.044  1.00  0.00    -0.078 OA 
HETATM   22  N   UNL     1     -10.190  15.301  69.930  1.00  0.00    -0.250 NA 
HETATM   23  C   UNL     1     -11.217  15.875  68.977  1.00  0.00    -0.327 C  
BRANCH  22  24
HETATM   24  C   UNL     1      -9.230  16.360  70.351  1.00  0.00     1.964 C  
BRANCH  24  25
HETATM   25  C   UNL     1      -7.825  16.059  69.882  1.00  0.00     0.480 C  
HETATM   26  N   UNL     1      -7.263  16.769  68.887  1.00  0.00    -0.214 NA 
HETATM   27  N   UNL     1      -7.057  15.129  70.382  1.00  0.00    -0.008 NA 
HETATM   28  O   UNL     1      -5.144  16.677  67.971  1.00  0.00    -0.107 OA 
HETATM   29  C   UNL     1      -6.001  16.283  68.739  1.00  0.00    -0.115 C  
HETATM   30  N   UNL     1      -5.896  15.250  69.663  1.00  0.00    -0.112 NA 
HETATM   31  H   UNL     1      -7.270  14.470  71.131  1.00  0.00     0.000 HD 
ENDBRANCH  24  25
ENDBRANCH  22  24
BRANCH  23  32
HETATM   32  C   UNL     1     -10.610  16.467  67.701  1.00  0.00    -0.321 A  
HETATM   33  C   UNL     1      -9.419  17.788  65.519  1.00  0.00     0.779 A  
HETATM   34  F   UNL     1      -8.826  18.431  64.507  1.00  0.00     3.548 F  
HETATM   35  C   UNL     1      -9.467  15.938  67.086  1.00  0.00    -0.221 A  
HETATM   36  C   UNL     1     -10.565  18.317  66.093  1.00  0.00    -0.326 A  
HETATM   37  C   UNL     1      -8.872  16.600  66.002  1.00  0.00    -0.242 A  
HETATM   38  C   UNL     1     -11.159  17.659  67.174  1.00  0.00     0.190 A  
ENDBRANCH  23  32
ENDBRANCH  17  18
ENDBRANCH   2  17
TORSDOF 6
ENDMDL
MODEL      317
REMARK 921   NORMALIZED FREE ENERGY PREDICTED BY IDOCK:    3.00 KCAL/MOL
REMARK 922        TOTAL FREE ENERGY PREDICTED BY IDOCK:    1.92 KCAL/MOL
REMARK 923 INTER-LIGAND FREE ENERGY PREDICTED BY IDOCK:   -5.56 KCAL/MOL
REMARK 924 INTRA-LIGAND FREE ENERGY PREDICTED BY IDOCK:    7.49 KCAL/MOL
REMARK 927      BINDING AFFINITY PREDICTED BY RF-SCORE:    0.00 PKD
ROOT
HETATM    1  C   UNL     1     -13.153  15.097  69.618  1.00  0.00     0.481 C  
HETATM    2  C   UNL     1     -12.089  16.200  69.520  1.00  0.00     0.044 C  
ENDROOT
BRANCH   2   3
HETATM    3  C   UNL     1     -11.290  16.164  68.206  1.00  0.00    -0.316 A  
HETATM    4  C   UNL     1     -11.616  15.284  67.157  1.00  0.00    -0.130 A  
HETATM    5  C   UNL     1     -10.184  17.014  68.027  1.00  0.00    -0.319 A  
HETATM    6  F   UNL     1     -12.538  14.470  64.431  1.00  0.00    -0.456 F  
HETATM    7  F   UNL     1     -10.472  14.325  63.773  1.00  0.00     0.375 F  
HETATM    8  C   UNL     1      -9.422  16.990  66.840  1.00  0.00    -0.266 A  
HETATM    9  C   UNL     1      -8.219  17.886  66.659  1.00  0.00    -0.258 C  
HETATM   10  C   UNL     1      -9.779  16.099  65.814  1.00  0.00    -0.325 A  
HETATM   11  F   UNL     1     -11.224  12.969  65.294  1.00  0.00    -0.299 F  
HETATM   12  F   UNL     1      -7.992  18.721  67.712  1.00  0.00    -0.249 F  
HETATM   13  F   UNL     1      -7.068  17.183  66.482  1.00  0.00    -0.202 F  
HETATM   14  F   UNL     1      -8.332  18.693  65.565  1.00  0.00     0.045 F  
HETATM   15  C   UNL     1     -11.267  14.264  64.877  1.00  0.00    -0.379 C  
HETATM   16  C   UNL     1     -10.874  15.239  65.963  1.00  0.00    -0.331 A  
ENDBRANCH   2   3
BRANCH   2  17
HETATM   17  O   UNL     1     -11.309  16.338  70.735  1.00  0.00    -0.395 OA 
BRANCH  17  18
HETATM   18  C   UNL     1     -10.934  15.115  71.384  1.00  0.00    -0.058 C  
HETATM   19  C   UNL     1     -13.082  13.232  70.998  1.00  0.00    -0.078 C  
HETATM   20  C   UNL     1     -13.155  14.511  71.823  1.00  0.00    -0.346 C  
HETATM   21  O   UNL     1     -11.881  14.795  72.415  1.00  0.00    -0.291 OA 
HETATM   22  N   UNL     1     -12.091  13.295  69.886  1.00  0.00    -0.324 NA 
HETATM   23  C   UNL     1     -10.788  13.818  70.455  1.00  0.00     0.970 C  
BRANCH  22  24
HETATM   24  C   UNL     1     -11.903  11.914  69.357  1.00  0.00    -0.327 C  
BRANCH  24  25
HETATM   25  C   UNL     1     -11.956  10.882  70.461  1.00  0.00    -0.371 C  
HETATM   26  N   UNL     1     -13.131  10.494  70.986  1.00  0.00    -0.371 NA 
HETATM   27  N   UNL     1     -10.912  10.291  70.976  1.00  0.00    -0.284 NA 
HETATM   28  O   UNL     1     -13.621   8.901  72.588  1.00  0.00    -0.439 OA 
HETATM   29  C   UNL     1     -12.837   9.540  71.911  1.00  0.00    -0.420 C  
HETATM   30  N   UNL     1     -11.451   9.441  71.907  1.00  0.00    -0.333 NA 
HETATM   31  H   UNL     1      -9.929  10.429  70.742  1.00  0.00     0.000 HD 
ENDBRANCH  24  25
ENDBRANCH  22  24
BRANCH  23  32
HETATM   32  C   UNL     1      -9.650  13.877  69.432  1.00  0.00     0.556 A  
HETATM   33  C   UNL     1      -7.381  13.887  67.765  1.00  0.00    -0.162 A  
HETATM   34  F   UNL     1      -6.290  13.860  66.992  1.00  0.00     0.041 F  
HETATM   35  C   UNL     1      -9.574  13.018  68.327  1.00  0.00    -0.213 A  
HETATM   36  C   UNL     1      -7.444  14.765  68.836  1.00  0.00    -0.137 A  
HETATM   37  C   UNL     1      -8.441  13.021  67.500  1.00  0.00    -0.190 A  
HETATM   38  C   UNL     1      -8.572  14.764  69.661  1.00  0.00     0.192 A  
ENDBRANCH  23  32
ENDBRANCH  17  18
ENDBRANCH   2  17
TORSDOF 6
ENDMDL
MODEL      318
REMARK 921   NORMALIZED FREE ENERGY PREDICTED BY IDOCK:    3.45 KCAL/MOL
REMARK 922        TOTAL FREE ENERGY PREDICTED BY IDOCK:    2.53 KCAL/MOL
REMARK 923 INTER-LIGAND FREE ENERGY PREDICTED BY IDOCK:   -6.70 KCAL/MOL
REMARK 924 INTRA-LIGAND FREE ENERGY PREDICTED BY IDOCK:    9.23 KCAL/MOL
REMARK 927      BINDING AFFINITY PREDICTED BY RF-SCORE:    0.00 PKD
ROOT
HETATM    1  C   UNL     1     -10.258  12.574  68.647  1.00  0.00    -0.166 C  
HETATM    2  C   UNL     1      -9.077  12.902  67.722  1.00  0.00    -0.197 C  
ENDROOT
BRANCH   2   3
HETATM    3  C   UNL     1      -8.140  13.984  68.287  1.00  0.00    -0.148 A  
HETATM    4  C   UNL     1      -7.466  13.824  69.513  1.00  0.00     0.339 A  
HETATM    5  C   UNL     1      -7.944  15.188  67.586  1.00  0.00    -0.177 A  
HETATM    6  F   UNL     1      -5.129  13.498  71.350  1.00  0.00    -0.110 F  
HETATM    7  F   UNL     1      -5.148  15.633  71.757  1.00  0.00    -0.190 F  
HETATM    8  C   UNL     1      -7.106  16.204  68.088  1.00  0.00    -0.137 A  
HETATM    9  C   UNL     1      -6.916  17.507  67.346  1.00  0.00    -0.164 C  
HETATM   10  C   UNL     1      -6.449  16.008  69.315  1.00  0.00    -0.169 A  
HETATM   11  F   UNL     1      -6.819  14.393  72.384  1.00  0.00     0.683 F  
HETATM   12  F   UNL     1      -7.583  17.565  66.160  1.00  0.00    -0.271 F  
HETATM   13  F   UNL     1      -7.335  18.582  68.067  1.00  0.00    -0.227 F  
HETATM   14  F   UNL     1      -5.608  17.749  67.047  1.00  0.00    -0.133 F  
HETATM   15  C   UNL     1      -5.938  14.594  71.366  1.00  0.00     0.074 C  
HETATM   16  C   UNL     1      -6.624  14.820  70.037  1.00  0.00    -0.168 A  
ENDBRANCH   2   3
BRANCH   2  17
HETATM   17  O   UNL     1      -9.475  13.066  66.338  1.00  0.00    -0.256 OA 
BRANCH  17  18
HETATM   18  C   UNL     1     -10.874  13.286  66.108  1.00  0.00    -0.280 C  
HETATM   19  C   UNL     1     -12.286  12.469  68.484  1.00  0.00     0.115 C  
HETATM   20  C   UNL     1     -11.519  11.549  67.541  1.00  0.00    -0.282 C  
HETATM   21  O   UNL     1     -11.589  12.044  66.198  1.00  0.00    -0.392 OA 
HETATM   22  N   UNL     1     -11.764  13.866  68.510  1.00  0.00    -0.334 NA 
HETATM   23  C   UNL     1     -11.611  14.329  67.076  1.00  0.00    -0.386 C  
BRANCH  22  24
HETATM   24  C   UNL     1     -12.759  14.717  69.222  1.00  0.00     0.308 C  
BRANCH  24  25
HETATM   25  C   UNL     1     -12.218  15.225  70.538  1.00  0.00    -0.371 C  
HETATM   26  N   UNL     1     -13.050  15.604  71.526  1.00  0.00    -0.490 NA 
HETATM   27  N   UNL     1     -10.950  15.329  70.830  1.00  0.00    -0.493 NA 
HETATM   28  O   UNL     1     -12.615  16.329  73.676  1.00  0.00    -0.508 OA 
HETATM   29  C   UNL     1     -12.258  15.962  72.573  1.00  0.00    -0.500 C  
HETATM   30  N   UNL     1     -10.955  15.804  72.117  1.00  0.00     0.226 NA 
HETATM   31  H   UNL     1     -10.147  15.108  70.242  1.00  0.00     0.000 HD 
ENDBRANCH  24  25
ENDBRANCH  22  24
BRANCH  23  32
HETATM   32  C   UNL     1     -11.139  15.780  66.945  1.00  0.00    -0.133 A  
HETATM   33  C   UNL     1     -10.526  18.501  66.564  1.00  0.00    -0.398 A  
HETATM   34  F   UNL     1     -10.272  19.803  66.388  1.00  0.00    -0.441 F  
HETATM   35  C   UNL     1     -11.022  16.644  68.043  1.00  0.00    -0.311 A  
HETATM   36  C   UNL     1     -10.610  17.662  65.465  1.00  0.00    -0.072 A  
HETATM   37  C   UNL     1     -10.720  18.001  67.851  1.00  0.00    -0.329 A  
HETATM   38  C   UNL     1     -10.910  16.309  65.653  1.00  0.00    -0.215 A  
ENDBRANCH  23  32
ENDBRANCH  17  18
ENDBRANCH   2  17
TORSDOF 6
ENDMDL
MODEL      319
REMARK 921   NORMALIZED FREE ENERGY PREDICTED BY IDOCK:    3.67 KCAL/MOL
REMARK 922        TOTAL FREE ENERGY PREDICTED BY IDOCK:    2.83 KCAL/MOL
REMARK 923 INTER-LIGAND FREE ENERGY PREDICTED BY IDOCK:   -4.60 KCAL/MOL
REMARK 924 INTRA-LIGAND FREE ENERGY PREDICTED BY IDOCK:    7.42 KCAL/MOL
REMARK 927      BINDING AFFINITY PREDICTED BY RF-SCORE:    0.00 PKD
ROOT
HETATM    1  C   UNL     1     -12.721  14.914  69.412  1.00  0.00     0.169 C  
HETATM    2  C   UNL     1     -12.039  16.287  69.503  1.00  0.00     0.231 C  
ENDROOT
BRANCH   2   3
HETATM    3  C   UNL     1     -11.277  16.677  68.225  1.00  0.00    -0.220 A  
HETATM    4  C   UNL     1     -10.370  17.753  68.194  1.00  0.00    -0.393 A  
HETATM    5  C   UNL     1     -11.487  15.965  67.030  1.00  0.00     0.209 A  
HETATM    6  F   UNL     1      -7.720  19.115  67.941  1.00  0.00    -0.272 F  
HETATM    7  F   UNL     1      -8.136  19.542  65.850  1.00  0.00    -0.320 F  
HETATM    8  C   UNL     1     -10.817  16.313  65.839  1.00  0.00    -0.141 A  
HETATM    9  C   UNL     1     -11.062  15.562  64.550  1.00  0.00    -0.274 C  
HETATM   10  C   UNL     1      -9.917  17.392  65.847  1.00  0.00    -0.166 A  
HETATM   11  F   UNL     1      -9.344  20.458  67.407  1.00  0.00    -0.443 F  
HETATM   12  F   UNL     1     -11.934  14.523  64.677  1.00  0.00    -0.379 F  
HETATM   13  F   UNL     1     -11.569  16.360  63.571  1.00  0.00     0.161 F  
HETATM   14  F   UNL     1      -9.919  15.025  64.036  1.00  0.00     0.772 F  
HETATM   15  C   UNL     1      -8.734  19.294  67.049  1.00  0.00    -0.292 C  
HETATM   16  C   UNL     1      -9.688  18.121  67.021  1.00  0.00    -0.307 A  
ENDBRANCH   2   3
BRANCH   2  17
HETATM   17  O   UNL     1     -11.327  16.481  70.751  1.00  0.00    -0.314 OA 
BRANCH  17  18
HETATM   18  C   UNL     1     -10.608  15.343  71.248  1.00  0.00     0.319 C  
HETATM   19  C   UNL     1     -12.068  12.983  70.467  1.00  0.00    -0.292 C  
HETATM   20  C   UNL     1     -12.545  14.042  71.455  1.00  0.00    -0.349 C  
HETATM   21  O   UNL     1     -11.431  14.601  72.161  1.00  0.00    -0.091 OA 
HETATM   22  N   UNL     1     -11.123  13.508  69.440  1.00  0.00    -0.174 NA 
HETATM   23  C   UNL     1     -10.055  14.305  70.159  1.00  0.00     0.991 C  
BRANCH  22  24
HETATM   24  C   UNL     1     -10.512  12.344  68.738  1.00  0.00    -0.154 C  
BRANCH  24  25
HETATM   25  C   UNL     1     -11.014  12.223  67.318  1.00  0.00    -0.256 C  
HETATM   26  N   UNL     1     -10.153  12.143  66.287  1.00  0.00    -0.220 NA 
HETATM   27  N   UNL     1     -12.272  12.177  66.975  1.00  0.00    -0.415 NA 
HETATM   28  O   UNL     1     -10.524  11.856  64.024  1.00  0.00    -0.306 OA 
HETATM   29  C   UNL     1     -10.913  12.002  65.167  1.00  0.00    -0.310 C  
HETATM   30  N   UNL     1     -12.229  12.046  65.611  1.00  0.00    -0.427 NA 
HETATM   31  H   UNL     1     -13.093  12.227  67.579  1.00  0.00     0.000 HD 
ENDBRANCH  24  25
ENDBRANCH  22  24
BRANCH  23  32
HETATM   32  C   UNL     1      -8.970  14.858  69.229  1.00  0.00    -0.099 A  
HETATM   33  C   UNL     1      -6.779  15.772  67.716  1.00  0.00    -0.156 A  
HETATM   34  F   UNL     1      -5.718  16.175  67.008  1.00  0.00    -0.162 F  
HETATM   35  C   UNL     1      -8.699  14.312  67.966  1.00  0.00    -0.177 A  
HETATM   36  C   UNL     1      -7.041  16.346  68.950  1.00  0.00    -0.195 A  
HETATM   37  C   UNL     1      -7.605  14.766  67.215  1.00  0.00    -0.195 A  
HETATM   38  C   UNL     1      -8.132  15.896  69.700  1.00  0.00     0.052 A  
ENDBRANCH  23  32
ENDBRANCH  17  18
ENDBRANCH   2  17
TORSDOF 6
ENDMDL
MODEL      320
REMARK 921   NORMALIZED FREE ENERGY PREDICTED BY IDOCK:    3.76 KCAL/MOL
REMARK 922        TOTAL FREE ENERGY PREDICTED BY IDOCK:    2.95 KCAL/MOL
REMARK 923 INTER-LIGAND FREE ENERGY PREDICTED BY IDOCK:   -5.40 KCAL/MOL
REMARK 924 INTRA-LIGAND FREE ENERGY PREDICTED BY IDOCK:    8.35 KCAL/MOL
REMARK 927      BINDING AFFINITY PREDICTED BY RF-SCORE:    0.00 PKD
ROOT
HETATM    1  C   UNL     1      -5.567   8.012  69.680  1.00  0.00    -0.026 C  
HETATM    2  C   UNL     1      -6.385   7.807  70.963  1.00  0.00    -0.037 C  
ENDROOT
BRANCH   2   3
HETATM    3  C   UNL     1      -7.268   6.548  70.930  1.00  0.00    -0.071 A  
HETATM    4  C   UNL     1      -8.180   6.247  71.960  1.00  0.00    -0.110 A  
HETATM    5  C   UNL     1      -7.171   5.642  69.858  1.00  0.00    -0.069 A  
HETATM    6  F   UNL     1     -10.849   5.803  73.233  1.00  0.00    -0.239 F  
HETATM    7  F   UNL     1     -10.638   3.661  72.934  1.00  0.00    -0.219 F  
HETATM    8  C   UNL     1      -7.955   4.471  69.811  1.00  0.00    -0.061 A  
HETATM    9  C   UNL     1      -7.831   3.486  68.671  1.00  0.00    -0.055 C  
HETATM   10  C   UNL     1      -8.855   4.205  70.857  1.00  0.00    -0.137 A  
HETATM   11  F   UNL     1      -9.290   4.708  74.279  1.00  0.00    -0.114 F  
HETATM   12  F   UNL     1      -6.946   3.869  67.708  1.00  0.00    -0.051 F  
HETATM   13  F   UNL     1      -7.425   2.256  69.087  1.00  0.00    -0.043 F  
HETATM   14  F   UNL     1      -9.016   3.287  68.025  1.00  0.00    -0.117 F  
HETATM   15  C   UNL     1      -9.926   4.813  73.080  1.00  0.00    -0.149 C  
HETATM   16  C   UNL     1      -8.974   5.087  71.938  1.00  0.00    -0.147 A  
ENDBRANCH   2   3
BRANCH   2  17
HETATM   17  O   UNL     1      -7.029   9.023  71.421  1.00  0.00    -0.124 OA 
BRANCH  17  18
HETATM   18  C   UNL     1      -7.625   9.840  70.404  1.00  0.00    -0.148 C  
HETATM   19  C   UNL     1      -7.181   8.538  67.870  1.00  0.00    -0.088 C  
HETATM   20  C   UNL     1      -6.104   9.143  68.764  1.00  0.00    -0.044 C  
HETATM   21  O   UNL     1      -6.622  10.275  69.472  1.00  0.00    -0.050 OA 
HETATM   22  N   UNL     1      -8.383   8.069  68.618  1.00  0.00    -0.126 NA 
HETATM   23  C   UNL     1      -8.812   9.183  69.551  1.00  0.00    -0.149 C  
BRANCH  22  24
HETATM   24  C   UNL     1      -9.459   7.784  67.628  1.00  0.00    -0.144 C  
BRANCH  24  25
HETATM   25  C   UNL     1      -9.634   8.923  66.651  1.00  0.00    -0.219 C  
HETATM   26  N   UNL     1     -10.208  10.078  67.033  1.00  0.00    -0.225 NA 
HETATM   27  N   UNL     1      -9.252   8.897  65.403  1.00  0.00    -0.393 NA 
HETATM   28  O   UNL     1     -10.558  12.050  65.880  1.00  0.00    -0.249 OA 
HETATM   29  C   UNL     1     -10.174  10.898  65.947  1.00  0.00    -0.257 C  
HETATM   30  N   UNL     1      -9.595  10.140  64.936  1.00  0.00    -0.284 NA 
HETATM   31  H   UNL     1      -8.804   8.134  64.895  1.00  0.00     0.000 HD 
ENDBRANCH  24  25
ENDBRANCH  22  24
BRANCH  23  32
HETATM   32  C   UNL     1     -10.082   8.865  70.345  1.00  0.00    -0.232 A  
HETATM   33  C   UNL     1     -12.301   8.017  71.855  1.00  0.00    -0.323 A  
HETATM   34  F   UNL     1     -13.332   7.593  72.595  1.00  0.00     0.033 F  
HETATM   35  C   UNL     1     -10.389   9.480  71.567  1.00  0.00    -0.113 A  
HETATM   36  C   UNL     1     -12.035   7.412  70.637  1.00  0.00    -0.208 A  
HETATM   37  C   UNL     1     -11.493   9.053  72.321  1.00  0.00    -0.222 A  
HETATM   38  C   UNL     1     -10.936   7.836  69.884  1.00  0.00    -0.194 A  
ENDBRANCH  23  32
ENDBRANCH  17  18
ENDBRANCH   2  17
TORSDOF 6
ENDMDL
MODEL      321
REMARK 921   NORMALIZED FREE ENERGY PREDICTED BY IDOCK:    4.03 KCAL/MOL
REMARK 922        TOTAL FREE ENERGY PREDICTED BY IDOCK:    3.30 KCAL/MOL
REMARK 923 INTER-LIGAND FREE ENERGY PREDICTED BY IDOCK:   -4.07 KCAL/MOL
REMARK 924 INTRA-LIGAND FREE ENERGY PREDICTED BY IDOCK:    7.38 KCAL/MOL
REMARK 927      BINDING AFFINITY PREDICTED BY RF-SCORE:    0.00 PKD
ROOT
HETATM    1  C   UNL     1     -11.939  11.610  70.199  1.00  0.00    -0.441 C  
HETATM    2  C   UNL     1     -10.418  11.479  70.035  1.00  0.00     0.904 C  
ENDROOT
BRANCH   2   3
HETATM    3  C   UNL     1      -9.742  12.770  69.544  1.00  0.00     1.292 A  
HETATM    4  C   UNL     1      -8.407  12.792  69.099  1.00  0.00     0.603 A  
HETATM    5  C   UNL     1     -10.451  13.985  69.545  1.00  0.00     0.145 A  
HETATM    6  F   UNL     1      -6.156  13.100  67.155  1.00  0.00    -0.141 F  
HETATM    7  F   UNL     1      -5.861  15.150  67.817  1.00  0.00    -0.130 F  
HETATM    8  C   UNL     1      -9.851  15.188  69.118  1.00  0.00    -0.237 A  
HETATM    9  C   UNL     1     -10.606  16.497  69.142  1.00  0.00    -0.319 C  
HETATM   10  C   UNL     1      -8.516  15.170  68.679  1.00  0.00    -0.170 A  
HETATM   11  F   UNL     1      -5.496  13.503  69.187  1.00  0.00    -0.073 F  
HETATM   12  F   UNL     1     -11.897  16.378  69.562  1.00  0.00    -0.238 F  
HETATM   13  F   UNL     1     -10.028  17.416  69.961  1.00  0.00     0.186 F  
HETATM   14  F   UNL     1     -10.670  17.083  67.913  1.00  0.00    -0.327 F  
HETATM   15  C   UNL     1      -6.342  13.938  68.213  1.00  0.00    -0.110 C  
HETATM   16  C   UNL     1      -7.783  13.977  68.668  1.00  0.00    -0.135 A  
ENDBRANCH   2   3
BRANCH   2  17
HETATM   17  O   UNL     1     -10.029  10.259  69.354  1.00  0.00    -0.214 OA 
BRANCH  17  18
HETATM   18  C   UNL     1     -10.789   9.922  68.185  1.00  0.00    -0.234 C  
HETATM   19  C   UNL     1     -11.704  12.385  67.001  1.00  0.00    -0.353 C  
HETATM   20  C   UNL     1     -12.142  11.827  68.351  1.00  0.00    -0.029 C  
HETATM   21  O   UNL     1     -12.138  10.395  68.322  1.00  0.00    -0.187 OA 
HETATM   22  N   UNL     1     -10.332  11.963  66.597  1.00  0.00    -0.207 NA 
HETATM   23  C   UNL     1     -10.236  10.463  66.782  1.00  0.00    -0.226 C  
BRANCH  22  24
HETATM   24  C   UNL     1     -10.145  12.318  65.161  1.00  0.00    -0.261 C  
BRANCH  24  25
HETATM   25  C   UNL     1     -10.693  13.692  64.851  1.00  0.00    -0.391 C  
HETATM   26  N   UNL     1     -10.362  14.754  65.607  1.00  0.00    -0.325 NA 
HETATM   27  N   UNL     1     -11.495  13.965  63.858  1.00  0.00    -0.604 NA 
HETATM   28  O   UNL     1     -10.906  16.990  65.398  1.00  0.00    -0.455 OA 
HETATM   29  C   UNL     1     -10.978  15.828  65.044  1.00  0.00    -0.417 C  
HETATM   30  N   UNL     1     -11.695  15.317  63.969  1.00  0.00    -0.280 NA 
HETATM   31  H   UNL     1     -11.881  13.324  63.163  1.00  0.00     0.000 HD 
ENDBRANCH  24  25
ENDBRANCH  22  24
BRANCH  23  32
HETATM   32  C   UNL     1      -8.892   9.874  66.343  1.00  0.00    -0.159 A  
HETATM   33  C   UNL     1      -6.489   8.556  65.701  1.00  0.00    -0.056 A  
HETATM   34  F   UNL     1      -5.366   7.896  65.397  1.00  0.00    -0.028 F  
HETATM   35  C   UNL     1      -8.633   9.467  65.027  1.00  0.00    -0.193 A  
HETATM   36  C   UNL     1      -6.710   8.972  67.004  1.00  0.00    -0.069 A  
HETATM   37  C   UNL     1      -7.436   8.807  64.709  1.00  0.00    -0.100 A  
HETATM   38  C   UNL     1      -7.901   9.631  67.323  1.00  0.00    -0.095 A  
ENDBRANCH  23  32
ENDBRANCH  17  18
ENDBRANCH   2  17
TORSDOF 6
ENDMDL
MODEL      322
REMARK 921   NORMALIZED FREE ENERGY PREDICTED BY IDOCK:    4.10 KCAL/MOL
REMARK 922        TOTAL FREE ENERGY PREDICTED BY IDOCK:    3.41 KCAL/MOL
REMARK 923 INTER-LIGAND FREE ENERGY PREDICTED BY IDOCK:   -3.70 KCAL/MOL
REMARK 924 INTRA-LIGAND FREE ENERGY PREDICTED BY IDOCK:    7.10 KCAL/MOL
REMARK 927      BINDING AFFINITY PREDICTED BY RF-SCORE:    0.00 PKD
ROOT
HETATM    1  C   UNL     1     -12.746  14.570  69.347  1.00  0.00     0.206 C  
HETATM    2  C   UNL     1     -12.260  16.025  69.426  1.00  0.00     0.036 C  
ENDROOT
BRANCH   2   3
HETATM    3  C   UNL     1     -11.675  16.546  68.102  1.00  0.00     0.262 A  
HETATM    4  C   UNL     1     -11.818  15.841  66.892  1.00  0.00     0.603 A  
HETATM    5  C   UNL     1     -10.956  17.755  68.073  1.00  0.00    -0.088 A  
HETATM    6  F   UNL     1     -12.758  15.321  64.101  1.00  0.00    -0.446 F  
HETATM    7  F   UNL     1     -10.869  16.066  63.324  1.00  0.00     1.667 F  
HETATM    8  C   UNL     1     -10.393  18.247  66.878  1.00  0.00    -0.404 A  
HETATM    9  C   UNL     1      -9.599  19.533  66.853  1.00  0.00    -0.347 C  
HETATM   10  C   UNL     1     -10.558  17.516  65.689  1.00  0.00    -0.144 A  
HETATM   11  F   UNL     1     -10.912  14.251  64.519  1.00  0.00    -0.369 F  
HETATM   12  F   UNL     1      -9.533  20.161  68.060  1.00  0.00    -0.420 F  
HETATM   13  F   UNL     1      -8.311  19.342  66.457  1.00  0.00    -0.269 F  
HETATM   14  F   UNL     1     -10.120  20.449  65.988  1.00  0.00    -0.520 F  
HETATM   15  C   UNL     1     -11.445  15.500  64.421  1.00  0.00    -0.259 C  
HETATM   16  C   UNL     1     -11.268  16.309  65.686  1.00  0.00     0.155 A  
ENDBRANCH   2   3
BRANCH   2  17
HETATM   17  O   UNL     1     -11.476  16.293  70.616  1.00  0.00    -0.377 OA 
BRANCH  17  18
HETATM   18  C   UNL     1     -10.673  15.207  71.098  1.00  0.00     0.118 C  
HETATM   19  C   UNL     1     -11.944  12.753  70.279  1.00  0.00    -0.280 C  
HETATM   20  C   UNL     1     -12.504  13.757  71.281  1.00  0.00    -0.345 C  
HETATM   21  O   UNL     1     -11.437  14.390  71.998  1.00  0.00     0.204 OA 
HETATM   22  N   UNL     1     -11.041  13.365  69.262  1.00  0.00    -0.207 NA 
HETATM   23  C   UNL     1     -10.039  14.232  69.995  1.00  0.00     0.797 C  
BRANCH  22  24
HETATM   24  C   UNL     1     -10.341  12.262  68.544  1.00  0.00    -0.223 C  
BRANCH  24  25
HETATM   25  C   UNL     1     -10.926  12.031  67.170  1.00  0.00    -0.270 C  
HETATM   26  N   UNL     1     -10.168  11.542  66.171  1.00  0.00    -0.225 NA 
HETATM   27  N   UNL     1     -12.168  12.264  66.842  1.00  0.00    -0.439 NA 
HETATM   28  O   UNL     1     -10.713  10.970  64.000  1.00  0.00    -0.379 OA 
HETATM   29  C   UNL     1     -10.993  11.414  65.097  1.00  0.00    -0.192 C  
HETATM   30  N   UNL     1     -12.228  11.887  65.525  1.00  0.00    -0.306 NA 
HETATM   31  H   UNL     1     -12.916  12.637  67.427  1.00  0.00     0.000 HD 
ENDBRANCH  24  25
ENDBRANCH  22  24
BRANCH  23  32
HETATM   32  C   UNL     1      -8.998  14.880  69.077  1.00  0.00    -0.174 A  
HETATM   33  C   UNL     1      -7.310  16.155  67.219  1.00  0.00    -0.192 A  
HETATM   34  F   UNL     1      -6.536  16.788  66.331  1.00  0.00    -0.235 F  
HETATM   35  C   UNL     1      -8.253  16.008  69.449  1.00  0.00    -0.135 A  
HETATM   36  C   UNL     1      -8.016  15.026  66.835  1.00  0.00    -0.109 A  
HETATM   37  C   UNL     1      -7.416  16.645  68.521  1.00  0.00    -0.205 A  
HETATM   38  C   UNL     1      -8.851  14.389  67.759  1.00  0.00    -0.186 A  
ENDBRANCH  23  32
ENDBRANCH  17  18
ENDBRANCH   2  17
TORSDOF 6
ENDMDL
MODEL      323
REMARK 921   NORMALIZED FREE ENERGY PREDICTED BY IDOCK:    5.65 KCAL/MOL
REMARK 922        TOTAL FREE ENERGY PREDICTED BY IDOCK:    5.50 KCAL/MOL
REMARK 923 INTER-LIGAND FREE ENERGY PREDICTED BY IDOCK:    4.49 KCAL/MOL
REMARK 924 INTRA-LIGAND FREE ENERGY PREDICTED BY IDOCK:    1.00 KCAL/MOL
REMARK 927      BINDING AFFINITY PREDICTED BY RF-SCORE:    0.00 PKD
ROOT
HETATM    1  C   UNL     1      -7.211   8.281  69.242  1.00  0.00    -0.064 C  
HETATM    2  C   UNL     1      -6.416   9.347  68.476  1.00  0.00    -0.053 C  
ENDROOT
BRANCH   2   3
HETATM    3  C   UNL     1      -6.764  10.787  68.892  1.00  0.00    -0.064 A  
HETATM    4  C   UNL     1      -7.473  11.659  68.045  1.00  0.00    -0.100 A  
HETATM    5  C   UNL     1      -6.359  11.279  70.147  1.00  0.00    -0.120 A  
HETATM    6  F   UNL     1      -9.752  13.369  67.135  1.00  0.00    -0.216 F  
HETATM    7  F   UNL     1      -8.760  15.126  67.945  1.00  0.00    -0.150 F  
HETATM    8  C   UNL     1      -6.648  12.599  70.547  1.00  0.00     0.910 A  
HETATM    9  C   UNL     1      -6.190  13.135  71.884  1.00  0.00     1.801 C  
HETATM   10  C   UNL     1      -7.358  13.441  69.675  1.00  0.00     0.524 A  
HETATM   11  F   UNL     1      -7.872  14.048  66.280  1.00  0.00     0.579 F  
HETATM   12  F   UNL     1      -5.535  12.216  72.648  1.00  0.00     0.297 F  
HETATM   13  F   UNL     1      -5.344  14.193  71.760  1.00  0.00    -0.138 F  
HETATM   14  F   UNL     1      -7.228  13.578  72.649  1.00  0.00     3.305 F  
HETATM   15  C   UNL     1      -8.528  13.874  67.460  1.00  0.00    -0.196 C  
HETATM   16  C   UNL     1      -7.774  12.981  68.419  1.00  0.00    -0.137 A  
ENDBRANCH   2   3
BRANCH   2  17
HETATM   17  O   UNL     1      -6.364   9.094  67.049  1.00  0.00    -0.061 OA 
BRANCH  17  18
HETATM   18  C   UNL     1      -7.464   9.599  66.280  1.00  0.00    -0.098 C  
HETATM   19  C   UNL     1      -7.142   8.658  63.575  1.00  0.00    -0.089 C  
HETATM   20  C   UNL     1      -6.228   9.646  64.291  1.00  0.00    -0.103 C  
HETATM   21  O   UNL     1      -6.980  10.437  65.219  1.00  0.00    -0.136 OA 
HETATM   22  N   UNL     1      -7.832   7.708  64.496  1.00  0.00    -0.129 NA 
HETATM   23  C   UNL     1      -8.444   8.516  65.621  1.00  0.00    -0.155 C  
BRANCH  22  24
HETATM   24  C   UNL     1      -8.899   7.011  63.723  1.00  0.00     0.980 C  
BRANCH  24  25
HETATM   25  C   UNL     1      -8.495   5.599  63.364  1.00  0.00     0.016 C  
HETATM   26  N   UNL     1      -7.393   5.040  63.897  1.00  0.00    -0.050 NA 
HETATM   27  N   UNL     1      -9.155   4.822  62.549  1.00  0.00    -0.196 NA 
HETATM   28  O   UNL     1      -6.517   2.914  63.675  1.00  0.00    -0.028 OA 
HETATM   29  C   UNL     1      -7.338   3.770  63.411  1.00  0.00    -0.051 C  
HETATM   30  N   UNL     1      -8.430   3.658  62.558  1.00  0.00    -0.076 NA 
HETATM   31  H   UNL     1     -10.007   5.030  62.029  1.00  0.00     0.000 HD 
ENDBRANCH  24  25
ENDBRANCH  22  24
BRANCH  23  32
HETATM   32  C   UNL     1      -9.245   7.673  66.618  1.00  0.00    -0.211 A  
HETATM   33  C   UNL     1     -10.464   5.993  68.519  1.00  0.00    -0.234 A  
HETATM   34  F   UNL     1     -11.011   5.196  69.444  1.00  0.00    -0.267 F  
HETATM   35  C   UNL     1      -9.819   8.210  67.779  1.00  0.00    -0.209 A  
HETATM   36  C   UNL     1      -9.928   5.441  67.366  1.00  0.00    -0.198 A  
HETATM   37  C   UNL     1     -10.422   7.371  68.728  1.00  0.00    -0.215 A  
HETATM   38  C   UNL     1      -9.327   6.275  66.419  1.00  0.00    -0.176 A  
ENDBRANCH  23  32
ENDBRANCH  17  18
ENDBRANCH   2  17
TORSDOF 6
ENDMDL
MODEL      324
REMARK 921   NORMALIZED FREE ENERGY PREDICTED BY IDOCK:    6.10 KCAL/MOL
REMARK 922        TOTAL FREE ENERGY PREDICTED BY IDOCK:    6.11 KCAL/MOL
REMARK 923 INTER-LIGAND FREE ENERGY PREDICTED BY IDOCK:    3.34 KCAL/MOL
REMARK 924 INTRA-LIGAND FREE ENERGY PREDICTED BY IDOCK:    2.77 KCAL/MOL
REMARK 927      BINDING AFFINITY PREDICTED BY RF-SCORE:    0.00 PKD
ROOT
HETATM    1  C   UNL     1      -7.064  12.759  65.968  1.00  0.00     2.927 C  
HETATM    2  C   UNL     1      -8.029  11.927  65.110  1.00  0.00     1.698 C  
ENDROOT
BRANCH   2   3
HETATM    3  C   UNL     1      -9.507  12.304  65.312  1.00  0.00     0.057 A  
HETATM    4  C   UNL     1      -9.953  12.993  66.456  1.00  0.00    -0.262 A  
HETATM    5  C   UNL     1     -10.467  11.947  64.348  1.00  0.00    -0.356 A  
HETATM    6  F   UNL     1     -11.105  15.257  68.034  1.00  0.00    -0.266 F  
HETATM    7  F   UNL     1     -13.061  14.312  67.966  1.00  0.00     0.647 F  
HETATM    8  C   UNL     1     -11.831  12.263  64.516  1.00  0.00    -0.441 A  
HETATM    9  C   UNL     1     -12.865  11.856  63.492  1.00  0.00    -0.305 C  
HETATM   10  C   UNL     1     -12.239  12.952  65.671  1.00  0.00    -0.519 A  
HETATM   11  F   UNL     1     -11.430  13.357  69.039  1.00  0.00    -0.261 F  
HETATM   12  F   UNL     1     -12.343  11.218  62.408  1.00  0.00     0.278 F  
HETATM   13  F   UNL     1     -13.805  11.017  64.005  1.00  0.00     1.036 F  
HETATM   14  F   UNL     1     -13.553  12.924  62.996  1.00  0.00     0.867 F  
HETATM   15  C   UNL     1     -11.726  14.051  67.905  1.00  0.00    -0.362 C  
HETATM   16  C   UNL     1     -11.307  13.321  66.649  1.00  0.00    -0.353 A  
ENDBRANCH   2   3
BRANCH   2  17
HETATM   17  O   UNL     1      -7.726  10.509  65.136  1.00  0.00    -0.137 OA 
BRANCH  17  18
HETATM   18  C   UNL     1      -6.621  10.118  65.963  1.00  0.00    -0.102 C  
HETATM   19  C   UNL     1      -7.673   9.436  68.558  1.00  0.00    -0.085 C  
HETATM   20  C   UNL     1      -7.670  10.827  67.933  1.00  0.00    -0.100 C  
HETATM   21  O   UNL     1      -6.519  10.994  67.096  1.00  0.00    -0.070 OA 
HETATM   22  N   UNL     1      -7.703   8.332  67.556  1.00  0.00    -0.098 NA 
HETATM   23  C   UNL     1      -6.632   8.616  66.522  1.00  0.00    -0.063 C  
BRANCH  22  24
HETATM   24  C   UNL     1      -7.405   7.056  68.267  1.00  0.00    -0.097 C  
BRANCH  24  25
HETATM   25  C   UNL     1      -8.367   5.960  67.871  1.00  0.00    -0.111 C  
HETATM   26  N   UNL     1      -8.712   4.996  68.744  1.00  0.00    -0.093 NA 
HETATM   27  N   UNL     1      -8.936   5.857  66.701  1.00  0.00    -0.122 NA 
HETATM   28  O   UNL     1     -10.199   3.238  68.549  1.00  0.00     0.579 OA 
HETATM   29  C   UNL     1      -9.611   4.203  68.100  1.00  0.00    -0.134 C  
HETATM   30  N   UNL     1      -9.724   4.741  66.823  1.00  0.00    -0.171 NA 
HETATM   31  H   UNL     1      -8.823   6.463  65.888  1.00  0.00     0.000 HD 
ENDBRANCH  24  25
ENDBRANCH  22  24
BRANCH  23  32
HETATM   32  C   UNL     1      -6.502   7.525  65.456  1.00  0.00    -0.041 A  
HETATM   33  C   UNL     1      -6.096   5.710  63.343  1.00  0.00    -0.024 A  
HETATM   34  F   UNL     1      -5.867   4.861  62.334  1.00  0.00    -0.013 F  
HETATM   35  C   UNL     1      -5.780   6.341  65.663  1.00  0.00    -0.021 A  
HETATM   36  C   UNL     1      -6.836   6.860  63.120  1.00  0.00    -0.051 A  
HETATM   37  C   UNL     1      -5.575   5.439  64.608  1.00  0.00    -0.017 A  
HETATM   38  C   UNL     1      -7.042   7.760  64.170  1.00  0.00    -0.075 A  
ENDBRANCH  23  32
ENDBRANCH  17  18
ENDBRANCH   2  17
TORSDOF 6
ENDMDL
MODEL      325
REMARK 921   NORMALIZED FREE ENERGY PREDICTED BY IDOCK:    6.27 KCAL/MOL
REMARK 922        TOTAL FREE ENERGY PREDICTED BY IDOCK:    6.34 KCAL/MOL
REMARK 923 INTER-LIGAND FREE ENERGY PREDICTED BY IDOCK:    3.88 KCAL/MOL
REMARK 924 INTRA-LIGAND FREE ENERGY PREDICTED BY IDOCK:    2.46 KCAL/MOL
REMARK 927      BINDING AFFINITY PREDICTED BY RF-SCORE:    0.00 PKD
ROOT
HETATM    1  C   UNL     1     -11.758  18.776  67.249  1.00  0.00     1.582 C  
HETATM    2  C   UNL     1     -11.037  17.491  66.818  1.00  0.00     0.371 C  
ENDROOT
BRANCH   2   3
HETATM    3  C   UNL     1      -9.517  17.536  67.049  1.00  0.00    -0.268 A  
HETATM    4  C   UNL     1      -8.784  18.735  66.969  1.00  0.00    -0.291 A  
HETATM    5  C   UNL     1      -8.809  16.354  67.335  1.00  0.00    -0.194 A  
HETATM    6  F   UNL     1      -7.109  21.011  67.949  1.00  0.00    -0.331 F  
HETATM    7  F   UNL     1      -5.316  19.989  67.265  1.00  0.00    -0.159 F  
HETATM    8  C   UNL     1      -7.413  16.363  67.533  1.00  0.00    -0.165 A  
HETATM    9  C   UNL     1      -6.650  15.089  67.816  1.00  0.00    -0.169 C  
HETATM   10  C   UNL     1      -6.715  17.579  67.446  1.00  0.00    -0.181 A  
HETATM   11  F   UNL     1      -6.796  20.665  65.825  1.00  0.00    -0.268 F  
HETATM   12  F   UNL     1      -7.441  13.983  67.901  1.00  0.00    -0.096 F  
HETATM   13  F   UNL     1      -5.722  14.815  66.859  1.00  0.00     0.437 F  
HETATM   14  F   UNL     1      -5.964  15.144  68.992  1.00  0.00    -0.094 F  
HETATM   15  C   UNL     1      -6.658  20.090  67.051  1.00  0.00    -0.208 C  
HETATM   16  C   UNL     1      -7.391  18.772  67.162  1.00  0.00    -0.222 A  
ENDBRANCH   2   3
BRANCH   2  17
HETATM   17  O   UNL     1     -11.468  17.013  65.518  1.00  0.00     0.474 OA 
BRANCH  17  18
HETATM   18  C   UNL     1     -12.152  15.752  65.508  1.00  0.00     0.913 C  
HETATM   19  C   UNL     1     -10.198  13.706  64.959  1.00  0.00    -0.334 C  
HETATM   20  C   UNL     1     -10.646  14.795  63.991  1.00  0.00     1.339 C  
HETATM   21  O   UNL     1     -12.020  15.131  64.220  1.00  0.00    -0.425 OA 
HETATM   22  N   UNL     1     -10.315  14.097  66.393  1.00  0.00    -0.282 NA 
HETATM   23  C   UNL     1     -11.699  14.675  66.604  1.00  0.00    -0.333 C  
BRANCH  22  24
HETATM   24  C   UNL     1     -10.137  12.871  67.221  1.00  0.00    -0.231 C  
BRANCH  24  25
HETATM   25  C   UNL     1      -9.017  12.002  66.697  1.00  0.00    -0.204 C  
HETATM   26  N   UNL     1      -7.902  11.802  67.423  1.00  0.00    -0.146 NA 
HETATM   27  N   UNL     1      -9.031  11.384  65.548  1.00  0.00    -0.367 NA 
HETATM   28  O   UNL     1      -6.046  10.487  67.016  1.00  0.00    -0.053 OA 
HETATM   29  C   UNL     1      -7.124  10.952  66.699  1.00  0.00    -0.135 C  
HETATM   30  N   UNL     1      -7.832  10.719  65.526  1.00  0.00    -0.096 NA 
HETATM   31  H   UNL     1      -9.760  11.394  64.835  1.00  0.00     0.000 HD 
ENDBRANCH  24  25
ENDBRANCH  22  24
BRANCH  23  32
HETATM   32  C   UNL     1     -11.988  15.066  68.056  1.00  0.00    -0.167 A  
HETATM   33  C   UNL     1     -12.773  15.638  70.699  1.00  0.00    -0.394 A  
HETATM   34  F   UNL     1     -13.163  15.875  71.956  1.00  0.00    -0.479 F  
HETATM   35  C   UNL     1     -11.266  14.549  69.141  1.00  0.00    -0.294 A  
HETATM   36  C   UNL     1     -13.487  16.182  69.643  1.00  0.00     2.788 A  
HETATM   37  C   UNL     1     -11.661  14.832  70.457  1.00  0.00    -0.333 A  
HETATM   38  C   UNL     1     -13.095  15.902  68.330  1.00  0.00     2.893 A  
ENDBRANCH  23  32
ENDBRANCH  17  18
ENDBRANCH   2  17
TORSDOF 6
ENDMDL
MODEL      326
REMARK 921   NORMALIZED FREE ENERGY PREDICTED BY IDOCK:    6.62 KCAL/MOL
REMARK 922        TOTAL FREE ENERGY PREDICTED BY IDOCK:    6.81 KCAL/MOL
REMARK 923 INTER-LIGAND FREE ENERGY PREDICTED BY IDOCK:    7.16 KCAL/MOL
REMARK 924 INTRA-LIGAND FREE ENERGY PREDICTED BY IDOCK:   -0.35 KCAL/MOL
REMARK 927      BINDING AFFINITY PREDICTED BY RF-SCORE:    0.00 PKD
ROOT
HETATM    1  C   UNL     1      -7.890  13.895  67.113  1.00  0.00    -0.036 C  
HETATM    2  C   UNL     1      -9.128  13.072  67.498  1.00  0.00    -0.191 C  
ENDROOT
BRANCH   2   3
HETATM    3  C   UNL     1     -10.441  13.869  67.419  1.00  0.00    -0.263 A  
HETATM    4  C   UNL     1     -11.007  14.491  68.549  1.00  0.00    -0.261 A  
HETATM    5  C   UNL     1     -11.129  13.982  66.197  1.00  0.00    -0.302 A  
HETATM    6  F   UNL     1     -11.928  16.750  70.278  1.00  0.00     0.184 F  
HETATM    7  F   UNL     1     -13.953  16.503  69.526  1.00  0.00     2.493 F  
HETATM    8  C   UNL     1     -12.344  14.691  66.100  1.00  0.00    -0.106 A  
HETATM    9  C   UNL     1     -13.094  14.791  64.792  1.00  0.00     0.710 C  
HETATM   10  C   UNL     1     -12.878  15.299  67.249  1.00  0.00     2.158 A  
HETATM   11  F   UNL     1     -13.035  14.930  70.712  1.00  0.00    -0.362 F  
HETATM   12  F   UNL     1     -12.463  14.183  63.748  1.00  0.00    -0.487 F  
HETATM   13  F   UNL     1     -14.333  14.232  64.858  1.00  0.00     1.954 F  
HETATM   14  F   UNL     1     -13.291  16.083  64.403  1.00  0.00     0.643 F  
HETATM   15  C   UNL     1     -12.781  15.839  69.731  1.00  0.00     0.236 C  
HETATM   16  C   UNL     1     -12.218  15.203  68.480  1.00  0.00    -0.016 A  
ENDBRANCH   2   3
BRANCH   2  17
HETATM   17  O   UNL     1      -8.931  12.289  68.703  1.00  0.00    -0.109 OA 
BRANCH  17  18
HETATM   18  C   UNL     1      -7.686  11.583  68.797  1.00  0.00    -0.124 C  
HETATM   19  C   UNL     1      -8.264   8.923  69.746  1.00  0.00    -0.119 C  
HETATM   20  C   UNL     1      -8.441  10.212  70.541  1.00  0.00     0.666 C  
HETATM   21  O   UNL     1      -7.453  11.175  70.154  1.00  0.00     0.178 OA 
HETATM   22  N   UNL     1      -8.392   9.108  68.272  1.00  0.00    -0.119 NA 
HETATM   23  C   UNL     1      -7.521  10.282  67.876  1.00  0.00    -0.088 C  
BRANCH  22  24
HETATM   24  C   UNL     1      -7.910   7.863  67.608  1.00  0.00    -0.122 C  
BRANCH  24  25
HETATM   25  C   UNL     1      -8.891   6.726  67.779  1.00  0.00    -0.118 C  
HETATM   26  N   UNL     1      -8.466   5.450  67.821  1.00  0.00    -0.106 NA 
HETATM   27  N   UNL     1     -10.182   6.870  67.907  1.00  0.00    -0.162 NA 
HETATM   28  O   UNL     1      -9.625   3.479  68.161  1.00  0.00    -0.174 OA 
HETATM   29  C   UNL     1      -9.575   4.687  68.024  1.00  0.00    -0.155 C  
HETATM   30  N   UNL     1     -10.635   5.584  68.055  1.00  0.00    -0.178 NA 
HETATM   31  H   UNL     1     -10.724   7.734  67.900  1.00  0.00     0.000 HD 
ENDBRANCH  24  25
ENDBRANCH  22  24
BRANCH  23  32
HETATM   32  C   UNL     1      -7.503  10.553  66.368  1.00  0.00    -0.133 A  
HETATM   33  C   UNL     1      -7.538  11.330  63.663  1.00  0.00     1.135 A  
HETATM   34  F   UNL     1      -7.540  11.734  62.387  1.00  0.00     0.093 F  
HETATM   35  C   UNL     1      -6.327  10.529  65.605  1.00  0.00    -0.126 A  
HETATM   36  C   UNL     1      -8.718  11.336  64.388  1.00  0.00     0.285 A  
HETATM   37  C   UNL     1      -6.345  10.920  64.258  1.00  0.00     0.476 A  
HETATM   38  C   UNL     1      -8.702  10.946  65.731  1.00  0.00    -0.196 A  
ENDBRANCH  23  32
ENDBRANCH  17  18
ENDBRANCH   2  17
TORSDOF 6
ENDMDL
MODEL      327
REMARK 921   NORMALIZED FREE ENERGY PREDICTED BY IDOCK:    7.40 KCAL/MOL
REMARK 922        TOTAL FREE ENERGY PREDICTED BY IDOCK:    7.87 KCAL/MOL
REMARK 923 INTER-LIGAND FREE ENERGY PREDICTED BY IDOCK:    2.79 KCAL/MOL
REMARK 924 INTRA-LIGAND FREE ENERGY PREDICTED BY IDOCK:    5.08 KCAL/MOL
REMARK 927      BINDING AFFINITY PREDICTED BY RF-SCORE:    0.00 PKD
ROOT
HETATM    1  C   UNL     1      -8.375  17.427  67.286  1.00  0.00    -0.221 C  
HETATM    2  C   UNL     1      -8.271  16.021  67.895  1.00  0.00    -0.148 C  
ENDROOT
BRANCH   2   3
HETATM    3  C   UNL     1      -9.619  15.465  68.384  1.00  0.00    -0.200 A  
HETATM    4  C   UNL     1     -10.062  15.639  69.709  1.00  0.00    -0.291 A  
HETATM    5  C   UNL     1     -10.448  14.742  67.507  1.00  0.00    -0.245 A  
HETATM    6  F   UNL     1     -11.805  16.644  71.922  1.00  0.00    -0.507 F  
HETATM    7  F   UNL     1     -12.908  14.771  71.907  1.00  0.00    -0.333 F  
HETATM    8  C   UNL     1     -11.679  14.205  67.934  1.00  0.00    -0.402 A  
HETATM    9  C   UNL     1     -12.557  13.407  66.998  1.00  0.00     0.238 C  
HETATM   10  C   UNL     1     -12.089  14.400  69.264  1.00  0.00    -0.336 A  
HETATM   11  F   UNL     1     -10.813  14.793  72.485  1.00  0.00    -0.023 F  
HETATM   12  F   UNL     1     -12.064  13.310  65.731  1.00  0.00    -0.376 F  
HETATM   13  F   UNL     1     -12.748  12.129  67.425  1.00  0.00     0.495 F  
HETATM   14  F   UNL     1     -13.804  13.944  66.869  1.00  0.00     2.815 F  
HETATM   15  C   UNL     1     -11.701  15.324  71.600  1.00  0.00    -0.399 C  
HETATM   16  C   UNL     1     -11.286  15.114  70.162  1.00  0.00    -0.299 A  
ENDBRANCH   2   3
BRANCH   2  17
HETATM   17  O   UNL     1      -7.157  15.887  68.813  1.00  0.00    -0.124 OA 
BRANCH  17  18
HETATM   18  C   UNL     1      -6.187  14.883  68.482  1.00  0.00    -0.091 C  
HETATM   19  C   UNL     1      -6.154  12.963  70.631  1.00  0.00     0.112 C  
HETATM   20  C   UNL     1      -5.706  14.417  70.727  1.00  0.00    -0.184 C  
HETATM   21  O   UNL     1      -5.153  14.851  69.478  1.00  0.00    -0.089 OA 
HETATM   22  N   UNL     1      -7.195  12.727  69.590  1.00  0.00     0.374 NA 
HETATM   23  C   UNL     1      -6.727  13.385  68.309  1.00  0.00    -0.105 C  
BRANCH  22  24
HETATM   24  C   UNL     1      -7.326  11.255  69.395  1.00  0.00    -0.025 C  
BRANCH  24  25
HETATM   25  C   UNL     1      -8.756  10.853  69.118  1.00  0.00    -0.043 C  
HETATM   26  N   UNL     1      -9.049   9.632  68.637  1.00  0.00    -0.131 NA 
HETATM   27  N   UNL     1      -9.795  11.617  69.321  1.00  0.00    -0.385 NA 
HETATM   28  O   UNL     1     -11.082   8.630  68.187  1.00  0.00     0.090 OA 
HETATM   29  C   UNL     1     -10.406   9.576  68.542  1.00  0.00    -0.207 C  
HETATM   30  N   UNL     1     -10.853  10.826  68.952  1.00  0.00    -0.210 NA 
HETATM   31  H   UNL     1      -9.816  12.575  69.671  1.00  0.00     0.000 HD 
ENDBRANCH  24  25
ENDBRANCH  22  24
BRANCH  23  32
HETATM   32  C   UNL     1      -7.674  13.169  67.125  1.00  0.00    -0.032 A  
HETATM   33  C   UNL     1      -9.195  12.862  64.776  1.00  0.00     0.965 A  
HETATM   34  F   UNL     1      -9.884  12.705  63.641  1.00  0.00    -0.363 F  
HETATM   35  C   UNL     1      -8.103  11.899  66.715  1.00  0.00    -0.108 A  
HETATM   36  C   UNL     1      -8.806  14.131  65.174  1.00  0.00     2.474 A  
HETATM   37  C   UNL     1      -8.857  11.747  65.542  1.00  0.00     0.187 A  
HETATM   38  C   UNL     1      -8.055  14.285  66.344  1.00  0.00     0.913 A  
ENDBRANCH  23  32
ENDBRANCH  17  18
ENDBRANCH   2  17
TORSDOF 6
ENDMDL
MODEL      328
REMARK 921   NORMALIZED FREE ENERGY PREDICTED BY IDOCK:    8.80 KCAL/MOL
REMARK 922        TOTAL FREE ENERGY PREDICTED BY IDOCK:    9.75 KCAL/MOL
REMARK 923 INTER-LIGAND FREE ENERGY PREDICTED BY IDOCK:   -4.97 KCAL/MOL
REMARK 924 INTRA-LIGAND FREE ENERGY PREDICTED BY IDOCK:   14.73 KCAL/MOL
REMARK 927      BINDING AFFINITY PREDICTED BY RF-SCORE:    0.00 PKD
ROOT
HETATM    1  C   UNL     1     -12.113  15.929  68.912  1.00  0.00    -0.065 C  
HETATM    2  C   UNL     1     -10.990  15.807  67.871  1.00  0.00    -0.324 C  
ENDROOT
BRANCH   2   3
HETATM    3  C   UNL     1      -9.917  16.901  67.999  1.00  0.00    -0.279 A  
HETATM    4  C   UNL     1     -10.066  18.168  67.403  1.00  0.00    -0.359 A  
HETATM    5  C   UNL     1      -8.731  16.651  68.713  1.00  0.00    -0.260 A  
HETATM    6  F   UNL     1     -10.401  21.138  67.291  1.00  0.00    -0.262 F  
HETATM    7  F   UNL     1      -8.258  21.372  67.010  1.00  0.00    -0.144 F  
HETATM    8  C   UNL     1      -7.722  17.628  68.831  1.00  0.00    -0.205 A  
HETATM    9  C   UNL     1      -6.438  17.349  69.577  1.00  0.00    -0.208 C  
HETATM   10  C   UNL     1      -7.907  18.882  68.223  1.00  0.00    -0.340 A  
HETATM   11  F   UNL     1      -9.452  20.388  65.484  1.00  0.00    -0.310 F  
HETATM   12  F   UNL     1      -6.390  16.110  70.142  1.00  0.00    -0.195 F  
HETATM   13  F   UNL     1      -5.340  17.440  68.778  1.00  0.00    -0.142 F  
HETATM   14  F   UNL     1      -6.228  18.229  70.598  1.00  0.00    -0.056 F  
HETATM   15  C   UNL     1      -9.289  20.499  66.831  1.00  0.00    -0.298 C  
HETATM   16  C   UNL     1      -9.075  19.162  67.504  1.00  0.00    -0.336 A  
ENDBRANCH   2   3
BRANCH   2  17
HETATM   17  O   UNL     1     -11.489  15.559  66.532  1.00  0.00    -0.116 OA 
BRANCH  17  18
HETATM   18  C   UNL     1     -10.510  15.173  65.559  1.00  0.00    -0.379 C  
HETATM   19  C   UNL     1      -7.910  15.739  66.666  1.00  0.00    -0.157 C  
HETATM   20  C   UNL     1      -8.961  16.774  66.283  1.00  0.00    -0.290 C  
HETATM   21  O   UNL     1      -9.730  16.312  65.165  1.00  0.00    -0.342 OA 
HETATM   22  N   UNL     1      -8.485  14.418  67.052  1.00  0.00    -0.206 NA 
HETATM   23  C   UNL     1      -9.482  14.019  65.985  1.00  0.00    -0.136 C  
BRANCH  22  24
HETATM   24  C   UNL     1      -7.371  13.430  67.111  1.00  0.00     0.118 C  
BRANCH  24  25
HETATM   25  C   UNL     1      -7.162  12.909  68.515  1.00  0.00    -0.107 C  
HETATM   26  N   UNL     1      -7.074  11.588  68.755  1.00  0.00    -0.100 NA 
HETATM   27  N   UNL     1      -7.042  13.660  69.576  1.00  0.00    -0.323 NA 
HETATM   28  O   UNL     1      -6.667  10.429  70.712  1.00  0.00    -0.340 OA 
HETATM   29  C   UNL     1      -6.847  11.459  70.090  1.00  0.00     0.307 C  
HETATM   30  N   UNL     1      -6.851  12.756  70.589  1.00  0.00     0.979 NA 
HETATM   31  H   UNL     1      -7.082  14.677  69.637  1.00  0.00     0.000 HD 
ENDBRANCH  24  25
ENDBRANCH  22  24
BRANCH  23  32
HETATM   32  C   UNL     1     -10.113  12.642  66.216  1.00  0.00    -0.264 A  
HETATM   33  C   UNL     1     -11.047  10.001  66.488  1.00  0.00     0.343 A  
HETATM   34  F   UNL     1     -11.454   8.733  66.619  1.00  0.00     0.490 F  
HETATM   35  C   UNL     1     -10.164  12.031  67.477  1.00  0.00    -0.211 A  
HETATM   36  C   UNL     1     -11.032  10.592  65.235  1.00  0.00     0.161 A  
HETATM   37  C   UNL     1     -10.626  10.713  67.610  1.00  0.00    -0.288 A  
HETATM   38  C   UNL     1     -10.573  11.906  65.100  1.00  0.00    -0.333 A  
ENDBRANCH  23  32
ENDBRANCH  17  18
ENDBRANCH   2  17
TORSDOF 6
ENDMDL
MODEL      329
REMARK 921   NORMALIZED FREE ENERGY PREDICTED BY IDOCK:    8.91 KCAL/MOL
REMARK 922        TOTAL FREE ENERGY PREDICTED BY IDOCK:    9.90 KCAL/MOL
REMARK 923 INTER-LIGAND FREE ENERGY PREDICTED BY IDOCK:    3.33 KCAL/MOL
REMARK 924 INTRA-LIGAND FREE ENERGY PREDICTED BY IDOCK:    6.57 KCAL/MOL
REMARK 927      BINDING AFFINITY PREDICTED BY RF-SCORE:    0.00 PKD
ROOT
HETATM    1  C   UNL     1     -10.634   8.164  69.354  1.00  0.00    -0.206 C  
HETATM    2  C   UNL     1     -10.222   9.642  69.409  1.00  0.00    -0.209 C  
ENDROOT
BRANCH   2   3
HETATM    3  C   UNL     1      -9.875  10.233  68.032  1.00  0.00    -0.171 A  
HETATM    4  C   UNL     1      -9.707  11.617  67.833  1.00  0.00    -0.181 A  
HETATM    5  C   UNL     1      -9.731   9.389  66.915  1.00  0.00    -0.242 A  
HETATM    6  F   UNL     1      -8.255  14.153  67.199  1.00  0.00    -0.184 F  
HETATM    7  F   UNL     1      -8.959  14.046  65.145  1.00  0.00     0.554 F  
HETATM    8  C   UNL     1      -9.431   9.905  65.638  1.00  0.00    -0.295 A  
HETATM    9  C   UNL     1      -9.301   9.000  64.434  1.00  0.00     0.442 C  
HETATM   10  C   UNL     1      -9.270  11.291  65.477  1.00  0.00    -0.220 A  
HETATM   11  F   UNL     1     -10.378  14.336  66.766  1.00  0.00    -0.263 F  
HETATM   12  F   UNL     1      -9.453   7.677  64.723  1.00  0.00     0.636 F  
HETATM   13  F   UNL     1     -10.218   9.281  63.470  1.00  0.00     1.241 F  
HETATM   14  F   UNL     1      -8.083   9.109  63.831  1.00  0.00    -0.124 F  
HETATM   15  C   UNL     1      -9.253  13.654  66.416  1.00  0.00    -0.122 C  
HETATM   16  C   UNL     1      -9.409  12.158  66.569  1.00  0.00    -0.229 A  
ENDBRANCH   2   3
BRANCH   2  17
HETATM   17  O   UNL     1      -9.282   9.924  70.477  1.00  0.00    -0.128 OA 
BRANCH  17  18
HETATM   18  C   UNL     1      -7.911  10.075  70.083  1.00  0.00    -0.123 C  
HETATM   19  C   UNL     1      -6.274   9.040  72.217  1.00  0.00     0.019 C  
HETATM   20  C   UNL     1      -7.159  10.278  72.293  1.00  0.00     3.245 C  
HETATM   21  O   UNL     1      -7.222  10.924  71.015  1.00  0.00     0.909 OA 
HETATM   22  N   UNL     1      -6.754   8.021  71.240  1.00  0.00    -0.042 NA 
HETATM   23  C   UNL     1      -7.049   8.733  69.936  1.00  0.00    -0.051 C  
BRANCH  22  24
HETATM   24  C   UNL     1      -5.667   7.020  71.047  1.00  0.00    -0.028 C  
BRANCH  24  25
HETATM   25  C   UNL     1      -6.120   5.626  71.418  1.00  0.00    -0.034 C  
HETATM   26  N   UNL     1      -5.817   5.100  72.618  1.00  0.00    -0.024 NA 
HETATM   27  N   UNL     1      -6.825   4.843  70.647  1.00  0.00    -0.039 NA 
HETATM   28  O   UNL     1      -6.401   3.079  73.576  1.00  0.00    -0.018 OA 
HETATM   29  C   UNL     1      -6.400   3.870  72.652  1.00  0.00    -0.017 C  
HETATM   30  N   UNL     1      -7.005   3.718  71.410  1.00  0.00    -0.031 NA 
HETATM   31  H   UNL     1      -7.162   5.025  69.702  1.00  0.00     0.000 HD 
ENDBRANCH  24  25
ENDBRANCH  22  24
BRANCH  23  32
HETATM   32  C   UNL     1      -7.495   7.795  68.811  1.00  0.00    -0.096 A  
HETATM   33  C   UNL     1      -8.473   6.296  66.637  1.00  0.00    -0.114 A  
HETATM   34  F   UNL     1      -8.937   5.617  65.583  1.00  0.00    -0.152 F  
HETATM   35  C   UNL     1      -6.624   7.336  67.812  1.00  0.00    -0.053 A  
HETATM   36  C   UNL     1      -9.350   6.716  67.625  1.00  0.00    -0.119 A  
HETATM   37  C   UNL     1      -7.113   6.593  66.728  1.00  0.00    -0.069 A  
HETATM   38  C   UNL     1      -8.864   7.456  68.707  1.00  0.00    -0.130 A  
ENDBRANCH  23  32
ENDBRANCH  17  18
ENDBRANCH   2  17
TORSDOF 6
ENDMDL
MODEL      330
REMARK 921   NORMALIZED FREE ENERGY PREDICTED BY IDOCK:   14.24 KCAL/MOL
REMARK 922        TOTAL FREE ENERGY PREDICTED BY IDOCK:   17.10 KCAL/MOL
REMARK 923 INTER-LIGAND FREE ENERGY PREDICTED BY IDOCK:   14.67 KCAL/MOL
REMARK 924 INTRA-LIGAND FREE ENERGY PREDICTED BY IDOCK:    2.43 KCAL/MOL
REMARK 927      BINDING AFFINITY PREDICTED BY RF-SCORE:    0.00 PKD
ROOT
HETATM    1  C   UNL     1      -7.031   7.116  69.474  1.00  0.00    -0.058 C  
HETATM    2  C   UNL     1      -6.238   8.292  68.886  1.00  0.00    -0.044 C  
ENDROOT
BRANCH   2   3
HETATM    3  C   UNL     1      -6.580   9.645  69.533  1.00  0.00    -0.049 A  
HETATM    4  C   UNL     1      -7.268  10.655  68.835  1.00  0.00    -0.090 A  
HETATM    5  C   UNL     1      -6.191   9.914  70.858  1.00  0.00    -0.070 A  
HETATM    6  F   UNL     1      -9.517  12.519  68.193  1.00  0.00    -0.189 F  
HETATM    7  F   UNL     1      -8.523  14.103  69.301  1.00  0.00    -0.032 F  
HETATM    8  C   UNL     1      -6.475  11.152  71.471  1.00  0.00     2.029 A  
HETATM    9  C   UNL     1      -6.034  11.449  72.886  1.00  0.00     2.603 C  
HETATM   10  C   UNL     1      -7.164  12.136  70.743  1.00  0.00     3.528 A  
HETATM   11  F   UNL     1      -7.618  13.312  67.491  1.00  0.00    -0.126 F  
HETATM   12  F   UNL     1      -5.399  10.408  73.494  1.00  0.00     0.020 F  
HETATM   13  F   UNL     1      -5.177  12.504  72.953  1.00  0.00     0.033 F  
HETATM   14  F   UNL     1      -7.080  11.770  73.699  1.00  0.00     6.187 F  
HETATM   15  C   UNL     1      -8.294  12.949  68.616  1.00  0.00     0.032 C  
HETATM   16  C   UNL     1      -7.564  11.899  69.422  1.00  0.00     0.323 A  
ENDBRANCH   2   3
BRANCH   2  17
HETATM   17  O   UNL     1      -6.197   8.274  67.436  1.00  0.00    -0.053 OA 
BRANCH  17  18
HETATM   18  C   UNL     1      -6.712   9.440  66.778  1.00  0.00    -0.072 C  
HETATM   19  C   UNL     1      -7.042   8.791  63.989  1.00  0.00    -0.094 C  
HETATM   20  C   UNL     1      -5.714   8.890  64.731  1.00  0.00    -0.062 C  
HETATM   21  O   UNL     1      -5.794   9.879  65.765  1.00  0.00    -0.057 OA 
HETATM   22  N   UNL     1      -8.188   8.411  64.865  1.00  0.00    -0.149 NA 
HETATM   23  C   UNL     1      -8.152   9.303  66.088  1.00  0.00    -0.110 C  
BRANCH  22  24
HETATM   24  C   UNL     1      -9.447   8.636  64.099  1.00  0.00     1.438 C  
BRANCH  24  25
HETATM   25  C   UNL     1     -10.015  10.013  64.355  1.00  0.00    -0.020 C  
HETATM   26  N   UNL     1      -9.259  11.113  64.190  1.00  0.00    -0.153 NA 
HETATM   27  N   UNL     1     -11.242  10.252  64.734  1.00  0.00     0.941 NA 
HETATM   28  O   UNL     1      -9.786  13.355  64.383  1.00  0.00    -0.052 OA 
HETATM   29  C   UNL     1     -10.069  12.174  64.455  1.00  0.00    -0.274 C  
HETATM   30  N   UNL     1     -11.293  11.620  64.811  1.00  0.00    -0.249 NA 
HETATM   31  H   UNL     1     -11.985   9.581  64.925  1.00  0.00     0.000 HD 
ENDBRANCH  24  25
ENDBRANCH  22  24
BRANCH  23  32
HETATM   32  C   UNL     1      -9.316   9.068  67.055  1.00  0.00    -0.190 A  
HETATM   33  C   UNL     1     -11.256   8.532  69.023  1.00  0.00     0.400 A  
HETATM   34  F   UNL     1     -12.152   8.286  69.986  1.00  0.00     0.140 F  
HETATM   35  C   UNL     1     -10.027  10.115  67.658  1.00  0.00    -0.216 A  
HETATM   36  C   UNL     1     -10.585   7.478  68.423  1.00  0.00    -0.177 A  
HETATM   37  C   UNL     1     -10.991   9.847  68.641  1.00  0.00    -0.222 A  
HETATM   38  C   UNL     1      -9.625   7.743  67.442  1.00  0.00    -0.192 A  
ENDBRANCH  23  32
ENDBRANCH  17  18
ENDBRANCH   2  17
TORSDOF 6
ENDMDL
MODEL      331
REMARK 921   NORMALIZED FREE ENERGY PREDICTED BY IDOCK:   17.89 KCAL/MOL
REMARK 922        TOTAL FREE ENERGY PREDICTED BY IDOCK:   22.03 KCAL/MOL
REMARK 923 INTER-LIGAND FREE ENERGY PREDICTED BY IDOCK:   17.05 KCAL/MOL
REMARK 924 INTRA-LIGAND FREE ENERGY PREDICTED BY IDOCK:    4.98 KCAL/MOL
REMARK 927      BINDING AFFINITY PREDICTED BY RF-SCORE:    0.00 PKD
ROOT
HETATM    1  C   UNL     1      -7.082   7.881  69.843  1.00  0.00    -0.061 C  
HETATM    2  C   UNL     1      -6.323   9.086  69.268  1.00  0.00    -0.042 C  
ENDROOT
BRANCH   2   3
HETATM    3  C   UNL     1      -6.665  10.414  69.966  1.00  0.00    -0.145 A  
HETATM    4  C   UNL     1      -7.384  11.436  69.318  1.00  0.00    -0.042 A  
HETATM    5  C   UNL     1      -6.243  10.648  71.287  1.00  0.00     0.472 A  
HETATM    6  F   UNL     1      -9.674  13.287  68.794  1.00  0.00    -0.195 F  
HETATM    7  F   UNL     1      -8.670  14.851  69.923  1.00  0.00    -0.082 F  
HETATM    8  C   UNL     1      -6.526  11.863  71.945  1.00  0.00     3.806 A  
HETATM    9  C   UNL     1      -6.050  12.124  73.356  1.00  0.00     3.301 C  
HETATM   10  C   UNL     1      -7.247  12.860  71.266  1.00  0.00     5.197 A  
HETATM   11  F   UNL     1      -7.805  14.126  68.066  1.00  0.00    -0.108 F  
HETATM   12  F   UNL     1      -5.385  11.073  73.914  1.00  0.00     0.164 F  
HETATM   13  F   UNL     1      -5.205  13.187  73.433  1.00  0.00    -0.110 F  
HETATM   14  F   UNL     1      -7.078  12.405  74.207  1.00  0.00     3.561 F  
HETATM   15  C   UNL     1      -8.446  13.720  69.196  1.00  0.00     0.395 C  
HETATM   16  C   UNL     1      -7.680  12.657  69.950  1.00  0.00     1.728 A  
ENDBRANCH   2   3
BRANCH   2  17
HETATM   17  O   UNL     1      -6.324   9.112  67.818  1.00  0.00    -0.054 OA 
BRANCH  17  18
HETATM   18  C   UNL     1      -7.559   8.752  67.184  1.00  0.00    -0.088 C  
HETATM   19  C   UNL     1      -7.008   8.314  64.389  1.00  0.00    -0.073 C  
HETATM   20  C   UNL     1      -6.916   9.650  65.118  1.00  0.00    -0.106 C  
HETATM   21  O   UNL     1      -7.889   9.712  66.168  1.00  0.00    -0.100 OA 
HETATM   22  N   UNL     1      -6.770   7.135  65.271  1.00  0.00    -0.047 NA 
HETATM   23  C   UNL     1      -7.629   7.301  66.507  1.00  0.00    -0.092 C  
BRANCH  22  24
HETATM   24  C   UNL     1      -7.176   5.911  64.523  1.00  0.00    -0.063 C  
BRANCH  24  25
HETATM   25  C   UNL     1      -8.534   5.414  64.961  1.00  0.00    -0.150 C  
HETATM   26  N   UNL     1      -8.917   4.148  64.717  1.00  0.00    -0.133 NA 
HETATM   27  N   UNL     1      -9.418   6.133  65.598  1.00  0.00    -0.371 NA 
HETATM   28  O   UNL     1     -10.839   3.008  65.305  1.00  0.00     1.161 OA 
HETATM   29  C   UNL     1     -10.154   4.012  65.269  1.00  0.00    -0.167 C  
HETATM   30  N   UNL     1     -10.459   5.262  65.794  1.00  0.00    -0.023 NA 
HETATM   31  H   UNL     1      -9.351   7.110  65.882  1.00  0.00     0.000 HD 
ENDBRANCH  24  25
ENDBRANCH  22  24
BRANCH  23  32
HETATM   32  C   UNL     1      -7.536   6.125  67.483  1.00  0.00    -0.082 A  
HETATM   33  C   UNL     1      -7.507   3.803  69.076  1.00  0.00    -0.053 A  
HETATM   34  F   UNL     1      -7.490   2.679  69.800  1.00  0.00    -0.043 F  
HETATM   35  C   UNL     1      -6.325   5.495  67.803  1.00  0.00    -0.042 A  
HETATM   36  C   UNL     1      -8.715   4.423  68.797  1.00  0.00    -0.120 A  
HETATM   37  C   UNL     1      -6.312   4.336  68.593  1.00  0.00    -0.036 A  
HETATM   38  C   UNL     1      -8.730   5.578  68.010  1.00  0.00    -0.106 A  
ENDBRANCH  23  32
ENDBRANCH  17  18
ENDBRANCH   2  17
TORSDOF 6
ENDMDL
MODEL      332
REMARK 921   NORMALIZED FREE ENERGY PREDICTED BY IDOCK:   18.15 KCAL/MOL
REMARK 922        TOTAL FREE ENERGY PREDICTED BY IDOCK:   22.39 KCAL/MOL
REMARK 923 INTER-LIGAND FREE ENERGY PREDICTED BY IDOCK:   13.43 KCAL/MOL
REMARK 924 INTRA-LIGAND FREE ENERGY PREDICTED BY IDOCK:    8.96 KCAL/MOL
REMARK 927      BINDING AFFINITY PREDICTED BY RF-SCORE:    0.00 PKD
ROOT
HETATM    1  C   UNL     1      -5.948  15.215  66.629  1.00  0.00     2.041 C  
HETATM    2  C   UNL     1      -7.223  14.491  67.089  1.00  0.00     0.160 C  
ENDROOT
BRANCH   2   3
HETATM    3  C   UNL     1      -7.054  13.745  68.424  1.00  0.00    -0.105 A  
HETATM    4  C   UNL     1      -7.106  14.410  69.664  1.00  0.00    -0.049 A  
HETATM    5  C   UNL     1      -6.824  12.357  68.435  1.00  0.00    -0.080 A  
HETATM    6  F   UNL     1      -8.181  15.134  72.358  1.00  0.00     3.605 F  
HETATM    7  F   UNL     1      -6.811  13.725  73.287  1.00  0.00     1.212 F  
HETATM    8  C   UNL     1      -6.648  11.650  69.642  1.00  0.00    -0.096 A  
HETATM    9  C   UNL     1      -6.375  10.164  69.652  1.00  0.00    -0.057 C  
HETATM   10  C   UNL     1      -6.707  12.348  70.861  1.00  0.00     2.208 A  
HETATM   11  F   UNL     1      -6.037  15.473  72.254  1.00  0.00     0.773 F  
HETATM   12  F   UNL     1      -6.368   9.599  68.412  1.00  0.00    -0.050 F  
HETATM   13  F   UNL     1      -5.173   9.858  70.211  1.00  0.00    -0.033 F  
HETATM   14  F   UNL     1      -7.305   9.469  70.368  1.00  0.00    -0.078 F  
HETATM   15  C   UNL     1      -6.987  14.502  72.182  1.00  0.00     2.645 C  
HETATM   16  C   UNL     1      -6.933  13.730  70.882  1.00  0.00     1.503 A  
ENDBRANCH   2   3
BRANCH   2  17
HETATM   17  O   UNL     1      -7.864  13.748  66.022  1.00  0.00     1.688 OA 
BRANCH  17  18
HETATM   18  C   UNL     1      -9.268  13.503  66.182  1.00  0.00     0.029 C  
HETATM   19  C   UNL     1      -9.577  11.538  68.268  1.00  0.00    -0.189 C  
HETATM   20  C   UNL     1      -8.938  11.300  66.905  1.00  0.00    -0.162 C  
HETATM   21  O   UNL     1      -9.562  12.124  65.912  1.00  0.00    -0.239 OA 
HETATM   22  N   UNL     1      -9.463  12.948  68.742  1.00  0.00     0.027 NA 
HETATM   23  C   UNL     1      -9.905  13.853  67.611  1.00  0.00    -0.236 C  
BRANCH  22  24
HETATM   24  C   UNL     1     -10.366  13.114  69.916  1.00  0.00     1.393 C  
BRANCH  24  25
HETATM   25  C   UNL     1     -11.106  11.835  70.235  1.00  0.00     0.602 C  
HETATM   26  N   UNL     1     -10.595  10.638  69.894  1.00  0.00    -0.207 NA 
HETATM   27  N   UNL     1     -12.255  11.775  70.852  1.00  0.00    -0.362 NA 
HETATM   28  O   UNL     1     -11.364   8.496  70.288  1.00  0.00    -0.232 OA 
HETATM   29  C   UNL     1     -11.471   9.705  70.355  1.00  0.00    -0.263 C  
HETATM   30  N   UNL     1     -12.508  10.430  70.930  1.00  0.00    -0.349 NA 
HETATM   31  H   UNL     1     -12.828  12.546  71.196  1.00  0.00     0.000 HD 
ENDBRANCH  24  25
ENDBRANCH  22  24
BRANCH  23  32
HETATM   32  C   UNL     1      -9.901  15.341  67.976  1.00  0.00    -0.216 A  
HETATM   33  C   UNL     1      -9.618  18.082  68.550  1.00  0.00    -0.336 A  
HETATM   34  F   UNL     1      -9.460  19.388  68.791  1.00  0.00    -0.385 F  
HETATM   35  C   UNL     1     -10.663  16.295  67.287  1.00  0.00    -0.265 A  
HETATM   36  C   UNL     1      -8.873  17.156  69.263  1.00  0.00     0.144 A  
HETATM   37  C   UNL     1     -10.518  17.661  67.571  1.00  0.00    -0.365 A  
HETATM   38  C   UNL     1      -9.017  15.794  68.982  1.00  0.00    -0.246 A  
ENDBRANCH  23  32
ENDBRANCH  17  18
ENDBRANCH   2  17
TORSDOF 6
ENDMDL
MODEL      333
REMARK 921   NORMALIZED FREE ENERGY PREDICTED BY IDOCK:   20.73 KCAL/MOL
REMARK 922        TOTAL FREE ENERGY PREDICTED BY IDOCK:   25.86 KCAL/MOL
REMARK 923 INTER-LIGAND FREE ENERGY PREDICTED BY IDOCK:   11.89 KCAL/MOL
REMARK 924 INTRA-LIGAND FREE ENERGY PREDICTED BY IDOCK:   13.97 KCAL/MOL
REMARK 927      BINDING AFFINITY PREDICTED BY RF-SCORE:    0.00 PKD
ROOT
HETATM    1  C   UNL     1     -12.479  16.064  69.030  1.00  0.00     0.558 C  
HETATM    2  C   UNL     1     -11.274  16.149  68.082  1.00  0.00    -0.311 C  
ENDROOT
BRANCH   2   3
HETATM    3  C   UNL     1     -10.068  16.885  68.690  1.00  0.00    -0.291 A  
HETATM    4  C   UNL     1      -9.793  18.235  68.401  1.00  0.00    -0.386 A  
HETATM    5  C   UNL     1      -9.186  16.208  69.552  1.00  0.00    -0.063 A  
HETATM    6  F   UNL     1      -9.467  21.158  68.944  1.00  0.00     0.749 F  
HETATM    7  F   UNL     1      -7.324  20.877  69.179  1.00  0.00     0.292 F  
HETATM    8  C   UNL     1      -8.062  16.852  70.108  1.00  0.00     2.126 A  
HETATM    9  C   UNL     1      -7.102  16.116  71.014  1.00  0.00     2.807 C  
HETATM   10  C   UNL     1      -7.820  18.201  69.798  1.00  0.00     0.974 A  
HETATM   11  F   UNL     1      -8.259  20.537  67.247  1.00  0.00    -0.349 F  
HETATM   12  F   UNL     1      -7.459  14.824  71.260  1.00  0.00     0.787 F  
HETATM   13  F   UNL     1      -5.841  16.068  70.506  1.00  0.00    -0.169 F  
HETATM   14  F   UNL     1      -6.986  16.707  72.238  1.00  0.00     4.729 F  
HETATM   15  C   UNL     1      -8.430  20.350  68.584  1.00  0.00     0.468 C  
HETATM   16  C   UNL     1      -8.679  18.902  68.942  1.00  0.00    -0.262 A  
ENDBRANCH   2   3
BRANCH   2  17
HETATM   17  O   UNL     1     -11.644  16.540  66.735  1.00  0.00     0.557 OA 
BRANCH  17  18
HETATM   18  C   UNL     1     -10.619  16.415  65.740  1.00  0.00    -0.315 C  
HETATM   19  C   UNL     1      -8.304  15.267  67.016  1.00  0.00    -0.234 C  
HETATM   20  C   UNL     1      -8.888  16.645  67.302  1.00  0.00    -0.192 C  
HETATM   21  O   UNL     1      -9.472  17.194  66.114  1.00  0.00    -0.378 OA 
HETATM   22  N   UNL     1      -9.311  14.279  66.533  1.00  0.00    -0.282 NA 
HETATM   23  C   UNL     1     -10.101  14.932  65.418  1.00  0.00    -0.367 C  
BRANCH  22  24
HETATM   24  C   UNL     1      -8.579  13.089  66.016  1.00  0.00     0.804 C  
BRANCH  24  25
HETATM   25  C   UNL     1      -8.909  11.844  66.807  1.00  0.00    -0.193 C  
HETATM   26  N   UNL     1      -9.296  10.715  66.186  1.00  0.00    -0.171 NA 
HETATM   27  N   UNL     1      -8.842  11.750  68.107  1.00  0.00    -0.164 NA 
HETATM   28  O   UNL     1      -9.783   8.618  67.025  1.00  0.00    -0.168 OA 
HETATM   29  C   UNL     1      -9.471   9.785  67.164  1.00  0.00    -0.154 C  
HETATM   30  N   UNL     1      -9.205  10.451  68.354  1.00  0.00    -0.141 NA 
HETATM   31  H   UNL     1      -8.581  12.471  68.779  1.00  0.00     0.000 HD 
ENDBRANCH  24  25
ENDBRANCH  22  24
BRANCH  23  32
HETATM   32  C   UNL     1     -11.140  14.008  64.777  1.00  0.00    -0.391 A  
HETATM   33  C   UNL     1     -13.205  12.337  63.844  1.00  0.00     0.143 A  
HETATM   34  F   UNL     1     -14.213  11.566  63.421  1.00  0.00     0.814 F  
HETATM   35  C   UNL     1     -11.926  14.390  63.680  1.00  0.00     0.202 A  
HETATM   36  C   UNL     1     -12.425  11.924  64.913  1.00  0.00     0.183 A  
HETATM   37  C   UNL     1     -12.957  13.559  63.219  1.00  0.00     1.020 A  
HETATM   38  C   UNL     1     -11.396  12.751  65.373  1.00  0.00    -0.339 A  
ENDBRANCH  23  32
ENDBRANCH  17  18
ENDBRANCH   2  17
TORSDOF 6
ENDMDL
MODEL      334
REMARK 921   NORMALIZED FREE ENERGY PREDICTED BY IDOCK:   24.41 KCAL/MOL
REMARK 922        TOTAL FREE ENERGY PREDICTED BY IDOCK:   30.83 KCAL/MOL
REMARK 923 INTER-LIGAND FREE ENERGY PREDICTED BY IDOCK:   15.47 KCAL/MOL
REMARK 924 INTRA-LIGAND FREE ENERGY PREDICTED BY IDOCK:   15.37 KCAL/MOL
REMARK 927      BINDING AFFINITY PREDICTED BY RF-SCORE:    0.00 PKD
ROOT
HETATM    1  C   UNL     1      -7.485  13.549  69.053  1.00  0.00     0.046 C  
HETATM    2  C   UNL     1      -7.592  12.381  70.045  1.00  0.00     1.888 C  
ENDROOT
BRANCH   2   3
HETATM    3  C   UNL     1      -8.688  11.366  69.678  1.00  0.00     0.988 A  
HETATM    4  C   UNL     1      -8.788  10.806  68.390  1.00  0.00    -0.146 A  
HETATM    5  C   UNL     1      -9.644  10.979  70.635  1.00  0.00     3.072 A  
HETATM    6  F   UNL     1      -8.728   8.663  66.306  1.00  0.00    -0.118 F  
HETATM    7  F   UNL     1     -10.888   8.458  66.450  1.00  0.00    -0.213 F  
HETATM    8  C   UNL     1     -10.671  10.065  70.321  1.00  0.00    -0.367 A  
HETATM    9  C   UNL     1     -11.712   9.669  71.343  1.00  0.00    -0.404 C  
HETATM   10  C   UNL     1     -10.738   9.526  69.025  1.00  0.00    -0.224 A  
HETATM   11  F   UNL     1     -10.019  10.305  65.703  1.00  0.00    -0.271 F  
HETATM   12  F   UNL     1     -11.524  10.238  72.567  1.00  0.00     0.988 F  
HETATM   13  F   UNL     1     -12.972  10.009  70.960  1.00  0.00    -0.379 F  
HETATM   14  F   UNL     1     -11.741   8.324  71.561  1.00  0.00    -0.277 F  
HETATM   15  C   UNL     1      -9.863   9.335  66.646  1.00  0.00    -0.245 C  
HETATM   16  C   UNL     1      -9.802   9.892  68.050  1.00  0.00    -0.170 A  
ENDBRANCH   2   3
BRANCH   2  17
HETATM   17  O   UNL     1      -7.564  12.814  71.428  1.00  0.00     5.817 OA 
BRANCH  17  18
HETATM   18  C   UNL     1      -7.701  14.224  71.649  1.00  0.00     4.624 C  
HETATM   19  C   UNL     1      -5.128  15.434  71.171  1.00  0.00    -0.152 C  
HETATM   20  C   UNL     1      -5.466  14.474  72.306  1.00  0.00    -0.050 C  
HETATM   21  O   UNL     1      -6.830  14.643  72.711  1.00  0.00     1.327 OA 
HETATM   22  N   UNL     1      -5.969  15.238  69.955  1.00  0.00    -0.134 NA 
HETATM   23  C   UNL     1      -7.416  15.183  70.397  1.00  0.00     0.587 C  
BRANCH  22  24
HETATM   24  C   UNL     1      -5.751  16.404  69.052  1.00  0.00    -0.130 C  
BRANCH  24  25
HETATM   25  C   UNL     1      -6.925  17.355  69.075  1.00  0.00    -0.238 C  
HETATM   26  N   UNL     1      -7.610  17.632  67.951  1.00  0.00    -0.205 NA 
HETATM   27  N   UNL     1      -7.370  17.960  70.142  1.00  0.00     1.257 NA 
HETATM   28  O   UNL     1      -9.489  18.933  67.606  1.00  0.00    -0.294 OA 
HETATM   29  C   UNL     1      -8.616  18.473  68.317  1.00  0.00    -0.318 C  
HETATM   30  N   UNL     1      -8.439  18.684  69.679  1.00  0.00     0.603 NA 
HETATM   31  H   UNL     1      -7.009  17.908  71.095  1.00  0.00     0.000 HD 
ENDBRANCH  24  25
ENDBRANCH  22  24
BRANCH  23  32
HETATM   32  C   UNL     1      -8.409  15.048  69.238  1.00  0.00    -0.169 A  
HETATM   33  C   UNL     1     -10.360  15.045  67.208  1.00  0.00    -0.249 A  
HETATM   34  F   UNL     1     -11.286  15.083  66.244  1.00  0.00    -0.335 F  
HETATM   35  C   UNL     1      -8.042  15.228  67.897  1.00  0.00    -0.146 A  
HETATM   36  C   UNL     1     -10.745  14.837  68.524  1.00  0.00    -0.247 A  
HETATM   37  C   UNL     1      -9.016  15.231  66.887  1.00  0.00    -0.274 A  
HETATM   38  C   UNL     1      -9.776  14.834  69.532  1.00  0.00     0.028 A  
ENDBRANCH  23  32
ENDBRANCH  17  18
ENDBRANCH   2  17
TORSDOF 6
ENDMDL
MODEL      335
REMARK 921   NORMALIZED FREE ENERGY PREDICTED BY IDOCK:   28.00 KCAL/MOL
REMARK 922        TOTAL FREE ENERGY PREDICTED BY IDOCK:   35.68 KCAL/MOL
REMARK 923 INTER-LIGAND FREE ENERGY PREDICTED BY IDOCK:   28.05 KCAL/MOL
REMARK 924 INTRA-LIGAND FREE ENERGY PREDICTED BY IDOCK:    7.63 KCAL/MOL
REMARK 927      BINDING AFFINITY PREDICTED BY RF-SCORE:    0.00 PKD
ROOT
HETATM    1  C   UNL     1      -8.620  18.720  66.654  1.00  0.00    -0.306 C  
HETATM    2  C   UNL     1      -8.569  17.345  67.335  1.00  0.00    -0.214 C  
ENDROOT
BRANCH   2   3
HETATM    3  C   UNL     1      -9.802  17.046  68.204  1.00  0.00    -0.273 A  
HETATM    4  C   UNL     1      -9.895  17.475  69.542  1.00  0.00     0.193 A  
HETATM    5  C   UNL     1     -10.879  16.309  67.677  1.00  0.00    -0.293 A  
HETATM    6  F   UNL     1     -10.957  19.019  71.872  1.00  0.00     1.381 F  
HETATM    7  F   UNL     1     -12.192  17.321  72.437  1.00  0.00     0.368 F  
HETATM    8  C   UNL     1     -12.013  16.005  68.456  1.00  0.00     0.029 A  
HETATM    9  C   UNL     1     -13.158  15.192  67.897  1.00  0.00     2.931 C  
HETATM   10  C   UNL     1     -12.071  16.450  69.788  1.00  0.00     0.485 A  
HETATM   11  F   UNL     1     -10.026  17.165  72.520  1.00  0.00     4.985 F  
HETATM   12  F   UNL     1     -12.995  14.841  66.590  1.00  0.00     0.083 F  
HETATM   13  F   UNL     1     -13.352  14.029  68.576  1.00  0.00     1.389 F  
HETATM   14  F   UNL     1     -14.346  15.858  67.956  1.00  0.00     6.408 F  
HETATM   15  C   UNL     1     -11.051  17.663  71.776  1.00  0.00     2.257 C  
HETATM   16  C   UNL     1     -11.015  17.185  70.341  1.00  0.00     0.684 A  
ENDBRANCH   2   3
BRANCH   2  17
HETATM   17  O   UNL     1      -7.281  17.064  67.940  1.00  0.00    -0.149 OA 
BRANCH  17  18
HETATM   18  C   UNL     1      -6.921  15.679  68.037  1.00  0.00    -0.129 C  
HETATM   19  C   UNL     1      -7.846  14.714  70.590  1.00  0.00     1.623 C  
HETATM   20  C   UNL     1      -6.747  15.748  70.372  1.00  0.00     0.411 C  
HETATM   21  O   UNL     1      -6.042  15.475  69.154  1.00  0.00    -0.104 OA 
HETATM   22  N   UNL     1      -8.862  14.683  69.499  1.00  0.00     0.123 NA 
HETATM   23  C   UNL     1      -8.121  14.627  68.179  1.00  0.00    -0.137 C  
BRANCH  22  24
HETATM   24  C   UNL     1      -9.691  13.457  69.676  1.00  0.00     1.388 C  
BRANCH  24  25
HETATM   25  C   UNL     1     -10.791  13.670  70.690  1.00  0.00     1.673 C  
HETATM   26  N   UNL     1     -12.071  13.387  70.389  1.00  0.00    -0.349 NA 
HETATM   27  N   UNL     1     -10.608  14.118  71.903  1.00  0.00     2.676 NA 
HETATM   28  O   UNL     1     -13.987  13.484  71.678  1.00  0.00    -0.230 OA 
HETATM   29  C   UNL     1     -12.792  13.645  71.514  1.00  0.00    -0.359 C  
HETATM   30  N   UNL     1     -11.870  14.118  72.439  1.00  0.00     0.436 NA 
HETATM   31  H   UNL     1      -9.733  14.400  72.346  1.00  0.00     0.000 HD 
ENDBRANCH  24  25
ENDBRANCH  22  24
BRANCH  23  32
HETATM   32  C   UNL     1      -9.043  14.526  66.960  1.00  0.00    -0.254 A  
HETATM   33  C   UNL     1     -10.500  14.266  64.565  1.00  0.00    -0.143 A  
HETATM   34  F   UNL     1     -11.168  14.112  63.416  1.00  0.00     0.369 F  
HETATM   35  C   UNL     1     -10.022  13.531  66.826  1.00  0.00    -0.269 A  
HETATM   36  C   UNL     1      -9.557  15.275  64.682  1.00  0.00     1.574 A  
HETATM   37  C   UNL     1     -10.744  13.400  65.630  1.00  0.00    -0.283 A  
HETATM   38  C   UNL     1      -8.837  15.408  65.873  1.00  0.00     0.075 A  
ENDBRANCH  23  32
ENDBRANCH  17  18
ENDBRANCH   2  17
TORSDOF 6
ENDMDL
MODEL      336
REMARK 921   NORMALIZED FREE ENERGY PREDICTED BY IDOCK:   42.13 KCAL/MOL
REMARK 922        TOTAL FREE ENERGY PREDICTED BY IDOCK:   54.78 KCAL/MOL
REMARK 923 INTER-LIGAND FREE ENERGY PREDICTED BY IDOCK:   55.82 KCAL/MOL
REMARK 924 INTRA-LIGAND FREE ENERGY PREDICTED BY IDOCK:   -1.05 KCAL/MOL
REMARK 927      BINDING AFFINITY PREDICTED BY RF-SCORE:    0.00 PKD
ROOT
HETATM    1  C   UNL     1      -8.002  14.087  67.144  1.00  0.00    -0.083 C  
HETATM    2  C   UNL     1      -9.432  13.602  67.422  1.00  0.00    -0.225 C  
ENDROOT
BRANCH   2   3
HETATM    3  C   UNL     1     -10.514  14.486  66.778  1.00  0.00    -0.270 A  
HETATM    4  C   UNL     1     -11.249  15.429  67.521  1.00  0.00    -0.302 A  
HETATM    5  C   UNL     1     -10.812  14.356  65.409  1.00  0.00    -0.351 A  
HETATM    6  F   UNL     1     -12.196  18.137  68.364  1.00  0.00     1.950 F  
HETATM    7  F   UNL     1     -13.951  17.920  67.099  1.00  0.00     7.092 F  
HETATM    8  C   UNL     1     -11.811  15.140  64.796  1.00  0.00    -0.291 A  
HETATM    9  C   UNL     1     -12.147  14.982  63.331  1.00  0.00     1.192 C  
HETATM   10  C   UNL     1     -12.523  16.072  65.570  1.00  0.00     1.967 A  
HETATM   11  F   UNL     1     -13.680  16.613  68.814  1.00  0.00     2.884 F  
HETATM   12  F   UNL     1     -11.371  14.067  62.685  1.00  0.00     1.452 F  
HETATM   13  F   UNL     1     -13.434  14.592  63.131  1.00  0.00     1.753 F  
HETATM   14  F   UNL     1     -12.000  16.146  62.636  1.00  0.00     3.329 F  
HETATM   15  C   UNL     1     -13.013  17.211  67.789  1.00  0.00     5.406 C  
HETATM   16  C   UNL     1     -12.250  16.224  66.935  1.00  0.00     1.976 A  
ENDBRANCH   2   3
BRANCH   2  17
HETATM   17  O   UNL     1      -9.646  13.248  68.812  1.00  0.00    -0.089 OA 
BRANCH  17  18
HETATM   18  C   UNL     1      -8.522  12.676  69.495  1.00  0.00     1.521 C  
HETATM   19  C   UNL     1      -9.545  11.015  71.617  1.00  0.00     8.687 C  
HETATM   20  C   UNL     1      -9.663  12.533  71.536  1.00  0.00    13.784 C  
HETATM   21  O   UNL     1      -8.520  13.086  70.871  1.00  0.00     6.332 OA 
HETATM   22  N   UNL     1      -9.455  10.351  70.285  1.00  0.00     0.339 NA 
HETATM   23  C   UNL     1      -8.401  11.078  69.476  1.00  0.00     0.282 C  
BRANCH  22  24
HETATM   24  C   UNL     1      -9.050   8.934  70.503  1.00  0.00    -0.200 C  
BRANCH  24  25
HETATM   25  C   UNL     1     -10.180   8.114  71.084  1.00  0.00    -0.195 C  
HETATM   26  N   UNL     1      -9.929   7.063  71.884  1.00  0.00    -0.168 NA 
HETATM   27  N   UNL     1     -11.448   8.347  70.880  1.00  0.00    -0.269 NA 
HETATM   28  O   UNL     1     -11.361   5.651  73.023  1.00  0.00    -0.280 OA 
HETATM   29  C   UNL     1     -11.141   6.577  72.266  1.00  0.00    -0.263 C  
HETATM   30  N   UNL     1     -12.076   7.374  71.615  1.00  0.00    -0.302 NA 
HETATM   31  H   UNL     1     -11.872   9.079  70.309  1.00  0.00     0.000 HD 
ENDBRANCH  24  25
ENDBRANCH  22  24
BRANCH  23  32
HETATM   32  C   UNL     1      -8.152  10.462  68.095  1.00  0.00    -0.111 A  
HETATM   33  C   UNL     1      -7.722   9.603  65.449  1.00  0.00    -0.117 A  
HETATM   34  F   UNL     1      -7.500   9.228  64.185  1.00  0.00    -0.102 F  
HETATM   35  C   UNL     1      -6.914   9.928  67.712  1.00  0.00    -0.085 A  
HETATM   36  C   UNL     1      -8.964  10.102  65.810  1.00  0.00    -0.187 A  
HETATM   37  C   UNL     1      -6.700   9.504  66.392  1.00  0.00    -0.075 A  
HETATM   38  C   UNL     1      -9.180  10.525  67.125  1.00  0.00    -0.158 A  
ENDBRANCH  23  32
ENDBRANCH  17  18
ENDBRANCH   2  17
TORSDOF 6
ENDMDL
MODEL      337
REMARK 921   NORMALIZED FREE ENERGY PREDICTED BY IDOCK:   74.86 KCAL/MOL
REMARK 922        TOTAL FREE ENERGY PREDICTED BY IDOCK:   98.99 KCAL/MOL
REMARK 923 INTER-LIGAND FREE ENERGY PREDICTED BY IDOCK:   32.73 KCAL/MOL
REMARK 924 INTRA-LIGAND FREE ENERGY PREDICTED BY IDOCK:   66.25 KCAL/MOL
REMARK 927      BINDING AFFINITY PREDICTED BY RF-SCORE:    0.00 PKD
ROOT
HETATM    1  C   UNL     1     -12.431  19.390  67.467  1.00  0.00     4.135 C  
HETATM    2  C   UNL     1     -12.455  17.858  67.571  1.00  0.00     4.655 C  
ENDROOT
BRANCH   2   3
HETATM    3  C   UNL     1     -11.200  17.270  68.239  1.00  0.00     0.098 A  
HETATM    4  C   UNL     1     -10.057  18.050  68.499  1.00  0.00    -0.399 A  
HETATM    5  C   UNL     1     -11.159  15.910  68.596  1.00  0.00    -0.337 A  
HETATM    6  F   UNL     1      -7.993  19.446  70.153  1.00  0.00     0.252 F  
HETATM    7  F   UNL     1      -6.656  17.748  69.921  1.00  0.00    -0.203 F  
HETATM    8  C   UNL     1     -10.016  15.341  69.193  1.00  0.00    -0.238 A  
HETATM    9  C   UNL     1      -9.964  13.874  69.553  1.00  0.00     0.557 C  
HETATM   10  C   UNL     1      -8.894  16.151  69.438  1.00  0.00    -0.111 A  
HETATM   11  F   UNL     1      -7.211  18.937  68.189  1.00  0.00    -0.242 F  
HETATM   12  F   UNL     1     -11.120  13.202  69.290  1.00  0.00    -0.271 F  
HETATM   13  F   UNL     1      -8.982  13.208  68.886  1.00  0.00    -0.057 F  
HETATM   14  F   UNL     1      -9.713  13.673  70.878  1.00  0.00     3.272 F  
HETATM   15  C   UNL     1      -7.703  18.394  69.336  1.00  0.00     0.220 C  
HETATM   16  C   UNL     1      -8.904  17.508  69.093  1.00  0.00     0.095 A  
ENDBRANCH   2   3
BRANCH   2  17
HETATM   17  O   UNL     1     -12.879  17.217  66.341  1.00  0.00     6.085 OA 
BRANCH  17  18
HETATM   18  C   UNL     1     -13.043  15.794  66.398  1.00  0.00     3.686 C  
HETATM   19  C   UNL     1     -10.663  14.598  65.296  1.00  0.00    -0.381 C  
HETATM   20  C   UNL     1     -11.685  15.427  64.525  1.00  0.00    -0.277 C  
HETATM   21  O   UNL     1     -12.995  15.239  65.075  1.00  0.00     0.258 OA 
HETATM   22  N   UNL     1     -10.581  14.948  66.744  1.00  0.00    -0.298 NA 
HETATM   23  C   UNL     1     -11.992  14.980  67.293  1.00  0.00    -0.025 C  
BRANCH  22  24
HETATM   24  C   UNL     1      -9.786  13.889  67.429  1.00  0.00    -0.234 C  
BRANCH  24  25
HETATM   25  C   UNL     1      -8.494  13.602  66.698  1.00  0.00     0.164 C  
HETATM   26  N   UNL     1      -7.311  13.677  67.334  1.00  0.00    -0.154 NA 
HETATM   27  N   UNL     1      -8.411  13.260  65.441  1.00  0.00     1.598 NA 
HETATM   28  O   UNL     1      -5.167  13.223  66.601  1.00  0.00     0.537 OA 
HETATM   29  C   UNL     1      -6.366  13.323  66.421  1.00  0.00     3.077 C  
HETATM   30  N   UNL     1      -7.065  13.087  65.244  1.00  0.00     6.197 NA 
HETATM   31  H   UNL     1      -9.168  13.147  64.766  1.00  0.00     0.000 HD 
ENDBRANCH  24  25
ENDBRANCH  22  24
BRANCH  23  32
HETATM   32  C   UNL     1     -12.061  15.266  68.796  1.00  0.00    -0.195 A  
HETATM   33  C   UNL     1     -12.401  15.592  71.571  1.00  0.00    -0.401 A  
HETATM   34  F   UNL     1     -12.571  15.708  72.893  1.00  0.00    -0.386 F  
HETATM   35  C   UNL     1     -11.036  14.913  69.686  1.00  0.00    -0.298 A  
HETATM   36  C   UNL     1     -13.419  15.973  70.711  1.00  0.00     1.083 A  
HETATM   37  C   UNL     1     -11.209  15.072  71.069  1.00  0.00    -0.268 A  
HETATM   38  C   UNL     1     -13.248  15.816  69.332  1.00  0.00     1.539 A  
ENDBRANCH  23  32
ENDBRANCH  17  18
ENDBRANCH   2  17
TORSDOF 6
ENDMDL
MODEL      338
REMARK 921   NORMALIZED FREE ENERGY PREDICTED BY IDOCK:   79.24 KCAL/MOL
REMARK 922        TOTAL FREE ENERGY PREDICTED BY IDOCK:  104.91 KCAL/MOL
REMARK 923 INTER-LIGAND FREE ENERGY PREDICTED BY IDOCK:  104.76 KCAL/MOL
REMARK 924 INTRA-LIGAND FREE ENERGY PREDICTED BY IDOCK:    0.15 KCAL/MOL
REMARK 927      BINDING AFFINITY PREDICTED BY RF-SCORE:    0.00 PKD
ROOT
HETATM    1  C   UNL     1     -11.348  11.056  70.627  1.00  0.00     0.025 C  
HETATM    2  C   UNL     1     -11.987  10.561  69.321  1.00  0.00    -0.122 C  
ENDROOT
BRANCH   2   3
HETATM    3  C   UNL     1     -11.451   9.196  68.857  1.00  0.00     0.523 A  
HETATM    4  C   UNL     1     -12.268   8.256  68.200  1.00  0.00     4.698 A  
HETATM    5  C   UNL     1     -10.111   8.841  69.099  1.00  0.00    -0.203 A  
HETATM    6  F   UNL     1     -13.229   6.538  65.949  1.00  0.00     5.122 F  
HETATM    7  F   UNL     1     -12.117   4.854  66.756  1.00  0.00     2.835 F  
HETATM    8  C   UNL     1      -9.598   7.590  68.701  1.00  0.00    -0.151 A  
HETATM    9  C   UNL     1      -8.165   7.200  68.983  1.00  0.00    -0.125 C  
HETATM   10  C   UNL     1     -10.444   6.678  68.047  1.00  0.00    -0.261 A  
HETATM   11  F   UNL     1     -13.783   5.690  67.873  1.00  0.00    13.090 F  
HETATM   12  F   UNL     1      -7.442   8.178  69.599  1.00  0.00    -0.076 F  
HETATM   13  F   UNL     1      -8.071   6.104  69.783  1.00  0.00    -0.108 F  
HETATM   14  F   UNL     1      -7.477   6.891  67.848  1.00  0.00    -0.088 F  
HETATM   15  C   UNL     1     -12.713   6.029  67.103  1.00  0.00     8.873 C  
HETATM   16  C   UNL     1     -11.783   7.000  67.793  1.00  0.00     1.078 A  
ENDBRANCH   2   3
BRANCH   2  17
HETATM   17  O   UNL     1     -12.062  11.592  68.305  1.00  0.00    -0.552 OA 
BRANCH  17  18
HETATM   18  C   UNL     1     -12.167  11.134  66.950  1.00  0.00     1.914 C  
HETATM   19  C   UNL     1     -12.706  13.429  65.293  1.00  0.00    -0.422 C  
HETATM   20  C   UNL     1     -13.645  12.846  66.342  1.00  0.00     4.813 C  
HETATM   21  O   UNL     1     -13.473  11.426  66.430  1.00  0.00     6.778 OA 
HETATM   22  N   UNL     1     -11.263  13.185  65.581  1.00  0.00    -0.281 NA 
HETATM   23  C   UNL     1     -11.099  11.715  65.906  1.00  0.00    -0.264 C  
BRANCH  22  24
HETATM   24  C   UNL     1     -10.484  13.532  64.359  1.00  0.00    -0.346 C  
BRANCH  24  25
HETATM   25  C   UNL     1      -9.039  13.833  64.685  1.00  0.00     2.592 C  
HETATM   26  N   UNL     1      -8.098  13.823  63.724  1.00  0.00    10.428 NA 
HETATM   27  N   UNL     1      -8.592  14.128  65.876  1.00  0.00     0.328 NA 
HETATM   28  O   UNL     1      -5.843  14.318  63.809  1.00  0.00    19.355 OA 
HETATM   29  C   UNL     1      -6.931  14.172  64.331  1.00  0.00    20.491 C  
HETATM   30  N   UNL     1      -7.252  14.337  65.673  1.00  0.00     5.826 NA 
HETATM   31  H   UNL     1      -9.115  14.188  66.750  1.00  0.00     0.000 HD 
ENDBRANCH  24  25
ENDBRANCH  22  24
BRANCH  23  32
HETATM   32  C   UNL     1      -9.647  11.300  66.164  1.00  0.00    -0.241 A  
HETATM   33  C   UNL     1      -7.064  10.466  66.910  1.00  0.00    -0.094 A  
HETATM   34  F   UNL     1      -5.853  10.041  67.287  1.00  0.00    -0.048 F  
HETATM   35  C   UNL     1      -9.053  10.187  65.551  1.00  0.00    -0.216 A  
HETATM   36  C   UNL     1      -7.618  11.585  67.511  1.00  0.00    -0.121 A  
HETATM   37  C   UNL     1      -7.768   9.770  65.927  1.00  0.00    -0.105 A  
HETATM   38  C   UNL     1      -8.900  12.003  67.137  1.00  0.00    -0.188 A  
ENDBRANCH  23  32
ENDBRANCH  17  18
ENDBRANCH   2  17
TORSDOF 6
ENDMDL
